# generated using pymatgen
data_CoH8C12(NO2)2
_symmetry_space_group_name_H-M   'P 1'
_cell_length_a   9.80640000
_cell_length_b   10.66850000
_cell_length_c   13.97120000
_cell_angle_alpha   95.30240000
_cell_angle_beta   110.54600000
_cell_angle_gamma   74.73290000
_symmetry_Int_Tables_number   1
_chemical_formula_structural   CoH8C12(NO2)2
_chemical_formula_sum   'Co4 H32 C48 N8 O16'
_cell_volume   1320.38325570
_cell_formula_units_Z   4
loop_
 _symmetry_equiv_pos_site_id
 _symmetry_equiv_pos_as_xyz
  1  'x, y, z'
loop_
 _atom_site_type_symbol
 _atom_site_label
 _atom_site_symmetry_multiplicity
 _atom_site_fract_x
 _atom_site_fract_y
 _atom_site_fract_z
 _atom_site_occupancy
 _atom_site_charge
  Co  Co1  1  0.622430  0.880120  0.248820  1.0  1.0162
  Co  Co2  1  0.874880  0.383950  0.747920  1.0  1.0237
  Co  Co3  1  0.373610  0.380120  0.751180  1.0  1.016
  Co  Co4  1  0.126960  0.883950  0.252080  1.0  1.0238
  H  H5  1  0.833000  0.767300  0.125800  1.0  0.0775
  H  H6  1  0.842800  0.639800  0.983400  1.0  0.1086
  H  H7  1  0.418000  0.614600  0.935600  1.0  0.1088
  H  H8  1  0.423100  0.742000  0.080800  1.0  0.0706
  H  H9  1  0.904700  0.490700  0.562200  1.0  0.0751
  H  H10  1  0.761600  0.611900  0.415200  1.0  0.1184
  H  H11  1  0.390700  0.636900  0.489400  1.0  0.1094
  H  H12  1  0.545300  0.511000  0.633600  1.0  0.0691
  H  H13  1  0.506200  0.166900  0.308400  1.0  0.092
  H  H14  1  0.504800  0.296300  0.451200  1.0  0.1155
  H  H15  1  0.743500  0.982700  0.629600  1.0  0.1303
  H  H16  1  0.728900  0.858100  0.484600  1.0  0.076
  H  H17  1  0.978900  0.406500  0.986200  1.0  0.0739
  H  H18  1  0.113300  0.282200  0.132600  1.0  0.1325
  H  H19  1  0.224000  0.980200  0.952600  1.0  0.1253
  H  H20  1  0.067600  0.107400  0.811200  1.0  0.0837
  H  H21  1  0.707200  0.267300  0.874200  1.0  0.0768
  H  H22  1  0.859400  0.139800  0.016600  1.0  0.1095
  H  H23  1  0.482400  0.114600  0.064400  1.0  0.1094
  H  H24  1  0.342300  0.242000  0.919200  1.0  0.0708
  H  H25  1  0.342500  0.990700  0.437800  1.0  0.0751
  H  H26  1  0.346400  0.111900  0.584800  1.0  0.118
  H  H27  1  0.901300  0.136900  0.510600  1.0  0.109
  H  H28  1  0.911700  0.011000  0.366400  1.0  0.0695
  H  H29  1  0.197800  0.666900  0.691600  1.0  0.0918
  H  H30  1  0.053600  0.796300  0.548800  1.0  0.1147
  H  H31  1  0.113900  0.482700  0.370400  1.0  0.1304
  H  H32  1  0.244300  0.358100  0.515400  1.0  0.0761
  H  H33  1  0.992700  0.906500  0.013800  1.0  0.0743
  H  H34  1  0.980700  0.782200  0.867400  1.0  0.1335
  H  H35  1  0.271400  0.480200  0.047400  1.0  0.1262
  H  H36  1  0.256400  0.607400  0.188800  1.0  0.0836
  C  C37  1  0.748180  0.735300  0.086960  1.0  0.1646
  C  C38  1  0.754610  0.660200  0.001420  1.0  -0.1467
  C  C39  1  0.629450  0.615200  0.942300  1.0  -0.0464
  C  C40  1  0.504610  0.645100  0.973220  1.0  -0.1418
  C  C41  1  0.509190  0.720600  0.060380  1.0  0.1671
  C  C42  1  0.631800  0.533500  0.847800  1.0  0.6601
  C  C43  1  0.799310  0.521000  0.547220  1.0  0.1624
  C  C44  1  0.714860  0.594000  0.459720  1.0  -0.156
  C  C45  1  0.562350  0.640400  0.437900  1.0  -0.0617
  C  C46  1  0.496140  0.608300  0.503280  1.0  -0.1355
  C  C47  1  0.589390  0.533400  0.588980  1.0  0.1642
  C  C48  1  0.465200  0.726100  0.346000  1.0  0.6721
  C  C49  1  0.553250  0.128500  0.374300  1.0  0.1683
  C  C50  1  0.552710  0.206200  0.459220  1.0  -0.1628
  C  C51  1  0.622390  0.151900  0.556180  1.0  0.0023
  C  C52  1  0.691290  0.022000  0.564180  1.0  -0.1894
  C  C53  1  0.684810  0.948900  0.477420  1.0  0.1672
  C  C54  1  0.619600  0.233300  0.650600  1.0  0.66
  C  C55  1  0.026280  0.317900  0.979160  1.0  0.1627
  C  C56  1  0.108990  0.244800  0.067580  1.0  -0.193
  C  C57  1  0.185600  0.116200  0.060000  1.0  -0.0051
  C  C58  1  0.171570  0.066500  0.961540  1.0  -0.1856
  C  C59  1  0.080680  0.144400  0.877360  1.0  0.1609
  C  C60  1  0.280700  0.032300  0.152200  1.0  0.6618
  C  C61  1  0.661220  0.235300  0.913040  1.0  0.1657
  C  C62  1  0.753190  0.160200  0.998580  1.0  -0.1475
  C  C63  1  0.687150  0.115200  0.057700  1.0  -0.0459
  C  C64  1  0.531390  0.145100  0.026780  1.0  -0.1399
  C  C65  1  0.448810  0.220600  0.939620  1.0  0.1647
  C  C66  1  0.784000  0.033500  0.152200  1.0  0.6585
  C  C67  1  0.252090  0.021000  0.452780  1.0  0.1659
  C  C68  1  0.255140  0.094000  0.540280  1.0  -0.1578
  C  C69  1  0.124450  0.140400  0.562100  1.0  -0.0611
  C  C70  1  0.992860  0.108300  0.496720  1.0  -0.134
  C  C71  1  0.000410  0.033400  0.411020  1.0  0.1645
  C  C72  1  0.119200  0.226100  0.654000  1.0  0.6723
  C  C73  1  0.178950  0.628500  0.625700  1.0  0.1685
  C  C74  1  0.093490  0.706200  0.540780  1.0  -0.1648
  C  C75  1  0.066210  0.651900  0.443820  1.0  0.0045
  C  C76  1  0.127110  0.522000  0.435820  1.0  -0.1889
  C  C77  1  0.207390  0.448900  0.522580  1.0  0.168
  C  C78  1  0.969000  0.733300  0.349400  1.0  0.659
  C  C79  1  0.047120  0.817900  0.020840  1.0  0.1631
  C  C80  1  0.041410  0.744800  0.932420  1.0  -0.1927
  C  C81  1  0.125600  0.616200  0.940000  1.0  -0.0056
  C  C82  1  0.210030  0.566500  0.038460  1.0  -0.1861
  C  C83  1  0.203320  0.644400  0.122640  1.0  0.1627
  C  C84  1  0.128500  0.532300  0.847800  1.0  0.6613
  N  N85  1  0.629440  0.764700  0.117080  1.0  -0.3283
  N  N86  1  0.738370  0.491300  0.611740  1.0  -0.3311
  N  N87  1  0.618910  0.999300  0.382220  1.0  -0.3588
  N  N88  1  0.009390  0.270500  0.884380  1.0  -0.3515
  N  N89  1  0.512360  0.264700  0.882920  1.0  -0.3281
  N  N90  1  0.126630  0.991300  0.388260  1.0  -0.3361
  N  N91  1  0.236690  0.499300  0.617780  1.0  -0.3564
  N  N92  1  0.125010  0.770500  0.115620  1.0  -0.3511
  O  O93  1  0.754240  0.503200  0.831880  1.0  -0.5903
  O  O94  1  0.509100  0.508800  0.793200  1.0  -0.6071
  O  O95  1  0.524830  0.749400  0.285860  1.0  -0.6082
  O  O96  1  0.328570  0.767200  0.336740  1.0  -0.6044
  O  O97  1  0.739310  0.251200  0.714220  1.0  -0.5924
  O  O98  1  0.490460  0.273000  0.658120  1.0  -0.5972
  O  O99  1  0.219390  0.022300  0.215780  1.0  -0.6099
  O  O100  1  0.412440  0.985400  0.156480  1.0  -0.5789
  O  O101  1  0.922360  0.003200  0.168120  1.0  -0.5896
  O  O102  1  0.715900  0.008800  0.206800  1.0  -0.6079
  O  O103  1  0.238970  0.249400  0.714140  1.0  -0.608
  O  O104  1  0.991830  0.267200  0.663260  1.0  -0.6045
  O  O105  1  0.025090  0.751200  0.285780  1.0  -0.5924
  O  O106  1  0.832340  0.773000  0.341880  1.0  -0.5973
  O  O107  1  0.003610  0.522300  0.784220  1.0  -0.6112
  O  O108  1  0.255960  0.485400  0.843520  1.0  -0.5789
