# generated using pymatgen
data_CoH2C6ClO4
_symmetry_space_group_name_H-M   'P 1'
_cell_length_a   26.64700000
_cell_length_b   26.64700000
_cell_length_c   26.64700000
_cell_angle_alpha   90.00000000
_cell_angle_beta   90.00000000
_cell_angle_gamma   90.00000000
_symmetry_Int_Tables_number   1
_chemical_formula_structural   CoH2C6ClO4
_chemical_formula_sum   'Co48 H96 C288 Cl48 O192'
_cell_volume   18921.03834202
_cell_formula_units_Z   48
loop_
 _symmetry_equiv_pos_site_id
 _symmetry_equiv_pos_as_xyz
  1  'x, y, z'
loop_
 _atom_site_type_symbol
 _atom_site_label
 _atom_site_symmetry_multiplicity
 _atom_site_fract_x
 _atom_site_fract_y
 _atom_site_fract_z
 _atom_site_occupancy
 _atom_site_charge
  Co  Co1  1  0.289760  0.289760  0.000000  1.0  1.0268
  Co  Co2  1  0.289760  0.789760  0.500000  1.0  1.0268
  Co  Co3  1  0.789760  0.289760  0.500000  1.0  1.0268
  Co  Co4  1  0.789760  0.789760  0.000000  1.0  1.0268
  Co  Co5  1  0.710240  0.710240  0.000000  1.0  1.024
  Co  Co6  1  0.710240  0.210240  0.500000  1.0  1.024
  Co  Co7  1  0.210240  0.710240  0.500000  1.0  1.024
  Co  Co8  1  0.210240  0.210240  0.000000  1.0  1.024
  Co  Co9  1  0.710240  0.289760  0.000000  1.0  1.0266
  Co  Co10  1  0.710240  0.789760  0.500000  1.0  1.0266
  Co  Co11  1  0.210240  0.289760  0.500000  1.0  1.0266
  Co  Co12  1  0.210240  0.789760  0.000000  1.0  1.0266
  Co  Co13  1  0.289760  0.710240  0.000000  1.0  1.0229
  Co  Co14  1  0.289760  0.210240  0.500000  1.0  1.0229
  Co  Co15  1  0.789760  0.710240  0.500000  1.0  1.0229
  Co  Co16  1  0.789760  0.210240  0.000000  1.0  1.0229
  Co  Co17  1  0.000000  0.289760  0.289760  1.0  1.0227
  Co  Co18  1  0.000000  0.789760  0.789760  1.0  1.0227
  Co  Co19  1  0.500000  0.289760  0.789760  1.0  1.0227
  Co  Co20  1  0.500000  0.789760  0.289760  1.0  1.0227
  Co  Co21  1  0.000000  0.710240  0.710240  1.0  1.0222
  Co  Co22  1  0.000000  0.210240  0.210240  1.0  1.0222
  Co  Co23  1  0.500000  0.710240  0.210240  1.0  1.0222
  Co  Co24  1  0.500000  0.210240  0.710240  1.0  1.0222
  Co  Co25  1  0.000000  0.710240  0.289760  1.0  1.0196
  Co  Co26  1  0.000000  0.210240  0.789760  1.0  1.0196
  Co  Co27  1  0.500000  0.710240  0.789760  1.0  1.0196
  Co  Co28  1  0.500000  0.210240  0.289760  1.0  1.0196
  Co  Co29  1  0.000000  0.289760  0.710240  1.0  1.0252
  Co  Co30  1  0.000000  0.789760  0.210240  1.0  1.0252
  Co  Co31  1  0.500000  0.289760  0.210240  1.0  1.0252
  Co  Co32  1  0.500000  0.789760  0.710240  1.0  1.0252
  Co  Co33  1  0.289760  0.000000  0.289760  1.0  1.0222
  Co  Co34  1  0.289760  0.500000  0.789760  1.0  1.0222
  Co  Co35  1  0.789760  0.000000  0.789760  1.0  1.0222
  Co  Co36  1  0.789760  0.500000  0.289760  1.0  1.0222
  Co  Co37  1  0.710240  0.000000  0.710240  1.0  1.0249
  Co  Co38  1  0.710240  0.500000  0.210240  1.0  1.0249
  Co  Co39  1  0.210240  0.000000  0.210240  1.0  1.0249
  Co  Co40  1  0.210240  0.500000  0.710240  1.0  1.0249
  Co  Co41  1  0.289760  0.000000  0.710240  1.0  1.0232
  Co  Co42  1  0.289760  0.500000  0.210240  1.0  1.0232
  Co  Co43  1  0.789760  0.000000  0.210240  1.0  1.0232
  Co  Co44  1  0.789760  0.500000  0.710240  1.0  1.0232
  Co  Co45  1  0.710240  0.000000  0.289760  1.0  1.0226
  Co  Co46  1  0.710240  0.500000  0.789760  1.0  1.0226
  Co  Co47  1  0.210240  0.000000  0.789760  1.0  1.0226
  Co  Co48  1  0.210240  0.500000  0.289760  1.0  1.0226
  H  H49  1  0.226300  0.379800  0.120200  1.0  0.1504
  H  H50  1  0.726300  0.379800  0.620200  1.0  0.1504
  H  H51  1  0.773700  0.620200  0.120200  1.0  0.1507
  H  H52  1  0.273700  0.620200  0.620200  1.0  0.1507
  H  H53  1  0.273700  0.120200  0.120200  1.0  0.1507
  H  H54  1  0.773700  0.379800  0.879800  1.0  0.1504
  H  H55  1  0.273700  0.379800  0.379800  1.0  0.1504
  H  H56  1  0.226300  0.620200  0.879800  1.0  0.1506
  H  H57  1  0.226300  0.120200  0.379800  1.0  0.1506
  H  H58  1  0.726300  0.620200  0.379800  1.0  0.1506
  H  H59  1  0.120200  0.226300  0.379800  1.0  0.1506
  H  H60  1  0.120200  0.726300  0.879800  1.0  0.1506
  H  H61  1  0.120200  0.773700  0.620200  1.0  0.1505
  H  H62  1  0.120200  0.273700  0.120200  1.0  0.1505
  H  H63  1  0.879800  0.773700  0.379800  1.0  0.1505
  H  H64  1  0.879800  0.273700  0.879800  1.0  0.1505
  H  H65  1  0.379800  0.273700  0.379800  1.0  0.1505
  H  H66  1  0.879800  0.226300  0.620200  1.0  0.1505
  H  H67  1  0.879800  0.726300  0.120200  1.0  0.1505
  H  H68  1  0.379800  0.226300  0.120200  1.0  0.1505
  H  H69  1  0.379800  0.120200  0.226300  1.0  0.1512
  H  H70  1  0.379800  0.620200  0.726300  1.0  0.1512
  H  H71  1  0.620200  0.120200  0.773700  1.0  0.151
  H  H72  1  0.620200  0.620200  0.273700  1.0  0.151
  H  H73  1  0.120200  0.120200  0.273700  1.0  0.151
  H  H74  1  0.379800  0.879800  0.773700  1.0  0.1508
  H  H75  1  0.379800  0.379800  0.273700  1.0  0.1508
  H  H76  1  0.620200  0.879800  0.226300  1.0  0.1513
  H  H77  1  0.620200  0.379800  0.726300  1.0  0.1513
  H  H78  1  0.120200  0.379800  0.226300  1.0  0.1513
  H  H79  1  0.379800  0.226300  0.879800  1.0  0.1505
  H  H80  1  0.379800  0.726300  0.379800  1.0  0.1505
  H  H81  1  0.620200  0.773700  0.879800  1.0  0.1504
  H  H82  1  0.620200  0.273700  0.379800  1.0  0.1504
  H  H83  1  0.120200  0.773700  0.379800  1.0  0.1504
  H  H84  1  0.379800  0.773700  0.120200  1.0  0.1505
  H  H85  1  0.379800  0.273700  0.620200  1.0  0.1505
  H  H86  1  0.620200  0.226300  0.120200  1.0  0.1506
  H  H87  1  0.620200  0.726300  0.620200  1.0  0.1506
  H  H88  1  0.120200  0.726300  0.120200  1.0  0.1506
  H  H89  1  0.226300  0.120200  0.620200  1.0  0.1505
  H  H90  1  0.726300  0.120200  0.120200  1.0  0.1505
  H  H91  1  0.773700  0.120200  0.379800  1.0  0.1507
  H  H92  1  0.273700  0.120200  0.879800  1.0  0.1507
  H  H93  1  0.773700  0.879800  0.620200  1.0  0.1504
  H  H94  1  0.773700  0.379800  0.120200  1.0  0.1504
  H  H95  1  0.273700  0.879800  0.120200  1.0  0.1504
  H  H96  1  0.226300  0.879800  0.379800  1.0  0.1505
  H  H97  1  0.726300  0.879800  0.879800  1.0  0.1505
  H  H98  1  0.726300  0.379800  0.379800  1.0  0.1505
  H  H99  1  0.120200  0.379800  0.773700  1.0  0.1507
  H  H100  1  0.120200  0.879800  0.273700  1.0  0.1507
  H  H101  1  0.120200  0.620200  0.226300  1.0  0.1514
  H  H102  1  0.120200  0.120200  0.726300  1.0  0.1514
  H  H103  1  0.879800  0.379800  0.226300  1.0  0.1514
  H  H104  1  0.879800  0.879800  0.726300  1.0  0.1514
  H  H105  1  0.379800  0.379800  0.726300  1.0  0.1514
  H  H106  1  0.879800  0.620200  0.773700  1.0  0.1509
  H  H107  1  0.879800  0.120200  0.273700  1.0  0.1509
  H  H108  1  0.379800  0.120200  0.773700  1.0  0.1509
  H  H109  1  0.773700  0.620200  0.879800  1.0  0.1507
  H  H110  1  0.273700  0.620200  0.379800  1.0  0.1507
  H  H111  1  0.226300  0.379800  0.879800  1.0  0.1505
  H  H112  1  0.226300  0.620200  0.120200  1.0  0.1505
  H  H113  1  0.726300  0.620200  0.620200  1.0  0.1505
  H  H114  1  0.273700  0.379800  0.620200  1.0  0.1504
  H  H115  1  0.879800  0.773700  0.620200  1.0  0.1505
  H  H116  1  0.879800  0.273700  0.120200  1.0  0.1505
  H  H117  1  0.879800  0.226300  0.379800  1.0  0.1505
  H  H118  1  0.879800  0.726300  0.879800  1.0  0.1505
  H  H119  1  0.120200  0.226300  0.620200  1.0  0.1506
  H  H120  1  0.120200  0.273700  0.879800  1.0  0.1504
  H  H121  1  0.620200  0.879800  0.773700  1.0  0.1507
  H  H122  1  0.620200  0.379800  0.273700  1.0  0.1507
  H  H123  1  0.379800  0.879800  0.226300  1.0  0.1514
  H  H124  1  0.620200  0.120200  0.226300  1.0  0.1514
  H  H125  1  0.620200  0.620200  0.726300  1.0  0.1514
  H  H126  1  0.379800  0.620200  0.273700  1.0  0.1509
  H  H127  1  0.620200  0.773700  0.120200  1.0  0.1505
  H  H128  1  0.620200  0.273700  0.620200  1.0  0.1505
  H  H129  1  0.379800  0.726300  0.620200  1.0  0.1505
  H  H130  1  0.620200  0.226300  0.879800  1.0  0.1506
  H  H131  1  0.620200  0.726300  0.379800  1.0  0.1506
  H  H132  1  0.379800  0.773700  0.879800  1.0  0.1505
  H  H133  1  0.773700  0.879800  0.379800  1.0  0.1504
  H  H134  1  0.273700  0.879800  0.879800  1.0  0.1504
  H  H135  1  0.226300  0.879800  0.620200  1.0  0.1504
  H  H136  1  0.726300  0.879800  0.120200  1.0  0.1504
  H  H137  1  0.726300  0.120200  0.879800  1.0  0.1506
  H  H138  1  0.773700  0.120200  0.620200  1.0  0.1507
  H  H139  1  0.879800  0.620200  0.226300  1.0  0.1512
  H  H140  1  0.879800  0.120200  0.726300  1.0  0.1512
  H  H141  1  0.879800  0.379800  0.773700  1.0  0.1508
  H  H142  1  0.879800  0.879800  0.273700  1.0  0.1508
  H  H143  1  0.120200  0.620200  0.773700  1.0  0.151
  H  H144  1  0.120200  0.879800  0.726300  1.0  0.1513
  C  C145  1  0.202400  0.297600  0.069000  1.0  0.7484
  C  C146  1  0.177800  0.322200  0.114300  1.0  -0.1329
  C  C147  1  0.202400  0.797600  0.569000  1.0  0.7484
  C  C148  1  0.177800  0.822200  0.614300  1.0  -0.1329
  C  C149  1  0.797600  0.702400  0.069000  1.0  0.7483
  C  C150  1  0.822200  0.677800  0.114300  1.0  -0.1331
  C  C151  1  0.797600  0.202400  0.569000  1.0  0.7483
  C  C152  1  0.822200  0.177800  0.614300  1.0  -0.1331
  C  C153  1  0.297600  0.202400  0.069000  1.0  0.7483
  C  C154  1  0.322200  0.177800  0.114300  1.0  -0.1331
  C  C155  1  0.797600  0.297600  0.931000  1.0  0.7478
  C  C156  1  0.822200  0.322200  0.885700  1.0  -0.1344
  C  C157  1  0.797600  0.797600  0.431000  1.0  0.7478
  C  C158  1  0.822200  0.822200  0.385700  1.0  -0.1344
  C  C159  1  0.297600  0.297600  0.431000  1.0  0.7478
  C  C160  1  0.322200  0.322200  0.385700  1.0  -0.1344
  C  C161  1  0.202400  0.702400  0.931000  1.0  0.7482
  C  C162  1  0.177800  0.677800  0.885700  1.0  -0.1345
  C  C163  1  0.202400  0.202400  0.431000  1.0  0.7482
  C  C164  1  0.177800  0.177800  0.385700  1.0  -0.1345
  C  C165  1  0.069000  0.202400  0.297600  1.0  0.7461
  C  C166  1  0.114300  0.177800  0.322200  1.0  -0.1341
  C  C167  1  0.569000  0.202400  0.797600  1.0  0.7461
  C  C168  1  0.614300  0.177800  0.822200  1.0  -0.1341
  C  C169  1  0.069000  0.797600  0.702400  1.0  0.7461
  C  C170  1  0.114300  0.822200  0.677800  1.0  -0.1336
  C  C171  1  0.069000  0.297600  0.202400  1.0  0.7461
  C  C172  1  0.114300  0.322200  0.177800  1.0  -0.1336
  C  C173  1  0.569000  0.797600  0.202400  1.0  0.7461
  C  C174  1  0.614300  0.822200  0.177800  1.0  -0.1336
  C  C175  1  0.931000  0.797600  0.297600  1.0  0.7458
  C  C176  1  0.885700  0.822200  0.322200  1.0  -0.1336
  C  C177  1  0.431000  0.797600  0.797600  1.0  0.7458
  C  C178  1  0.385700  0.822200  0.822200  1.0  -0.1336
  C  C179  1  0.431000  0.297600  0.297600  1.0  0.7458
  C  C180  1  0.385700  0.322200  0.322200  1.0  -0.1336
  C  C181  1  0.931000  0.202400  0.702400  1.0  0.7462
  C  C182  1  0.885700  0.177800  0.677800  1.0  -0.1334
  C  C183  1  0.431000  0.202400  0.202400  1.0  0.7462
  C  C184  1  0.385700  0.177800  0.177800  1.0  -0.1334
  C  C185  1  0.297600  0.069000  0.202400  1.0  0.746
  C  C186  1  0.322200  0.114300  0.177800  1.0  -0.1336
  C  C187  1  0.297600  0.569000  0.702400  1.0  0.746
  C  C188  1  0.322200  0.614300  0.677800  1.0  -0.1336
  C  C189  1  0.702400  0.069000  0.797600  1.0  0.7461
  C  C190  1  0.677800  0.114300  0.822200  1.0  -0.1335
  C  C191  1  0.702400  0.569000  0.297600  1.0  0.7461
  C  C192  1  0.677800  0.614300  0.322200  1.0  -0.1335
  C  C193  1  0.202400  0.069000  0.297600  1.0  0.7461
  C  C194  1  0.177800  0.114300  0.322200  1.0  -0.1335
  C  C195  1  0.297600  0.931000  0.797600  1.0  0.7459
  C  C196  1  0.322200  0.885700  0.822200  1.0  -0.1336
  C  C197  1  0.297600  0.431000  0.297600  1.0  0.7459
  C  C198  1  0.322200  0.385700  0.322200  1.0  -0.1336
  C  C199  1  0.702400  0.931000  0.202400  1.0  0.7461
  C  C200  1  0.677800  0.885700  0.177800  1.0  -0.1331
  C  C201  1  0.702400  0.431000  0.702400  1.0  0.7461
  C  C202  1  0.677800  0.385700  0.677800  1.0  -0.1331
  C  C203  1  0.202400  0.431000  0.202400  1.0  0.7461
  C  C204  1  0.177800  0.385700  0.177800  1.0  -0.1331
  C  C205  1  0.297600  0.202400  0.931000  1.0  0.748
  C  C206  1  0.322200  0.177800  0.885700  1.0  -0.1346
  C  C207  1  0.297600  0.702400  0.431000  1.0  0.748
  C  C208  1  0.322200  0.677800  0.385700  1.0  -0.1346
  C  C209  1  0.702400  0.797600  0.931000  1.0  0.748
  C  C210  1  0.677800  0.822200  0.885700  1.0  -0.1343
  C  C211  1  0.702400  0.297600  0.431000  1.0  0.748
  C  C212  1  0.677800  0.322200  0.385700  1.0  -0.1343
  C  C213  1  0.202400  0.297600  0.931000  1.0  0.748
  C  C214  1  0.177800  0.322200  0.885700  1.0  -0.1343
  C  C215  1  0.297600  0.797600  0.069000  1.0  0.748
  C  C216  1  0.322200  0.822200  0.114300  1.0  -0.1333
  C  C217  1  0.297600  0.297600  0.569000  1.0  0.748
  C  C218  1  0.322200  0.322200  0.614300  1.0  -0.1333
  C  C219  1  0.702400  0.202400  0.069000  1.0  0.7486
  C  C220  1  0.677800  0.177800  0.114300  1.0  -0.1326
  C  C221  1  0.702400  0.702400  0.569000  1.0  0.7486
  C  C222  1  0.677800  0.677800  0.614300  1.0  -0.1326
  C  C223  1  0.202400  0.202400  0.569000  1.0  0.7486
  C  C224  1  0.177800  0.177800  0.614300  1.0  -0.1326
  C  C225  1  0.202400  0.069000  0.702400  1.0  0.7462
  C  C226  1  0.177800  0.114300  0.677800  1.0  -0.1331
  C  C227  1  0.202400  0.569000  0.202400  1.0  0.7462
  C  C228  1  0.177800  0.614300  0.177800  1.0  -0.1331
  C  C229  1  0.797600  0.069000  0.297600  1.0  0.7459
  C  C230  1  0.822200  0.114300  0.322200  1.0  -0.134
  C  C231  1  0.797600  0.569000  0.797600  1.0  0.7459
  C  C232  1  0.822200  0.614300  0.822200  1.0  -0.134
  C  C233  1  0.297600  0.569000  0.297600  1.0  0.7459
  C  C234  1  0.322200  0.614300  0.322200  1.0  -0.134
  C  C235  1  0.797600  0.931000  0.702400  1.0  0.7459
  C  C236  1  0.822200  0.885700  0.677800  1.0  -0.1335
  C  C237  1  0.797600  0.431000  0.202400  1.0  0.7459
  C  C238  1  0.822200  0.385700  0.177800  1.0  -0.1335
  C  C239  1  0.297600  0.931000  0.202400  1.0  0.7459
  C  C240  1  0.322200  0.885700  0.177800  1.0  -0.1335
  C  C241  1  0.202400  0.931000  0.297600  1.0  0.7461
  C  C242  1  0.177800  0.885700  0.322200  1.0  -0.1331
  C  C243  1  0.202400  0.431000  0.797600  1.0  0.7461
  C  C244  1  0.177800  0.385700  0.822200  1.0  -0.1331
  C  C245  1  0.069000  0.297600  0.797600  1.0  0.7461
  C  C246  1  0.114300  0.322200  0.822200  1.0  -0.1341
  C  C247  1  0.569000  0.297600  0.297600  1.0  0.7461
  C  C248  1  0.614300  0.322200  0.322200  1.0  -0.1341
  C  C249  1  0.069000  0.702400  0.202400  1.0  0.7461
  C  C250  1  0.114300  0.677800  0.177800  1.0  -0.1337
  C  C251  1  0.569000  0.702400  0.702400  1.0  0.7461
  C  C252  1  0.614300  0.677800  0.677800  1.0  -0.1337
  C  C253  1  0.569000  0.202400  0.202400  1.0  0.7461
  C  C254  1  0.614300  0.177800  0.177800  1.0  -0.1337
  C  C255  1  0.931000  0.297600  0.202400  1.0  0.7461
  C  C256  1  0.885700  0.322200  0.177800  1.0  -0.1333
  C  C257  1  0.431000  0.297600  0.702400  1.0  0.7461
  C  C258  1  0.385700  0.322200  0.677800  1.0  -0.1333
  C  C259  1  0.931000  0.702400  0.797600  1.0  0.746
  C  C260  1  0.885700  0.677800  0.822200  1.0  -0.1335
  C  C261  1  0.931000  0.202400  0.297600  1.0  0.746
  C  C262  1  0.885700  0.177800  0.322200  1.0  -0.1335
  C  C263  1  0.431000  0.702400  0.297600  1.0  0.746
  C  C264  1  0.385700  0.677800  0.322200  1.0  -0.1335
  C  C265  1  0.797600  0.702400  0.931000  1.0  0.748
  C  C266  1  0.822200  0.677800  0.885700  1.0  -0.1346
  C  C267  1  0.797600  0.202400  0.431000  1.0  0.748
  C  C268  1  0.822200  0.177800  0.385700  1.0  -0.1346
  C  C269  1  0.202400  0.797600  0.431000  1.0  0.748
  C  C270  1  0.177800  0.822200  0.385700  1.0  -0.1343
  C  C271  1  0.202400  0.702400  0.069000  1.0  0.7486
  C  C272  1  0.177800  0.677800  0.114300  1.0  -0.1326
  C  C273  1  0.797600  0.297600  0.069000  1.0  0.748
  C  C274  1  0.822200  0.322200  0.114300  1.0  -0.1333
  C  C275  1  0.797600  0.797600  0.569000  1.0  0.748
  C  C276  1  0.822200  0.822200  0.614300  1.0  -0.1333
  C  C277  1  0.931000  0.797600  0.702400  1.0  0.7461
  C  C278  1  0.885700  0.822200  0.677800  1.0  -0.1333
  C  C279  1  0.431000  0.797600  0.202400  1.0  0.7461
  C  C280  1  0.385700  0.822200  0.177800  1.0  -0.1333
  C  C281  1  0.431000  0.202400  0.797600  1.0  0.746
  C  C282  1  0.385700  0.177800  0.822200  1.0  -0.1335
  C  C283  1  0.069000  0.202400  0.702400  1.0  0.7461
  C  C284  1  0.114300  0.177800  0.677800  1.0  -0.1337
  C  C285  1  0.069000  0.797600  0.297600  1.0  0.7461
  C  C286  1  0.114300  0.822200  0.322200  1.0  -0.1341
  C  C287  1  0.569000  0.797600  0.797600  1.0  0.7461
  C  C288  1  0.614300  0.822200  0.822200  1.0  -0.1341
  C  C289  1  0.702400  0.931000  0.797600  1.0  0.7461
  C  C290  1  0.677800  0.885700  0.822200  1.0  -0.1331
  C  C291  1  0.702400  0.431000  0.297600  1.0  0.7461
  C  C292  1  0.677800  0.385700  0.322200  1.0  -0.1331
  C  C293  1  0.297600  0.431000  0.702400  1.0  0.7459
  C  C294  1  0.322200  0.385700  0.677800  1.0  -0.1335
  C  C295  1  0.702400  0.069000  0.202400  1.0  0.7462
  C  C296  1  0.677800  0.114300  0.177800  1.0  -0.1331
  C  C297  1  0.702400  0.569000  0.702400  1.0  0.7462
  C  C298  1  0.677800  0.614300  0.677800  1.0  -0.1331
  C  C299  1  0.297600  0.069000  0.797600  1.0  0.7459
  C  C300  1  0.322200  0.114300  0.822200  1.0  -0.134
  C  C301  1  0.702400  0.797600  0.069000  1.0  0.7484
  C  C302  1  0.677800  0.822200  0.114300  1.0  -0.1329
  C  C303  1  0.702400  0.297600  0.569000  1.0  0.7484
  C  C304  1  0.677800  0.322200  0.614300  1.0  -0.1329
  C  C305  1  0.297600  0.702400  0.569000  1.0  0.7483
  C  C306  1  0.322200  0.677800  0.614300  1.0  -0.1331
  C  C307  1  0.702400  0.202400  0.931000  1.0  0.7482
  C  C308  1  0.677800  0.177800  0.885700  1.0  -0.1345
  C  C309  1  0.702400  0.702400  0.431000  1.0  0.7482
  C  C310  1  0.677800  0.677800  0.385700  1.0  -0.1345
  C  C311  1  0.297600  0.797600  0.931000  1.0  0.7478
  C  C312  1  0.322200  0.822200  0.885700  1.0  -0.1344
  C  C313  1  0.797600  0.931000  0.297600  1.0  0.7459
  C  C314  1  0.822200  0.885700  0.322200  1.0  -0.1336
  C  C315  1  0.797600  0.431000  0.797600  1.0  0.7459
  C  C316  1  0.822200  0.385700  0.822200  1.0  -0.1336
  C  C317  1  0.202400  0.931000  0.702400  1.0  0.7461
  C  C318  1  0.177800  0.885700  0.677800  1.0  -0.1331
  C  C319  1  0.202400  0.569000  0.797600  1.0  0.7461
  C  C320  1  0.177800  0.614300  0.822200  1.0  -0.1335
  C  C321  1  0.797600  0.069000  0.702400  1.0  0.746
  C  C322  1  0.822200  0.114300  0.677800  1.0  -0.1336
  C  C323  1  0.797600  0.569000  0.202400  1.0  0.746
  C  C324  1  0.822200  0.614300  0.177800  1.0  -0.1336
  C  C325  1  0.931000  0.702400  0.202400  1.0  0.7462
  C  C326  1  0.885700  0.677800  0.177800  1.0  -0.1334
  C  C327  1  0.431000  0.702400  0.702400  1.0  0.7462
  C  C328  1  0.385700  0.677800  0.677800  1.0  -0.1334
  C  C329  1  0.931000  0.297600  0.797600  1.0  0.7458
  C  C330  1  0.885700  0.322200  0.822200  1.0  -0.1336
  C  C331  1  0.069000  0.702400  0.797600  1.0  0.7461
  C  C332  1  0.114300  0.677800  0.822200  1.0  -0.1341
  C  C333  1  0.569000  0.702400  0.297600  1.0  0.7461
  C  C334  1  0.614300  0.677800  0.322200  1.0  -0.1341
  C  C335  1  0.569000  0.297600  0.702400  1.0  0.7461
  C  C336  1  0.614300  0.322200  0.677800  1.0  -0.1336
  C  C337  1  0.198400  0.365000  0.135000  1.0  0.0704
  C  C338  1  0.698400  0.365000  0.635000  1.0  0.0704
  C  C339  1  0.801600  0.635000  0.135000  1.0  0.0707
  C  C340  1  0.301600  0.635000  0.635000  1.0  0.0707
  C  C341  1  0.301600  0.135000  0.135000  1.0  0.0707
  C  C342  1  0.801600  0.365000  0.865000  1.0  0.071
  C  C343  1  0.301600  0.365000  0.365000  1.0  0.071
  C  C344  1  0.198400  0.635000  0.865000  1.0  0.0711
  C  C345  1  0.198400  0.135000  0.365000  1.0  0.0711
  C  C346  1  0.698400  0.635000  0.365000  1.0  0.0711
  C  C347  1  0.135000  0.198400  0.365000  1.0  0.0717
  C  C348  1  0.135000  0.698400  0.865000  1.0  0.0717
  C  C349  1  0.135000  0.801600  0.635000  1.0  0.0717
  C  C350  1  0.135000  0.301600  0.135000  1.0  0.0717
  C  C351  1  0.865000  0.801600  0.365000  1.0  0.072
  C  C352  1  0.865000  0.301600  0.865000  1.0  0.072
  C  C353  1  0.365000  0.301600  0.365000  1.0  0.072
  C  C354  1  0.865000  0.198400  0.635000  1.0  0.0722
  C  C355  1  0.865000  0.698400  0.135000  1.0  0.0722
  C  C356  1  0.365000  0.198400  0.135000  1.0  0.0722
  C  C357  1  0.365000  0.135000  0.198400  1.0  0.0726
  C  C358  1  0.365000  0.635000  0.698400  1.0  0.0726
  C  C359  1  0.635000  0.135000  0.801600  1.0  0.0719
  C  C360  1  0.635000  0.635000  0.301600  1.0  0.0719
  C  C361  1  0.135000  0.135000  0.301600  1.0  0.0719
  C  C362  1  0.365000  0.865000  0.801600  1.0  0.072
  C  C363  1  0.365000  0.365000  0.301600  1.0  0.072
  C  C364  1  0.635000  0.865000  0.198400  1.0  0.0718
  C  C365  1  0.635000  0.365000  0.698400  1.0  0.0718
  C  C366  1  0.135000  0.365000  0.198400  1.0  0.0718
  C  C367  1  0.365000  0.198400  0.865000  1.0  0.0718
  C  C368  1  0.365000  0.698400  0.365000  1.0  0.0718
  C  C369  1  0.635000  0.801600  0.865000  1.0  0.0722
  C  C370  1  0.635000  0.301600  0.365000  1.0  0.0722
  C  C371  1  0.135000  0.801600  0.365000  1.0  0.0722
  C  C372  1  0.365000  0.801600  0.135000  1.0  0.0715
  C  C373  1  0.365000  0.301600  0.635000  1.0  0.0715
  C  C374  1  0.635000  0.198400  0.135000  1.0  0.0724
  C  C375  1  0.635000  0.698400  0.635000  1.0  0.0724
  C  C376  1  0.135000  0.698400  0.135000  1.0  0.0724
  C  C377  1  0.198400  0.135000  0.635000  1.0  0.0704
  C  C378  1  0.698400  0.135000  0.135000  1.0  0.0704
  C  C379  1  0.801600  0.135000  0.365000  1.0  0.0718
  C  C380  1  0.301600  0.135000  0.865000  1.0  0.0718
  C  C381  1  0.801600  0.865000  0.635000  1.0  0.0707
  C  C382  1  0.801600  0.365000  0.135000  1.0  0.0707
  C  C383  1  0.301600  0.865000  0.135000  1.0  0.0707
  C  C384  1  0.198400  0.865000  0.365000  1.0  0.0704
  C  C385  1  0.698400  0.865000  0.865000  1.0  0.0704
  C  C386  1  0.698400  0.365000  0.365000  1.0  0.0704
  C  C387  1  0.135000  0.365000  0.801600  1.0  0.0721
  C  C388  1  0.135000  0.865000  0.301600  1.0  0.0721
  C  C389  1  0.135000  0.635000  0.198400  1.0  0.0724
  C  C390  1  0.135000  0.135000  0.698400  1.0  0.0724
  C  C391  1  0.865000  0.365000  0.198400  1.0  0.0718
  C  C392  1  0.865000  0.865000  0.698400  1.0  0.0718
  C  C393  1  0.365000  0.365000  0.698400  1.0  0.0718
  C  C394  1  0.865000  0.635000  0.801600  1.0  0.0719
  C  C395  1  0.865000  0.135000  0.301600  1.0  0.0719
  C  C396  1  0.365000  0.135000  0.801600  1.0  0.0719
  C  C397  1  0.801600  0.635000  0.865000  1.0  0.0718
  C  C398  1  0.301600  0.635000  0.365000  1.0  0.0718
  C  C399  1  0.198400  0.365000  0.865000  1.0  0.0704
  C  C400  1  0.198400  0.635000  0.135000  1.0  0.0704
  C  C401  1  0.698400  0.635000  0.635000  1.0  0.0704
  C  C402  1  0.301600  0.365000  0.635000  1.0  0.0707
  C  C403  1  0.865000  0.801600  0.635000  1.0  0.0715
  C  C404  1  0.865000  0.301600  0.135000  1.0  0.0715
  C  C405  1  0.865000  0.198400  0.365000  1.0  0.0718
  C  C406  1  0.865000  0.698400  0.865000  1.0  0.0718
  C  C407  1  0.135000  0.198400  0.635000  1.0  0.0724
  C  C408  1  0.135000  0.301600  0.865000  1.0  0.0722
  C  C409  1  0.635000  0.865000  0.801600  1.0  0.0721
  C  C410  1  0.635000  0.365000  0.301600  1.0  0.0721
  C  C411  1  0.365000  0.865000  0.198400  1.0  0.0718
  C  C412  1  0.635000  0.135000  0.198400  1.0  0.0724
  C  C413  1  0.635000  0.635000  0.698400  1.0  0.0724
  C  C414  1  0.365000  0.635000  0.301600  1.0  0.0719
  C  C415  1  0.635000  0.801600  0.135000  1.0  0.0717
  C  C416  1  0.635000  0.301600  0.635000  1.0  0.0717
  C  C417  1  0.365000  0.698400  0.635000  1.0  0.0722
  C  C418  1  0.635000  0.198400  0.865000  1.0  0.0717
  C  C419  1  0.635000  0.698400  0.365000  1.0  0.0717
  C  C420  1  0.365000  0.801600  0.865000  1.0  0.072
  C  C421  1  0.801600  0.865000  0.365000  1.0  0.071
  C  C422  1  0.301600  0.865000  0.865000  1.0  0.071
  C  C423  1  0.198400  0.865000  0.635000  1.0  0.0704
  C  C424  1  0.698400  0.865000  0.135000  1.0  0.0704
  C  C425  1  0.698400  0.135000  0.865000  1.0  0.0711
  C  C426  1  0.801600  0.135000  0.635000  1.0  0.0707
  C  C427  1  0.865000  0.635000  0.198400  1.0  0.0726
  C  C428  1  0.865000  0.135000  0.698400  1.0  0.0726
  C  C429  1  0.865000  0.365000  0.801600  1.0  0.072
  C  C430  1  0.865000  0.865000  0.301600  1.0  0.072
  C  C431  1  0.135000  0.635000  0.801600  1.0  0.0719
  C  C432  1  0.135000  0.865000  0.698400  1.0  0.0718
  Cl  Cl433  1  0.350400  0.350400  0.000000  1.0  -0.444
  Cl  Cl434  1  0.350400  0.850400  0.500000  1.0  -0.444
  Cl  Cl435  1  0.850400  0.350400  0.500000  1.0  -0.444
  Cl  Cl436  1  0.850400  0.850400  0.000000  1.0  -0.444
  Cl  Cl437  1  0.649600  0.649600  0.000000  1.0  -0.4456
  Cl  Cl438  1  0.649600  0.149600  0.500000  1.0  -0.4456
  Cl  Cl439  1  0.149600  0.649600  0.500000  1.0  -0.4456
  Cl  Cl440  1  0.149600  0.149600  0.000000  1.0  -0.4456
  Cl  Cl441  1  0.649600  0.350400  0.000000  1.0  -0.4449
  Cl  Cl442  1  0.649600  0.850400  0.500000  1.0  -0.4449
  Cl  Cl443  1  0.149600  0.350400  0.500000  1.0  -0.4449
  Cl  Cl444  1  0.149600  0.850400  0.000000  1.0  -0.4449
  Cl  Cl445  1  0.350400  0.649600  0.000000  1.0  -0.445
  Cl  Cl446  1  0.350400  0.149600  0.500000  1.0  -0.445
  Cl  Cl447  1  0.850400  0.649600  0.500000  1.0  -0.445
  Cl  Cl448  1  0.850400  0.149600  0.000000  1.0  -0.445
  Cl  Cl449  1  0.000000  0.350400  0.350400  1.0  -0.4471
  Cl  Cl450  1  0.000000  0.850400  0.850400  1.0  -0.4471
  Cl  Cl451  1  0.500000  0.350400  0.850400  1.0  -0.4471
  Cl  Cl452  1  0.500000  0.850400  0.350400  1.0  -0.4471
  Cl  Cl453  1  0.000000  0.649600  0.649600  1.0  -0.4479
  Cl  Cl454  1  0.000000  0.149600  0.149600  1.0  -0.4479
  Cl  Cl455  1  0.500000  0.649600  0.149600  1.0  -0.4479
  Cl  Cl456  1  0.500000  0.149600  0.649600  1.0  -0.4479
  Cl  Cl457  1  0.000000  0.649600  0.350400  1.0  -0.448
  Cl  Cl458  1  0.000000  0.149600  0.850400  1.0  -0.448
  Cl  Cl459  1  0.500000  0.649600  0.850400  1.0  -0.448
  Cl  Cl460  1  0.500000  0.149600  0.350400  1.0  -0.448
  Cl  Cl461  1  0.000000  0.350400  0.649600  1.0  -0.4483
  Cl  Cl462  1  0.000000  0.850400  0.149600  1.0  -0.4483
  Cl  Cl463  1  0.500000  0.350400  0.149600  1.0  -0.4483
  Cl  Cl464  1  0.500000  0.850400  0.649600  1.0  -0.4483
  Cl  Cl465  1  0.350400  0.000000  0.350400  1.0  -0.4467
  Cl  Cl466  1  0.350400  0.500000  0.850400  1.0  -0.4467
  Cl  Cl467  1  0.850400  0.000000  0.850400  1.0  -0.4467
  Cl  Cl468  1  0.850400  0.500000  0.350400  1.0  -0.4467
  Cl  Cl469  1  0.649600  0.000000  0.649600  1.0  -0.4472
  Cl  Cl470  1  0.649600  0.500000  0.149600  1.0  -0.4472
  Cl  Cl471  1  0.149600  0.000000  0.149600  1.0  -0.4472
  Cl  Cl472  1  0.149600  0.500000  0.649600  1.0  -0.4472
  Cl  Cl473  1  0.350400  0.000000  0.649600  1.0  -0.4467
  Cl  Cl474  1  0.350400  0.500000  0.149600  1.0  -0.4467
  Cl  Cl475  1  0.850400  0.000000  0.149600  1.0  -0.4467
  Cl  Cl476  1  0.850400  0.500000  0.649600  1.0  -0.4467
  Cl  Cl477  1  0.649600  0.000000  0.350400  1.0  -0.4462
  Cl  Cl478  1  0.649600  0.500000  0.850400  1.0  -0.4462
  Cl  Cl479  1  0.149600  0.000000  0.850400  1.0  -0.4462
  Cl  Cl480  1  0.149600  0.500000  0.350400  1.0  -0.4462
  O  O481  1  0.242600  0.317000  0.053100  1.0  -0.5623
  O  O482  1  0.242600  0.817000  0.553100  1.0  -0.5623
  O  O483  1  0.742600  0.317000  0.553100  1.0  -0.5624
  O  O484  1  0.742600  0.817000  0.053100  1.0  -0.5624
  O  O485  1  0.757400  0.683000  0.053100  1.0  -0.5626
  O  O486  1  0.757400  0.183000  0.553100  1.0  -0.5626
  O  O487  1  0.257400  0.683000  0.553100  1.0  -0.5627
  O  O488  1  0.257400  0.183000  0.053100  1.0  -0.5628
  O  O489  1  0.757400  0.317000  0.946900  1.0  -0.5623
  O  O490  1  0.757400  0.817000  0.446900  1.0  -0.5623
  O  O491  1  0.257400  0.317000  0.446900  1.0  -0.5625
  O  O492  1  0.257400  0.817000  0.946900  1.0  -0.5624
  O  O493  1  0.242600  0.683000  0.946900  1.0  -0.5628
  O  O494  1  0.242600  0.183000  0.446900  1.0  -0.5628
  O  O495  1  0.742600  0.683000  0.446900  1.0  -0.5629
  O  O496  1  0.742600  0.183000  0.946900  1.0  -0.5629
  O  O497  1  0.053100  0.242600  0.317000  1.0  -0.563
  O  O498  1  0.053100  0.742600  0.817000  1.0  -0.563
  O  O499  1  0.553100  0.242600  0.817000  1.0  -0.563
  O  O500  1  0.553100  0.742600  0.317000  1.0  -0.5629
  O  O501  1  0.053100  0.757400  0.683000  1.0  -0.562
  O  O502  1  0.053100  0.257400  0.183000  1.0  -0.562
  O  O503  1  0.553100  0.757400  0.183000  1.0  -0.5619
  O  O504  1  0.553100  0.257400  0.683000  1.0  -0.562
  O  O505  1  0.946900  0.757400  0.317000  1.0  -0.5626
  O  O506  1  0.946900  0.257400  0.817000  1.0  -0.5626
  O  O507  1  0.446900  0.757400  0.817000  1.0  -0.5626
  O  O508  1  0.446900  0.257400  0.317000  1.0  -0.5626
  O  O509  1  0.946900  0.242600  0.683000  1.0  -0.5624
  O  O510  1  0.946900  0.742600  0.183000  1.0  -0.5625
  O  O511  1  0.446900  0.242600  0.183000  1.0  -0.5626
  O  O512  1  0.446900  0.742600  0.683000  1.0  -0.5625
  O  O513  1  0.317000  0.053100  0.242600  1.0  -0.5611
  O  O514  1  0.317000  0.553100  0.742600  1.0  -0.5609
  O  O515  1  0.817000  0.053100  0.742600  1.0  -0.5609
  O  O516  1  0.817000  0.553100  0.242600  1.0  -0.5611
  O  O517  1  0.683000  0.053100  0.757400  1.0  -0.5605
  O  O518  1  0.683000  0.553100  0.257400  1.0  -0.5603
  O  O519  1  0.183000  0.053100  0.257400  1.0  -0.5605
  O  O520  1  0.183000  0.553100  0.757400  1.0  -0.5606
  O  O521  1  0.317000  0.946900  0.757400  1.0  -0.5602
  O  O522  1  0.317000  0.446900  0.257400  1.0  -0.5602
  O  O523  1  0.817000  0.946900  0.257400  1.0  -0.56
  O  O524  1  0.817000  0.446900  0.757400  1.0  -0.5601
  O  O525  1  0.683000  0.946900  0.242600  1.0  -0.5609
  O  O526  1  0.683000  0.446900  0.742600  1.0  -0.5607
  O  O527  1  0.183000  0.946900  0.742600  1.0  -0.5607
  O  O528  1  0.183000  0.446900  0.242600  1.0  -0.5609
  O  O529  1  0.317000  0.242600  0.946900  1.0  -0.5634
  O  O530  1  0.317000  0.742600  0.446900  1.0  -0.5634
  O  O531  1  0.817000  0.242600  0.446900  1.0  -0.5633
  O  O532  1  0.817000  0.742600  0.946900  1.0  -0.5634
  O  O533  1  0.683000  0.757400  0.946900  1.0  -0.563
  O  O534  1  0.683000  0.257400  0.446900  1.0  -0.563
  O  O535  1  0.183000  0.757400  0.446900  1.0  -0.563
  O  O536  1  0.183000  0.257400  0.946900  1.0  -0.563
  O  O537  1  0.317000  0.757400  0.053100  1.0  -0.5627
  O  O538  1  0.317000  0.257400  0.553100  1.0  -0.5627
  O  O539  1  0.817000  0.757400  0.553100  1.0  -0.5627
  O  O540  1  0.817000  0.257400  0.053100  1.0  -0.5627
  O  O541  1  0.683000  0.242600  0.053100  1.0  -0.5636
  O  O542  1  0.683000  0.742600  0.553100  1.0  -0.5636
  O  O543  1  0.183000  0.242600  0.553100  1.0  -0.5636
  O  O544  1  0.183000  0.742600  0.053100  1.0  -0.5636
  O  O545  1  0.242600  0.053100  0.683000  1.0  -0.5623
  O  O546  1  0.242600  0.553100  0.183000  1.0  -0.5624
  O  O547  1  0.742600  0.053100  0.183000  1.0  -0.5623
  O  O548  1  0.742600  0.553100  0.683000  1.0  -0.5623
  O  O549  1  0.757400  0.053100  0.317000  1.0  -0.5626
  O  O550  1  0.757400  0.553100  0.817000  1.0  -0.5626
  O  O551  1  0.257400  0.053100  0.817000  1.0  -0.5626
  O  O552  1  0.257400  0.553100  0.317000  1.0  -0.5626
  O  O553  1  0.757400  0.946900  0.683000  1.0  -0.5618
  O  O554  1  0.757400  0.446900  0.183000  1.0  -0.5618
  O  O555  1  0.257400  0.946900  0.183000  1.0  -0.5618
  O  O556  1  0.257400  0.446900  0.683000  1.0  -0.5618
  O  O557  1  0.242600  0.946900  0.317000  1.0  -0.5625
  O  O558  1  0.242600  0.446900  0.817000  1.0  -0.5624
  O  O559  1  0.742600  0.946900  0.817000  1.0  -0.5625
  O  O560  1  0.742600  0.446900  0.317000  1.0  -0.5625
  O  O561  1  0.053100  0.317000  0.757400  1.0  -0.561
  O  O562  1  0.053100  0.817000  0.257400  1.0  -0.5609
  O  O563  1  0.553100  0.317000  0.257400  1.0  -0.5609
  O  O564  1  0.553100  0.817000  0.757400  1.0  -0.561
  O  O565  1  0.053100  0.683000  0.242600  1.0  -0.5614
  O  O566  1  0.053100  0.183000  0.742600  1.0  -0.5614
  O  O567  1  0.553100  0.683000  0.742600  1.0  -0.5614
  O  O568  1  0.553100  0.183000  0.242600  1.0  -0.5614
  O  O569  1  0.946900  0.317000  0.242600  1.0  -0.5609
  O  O570  1  0.946900  0.817000  0.742600  1.0  -0.5609
  O  O571  1  0.446900  0.317000  0.742600  1.0  -0.5609
  O  O572  1  0.446900  0.817000  0.242600  1.0  -0.5608
  O  O573  1  0.946900  0.683000  0.757400  1.0  -0.5602
  O  O574  1  0.946900  0.183000  0.257400  1.0  -0.5602
  O  O575  1  0.446900  0.683000  0.257400  1.0  -0.5602
  O  O576  1  0.446900  0.183000  0.757400  1.0  -0.5602
  O  O577  1  0.757400  0.683000  0.946900  1.0  -0.5628
  O  O578  1  0.757400  0.183000  0.446900  1.0  -0.5628
  O  O579  1  0.257400  0.683000  0.446900  1.0  -0.5627
  O  O580  1  0.257400  0.183000  0.946900  1.0  -0.5627
  O  O581  1  0.242600  0.317000  0.946900  1.0  -0.5627
  O  O582  1  0.242600  0.817000  0.446900  1.0  -0.5627
  O  O583  1  0.742600  0.317000  0.446900  1.0  -0.5626
  O  O584  1  0.742600  0.817000  0.946900  1.0  -0.5626
  O  O585  1  0.242600  0.683000  0.053100  1.0  -0.5629
  O  O586  1  0.242600  0.183000  0.553100  1.0  -0.5629
  O  O587  1  0.742600  0.683000  0.553100  1.0  -0.5627
  O  O588  1  0.742600  0.183000  0.053100  1.0  -0.5629
  O  O589  1  0.757400  0.317000  0.053100  1.0  -0.5623
  O  O590  1  0.757400  0.817000  0.553100  1.0  -0.5623
  O  O591  1  0.257400  0.317000  0.553100  1.0  -0.5622
  O  O592  1  0.257400  0.817000  0.053100  1.0  -0.5622
  O  O593  1  0.946900  0.757400  0.683000  1.0  -0.5612
  O  O594  1  0.946900  0.257400  0.183000  1.0  -0.5612
  O  O595  1  0.446900  0.757400  0.183000  1.0  -0.5612
  O  O596  1  0.446900  0.257400  0.683000  1.0  -0.5614
  O  O597  1  0.946900  0.242600  0.317000  1.0  -0.5626
  O  O598  1  0.946900  0.742600  0.817000  1.0  -0.5626
  O  O599  1  0.446900  0.242600  0.817000  1.0  -0.5627
  O  O600  1  0.446900  0.742600  0.317000  1.0  -0.5626
  O  O601  1  0.053100  0.242600  0.683000  1.0  -0.5628
  O  O602  1  0.053100  0.742600  0.183000  1.0  -0.5628
  O  O603  1  0.553100  0.242600  0.183000  1.0  -0.5626
  O  O604  1  0.553100  0.742600  0.683000  1.0  -0.5626
  O  O605  1  0.053100  0.757400  0.317000  1.0  -0.5631
  O  O606  1  0.053100  0.257400  0.817000  1.0  -0.563
  O  O607  1  0.553100  0.757400  0.817000  1.0  -0.563
  O  O608  1  0.553100  0.257400  0.317000  1.0  -0.563
  O  O609  1  0.683000  0.946900  0.757400  1.0  -0.5604
  O  O610  1  0.683000  0.446900  0.257400  1.0  -0.5606
  O  O611  1  0.183000  0.946900  0.257400  1.0  -0.5604
  O  O612  1  0.183000  0.446900  0.757400  1.0  -0.5604
  O  O613  1  0.317000  0.946900  0.242600  1.0  -0.561
  O  O614  1  0.317000  0.446900  0.742600  1.0  -0.5608
  O  O615  1  0.817000  0.946900  0.742600  1.0  -0.5608
  O  O616  1  0.817000  0.446900  0.242600  1.0  -0.5608
  O  O617  1  0.683000  0.053100  0.242600  1.0  -0.5608
  O  O618  1  0.683000  0.553100  0.742600  1.0  -0.561
  O  O619  1  0.183000  0.053100  0.742600  1.0  -0.561
  O  O620  1  0.183000  0.553100  0.242600  1.0  -0.5611
  O  O621  1  0.317000  0.053100  0.757400  1.0  -0.56
  O  O622  1  0.317000  0.553100  0.257400  1.0  -0.5602
  O  O623  1  0.817000  0.053100  0.257400  1.0  -0.5602
  O  O624  1  0.817000  0.553100  0.757400  1.0  -0.56
  O  O625  1  0.683000  0.757400  0.053100  1.0  -0.563
  O  O626  1  0.683000  0.257400  0.553100  1.0  -0.563
  O  O627  1  0.183000  0.757400  0.553100  1.0  -0.563
  O  O628  1  0.183000  0.257400  0.053100  1.0  -0.563
  O  O629  1  0.317000  0.242600  0.053100  1.0  -0.5631
  O  O630  1  0.317000  0.742600  0.553100  1.0  -0.5631
  O  O631  1  0.817000  0.242600  0.553100  1.0  -0.5631
  O  O632  1  0.817000  0.742600  0.053100  1.0  -0.5631
  O  O633  1  0.683000  0.242600  0.946900  1.0  -0.5635
  O  O634  1  0.683000  0.742600  0.446900  1.0  -0.5635
  O  O635  1  0.183000  0.242600  0.446900  1.0  -0.5635
  O  O636  1  0.183000  0.742600  0.946900  1.0  -0.5635
  O  O637  1  0.317000  0.757400  0.946900  1.0  -0.563
  O  O638  1  0.317000  0.257400  0.446900  1.0  -0.563
  O  O639  1  0.817000  0.757400  0.446900  1.0  -0.563
  O  O640  1  0.817000  0.257400  0.946900  1.0  -0.563
  O  O641  1  0.757400  0.946900  0.317000  1.0  -0.5626
  O  O642  1  0.757400  0.446900  0.817000  1.0  -0.5626
  O  O643  1  0.257400  0.946900  0.817000  1.0  -0.5626
  O  O644  1  0.257400  0.446900  0.317000  1.0  -0.5626
  O  O645  1  0.242600  0.946900  0.683000  1.0  -0.5623
  O  O646  1  0.242600  0.446900  0.183000  1.0  -0.5621
  O  O647  1  0.742600  0.946900  0.183000  1.0  -0.5622
  O  O648  1  0.742600  0.446900  0.683000  1.0  -0.5622
  O  O649  1  0.242600  0.053100  0.317000  1.0  -0.5625
  O  O650  1  0.242600  0.553100  0.817000  1.0  -0.5625
  O  O651  1  0.742600  0.053100  0.817000  1.0  -0.5625
  O  O652  1  0.742600  0.553100  0.317000  1.0  -0.5625
  O  O653  1  0.757400  0.053100  0.683000  1.0  -0.5617
  O  O654  1  0.757400  0.553100  0.183000  1.0  -0.5617
  O  O655  1  0.257400  0.053100  0.183000  1.0  -0.5616
  O  O656  1  0.257400  0.553100  0.683000  1.0  -0.5616
  O  O657  1  0.946900  0.683000  0.242600  1.0  -0.5613
  O  O658  1  0.946900  0.183000  0.742600  1.0  -0.5613
  O  O659  1  0.446900  0.683000  0.742600  1.0  -0.5613
  O  O660  1  0.446900  0.183000  0.242600  1.0  -0.5613
  O  O661  1  0.946900  0.317000  0.757400  1.0  -0.5609
  O  O662  1  0.946900  0.817000  0.257400  1.0  -0.5609
  O  O663  1  0.446900  0.317000  0.257400  1.0  -0.5609
  O  O664  1  0.446900  0.817000  0.757400  1.0  -0.5609
  O  O665  1  0.053100  0.683000  0.757400  1.0  -0.5606
  O  O666  1  0.053100  0.183000  0.257400  1.0  -0.5606
  O  O667  1  0.553100  0.683000  0.257400  1.0  -0.5606
  O  O668  1  0.553100  0.183000  0.757400  1.0  -0.5606
  O  O669  1  0.053100  0.317000  0.242600  1.0  -0.561
  O  O670  1  0.053100  0.817000  0.742600  1.0  -0.561
  O  O671  1  0.553100  0.317000  0.742600  1.0  -0.561
  O  O672  1  0.553100  0.817000  0.242600  1.0  -0.561
