# generated using pymatgen
data_MnH2C6ClO4
_symmetry_space_group_name_H-M   'P 1'
_cell_length_a   26.77100000
_cell_length_b   26.77100000
_cell_length_c   26.77100000
_cell_angle_alpha   90.00000000
_cell_angle_beta   90.00000000
_cell_angle_gamma   90.00000000
_symmetry_Int_Tables_number   1
_chemical_formula_structural   MnH2C6ClO4
_chemical_formula_sum   'Mn48 H96 C288 Cl48 O192'
_cell_volume   19186.41271201
_cell_formula_units_Z   48
loop_
 _symmetry_equiv_pos_site_id
 _symmetry_equiv_pos_as_xyz
  1  'x, y, z'
loop_
 _atom_site_type_symbol
 _atom_site_label
 _atom_site_symmetry_multiplicity
 _atom_site_fract_x
 _atom_site_fract_y
 _atom_site_fract_z
 _atom_site_occupancy
 _atom_site_charge
  Mn  Mn1  1  0.207770  0.207770  0.000000  1.0  1.1405
  Mn  Mn2  1  0.207770  0.707770  0.500000  1.0  1.1405
  Mn  Mn3  1  0.707770  0.207770  0.500000  1.0  1.1405
  Mn  Mn4  1  0.707770  0.707770  0.000000  1.0  1.1405
  Mn  Mn5  1  0.792230  0.792230  0.000000  1.0  1.1415
  Mn  Mn6  1  0.792230  0.292230  0.500000  1.0  1.1415
  Mn  Mn7  1  0.292230  0.792230  0.500000  1.0  1.1415
  Mn  Mn8  1  0.292230  0.292230  0.000000  1.0  1.1415
  Mn  Mn9  1  0.792230  0.207770  0.000000  1.0  1.1391
  Mn  Mn10  1  0.792230  0.707770  0.500000  1.0  1.1391
  Mn  Mn11  1  0.292230  0.207770  0.500000  1.0  1.1391
  Mn  Mn12  1  0.292230  0.707770  0.000000  1.0  1.1391
  Mn  Mn13  1  0.207770  0.792230  0.000000  1.0  1.1415
  Mn  Mn14  1  0.207770  0.292230  0.500000  1.0  1.1415
  Mn  Mn15  1  0.707770  0.792230  0.500000  1.0  1.1415
  Mn  Mn16  1  0.707770  0.292230  0.000000  1.0  1.1415
  Mn  Mn17  1  0.000000  0.207770  0.207770  1.0  1.136
  Mn  Mn18  1  0.000000  0.707770  0.707770  1.0  1.136
  Mn  Mn19  1  0.500000  0.207770  0.707770  1.0  1.136
  Mn  Mn20  1  0.500000  0.707770  0.207770  1.0  1.136
  Mn  Mn21  1  0.000000  0.792230  0.792230  1.0  1.1372
  Mn  Mn22  1  0.000000  0.292230  0.292230  1.0  1.1372
  Mn  Mn23  1  0.500000  0.792230  0.292230  1.0  1.1372
  Mn  Mn24  1  0.500000  0.292230  0.792230  1.0  1.1372
  Mn  Mn25  1  0.000000  0.792230  0.207770  1.0  1.137
  Mn  Mn26  1  0.000000  0.292230  0.707770  1.0  1.137
  Mn  Mn27  1  0.500000  0.792230  0.707770  1.0  1.137
  Mn  Mn28  1  0.500000  0.292230  0.207770  1.0  1.137
  Mn  Mn29  1  0.000000  0.207770  0.792230  1.0  1.1353
  Mn  Mn30  1  0.000000  0.707770  0.292230  1.0  1.1353
  Mn  Mn31  1  0.500000  0.207770  0.292230  1.0  1.1353
  Mn  Mn32  1  0.500000  0.707770  0.792230  1.0  1.1353
  Mn  Mn33  1  0.207770  0.000000  0.207770  1.0  1.1384
  Mn  Mn34  1  0.207770  0.500000  0.707770  1.0  1.1384
  Mn  Mn35  1  0.707770  0.000000  0.707770  1.0  1.1384
  Mn  Mn36  1  0.707770  0.500000  0.207770  1.0  1.1384
  Mn  Mn37  1  0.792230  0.000000  0.792230  1.0  1.1379
  Mn  Mn38  1  0.792230  0.500000  0.292230  1.0  1.1379
  Mn  Mn39  1  0.292230  0.000000  0.292230  1.0  1.1379
  Mn  Mn40  1  0.292230  0.500000  0.792230  1.0  1.1379
  Mn  Mn41  1  0.207770  0.000000  0.792230  1.0  1.1386
  Mn  Mn42  1  0.207770  0.500000  0.292230  1.0  1.1386
  Mn  Mn43  1  0.707770  0.000000  0.292230  1.0  1.1386
  Mn  Mn44  1  0.707770  0.500000  0.792230  1.0  1.1386
  Mn  Mn45  1  0.792230  0.000000  0.207770  1.0  1.1371
  Mn  Mn46  1  0.792230  0.500000  0.707770  1.0  1.1371
  Mn  Mn47  1  0.292230  0.000000  0.707770  1.0  1.1371
  Mn  Mn48  1  0.292230  0.500000  0.207770  1.0  1.1371
  H  H49  1  0.271800  0.121700  0.878300  1.0  0.1501
  H  H50  1  0.271800  0.621700  0.378300  1.0  0.1501
  H  H51  1  0.771800  0.121700  0.378300  1.0  0.1501
  H  H52  1  0.771800  0.621700  0.878300  1.0  0.1501
  H  H53  1  0.728200  0.878300  0.878300  1.0  0.15
  H  H54  1  0.728200  0.378300  0.378300  1.0  0.15
  H  H55  1  0.228200  0.878300  0.378300  1.0  0.15
  H  H56  1  0.228200  0.378300  0.878300  1.0  0.15
  H  H57  1  0.728200  0.121700  0.121700  1.0  0.1499
  H  H58  1  0.728200  0.621700  0.621700  1.0  0.1499
  H  H59  1  0.228200  0.121700  0.621700  1.0  0.1499
  H  H60  1  0.228200  0.621700  0.121700  1.0  0.1499
  H  H61  1  0.271800  0.878300  0.121700  1.0  0.15
  H  H62  1  0.271800  0.378300  0.621700  1.0  0.15
  H  H63  1  0.771800  0.878300  0.621700  1.0  0.15
  H  H64  1  0.771800  0.378300  0.121700  1.0  0.15
  H  H65  1  0.878300  0.271800  0.121700  1.0  0.1502
  H  H66  1  0.878300  0.771800  0.621700  1.0  0.1502
  H  H67  1  0.378300  0.271800  0.621700  1.0  0.1502
  H  H68  1  0.378300  0.771800  0.121700  1.0  0.1502
  H  H69  1  0.878300  0.728200  0.878300  1.0  0.1501
  H  H70  1  0.878300  0.228200  0.378300  1.0  0.1501
  H  H71  1  0.378300  0.728200  0.378300  1.0  0.1501
  H  H72  1  0.378300  0.228200  0.878300  1.0  0.1501
  H  H73  1  0.121700  0.728200  0.121700  1.0  0.1501
  H  H74  1  0.121700  0.228200  0.621700  1.0  0.1501
  H  H75  1  0.621700  0.728200  0.621700  1.0  0.1501
  H  H76  1  0.621700  0.228200  0.121700  1.0  0.1501
  H  H77  1  0.121700  0.271800  0.878300  1.0  0.15
  H  H78  1  0.121700  0.771800  0.378300  1.0  0.15
  H  H79  1  0.621700  0.271800  0.378300  1.0  0.15
  H  H80  1  0.621700  0.771800  0.878300  1.0  0.15
  H  H81  1  0.121700  0.878300  0.271800  1.0  0.1507
  H  H82  1  0.121700  0.378300  0.771800  1.0  0.1507
  H  H83  1  0.621700  0.878300  0.771800  1.0  0.1507
  H  H84  1  0.621700  0.378300  0.271800  1.0  0.1507
  H  H85  1  0.878300  0.878300  0.728200  1.0  0.1513
  H  H86  1  0.878300  0.378300  0.228200  1.0  0.1513
  H  H87  1  0.378300  0.878300  0.228200  1.0  0.1513
  H  H88  1  0.378300  0.378300  0.728200  1.0  0.1513
  H  H89  1  0.121700  0.121700  0.728200  1.0  0.1513
  H  H90  1  0.121700  0.621700  0.228200  1.0  0.1513
  H  H91  1  0.621700  0.121700  0.228200  1.0  0.1513
  H  H92  1  0.621700  0.621700  0.728200  1.0  0.1513
  H  H93  1  0.878300  0.121700  0.271800  1.0  0.1508
  H  H94  1  0.878300  0.621700  0.771800  1.0  0.1508
  H  H95  1  0.378300  0.121700  0.771800  1.0  0.1508
  H  H96  1  0.378300  0.621700  0.271800  1.0  0.1508
  H  H97  1  0.121700  0.271800  0.121700  1.0  0.15
  H  H98  1  0.121700  0.771800  0.621700  1.0  0.15
  H  H99  1  0.621700  0.271800  0.621700  1.0  0.15
  H  H100  1  0.621700  0.771800  0.121700  1.0  0.15
  H  H101  1  0.878300  0.728200  0.121700  1.0  0.15
  H  H102  1  0.878300  0.228200  0.621700  1.0  0.15
  H  H103  1  0.378300  0.728200  0.621700  1.0  0.15
  H  H104  1  0.378300  0.228200  0.121700  1.0  0.15
  H  H105  1  0.121700  0.728200  0.878300  1.0  0.1501
  H  H106  1  0.121700  0.228200  0.378300  1.0  0.1501
  H  H107  1  0.621700  0.728200  0.378300  1.0  0.1501
  H  H108  1  0.621700  0.228200  0.878300  1.0  0.1501
  H  H109  1  0.878300  0.271800  0.878300  1.0  0.1501
  H  H110  1  0.878300  0.771800  0.378300  1.0  0.1501
  H  H111  1  0.378300  0.271800  0.378300  1.0  0.1501
  H  H112  1  0.378300  0.771800  0.878300  1.0  0.1501
  H  H113  1  0.271800  0.878300  0.878300  1.0  0.15
  H  H114  1  0.271800  0.378300  0.378300  1.0  0.15
  H  H115  1  0.771800  0.878300  0.378300  1.0  0.15
  H  H116  1  0.771800  0.378300  0.878300  1.0  0.15
  H  H117  1  0.728200  0.878300  0.121700  1.0  0.1499
  H  H118  1  0.728200  0.378300  0.621700  1.0  0.1499
  H  H119  1  0.228200  0.878300  0.621700  1.0  0.1499
  H  H120  1  0.228200  0.378300  0.121700  1.0  0.1499
  H  H121  1  0.728200  0.121700  0.878300  1.0  0.1499
  H  H122  1  0.728200  0.621700  0.378300  1.0  0.1499
  H  H123  1  0.228200  0.121700  0.378300  1.0  0.1499
  H  H124  1  0.228200  0.621700  0.878300  1.0  0.1499
  H  H125  1  0.271800  0.121700  0.121700  1.0  0.1501
  H  H126  1  0.271800  0.621700  0.621700  1.0  0.1501
  H  H127  1  0.771800  0.121700  0.621700  1.0  0.1501
  H  H128  1  0.771800  0.621700  0.121700  1.0  0.1501
  H  H129  1  0.878300  0.121700  0.728200  1.0  0.1511
  H  H130  1  0.878300  0.621700  0.228200  1.0  0.1511
  H  H131  1  0.378300  0.121700  0.228200  1.0  0.1511
  H  H132  1  0.378300  0.621700  0.728200  1.0  0.1511
  H  H133  1  0.878300  0.878300  0.271800  1.0  0.1508
  H  H134  1  0.878300  0.378300  0.771800  1.0  0.1508
  H  H135  1  0.378300  0.878300  0.771800  1.0  0.1508
  H  H136  1  0.378300  0.378300  0.271800  1.0  0.1508
  H  H137  1  0.121700  0.121700  0.271800  1.0  0.1509
  H  H138  1  0.121700  0.621700  0.771800  1.0  0.1509
  H  H139  1  0.621700  0.121700  0.771800  1.0  0.1509
  H  H140  1  0.621700  0.621700  0.271800  1.0  0.1509
  H  H141  1  0.121700  0.878300  0.728200  1.0  0.1512
  H  H142  1  0.121700  0.378300  0.228200  1.0  0.1512
  H  H143  1  0.621700  0.878300  0.228200  1.0  0.1512
  H  H144  1  0.621700  0.378300  0.728200  1.0  0.1512
  C  C145  1  0.322100  0.177900  0.885000  1.0  -0.1304
  C  C146  1  0.297500  0.202500  0.929800  1.0  0.777
  C  C147  1  0.322100  0.677900  0.385000  1.0  -0.1304
  C  C148  1  0.297500  0.702500  0.429800  1.0  0.777
  C  C149  1  0.677900  0.822100  0.885000  1.0  -0.1303
  C  C150  1  0.702500  0.797500  0.929800  1.0  0.7768
  C  C151  1  0.677900  0.322100  0.385000  1.0  -0.1303
  C  C152  1  0.702500  0.297500  0.429800  1.0  0.7768
  C  C153  1  0.177900  0.322100  0.885000  1.0  -0.1303
  C  C154  1  0.202500  0.297500  0.929800  1.0  0.7768
  C  C155  1  0.677900  0.177900  0.115000  1.0  -0.1284
  C  C156  1  0.702500  0.202500  0.070200  1.0  0.7753
  C  C157  1  0.677900  0.677900  0.615000  1.0  -0.1284
  C  C158  1  0.702500  0.702500  0.570200  1.0  0.7753
  C  C159  1  0.177900  0.177900  0.615000  1.0  -0.1284
  C  C160  1  0.202500  0.202500  0.570200  1.0  0.7753
  C  C161  1  0.322100  0.822100  0.115000  1.0  -0.1292
  C  C162  1  0.297500  0.797500  0.070200  1.0  0.7751
  C  C163  1  0.322100  0.322100  0.615000  1.0  -0.1292
  C  C164  1  0.297500  0.297500  0.570200  1.0  0.7751
  C  C165  1  0.885000  0.322100  0.177900  1.0  -0.1325
  C  C166  1  0.929800  0.297500  0.202500  1.0  0.7725
  C  C167  1  0.385000  0.322100  0.677900  1.0  -0.1325
  C  C168  1  0.429800  0.297500  0.702500  1.0  0.7725
  C  C169  1  0.885000  0.677900  0.822100  1.0  -0.1326
  C  C170  1  0.929800  0.702500  0.797500  1.0  0.7728
  C  C171  1  0.885000  0.177900  0.322100  1.0  -0.1326
  C  C172  1  0.929800  0.202500  0.297500  1.0  0.7728
  C  C173  1  0.385000  0.677900  0.322100  1.0  -0.1326
  C  C174  1  0.429800  0.702500  0.297500  1.0  0.7728
  C  C175  1  0.115000  0.677900  0.177900  1.0  -0.1319
  C  C176  1  0.070200  0.702500  0.202500  1.0  0.7733
  C  C177  1  0.615000  0.677900  0.677900  1.0  -0.1319
  C  C178  1  0.570200  0.702500  0.702500  1.0  0.7733
  C  C179  1  0.615000  0.177900  0.177900  1.0  -0.1319
  C  C180  1  0.570200  0.202500  0.202500  1.0  0.7733
  C  C181  1  0.115000  0.322100  0.822100  1.0  -0.1323
  C  C182  1  0.070200  0.297500  0.797500  1.0  0.7729
  C  C183  1  0.615000  0.322100  0.322100  1.0  -0.1323
  C  C184  1  0.570200  0.297500  0.297500  1.0  0.7729
  C  C185  1  0.177900  0.885000  0.322100  1.0  -0.1314
  C  C186  1  0.202500  0.929800  0.297500  1.0  0.7725
  C  C187  1  0.177900  0.385000  0.822100  1.0  -0.1314
  C  C188  1  0.202500  0.429800  0.797500  1.0  0.7725
  C  C189  1  0.822100  0.885000  0.677900  1.0  -0.1316
  C  C190  1  0.797500  0.929800  0.702500  1.0  0.7722
  C  C191  1  0.822100  0.385000  0.177900  1.0  -0.1316
  C  C192  1  0.797500  0.429800  0.202500  1.0  0.7722
  C  C193  1  0.322100  0.885000  0.177900  1.0  -0.1316
  C  C194  1  0.297500  0.929800  0.202500  1.0  0.7722
  C  C195  1  0.177900  0.115000  0.677900  1.0  -0.1307
  C  C196  1  0.202500  0.070200  0.702500  1.0  0.7715
  C  C197  1  0.177900  0.615000  0.177900  1.0  -0.1307
  C  C198  1  0.202500  0.570200  0.202500  1.0  0.7715
  C  C199  1  0.822100  0.115000  0.322100  1.0  -0.1315
  C  C200  1  0.797500  0.070200  0.297500  1.0  0.7712
  C  C201  1  0.822100  0.615000  0.822100  1.0  -0.1315
  C  C202  1  0.797500  0.570200  0.797500  1.0  0.7712
  C  C203  1  0.322100  0.615000  0.322100  1.0  -0.1315
  C  C204  1  0.297500  0.570200  0.297500  1.0  0.7712
  C  C205  1  0.177900  0.322100  0.115000  1.0  -0.1288
  C  C206  1  0.202500  0.297500  0.070200  1.0  0.7751
  C  C207  1  0.177900  0.822100  0.615000  1.0  -0.1288
  C  C208  1  0.202500  0.797500  0.570200  1.0  0.7751
  C  C209  1  0.822100  0.677900  0.115000  1.0  -0.129
  C  C210  1  0.797500  0.702500  0.070200  1.0  0.7753
  C  C211  1  0.822100  0.177900  0.615000  1.0  -0.129
  C  C212  1  0.797500  0.202500  0.570200  1.0  0.7753
  C  C213  1  0.322100  0.177900  0.115000  1.0  -0.129
  C  C214  1  0.297500  0.202500  0.070200  1.0  0.7753
  C  C215  1  0.177900  0.677900  0.885000  1.0  -0.1301
  C  C216  1  0.202500  0.702500  0.929800  1.0  0.7775
  C  C217  1  0.177900  0.177900  0.385000  1.0  -0.1301
  C  C218  1  0.202500  0.202500  0.429800  1.0  0.7775
  C  C219  1  0.822100  0.322100  0.885000  1.0  -0.1306
  C  C220  1  0.797500  0.297500  0.929800  1.0  0.7763
  C  C221  1  0.822100  0.822100  0.385000  1.0  -0.1306
  C  C222  1  0.797500  0.797500  0.429800  1.0  0.7763
  C  C223  1  0.322100  0.322100  0.385000  1.0  -0.1306
  C  C224  1  0.297500  0.297500  0.429800  1.0  0.7763
  C  C225  1  0.322100  0.885000  0.822100  1.0  -0.1318
  C  C226  1  0.297500  0.929800  0.797500  1.0  0.772
  C  C227  1  0.322100  0.385000  0.322100  1.0  -0.1318
  C  C228  1  0.297500  0.429800  0.297500  1.0  0.772
  C  C229  1  0.677900  0.885000  0.177900  1.0  -0.1312
  C  C230  1  0.702500  0.929800  0.202500  1.0  0.7725
  C  C231  1  0.677900  0.385000  0.677900  1.0  -0.1312
  C  C232  1  0.702500  0.429800  0.702500  1.0  0.7725
  C  C233  1  0.177900  0.385000  0.177900  1.0  -0.1312
  C  C234  1  0.202500  0.429800  0.202500  1.0  0.7725
  C  C235  1  0.677900  0.115000  0.822100  1.0  -0.1311
  C  C236  1  0.702500  0.070200  0.797500  1.0  0.7716
  C  C237  1  0.677900  0.615000  0.322100  1.0  -0.1311
  C  C238  1  0.702500  0.570200  0.297500  1.0  0.7716
  C  C239  1  0.177900  0.115000  0.322100  1.0  -0.1311
  C  C240  1  0.202500  0.070200  0.297500  1.0  0.7716
  C  C241  1  0.322100  0.115000  0.177900  1.0  -0.1311
  C  C242  1  0.297500  0.070200  0.202500  1.0  0.7714
  C  C243  1  0.322100  0.615000  0.677900  1.0  -0.1311
  C  C244  1  0.297500  0.570200  0.702500  1.0  0.7714
  C  C245  1  0.885000  0.177900  0.677900  1.0  -0.1325
  C  C246  1  0.929800  0.202500  0.702500  1.0  0.7731
  C  C247  1  0.385000  0.177900  0.177900  1.0  -0.1325
  C  C248  1  0.429800  0.202500  0.202500  1.0  0.7731
  C  C249  1  0.885000  0.822100  0.322100  1.0  -0.1326
  C  C250  1  0.929800  0.797500  0.297500  1.0  0.7722
  C  C251  1  0.385000  0.822100  0.822100  1.0  -0.1326
  C  C252  1  0.429800  0.797500  0.797500  1.0  0.7722
  C  C253  1  0.385000  0.322100  0.322100  1.0  -0.1326
  C  C254  1  0.429800  0.297500  0.297500  1.0  0.7722
  C  C255  1  0.115000  0.177900  0.322100  1.0  -0.1322
  C  C256  1  0.070200  0.202500  0.297500  1.0  0.7731
  C  C257  1  0.615000  0.177900  0.822100  1.0  -0.1322
  C  C258  1  0.570200  0.202500  0.797500  1.0  0.7731
  C  C259  1  0.115000  0.822100  0.677900  1.0  -0.1321
  C  C260  1  0.070200  0.797500  0.702500  1.0  0.7732
  C  C261  1  0.115000  0.322100  0.177900  1.0  -0.1321
  C  C262  1  0.070200  0.297500  0.202500  1.0  0.7732
  C  C263  1  0.615000  0.822100  0.177900  1.0  -0.1321
  C  C264  1  0.570200  0.797500  0.202500  1.0  0.7732
  C  C265  1  0.677900  0.822100  0.115000  1.0  -0.1288
  C  C266  1  0.702500  0.797500  0.070200  1.0  0.7751
  C  C267  1  0.677900  0.322100  0.615000  1.0  -0.1288
  C  C268  1  0.702500  0.297500  0.570200  1.0  0.7751
  C  C269  1  0.322100  0.677900  0.615000  1.0  -0.129
  C  C270  1  0.297500  0.702500  0.570200  1.0  0.7753
  C  C271  1  0.322100  0.822100  0.885000  1.0  -0.1306
  C  C272  1  0.297500  0.797500  0.929800  1.0  0.7763
  C  C273  1  0.677900  0.177900  0.885000  1.0  -0.1301
  C  C274  1  0.702500  0.202500  0.929800  1.0  0.7775
  C  C275  1  0.677900  0.677900  0.385000  1.0  -0.1301
  C  C276  1  0.702500  0.702500  0.429800  1.0  0.7775
  C  C277  1  0.115000  0.677900  0.822100  1.0  -0.1322
  C  C278  1  0.070200  0.702500  0.797500  1.0  0.7731
  C  C279  1  0.615000  0.677900  0.322100  1.0  -0.1322
  C  C280  1  0.570200  0.702500  0.297500  1.0  0.7731
  C  C281  1  0.615000  0.322100  0.677900  1.0  -0.1321
  C  C282  1  0.570200  0.297500  0.702500  1.0  0.7732
  C  C283  1  0.885000  0.322100  0.822100  1.0  -0.1326
  C  C284  1  0.929800  0.297500  0.797500  1.0  0.7722
  C  C285  1  0.885000  0.677900  0.177900  1.0  -0.1325
  C  C286  1  0.929800  0.702500  0.202500  1.0  0.7731
  C  C287  1  0.385000  0.677900  0.677900  1.0  -0.1325
  C  C288  1  0.429800  0.702500  0.702500  1.0  0.7731
  C  C289  1  0.822100  0.115000  0.677900  1.0  -0.1311
  C  C290  1  0.797500  0.070200  0.702500  1.0  0.7714
  C  C291  1  0.822100  0.615000  0.177900  1.0  -0.1311
  C  C292  1  0.797500  0.570200  0.202500  1.0  0.7714
  C  C293  1  0.177900  0.615000  0.822100  1.0  -0.1311
  C  C294  1  0.202500  0.570200  0.797500  1.0  0.7716
  C  C295  1  0.822100  0.885000  0.322100  1.0  -0.1318
  C  C296  1  0.797500  0.929800  0.297500  1.0  0.772
  C  C297  1  0.822100  0.385000  0.822100  1.0  -0.1318
  C  C298  1  0.797500  0.429800  0.797500  1.0  0.772
  C  C299  1  0.177900  0.885000  0.677900  1.0  -0.1312
  C  C300  1  0.202500  0.929800  0.702500  1.0  0.7725
  C  C301  1  0.822100  0.677900  0.885000  1.0  -0.1304
  C  C302  1  0.797500  0.702500  0.929800  1.0  0.777
  C  C303  1  0.822100  0.177900  0.385000  1.0  -0.1304
  C  C304  1  0.797500  0.202500  0.429800  1.0  0.777
  C  C305  1  0.177900  0.822100  0.385000  1.0  -0.1303
  C  C306  1  0.202500  0.797500  0.429800  1.0  0.7768
  C  C307  1  0.822100  0.322100  0.115000  1.0  -0.1292
  C  C308  1  0.797500  0.297500  0.070200  1.0  0.7751
  C  C309  1  0.822100  0.822100  0.615000  1.0  -0.1292
  C  C310  1  0.797500  0.797500  0.570200  1.0  0.7751
  C  C311  1  0.177900  0.677900  0.115000  1.0  -0.1284
  C  C312  1  0.202500  0.702500  0.070200  1.0  0.7753
  C  C313  1  0.677900  0.115000  0.177900  1.0  -0.1307
  C  C314  1  0.702500  0.070200  0.202500  1.0  0.7715
  C  C315  1  0.677900  0.615000  0.677900  1.0  -0.1307
  C  C316  1  0.702500  0.570200  0.702500  1.0  0.7715
  C  C317  1  0.322100  0.115000  0.822100  1.0  -0.1315
  C  C318  1  0.297500  0.070200  0.797500  1.0  0.7712
  C  C319  1  0.322100  0.385000  0.677900  1.0  -0.1316
  C  C320  1  0.297500  0.429800  0.702500  1.0  0.7722
  C  C321  1  0.677900  0.885000  0.822100  1.0  -0.1314
  C  C322  1  0.702500  0.929800  0.797500  1.0  0.7725
  C  C323  1  0.677900  0.385000  0.322100  1.0  -0.1314
  C  C324  1  0.702500  0.429800  0.297500  1.0  0.7725
  C  C325  1  0.115000  0.822100  0.322100  1.0  -0.1323
  C  C326  1  0.070200  0.797500  0.297500  1.0  0.7729
  C  C327  1  0.615000  0.822100  0.822100  1.0  -0.1323
  C  C328  1  0.570200  0.797500  0.797500  1.0  0.7729
  C  C329  1  0.115000  0.177900  0.677900  1.0  -0.1319
  C  C330  1  0.070200  0.202500  0.702500  1.0  0.7733
  C  C331  1  0.885000  0.822100  0.677900  1.0  -0.1325
  C  C332  1  0.929800  0.797500  0.702500  1.0  0.7725
  C  C333  1  0.385000  0.822100  0.177900  1.0  -0.1325
  C  C334  1  0.429800  0.797500  0.202500  1.0  0.7725
  C  C335  1  0.385000  0.177900  0.822100  1.0  -0.1326
  C  C336  1  0.429800  0.202500  0.797500  1.0  0.7728
  C  C337  1  0.301200  0.136300  0.863700  1.0  0.025
  C  C338  1  0.301200  0.636300  0.363700  1.0  0.025
  C  C339  1  0.801200  0.136300  0.363700  1.0  0.025
  C  C340  1  0.801200  0.636300  0.863700  1.0  0.025
  C  C341  1  0.698800  0.863700  0.863700  1.0  0.0246
  C  C342  1  0.698800  0.363700  0.363700  1.0  0.0246
  C  C343  1  0.198800  0.863700  0.363700  1.0  0.0246
  C  C344  1  0.198800  0.363700  0.863700  1.0  0.0246
  C  C345  1  0.698800  0.136300  0.136300  1.0  0.0242
  C  C346  1  0.698800  0.636300  0.636300  1.0  0.0242
  C  C347  1  0.198800  0.136300  0.636300  1.0  0.0242
  C  C348  1  0.198800  0.636300  0.136300  1.0  0.0242
  C  C349  1  0.301200  0.863700  0.136300  1.0  0.0232
  C  C350  1  0.301200  0.363700  0.636300  1.0  0.0232
  C  C351  1  0.801200  0.863700  0.636300  1.0  0.0232
  C  C352  1  0.801200  0.363700  0.136300  1.0  0.0232
  C  C353  1  0.863700  0.301200  0.136300  1.0  0.0232
  C  C354  1  0.863700  0.801200  0.636300  1.0  0.0232
  C  C355  1  0.363700  0.301200  0.636300  1.0  0.0232
  C  C356  1  0.363700  0.801200  0.136300  1.0  0.0232
  C  C357  1  0.863700  0.698800  0.863700  1.0  0.0226
  C  C358  1  0.863700  0.198800  0.363700  1.0  0.0226
  C  C359  1  0.363700  0.698800  0.363700  1.0  0.0226
  C  C360  1  0.363700  0.198800  0.863700  1.0  0.0226
  C  C361  1  0.136300  0.698800  0.136300  1.0  0.0225
  C  C362  1  0.136300  0.198800  0.636300  1.0  0.0225
  C  C363  1  0.636300  0.698800  0.636300  1.0  0.0225
  C  C364  1  0.636300  0.198800  0.136300  1.0  0.0225
  C  C365  1  0.136300  0.301200  0.863700  1.0  0.0246
  C  C366  1  0.136300  0.801200  0.363700  1.0  0.0246
  C  C367  1  0.636300  0.301200  0.363700  1.0  0.0246
  C  C368  1  0.636300  0.801200  0.863700  1.0  0.0246
  C  C369  1  0.136300  0.863700  0.301200  1.0  0.0242
  C  C370  1  0.136300  0.363700  0.801200  1.0  0.0242
  C  C371  1  0.636300  0.863700  0.801200  1.0  0.0242
  C  C372  1  0.636300  0.363700  0.301200  1.0  0.0242
  C  C373  1  0.863700  0.863700  0.698800  1.0  0.0233
  C  C374  1  0.863700  0.363700  0.198800  1.0  0.0233
  C  C375  1  0.363700  0.863700  0.198800  1.0  0.0233
  C  C376  1  0.363700  0.363700  0.698800  1.0  0.0233
  C  C377  1  0.136300  0.136300  0.698800  1.0  0.0241
  C  C378  1  0.136300  0.636300  0.198800  1.0  0.0241
  C  C379  1  0.636300  0.136300  0.198800  1.0  0.0241
  C  C380  1  0.636300  0.636300  0.698800  1.0  0.0241
  C  C381  1  0.863700  0.136300  0.301200  1.0  0.0237
  C  C382  1  0.863700  0.636300  0.801200  1.0  0.0237
  C  C383  1  0.363700  0.136300  0.801200  1.0  0.0237
  C  C384  1  0.363700  0.636300  0.301200  1.0  0.0237
  C  C385  1  0.136300  0.301200  0.136300  1.0  0.0233
  C  C386  1  0.136300  0.801200  0.636300  1.0  0.0233
  C  C387  1  0.636300  0.301200  0.636300  1.0  0.0233
  C  C388  1  0.636300  0.801200  0.136300  1.0  0.0233
  C  C389  1  0.863700  0.698800  0.136300  1.0  0.022
  C  C390  1  0.863700  0.198800  0.636300  1.0  0.022
  C  C391  1  0.363700  0.698800  0.636300  1.0  0.022
  C  C392  1  0.363700  0.198800  0.136300  1.0  0.022
  C  C393  1  0.136300  0.698800  0.863700  1.0  0.0228
  C  C394  1  0.136300  0.198800  0.363700  1.0  0.0228
  C  C395  1  0.636300  0.698800  0.363700  1.0  0.0228
  C  C396  1  0.636300  0.198800  0.863700  1.0  0.0228
  C  C397  1  0.863700  0.301200  0.863700  1.0  0.0247
  C  C398  1  0.863700  0.801200  0.363700  1.0  0.0247
  C  C399  1  0.363700  0.301200  0.363700  1.0  0.0247
  C  C400  1  0.363700  0.801200  0.863700  1.0  0.0247
  C  C401  1  0.301200  0.863700  0.863700  1.0  0.0247
  C  C402  1  0.301200  0.363700  0.363700  1.0  0.0247
  C  C403  1  0.801200  0.863700  0.363700  1.0  0.0247
  C  C404  1  0.801200  0.363700  0.863700  1.0  0.0247
  C  C405  1  0.698800  0.863700  0.136300  1.0  0.0237
  C  C406  1  0.698800  0.363700  0.636300  1.0  0.0237
  C  C407  1  0.198800  0.863700  0.636300  1.0  0.0237
  C  C408  1  0.198800  0.363700  0.136300  1.0  0.0237
  C  C409  1  0.698800  0.136300  0.863700  1.0  0.0254
  C  C410  1  0.698800  0.636300  0.363700  1.0  0.0254
  C  C411  1  0.198800  0.136300  0.363700  1.0  0.0254
  C  C412  1  0.198800  0.636300  0.863700  1.0  0.0254
  C  C413  1  0.301200  0.136300  0.136300  1.0  0.0234
  C  C414  1  0.301200  0.636300  0.636300  1.0  0.0234
  C  C415  1  0.801200  0.136300  0.636300  1.0  0.0234
  C  C416  1  0.801200  0.636300  0.136300  1.0  0.0234
  C  C417  1  0.863700  0.136300  0.698800  1.0  0.0241
  C  C418  1  0.863700  0.636300  0.198800  1.0  0.0241
  C  C419  1  0.363700  0.136300  0.198800  1.0  0.0241
  C  C420  1  0.363700  0.636300  0.698800  1.0  0.0241
  C  C421  1  0.863700  0.863700  0.301200  1.0  0.0234
  C  C422  1  0.863700  0.363700  0.801200  1.0  0.0234
  C  C423  1  0.363700  0.863700  0.801200  1.0  0.0234
  C  C424  1  0.363700  0.363700  0.301200  1.0  0.0234
  C  C425  1  0.136300  0.136300  0.301200  1.0  0.0241
  C  C426  1  0.136300  0.636300  0.801200  1.0  0.0241
  C  C427  1  0.636300  0.136300  0.801200  1.0  0.0241
  C  C428  1  0.636300  0.636300  0.301200  1.0  0.0241
  C  C429  1  0.136300  0.863700  0.698800  1.0  0.0235
  C  C430  1  0.136300  0.363700  0.198800  1.0  0.0235
  C  C431  1  0.636300  0.863700  0.198800  1.0  0.0235
  C  C432  1  0.636300  0.363700  0.698800  1.0  0.0235
  Cl  Cl433  1  0.145390  0.145390  0.000000  1.0  -0.457
  Cl  Cl434  1  0.145390  0.645390  0.500000  1.0  -0.457
  Cl  Cl435  1  0.645390  0.145390  0.500000  1.0  -0.457
  Cl  Cl436  1  0.645390  0.645390  0.000000  1.0  -0.457
  Cl  Cl437  1  0.854610  0.854610  0.000000  1.0  -0.4568
  Cl  Cl438  1  0.854610  0.354610  0.500000  1.0  -0.4568
  Cl  Cl439  1  0.354610  0.854610  0.500000  1.0  -0.4568
  Cl  Cl440  1  0.354610  0.354610  0.000000  1.0  -0.4568
  Cl  Cl441  1  0.854610  0.145390  0.000000  1.0  -0.4571
  Cl  Cl442  1  0.854610  0.645390  0.500000  1.0  -0.4571
  Cl  Cl443  1  0.354610  0.145390  0.500000  1.0  -0.4571
  Cl  Cl444  1  0.354610  0.645390  0.000000  1.0  -0.4571
  Cl  Cl445  1  0.145390  0.854610  0.000000  1.0  -0.4567
  Cl  Cl446  1  0.145390  0.354610  0.500000  1.0  -0.4567
  Cl  Cl447  1  0.645390  0.854610  0.500000  1.0  -0.4567
  Cl  Cl448  1  0.645390  0.354610  0.000000  1.0  -0.4567
  Cl  Cl449  1  0.000000  0.145390  0.145390  1.0  -0.4609
  Cl  Cl450  1  0.000000  0.645390  0.645390  1.0  -0.4609
  Cl  Cl451  1  0.500000  0.145390  0.645390  1.0  -0.4609
  Cl  Cl452  1  0.500000  0.645390  0.145390  1.0  -0.4609
  Cl  Cl453  1  0.000000  0.854610  0.854610  1.0  -0.458
  Cl  Cl454  1  0.000000  0.354610  0.354610  1.0  -0.458
  Cl  Cl455  1  0.500000  0.854610  0.354610  1.0  -0.458
  Cl  Cl456  1  0.500000  0.354610  0.854610  1.0  -0.458
  Cl  Cl457  1  0.000000  0.854610  0.145390  1.0  -0.4612
  Cl  Cl458  1  0.000000  0.354610  0.645390  1.0  -0.4612
  Cl  Cl459  1  0.500000  0.854610  0.645390  1.0  -0.4612
  Cl  Cl460  1  0.500000  0.354610  0.145390  1.0  -0.4612
  Cl  Cl461  1  0.000000  0.145390  0.854610  1.0  -0.4585
  Cl  Cl462  1  0.000000  0.645390  0.354610  1.0  -0.4585
  Cl  Cl463  1  0.500000  0.145390  0.354610  1.0  -0.4585
  Cl  Cl464  1  0.500000  0.645390  0.854610  1.0  -0.4585
  Cl  Cl465  1  0.145390  0.000000  0.145390  1.0  -0.4607
  Cl  Cl466  1  0.145390  0.500000  0.645390  1.0  -0.4607
  Cl  Cl467  1  0.645390  0.000000  0.645390  1.0  -0.4607
  Cl  Cl468  1  0.645390  0.500000  0.145390  1.0  -0.4607
  Cl  Cl469  1  0.854610  0.000000  0.854610  1.0  -0.458
  Cl  Cl470  1  0.854610  0.500000  0.354610  1.0  -0.458
  Cl  Cl471  1  0.354610  0.000000  0.354610  1.0  -0.458
  Cl  Cl472  1  0.354610  0.500000  0.854610  1.0  -0.458
  Cl  Cl473  1  0.145390  0.000000  0.854610  1.0  -0.4573
  Cl  Cl474  1  0.145390  0.500000  0.354610  1.0  -0.4573
  Cl  Cl475  1  0.645390  0.000000  0.354610  1.0  -0.4573
  Cl  Cl476  1  0.645390  0.500000  0.854610  1.0  -0.4573
  Cl  Cl477  1  0.854610  0.000000  0.145390  1.0  -0.4606
  Cl  Cl478  1  0.854610  0.500000  0.645390  1.0  -0.4606
  Cl  Cl479  1  0.354610  0.000000  0.645390  1.0  -0.4606
  Cl  Cl480  1  0.354610  0.500000  0.145390  1.0  -0.4606
  O  O481  1  0.258700  0.183200  0.945400  1.0  -0.5778
  O  O482  1  0.258700  0.683200  0.445400  1.0  -0.5778
  O  O483  1  0.758700  0.183200  0.445400  1.0  -0.5778
  O  O484  1  0.758700  0.683200  0.945400  1.0  -0.5778
  O  O485  1  0.741300  0.816800  0.945400  1.0  -0.5799
  O  O486  1  0.741300  0.316800  0.445400  1.0  -0.5799
  O  O487  1  0.241300  0.816800  0.445400  1.0  -0.5799
  O  O488  1  0.241300  0.316800  0.945400  1.0  -0.5799
  O  O489  1  0.741300  0.183200  0.054600  1.0  -0.5787
  O  O490  1  0.741300  0.683200  0.554600  1.0  -0.5787
  O  O491  1  0.241300  0.183200  0.554600  1.0  -0.5787
  O  O492  1  0.241300  0.683200  0.054600  1.0  -0.5787
  O  O493  1  0.258700  0.816800  0.054600  1.0  -0.5788
  O  O494  1  0.258700  0.316800  0.554600  1.0  -0.5787
  O  O495  1  0.758700  0.816800  0.554600  1.0  -0.5787
  O  O496  1  0.758700  0.316800  0.054600  1.0  -0.5787
  O  O497  1  0.945400  0.258700  0.183200  1.0  -0.577
  O  O498  1  0.945400  0.758700  0.683200  1.0  -0.5769
  O  O499  1  0.445400  0.258700  0.683200  1.0  -0.577
  O  O500  1  0.445400  0.758700  0.183200  1.0  -0.5769
  O  O501  1  0.945400  0.741300  0.816800  1.0  -0.5786
  O  O502  1  0.945400  0.241300  0.316800  1.0  -0.5786
  O  O503  1  0.445400  0.741300  0.316800  1.0  -0.5786
  O  O504  1  0.445400  0.241300  0.816800  1.0  -0.5786
  O  O505  1  0.054600  0.741300  0.183200  1.0  -0.5776
  O  O506  1  0.054600  0.241300  0.683200  1.0  -0.5776
  O  O507  1  0.554600  0.741300  0.683200  1.0  -0.5776
  O  O508  1  0.554600  0.241300  0.183200  1.0  -0.5776
  O  O509  1  0.054600  0.258700  0.816800  1.0  -0.5785
  O  O510  1  0.054600  0.758700  0.316800  1.0  -0.5785
  O  O511  1  0.554600  0.258700  0.316800  1.0  -0.5784
  O  O512  1  0.554600  0.758700  0.816800  1.0  -0.5784
  O  O513  1  0.183200  0.945400  0.258700  1.0  -0.5768
  O  O514  1  0.183200  0.445400  0.758700  1.0  -0.5768
  O  O515  1  0.683200  0.945400  0.758700  1.0  -0.5768
  O  O516  1  0.683200  0.445400  0.258700  1.0  -0.5768
  O  O517  1  0.816800  0.945400  0.741300  1.0  -0.5788
  O  O518  1  0.816800  0.445400  0.241300  1.0  -0.5787
  O  O519  1  0.316800  0.945400  0.241300  1.0  -0.5787
  O  O520  1  0.316800  0.445400  0.741300  1.0  -0.5788
  O  O521  1  0.183200  0.054600  0.741300  1.0  -0.5782
  O  O522  1  0.183200  0.554600  0.241300  1.0  -0.5781
  O  O523  1  0.683200  0.054600  0.241300  1.0  -0.5782
  O  O524  1  0.683200  0.554600  0.741300  1.0  -0.5782
  O  O525  1  0.816800  0.054600  0.258700  1.0  -0.5767
  O  O526  1  0.816800  0.554600  0.758700  1.0  -0.5765
  O  O527  1  0.316800  0.054600  0.758700  1.0  -0.5765
  O  O528  1  0.316800  0.554600  0.258700  1.0  -0.5767
  O  O529  1  0.183200  0.258700  0.054600  1.0  -0.5807
  O  O530  1  0.183200  0.758700  0.554600  1.0  -0.5808
  O  O531  1  0.683200  0.258700  0.554600  1.0  -0.5808
  O  O532  1  0.683200  0.758700  0.054600  1.0  -0.5807
  O  O533  1  0.816800  0.741300  0.054600  1.0  -0.5804
  O  O534  1  0.816800  0.241300  0.554600  1.0  -0.5803
  O  O535  1  0.316800  0.741300  0.554600  1.0  -0.5804
  O  O536  1  0.316800  0.241300  0.054600  1.0  -0.5804
  O  O537  1  0.183200  0.741300  0.945400  1.0  -0.5806
  O  O538  1  0.183200  0.241300  0.445400  1.0  -0.5808
  O  O539  1  0.683200  0.741300  0.445400  1.0  -0.5808
  O  O540  1  0.683200  0.241300  0.945400  1.0  -0.5806
  O  O541  1  0.816800  0.258700  0.945400  1.0  -0.5809
  O  O542  1  0.816800  0.758700  0.445400  1.0  -0.5808
  O  O543  1  0.316800  0.258700  0.445400  1.0  -0.5809
  O  O544  1  0.316800  0.758700  0.945400  1.0  -0.5808
  O  O545  1  0.258700  0.945400  0.816800  1.0  -0.579
  O  O546  1  0.258700  0.445400  0.316800  1.0  -0.5791
  O  O547  1  0.758700  0.945400  0.316800  1.0  -0.579
  O  O548  1  0.758700  0.445400  0.816800  1.0  -0.579
  O  O549  1  0.741300  0.945400  0.183200  1.0  -0.579
  O  O550  1  0.741300  0.445400  0.683200  1.0  -0.579
  O  O551  1  0.241300  0.945400  0.683200  1.0  -0.579
  O  O552  1  0.241300  0.445400  0.183200  1.0  -0.5789
  O  O553  1  0.741300  0.054600  0.816800  1.0  -0.5794
  O  O554  1  0.741300  0.554600  0.316800  1.0  -0.5794
  O  O555  1  0.241300  0.054600  0.316800  1.0  -0.5794
  O  O556  1  0.241300  0.554600  0.816800  1.0  -0.5794
  O  O557  1  0.258700  0.054600  0.183200  1.0  -0.5772
  O  O558  1  0.258700  0.554600  0.683200  1.0  -0.5772
  O  O559  1  0.758700  0.054600  0.683200  1.0  -0.5771
  O  O560  1  0.758700  0.554600  0.183200  1.0  -0.5771
  O  O561  1  0.945400  0.183200  0.741300  1.0  -0.577
  O  O562  1  0.945400  0.683200  0.241300  1.0  -0.5769
  O  O563  1  0.445400  0.183200  0.241300  1.0  -0.5769
  O  O564  1  0.445400  0.683200  0.741300  1.0  -0.577
  O  O565  1  0.945400  0.816800  0.258700  1.0  -0.5752
  O  O566  1  0.945400  0.316800  0.758700  1.0  -0.575
  O  O567  1  0.445400  0.816800  0.758700  1.0  -0.575
  O  O568  1  0.445400  0.316800  0.258700  1.0  -0.575
  O  O569  1  0.054600  0.183200  0.258700  1.0  -0.5742
  O  O570  1  0.054600  0.683200  0.758700  1.0  -0.5741
  O  O571  1  0.554600  0.183200  0.758700  1.0  -0.5741
  O  O572  1  0.554600  0.683200  0.258700  1.0  -0.5743
  O  O573  1  0.054600  0.816800  0.741300  1.0  -0.5774
  O  O574  1  0.054600  0.316800  0.241300  1.0  -0.5772
  O  O575  1  0.554600  0.816800  0.241300  1.0  -0.5772
  O  O576  1  0.554600  0.316800  0.741300  1.0  -0.5774
  O  O577  1  0.741300  0.816800  0.054600  1.0  -0.5798
  O  O578  1  0.741300  0.316800  0.554600  1.0  -0.5798
  O  O579  1  0.241300  0.816800  0.554600  1.0  -0.5799
  O  O580  1  0.241300  0.316800  0.054600  1.0  -0.5798
  O  O581  1  0.258700  0.183200  0.054600  1.0  -0.5779
  O  O582  1  0.258700  0.683200  0.554600  1.0  -0.5778
  O  O583  1  0.758700  0.183200  0.554600  1.0  -0.5778
  O  O584  1  0.758700  0.683200  0.054600  1.0  -0.5779
  O  O585  1  0.258700  0.816800  0.945400  1.0  -0.5786
  O  O586  1  0.258700  0.316800  0.445400  1.0  -0.5785
  O  O587  1  0.758700  0.816800  0.445400  1.0  -0.5786
  O  O588  1  0.758700  0.316800  0.945400  1.0  -0.5786
  O  O589  1  0.741300  0.183200  0.945400  1.0  -0.5791
  O  O590  1  0.741300  0.683200  0.445400  1.0  -0.5791
  O  O591  1  0.241300  0.183200  0.445400  1.0  -0.5791
  O  O592  1  0.241300  0.683200  0.945400  1.0  -0.5791
  O  O593  1  0.054600  0.741300  0.816800  1.0  -0.5787
  O  O594  1  0.054600  0.241300  0.316800  1.0  -0.5787
  O  O595  1  0.554600  0.741300  0.316800  1.0  -0.5788
  O  O596  1  0.554600  0.241300  0.816800  1.0  -0.5789
  O  O597  1  0.054600  0.258700  0.183200  1.0  -0.577
  O  O598  1  0.054600  0.758700  0.683200  1.0  -0.5771
  O  O599  1  0.554600  0.258700  0.683200  1.0  -0.5771
  O  O600  1  0.554600  0.758700  0.183200  1.0  -0.5771
  O  O601  1  0.945400  0.258700  0.816800  1.0  -0.5781
  O  O602  1  0.945400  0.758700  0.316800  1.0  -0.5781
  O  O603  1  0.445400  0.258700  0.316800  1.0  -0.5781
  O  O604  1  0.445400  0.758700  0.816800  1.0  -0.5781
  O  O605  1  0.945400  0.741300  0.183200  1.0  -0.5779
  O  O606  1  0.945400  0.241300  0.683200  1.0  -0.578
  O  O607  1  0.445400  0.741300  0.683200  1.0  -0.5779
  O  O608  1  0.445400  0.241300  0.183200  1.0  -0.5778
  O  O609  1  0.816800  0.054600  0.741300  1.0  -0.5787
  O  O610  1  0.816800  0.554600  0.241300  1.0  -0.5788
  O  O611  1  0.316800  0.054600  0.241300  1.0  -0.5788
  O  O612  1  0.316800  0.554600  0.741300  1.0  -0.5787
  O  O613  1  0.183200  0.054600  0.258700  1.0  -0.5773
  O  O614  1  0.183200  0.554600  0.758700  1.0  -0.5773
  O  O615  1  0.683200  0.054600  0.758700  1.0  -0.5773
  O  O616  1  0.683200  0.554600  0.258700  1.0  -0.5773
  O  O617  1  0.816800  0.945400  0.258700  1.0  -0.5764
  O  O618  1  0.816800  0.445400  0.758700  1.0  -0.5765
  O  O619  1  0.316800  0.945400  0.758700  1.0  -0.5765
  O  O620  1  0.316800  0.445400  0.258700  1.0  -0.5764
  O  O621  1  0.183200  0.945400  0.741300  1.0  -0.5784
  O  O622  1  0.183200  0.445400  0.241300  1.0  -0.5784
  O  O623  1  0.683200  0.945400  0.241300  1.0  -0.5784
  O  O624  1  0.683200  0.445400  0.741300  1.0  -0.5784
  O  O625  1  0.816800  0.741300  0.945400  1.0  -0.5809
  O  O626  1  0.816800  0.241300  0.445400  1.0  -0.581
  O  O627  1  0.316800  0.741300  0.445400  1.0  -0.5809
  O  O628  1  0.316800  0.241300  0.945400  1.0  -0.5809
  O  O629  1  0.183200  0.258700  0.945400  1.0  -0.5804
  O  O630  1  0.183200  0.758700  0.445400  1.0  -0.5803
  O  O631  1  0.683200  0.258700  0.445400  1.0  -0.5803
  O  O632  1  0.683200  0.758700  0.945400  1.0  -0.5804
  O  O633  1  0.816800  0.258700  0.054600  1.0  -0.5805
  O  O634  1  0.816800  0.758700  0.554600  1.0  -0.5806
  O  O635  1  0.316800  0.258700  0.554600  1.0  -0.5806
  O  O636  1  0.316800  0.758700  0.054600  1.0  -0.5806
  O  O637  1  0.183200  0.741300  0.054600  1.0  -0.5806
  O  O638  1  0.183200  0.241300  0.554600  1.0  -0.5807
  O  O639  1  0.683200  0.741300  0.554600  1.0  -0.5806
  O  O640  1  0.683200  0.241300  0.054600  1.0  -0.5806
  O  O641  1  0.741300  0.054600  0.183200  1.0  -0.5788
  O  O642  1  0.741300  0.554600  0.683200  1.0  -0.5788
  O  O643  1  0.241300  0.054600  0.683200  1.0  -0.5789
  O  O644  1  0.241300  0.554600  0.183200  1.0  -0.5788
  O  O645  1  0.258700  0.054600  0.816800  1.0  -0.5787
  O  O646  1  0.258700  0.554600  0.316800  1.0  -0.5787
  O  O647  1  0.758700  0.054600  0.316800  1.0  -0.5788
  O  O648  1  0.758700  0.554600  0.816800  1.0  -0.5788
  O  O649  1  0.258700  0.945400  0.183200  1.0  -0.5774
  O  O650  1  0.258700  0.445400  0.683200  1.0  -0.5772
  O  O651  1  0.758700  0.945400  0.683200  1.0  -0.5774
  O  O652  1  0.758700  0.445400  0.183200  1.0  -0.5774
  O  O653  1  0.741300  0.945400  0.816800  1.0  -0.5796
  O  O654  1  0.741300  0.445400  0.316800  1.0  -0.5796
  O  O655  1  0.241300  0.945400  0.316800  1.0  -0.5796
  O  O656  1  0.241300  0.445400  0.816800  1.0  -0.5796
  O  O657  1  0.054600  0.816800  0.258700  1.0  -0.5751
  O  O658  1  0.054600  0.316800  0.758700  1.0  -0.5752
  O  O659  1  0.554600  0.816800  0.758700  1.0  -0.5752
  O  O660  1  0.554600  0.316800  0.258700  1.0  -0.5751
  O  O661  1  0.054600  0.183200  0.741300  1.0  -0.5767
  O  O662  1  0.054600  0.683200  0.241300  1.0  -0.5767
  O  O663  1  0.554600  0.183200  0.241300  1.0  -0.5767
  O  O664  1  0.554600  0.683200  0.741300  1.0  -0.5767
  O  O665  1  0.945400  0.816800  0.741300  1.0  -0.5772
  O  O666  1  0.945400  0.316800  0.241300  1.0  -0.5773
  O  O667  1  0.445400  0.816800  0.241300  1.0  -0.5773
  O  O668  1  0.445400  0.316800  0.741300  1.0  -0.5772
  O  O669  1  0.945400  0.183200  0.258700  1.0  -0.5742
  O  O670  1  0.945400  0.683200  0.758700  1.0  -0.5744
  O  O671  1  0.445400  0.183200  0.758700  1.0  -0.5744
  O  O672  1  0.445400  0.683200  0.258700  1.0  -0.5742
