# generated using pymatgen
data_TbH24C44S4(NO3)4
_symmetry_space_group_name_H-M   'P 1'
_cell_length_a   15.38730000
_cell_length_b   15.38730000
_cell_length_c   9.83790000
_cell_angle_alpha   90.00000000
_cell_angle_beta   90.00000000
_cell_angle_gamma   90.00000000
_symmetry_Int_Tables_number   1
_chemical_formula_structural   TbH24C44S4(NO3)4
_chemical_formula_sum   'Tb2 H48 C88 S8 N8 O24'
_cell_volume   2329.30975779
_cell_formula_units_Z   2
loop_
 _symmetry_equiv_pos_site_id
 _symmetry_equiv_pos_as_xyz
  1  'x, y, z'
loop_
 _atom_site_type_symbol
 _atom_site_label
 _atom_site_symmetry_multiplicity
 _atom_site_fract_x
 _atom_site_fract_y
 _atom_site_fract_z
 _atom_site_occupancy
 _atom_site_charge
  Tb  Tb1  1  0.500000  0.500000  0.250000  1.0  2.3368
  Tb  Tb2  1  0.500000  0.500000  0.750000  1.0  2.3368
  H  H3  1  0.411600  0.262700  0.204000  1.0  0.1284
  H  H4  1  0.287600  0.178200  0.204000  1.0  0.106
  H  H5  1  0.588400  0.737300  0.204000  1.0  0.128
  H  H6  1  0.712400  0.821800  0.204000  1.0  0.106
  H  H7  1  0.737300  0.411600  0.204000  1.0  0.1281
  H  H8  1  0.821800  0.287600  0.204000  1.0  0.1071
  H  H9  1  0.262700  0.588400  0.204000  1.0  0.1289
  H  H10  1  0.178200  0.712400  0.204000  1.0  0.1071
  H  H11  1  0.588400  0.262700  0.296000  1.0  0.1284
  H  H12  1  0.712400  0.178200  0.296000  1.0  0.106
  H  H13  1  0.411600  0.737300  0.296000  1.0  0.1285
  H  H14  1  0.287600  0.821800  0.296000  1.0  0.1065
  H  H15  1  0.262700  0.411600  0.296000  1.0  0.1287
  H  H16  1  0.178200  0.287600  0.296000  1.0  0.1075
  H  H17  1  0.737300  0.588400  0.296000  1.0  0.1287
  H  H18  1  0.821800  0.712400  0.296000  1.0  0.107
  H  H19  1  0.588400  0.737300  0.796000  1.0  0.1287
  H  H20  1  0.712400  0.821800  0.796000  1.0  0.1063
  H  H21  1  0.411600  0.262700  0.796000  1.0  0.1283
  H  H22  1  0.287600  0.178200  0.796000  1.0  0.106
  H  H23  1  0.262700  0.588400  0.796000  1.0  0.129
  H  H24  1  0.178200  0.712400  0.796000  1.0  0.1071
  H  H25  1  0.737300  0.411600  0.796000  1.0  0.1287
  H  H26  1  0.821800  0.287600  0.796000  1.0  0.1074
  H  H27  1  0.411600  0.737300  0.704000  1.0  0.1281
  H  H28  1  0.287600  0.821800  0.704000  1.0  0.106
  H  H29  1  0.588400  0.262700  0.704000  1.0  0.1281
  H  H30  1  0.712400  0.178200  0.704000  1.0  0.1061
  H  H31  1  0.737300  0.588400  0.704000  1.0  0.1283
  H  H32  1  0.821800  0.712400  0.704000  1.0  0.107
  H  H33  1  0.262700  0.411600  0.704000  1.0  0.1284
  H  H34  1  0.178200  0.287600  0.704000  1.0  0.1072
  H  H35  1  0.151600  0.297400  0.000000  1.0  0.1243
  H  H36  1  0.997200  0.333100  0.000000  1.0  0.1296
  H  H37  1  0.848400  0.702600  0.000000  1.0  0.1231
  H  H38  1  0.002800  0.666900  0.000000  1.0  0.1298
  H  H39  1  0.702600  0.151600  0.000000  1.0  0.125
  H  H40  1  0.666900  0.997200  0.000000  1.0  0.1287
  H  H41  1  0.297400  0.848400  0.000000  1.0  0.1251
  H  H42  1  0.333100  0.002800  0.000000  1.0  0.1288
  H  H43  1  0.848400  0.297400  0.500000  1.0  0.1237
  H  H44  1  0.002800  0.333100  0.500000  1.0  0.1295
  H  H45  1  0.151600  0.702600  0.500000  1.0  0.1242
  H  H46  1  0.997200  0.666900  0.500000  1.0  0.1298
  H  H47  1  0.297400  0.151600  0.500000  1.0  0.1252
  H  H48  1  0.333100  0.997200  0.500000  1.0  0.1287
  H  H49  1  0.702600  0.848400  0.500000  1.0  0.1243
  H  H50  1  0.666900  0.002800  0.500000  1.0  0.1285
  C  C51  1  0.386970  0.245010  0.122200  1.0  -0.0334
  C  C52  1  0.312270  0.195180  0.121900  1.0  -0.1039
  C  C53  1  0.613030  0.754990  0.122200  1.0  -0.032
  C  C54  1  0.687730  0.804820  0.121900  1.0  -0.103
  C  C55  1  0.754990  0.386970  0.122200  1.0  -0.0309
  C  C56  1  0.804820  0.312270  0.121900  1.0  -0.1035
  C  C57  1  0.245010  0.613030  0.122200  1.0  -0.0316
  C  C58  1  0.195180  0.687730  0.121900  1.0  -0.1025
  C  C59  1  0.613030  0.245010  0.377800  1.0  -0.0316
  C  C60  1  0.687730  0.195180  0.378100  1.0  -0.1052
  C  C61  1  0.386970  0.754990  0.377800  1.0  -0.0324
  C  C62  1  0.312270  0.804820  0.378100  1.0  -0.1061
  C  C63  1  0.245010  0.386970  0.377800  1.0  -0.0305
  C  C64  1  0.195180  0.312270  0.378100  1.0  -0.1037
  C  C65  1  0.754990  0.613030  0.377800  1.0  -0.0309
  C  C66  1  0.804820  0.687730  0.378100  1.0  -0.1055
  C  C67  1  0.613030  0.754990  0.877800  1.0  -0.0291
  C  C68  1  0.687730  0.804820  0.878100  1.0  -0.1103
  C  C69  1  0.386970  0.245010  0.877800  1.0  -0.0304
  C  C70  1  0.312270  0.195180  0.878100  1.0  -0.1099
  C  C71  1  0.245010  0.613030  0.877800  1.0  -0.0289
  C  C72  1  0.195180  0.687730  0.878100  1.0  -0.1085
  C  C73  1  0.754990  0.386970  0.877800  1.0  -0.0282
  C  C74  1  0.804820  0.312270  0.878100  1.0  -0.1094
  C  C75  1  0.386970  0.754990  0.622200  1.0  -0.0304
  C  C76  1  0.312270  0.804820  0.621900  1.0  -0.1078
  C  C77  1  0.613030  0.245010  0.622200  1.0  -0.0297
  C  C78  1  0.687730  0.195180  0.621900  1.0  -0.1079
  C  C79  1  0.754990  0.613030  0.622200  1.0  -0.0289
  C  C80  1  0.804820  0.687730  0.621900  1.0  -0.1082
  C  C81  1  0.245010  0.386970  0.622200  1.0  -0.0286
  C  C82  1  0.195180  0.312270  0.621900  1.0  -0.1064
  C  C83  1  0.425000  0.268500  0.000000  1.0  -0.1978
  C  C84  1  0.273500  0.170000  0.000000  1.0  0.0878
  C  C85  1  0.191500  0.117900  0.000000  1.0  -0.0424
  C  C86  1  0.112700  0.164400  0.000000  1.0  0.1597
  C  C87  1  0.105800  0.258000  0.000000  1.0  -0.1605
  C  C88  1  0.020700  0.277400  0.000000  1.0  -0.1471
  C  C89  1  0.972000  0.198100  0.000000  1.0  0.1569
  C  C90  1  0.575000  0.731500  0.000000  1.0  -0.1992
  C  C91  1  0.726500  0.830000  0.000000  1.0  0.0868
  C  C92  1  0.808500  0.882100  0.000000  1.0  -0.0412
  C  C93  1  0.887300  0.835600  0.000000  1.0  0.1599
  C  C94  1  0.894200  0.742000  0.000000  1.0  -0.1615
  C  C95  1  0.979300  0.722600  0.000000  1.0  -0.1474
  C  C96  1  0.028000  0.801900  0.000000  1.0  0.1581
  C  C97  1  0.731500  0.425000  0.000000  1.0  -0.2005
  C  C98  1  0.830000  0.273500  0.000000  1.0  0.0877
  C  C99  1  0.882100  0.191500  0.000000  1.0  -0.0418
  C  C100  1  0.835600  0.112700  0.000000  1.0  0.1595
  C  C101  1  0.742000  0.105800  0.000000  1.0  -0.1585
  C  C102  1  0.722600  0.020700  0.000000  1.0  -0.1423
  C  C103  1  0.801900  0.972000  0.000000  1.0  0.1577
  C  C104  1  0.268500  0.575000  0.000000  1.0  -0.1988
  C  C105  1  0.170000  0.726500  0.000000  1.0  0.0868
  C  C106  1  0.117900  0.808500  0.000000  1.0  -0.0413
  C  C107  1  0.164400  0.887300  0.000000  1.0  0.1597
  C  C108  1  0.258000  0.894200  0.000000  1.0  -0.1591
  C  C109  1  0.277400  0.979300  0.000000  1.0  -0.1433
  C  C110  1  0.198100  0.028000  0.000000  1.0  0.1579
  C  C111  1  0.575000  0.268500  0.500000  1.0  -0.2001
  C  C112  1  0.726500  0.170000  0.500000  1.0  0.087
  C  C113  1  0.808500  0.117900  0.500000  1.0  -0.042
  C  C114  1  0.887300  0.164400  0.500000  1.0  0.1596
  C  C115  1  0.894200  0.258000  0.500000  1.0  -0.1616
  C  C116  1  0.979300  0.277400  0.500000  1.0  -0.1465
  C  C117  1  0.028000  0.198100  0.500000  1.0  0.1582
  C  C118  1  0.425000  0.731500  0.500000  1.0  -0.1977
  C  C119  1  0.273500  0.830000  0.500000  1.0  0.0875
  C  C120  1  0.191500  0.882100  0.500000  1.0  -0.0415
  C  C121  1  0.112700  0.835600  0.500000  1.0  0.1603
  C  C122  1  0.105800  0.742000  0.500000  1.0  -0.1607
  C  C123  1  0.020700  0.722600  0.500000  1.0  -0.1477
  C  C124  1  0.972000  0.801900  0.500000  1.0  0.1573
  C  C125  1  0.268500  0.425000  0.500000  1.0  -0.2011
  C  C126  1  0.170000  0.273500  0.500000  1.0  0.0869
  C  C127  1  0.117900  0.191500  0.500000  1.0  -0.0426
  C  C128  1  0.164400  0.112700  0.500000  1.0  0.1585
  C  C129  1  0.258000  0.105800  0.500000  1.0  -0.1589
  C  C130  1  0.277400  0.020700  0.500000  1.0  -0.1435
  C  C131  1  0.198100  0.972000  0.500000  1.0  0.1576
  C  C132  1  0.731500  0.575000  0.500000  1.0  -0.1976
  C  C133  1  0.830000  0.726500  0.500000  1.0  0.0876
  C  C134  1  0.882100  0.808500  0.500000  1.0  -0.0409
  C  C135  1  0.835600  0.887300  0.500000  1.0  0.1598
  C  C136  1  0.742000  0.894200  0.500000  1.0  -0.1589
  C  C137  1  0.722600  0.979300  0.500000  1.0  -0.1424
  C  C138  1  0.801900  0.028000  0.500000  1.0  0.1582
  S  S139  1  0.526740  0.320960  0.000000  1.0  1.4059
  S  S140  1  0.473260  0.679040  0.000000  1.0  1.4063
  S  S141  1  0.679040  0.526740  0.000000  1.0  1.4066
  S  S142  1  0.320960  0.473260  0.000000  1.0  1.4065
  S  S143  1  0.473260  0.320960  0.500000  1.0  1.4063
  S  S144  1  0.526740  0.679040  0.500000  1.0  1.4058
  S  S145  1  0.320960  0.526740  0.500000  1.0  1.4066
  S  S146  1  0.679040  0.473260  0.500000  1.0  1.4067
  N  N147  1  0.029900  0.129700  0.000000  1.0  -0.2373
  N  N148  1  0.970100  0.870300  0.000000  1.0  -0.2358
  N  N149  1  0.870300  0.029900  0.000000  1.0  -0.2395
  N  N150  1  0.129700  0.970100  0.000000  1.0  -0.2414
  N  N151  1  0.970100  0.129700  0.500000  1.0  -0.2368
  N  N152  1  0.029900  0.870300  0.500000  1.0  -0.2357
  N  N153  1  0.129700  0.029900  0.500000  1.0  -0.2417
  N  N154  1  0.870300  0.970100  0.500000  1.0  -0.2409
  O  O155  1  0.531840  0.373600  0.122300  1.0  -0.7181
  O  O156  1  0.468160  0.626400  0.122300  1.0  -0.7173
  O  O157  1  0.626400  0.531840  0.122300  1.0  -0.717
  O  O158  1  0.373600  0.468160  0.122300  1.0  -0.7165
  O  O159  1  0.468160  0.373600  0.377700  1.0  -0.7164
  O  O160  1  0.531840  0.626400  0.377700  1.0  -0.717
  O  O161  1  0.373600  0.531840  0.377700  1.0  -0.7155
  O  O162  1  0.626400  0.468160  0.377700  1.0  -0.7156
  O  O163  1  0.468160  0.626400  0.877700  1.0  -0.7166
  O  O164  1  0.531840  0.373600  0.877700  1.0  -0.7166
  O  O165  1  0.373600  0.468160  0.877700  1.0  -0.7155
  O  O166  1  0.626400  0.531840  0.877700  1.0  -0.716
  O  O167  1  0.531840  0.626400  0.622300  1.0  -0.7179
  O  O168  1  0.468160  0.373600  0.622300  1.0  -0.7175
  O  O169  1  0.626400  0.468160  0.622300  1.0  -0.7169
  O  O170  1  0.373600  0.531840  0.622300  1.0  -0.7164
  O  O171  1  0.589540  0.252670  0.000000  1.0  -0.6288
  O  O172  1  0.410460  0.747330  0.000000  1.0  -0.6305
  O  O173  1  0.747330  0.589540  0.000000  1.0  -0.6251
  O  O174  1  0.252670  0.410460  0.000000  1.0  -0.6253
  O  O175  1  0.410460  0.252670  0.500000  1.0  -0.6288
  O  O176  1  0.589540  0.747330  0.500000  1.0  -0.6316
  O  O177  1  0.252670  0.589540  0.500000  1.0  -0.6249
  O  O178  1  0.747330  0.410460  0.500000  1.0  -0.625
