# generated using pymatgen
data_U5(PO4)4
_symmetry_space_group_name_H-M   'P 1'
_cell_length_a   15.51200000
_cell_length_b   13.79530000
_cell_length_c   13.01990000
_cell_angle_alpha   90.00000000
_cell_angle_beta   90.00000000
_cell_angle_gamma   90.00000000
_symmetry_Int_Tables_number   1
_chemical_formula_structural   U5(PO4)4
_chemical_formula_sum   'U20 P16 O64'
_cell_volume   2786.16347140
_cell_formula_units_Z   4
loop_
 _symmetry_equiv_pos_site_id
 _symmetry_equiv_pos_as_xyz
  1  'x, y, z'
loop_
 _atom_site_type_symbol
 _atom_site_label
 _atom_site_symmetry_multiplicity
 _atom_site_fract_x
 _atom_site_fract_y
 _atom_site_fract_z
 _atom_site_occupancy
 _atom_site_charge
  U  U1  1  0.244520  0.490130  0.437330  1.0  1.8047
  U  U2  1  0.223090  0.238570  0.585770  1.0  1.8482
  U  U3  1  0.744520  0.990130  0.437330  1.0  1.8047
  U  U4  1  0.723090  0.738570  0.585770  1.0  1.8482
  U  U5  1  0.755480  0.509870  0.937330  1.0  1.8052
  U  U6  1  0.776910  0.761430  0.085770  1.0  1.8485
  U  U7  1  0.255480  0.009870  0.937330  1.0  1.8052
  U  U8  1  0.276910  0.261430  0.085770  1.0  1.8485
  U  U9  1  0.244520  0.509870  0.937330  1.0  1.8043
  U  U10  1  0.223090  0.761430  0.085770  1.0  1.8482
  U  U11  1  0.744520  0.009870  0.937330  1.0  1.8043
  U  U12  1  0.723090  0.261430  0.085770  1.0  1.8482
  U  U13  1  0.755480  0.490130  0.437330  1.0  1.8055
  U  U14  1  0.776910  0.238570  0.585770  1.0  1.8484
  U  U15  1  0.255480  0.990130  0.437330  1.0  1.8055
  U  U16  1  0.276910  0.738570  0.585770  1.0  1.8484
  U  U17  1  0.000000  0.116120  0.243940  1.0  1.7832
  U  U18  1  0.500000  0.616120  0.243940  1.0  1.7832
  U  U19  1  0.000000  0.883880  0.743940  1.0  1.7843
  U  U20  1  0.500000  0.383880  0.743940  1.0  1.7843
  P  P21  1  0.222700  0.018200  0.175700  1.0  1.5428
  P  P22  1  0.186700  0.242100  0.344500  1.0  1.4953
  P  P23  1  0.722700  0.518200  0.175700  1.0  1.5428
  P  P24  1  0.686700  0.742100  0.344500  1.0  1.4953
  P  P25  1  0.777300  0.981800  0.675700  1.0  1.5434
  P  P26  1  0.813300  0.757900  0.844500  1.0  1.496
  P  P27  1  0.277300  0.481800  0.675700  1.0  1.5434
  P  P28  1  0.313300  0.257900  0.844500  1.0  1.496
  P  P29  1  0.222700  0.981800  0.675700  1.0  1.543
  P  P30  1  0.186700  0.757900  0.844500  1.0  1.496
  P  P31  1  0.722700  0.481800  0.675700  1.0  1.543
  P  P32  1  0.686700  0.257900  0.844500  1.0  1.496
  P  P33  1  0.777300  0.018200  0.175700  1.0  1.5431
  P  P34  1  0.813300  0.242100  0.344500  1.0  1.4951
  P  P35  1  0.277300  0.518200  0.175700  1.0  1.5431
  P  P36  1  0.313300  0.742100  0.344500  1.0  1.4951
  O  O37  1  0.197500  0.327800  0.420500  1.0  -0.9721
  O  O38  1  0.267300  0.093000  0.102700  1.0  -0.9713
  O  O39  1  0.210900  0.931800  0.101100  1.0  -0.9667
  O  O40  1  0.209000  0.153600  0.414100  1.0  -0.9908
  O  O41  1  0.281500  0.992200  0.264100  1.0  -0.857
  O  O42  1  0.254100  0.251800  0.256800  1.0  -0.9484
  O  O43  1  0.095200  0.238700  0.306000  1.0  -0.9047
  O  O44  1  0.137400  0.053400  0.213500  1.0  -0.9694
  O  O45  1  0.697500  0.827800  0.420500  1.0  -0.9721
  O  O46  1  0.767300  0.593000  0.102700  1.0  -0.9713
  O  O47  1  0.710900  0.431800  0.101100  1.0  -0.9667
  O  O48  1  0.709000  0.653600  0.414100  1.0  -0.9908
  O  O49  1  0.781500  0.492200  0.264100  1.0  -0.857
  O  O50  1  0.754100  0.751800  0.256800  1.0  -0.9484
  O  O51  1  0.595200  0.738700  0.306000  1.0  -0.9047
  O  O52  1  0.637400  0.553400  0.213500  1.0  -0.9694
  O  O53  1  0.802500  0.672200  0.920500  1.0  -0.9712
  O  O54  1  0.732700  0.907000  0.602700  1.0  -0.9718
  O  O55  1  0.789100  0.068200  0.601100  1.0  -0.9678
  O  O56  1  0.791000  0.846400  0.914100  1.0  -0.9919
  O  O57  1  0.718500  0.007800  0.764100  1.0  -0.8575
  O  O58  1  0.745900  0.748200  0.756800  1.0  -0.9492
  O  O59  1  0.904800  0.761300  0.806000  1.0  -0.9067
  O  O60  1  0.862600  0.946600  0.713500  1.0  -0.9716
  O  O61  1  0.302500  0.172200  0.920500  1.0  -0.9712
  O  O62  1  0.232700  0.407000  0.602700  1.0  -0.9718
  O  O63  1  0.289100  0.568200  0.601100  1.0  -0.9678
  O  O64  1  0.291000  0.346400  0.914100  1.0  -0.9919
  O  O65  1  0.218500  0.507800  0.764100  1.0  -0.8575
  O  O66  1  0.245900  0.248200  0.756800  1.0  -0.9492
  O  O67  1  0.404800  0.261300  0.806000  1.0  -0.9067
  O  O68  1  0.362600  0.446600  0.713500  1.0  -0.9716
  O  O69  1  0.197500  0.672200  0.920500  1.0  -0.9709
  O  O70  1  0.267300  0.907000  0.602700  1.0  -0.9716
  O  O71  1  0.210900  0.068200  0.601100  1.0  -0.9669
  O  O72  1  0.209000  0.846400  0.914100  1.0  -0.9914
  O  O73  1  0.281500  0.007800  0.764100  1.0  -0.8571
  O  O74  1  0.254100  0.748200  0.756800  1.0  -0.9488
  O  O75  1  0.095200  0.761300  0.806000  1.0  -0.9041
  O  O76  1  0.137400  0.946600  0.713500  1.0  -0.9691
  O  O77  1  0.697500  0.172200  0.920500  1.0  -0.9709
  O  O78  1  0.767300  0.407000  0.602700  1.0  -0.9716
  O  O79  1  0.710900  0.568200  0.601100  1.0  -0.9669
  O  O80  1  0.709000  0.346400  0.914100  1.0  -0.9914
  O  O81  1  0.781500  0.507800  0.764100  1.0  -0.8571
  O  O82  1  0.754100  0.248200  0.756800  1.0  -0.9488
  O  O83  1  0.595200  0.261300  0.806000  1.0  -0.9041
  O  O84  1  0.637400  0.446600  0.713500  1.0  -0.9691
  O  O85  1  0.802500  0.327800  0.420500  1.0  -0.9721
  O  O86  1  0.732700  0.093000  0.102700  1.0  -0.9717
  O  O87  1  0.789100  0.931800  0.101100  1.0  -0.9676
  O  O88  1  0.791000  0.153600  0.414100  1.0  -0.9912
  O  O89  1  0.718500  0.992200  0.264100  1.0  -0.8574
  O  O90  1  0.745900  0.251800  0.256800  1.0  -0.9487
  O  O91  1  0.904800  0.238700  0.306000  1.0  -0.9069
  O  O92  1  0.862600  0.053400  0.213500  1.0  -0.9719
  O  O93  1  0.302500  0.827800  0.420500  1.0  -0.9721
  O  O94  1  0.232700  0.593000  0.102700  1.0  -0.9717
  O  O95  1  0.289100  0.431800  0.101100  1.0  -0.9676
  O  O96  1  0.291000  0.653600  0.414100  1.0  -0.9912
  O  O97  1  0.218500  0.492200  0.264100  1.0  -0.8574
  O  O98  1  0.245900  0.751800  0.256800  1.0  -0.9487
  O  O99  1  0.404800  0.738700  0.306000  1.0  -0.9069
  O  O100  1  0.362600  0.553400  0.213500  1.0  -0.9719
