# generated using pymatgen
data_U5(PO4)4
_symmetry_space_group_name_H-M   'P 1'
_cell_length_a   15.52000000
_cell_length_b   13.89000000
_cell_length_c   13.07690000
_cell_angle_alpha   90.00000000
_cell_angle_beta   90.00000000
_cell_angle_gamma   90.00000000
_symmetry_Int_Tables_number   1
_chemical_formula_structural   U5(PO4)4
_chemical_formula_sum   'U20 P16 O64'
_cell_volume   2819.02394832
_cell_formula_units_Z   4
loop_
 _symmetry_equiv_pos_site_id
 _symmetry_equiv_pos_as_xyz
  1  'x, y, z'
loop_
 _atom_site_type_symbol
 _atom_site_label
 _atom_site_symmetry_multiplicity
 _atom_site_fract_x
 _atom_site_fract_y
 _atom_site_fract_z
 _atom_site_occupancy
 _atom_site_charge
  U  U1  1  0.261360  0.989590  0.437330  1.0  1.7357
  U  U2  1  0.274380  0.737500  0.585200  1.0  1.7855
  U  U3  1  0.761360  0.489590  0.437330  1.0  1.7357
  U  U4  1  0.774380  0.237500  0.585200  1.0  1.7855
  U  U5  1  0.738640  0.010410  0.937330  1.0  1.7351
  U  U6  1  0.725620  0.262500  0.085200  1.0  1.7857
  U  U7  1  0.238640  0.510410  0.937330  1.0  1.7351
  U  U8  1  0.225620  0.762500  0.085200  1.0  1.7857
  U  U9  1  0.261360  0.010410  0.937330  1.0  1.7357
  U  U10  1  0.274380  0.262500  0.085200  1.0  1.7856
  U  U11  1  0.761360  0.510410  0.937330  1.0  1.7357
  U  U12  1  0.774380  0.762500  0.085200  1.0  1.7856
  U  U13  1  0.738640  0.989590  0.437330  1.0  1.7351
  U  U14  1  0.725620  0.737500  0.585200  1.0  1.7857
  U  U15  1  0.238640  0.489590  0.437330  1.0  1.7351
  U  U16  1  0.225620  0.237500  0.585200  1.0  1.7857
  U  U17  1  0.500000  0.610030  0.247300  1.0  1.7167
  U  U18  1  0.000000  0.110030  0.247300  1.0  1.7167
  U  U19  1  0.500000  0.389970  0.747300  1.0  1.7176
  U  U20  1  0.000000  0.889970  0.747300  1.0  1.7176
  P  P21  1  0.275800  0.518700  0.175700  1.0  1.5454
  P  P22  1  0.312900  0.739500  0.345900  1.0  1.5087
  P  P23  1  0.775800  0.018700  0.175700  1.0  1.5454
  P  P24  1  0.812900  0.239500  0.345900  1.0  1.5087
  P  P25  1  0.724200  0.481300  0.675700  1.0  1.5456
  P  P26  1  0.687100  0.260500  0.845900  1.0  1.51
  P  P27  1  0.224200  0.981300  0.675700  1.0  1.5456
  P  P28  1  0.187100  0.760500  0.845900  1.0  1.51
  P  P29  1  0.275800  0.481300  0.675700  1.0  1.5456
  P  P30  1  0.312900  0.260500  0.845900  1.0  1.5094
  P  P31  1  0.775800  0.981300  0.675700  1.0  1.5456
  P  P32  1  0.812900  0.760500  0.845900  1.0  1.5094
  P  P33  1  0.724200  0.518700  0.175700  1.0  1.5454
  P  P34  1  0.687100  0.739500  0.345900  1.0  1.5094
  P  P35  1  0.224200  0.018700  0.175700  1.0  1.5454
  P  P36  1  0.187100  0.239500  0.345900  1.0  1.5094
  O  O37  1  0.305100  0.825000  0.420400  1.0  -0.9564
  O  O38  1  0.233000  0.593600  0.103900  1.0  -0.9487
  O  O39  1  0.279800  0.431400  0.102100  1.0  -0.9536
  O  O40  1  0.284600  0.653700  0.414400  1.0  -0.9681
  O  O41  1  0.217400  0.494600  0.264800  1.0  -0.862
  O  O42  1  0.249100  0.752100  0.255400  1.0  -0.9207
  O  O43  1  0.404600  0.727600  0.308700  1.0  -0.8855
  O  O44  1  0.363300  0.549700  0.209600  1.0  -0.9439
  O  O45  1  0.805100  0.325000  0.420400  1.0  -0.9564
  O  O46  1  0.733000  0.093600  0.103900  1.0  -0.9487
  O  O47  1  0.779800  0.931400  0.102100  1.0  -0.9536
  O  O48  1  0.784600  0.153700  0.414400  1.0  -0.9681
  O  O49  1  0.717400  0.994600  0.264800  1.0  -0.862
  O  O50  1  0.749100  0.252100  0.255400  1.0  -0.9207
  O  O51  1  0.904600  0.227600  0.308700  1.0  -0.8855
  O  O52  1  0.863300  0.049700  0.209600  1.0  -0.9413
  O  O53  1  0.694900  0.175000  0.920400  1.0  -0.9552
  O  O54  1  0.767000  0.406400  0.603900  1.0  -0.9471
  O  O55  1  0.720200  0.568600  0.602100  1.0  -0.9547
  O  O56  1  0.715400  0.346300  0.914400  1.0  -0.9689
  O  O57  1  0.782600  0.505400  0.764800  1.0  -0.862
  O  O58  1  0.750900  0.247900  0.755400  1.0  -0.9215
  O  O59  1  0.595400  0.272400  0.808700  1.0  -0.8811
  O  O60  1  0.636700  0.450300  0.709600  1.0  -0.9404
  O  O61  1  0.194900  0.675000  0.920400  1.0  -0.9552
  O  O62  1  0.267000  0.906400  0.603900  1.0  -0.9471
  O  O63  1  0.220200  0.068600  0.602100  1.0  -0.9547
  O  O64  1  0.215400  0.846300  0.914400  1.0  -0.9689
  O  O65  1  0.282600  0.005400  0.764800  1.0  -0.862
  O  O66  1  0.250900  0.747900  0.755400  1.0  -0.9215
  O  O67  1  0.095400  0.772400  0.808700  1.0  -0.8811
  O  O68  1  0.136700  0.950300  0.709600  1.0  -0.9404
  O  O69  1  0.305100  0.175000  0.920400  1.0  -0.9555
  O  O70  1  0.233000  0.406400  0.603900  1.0  -0.9488
  O  O71  1  0.279800  0.568600  0.602100  1.0  -0.9542
  O  O72  1  0.284600  0.346300  0.914400  1.0  -0.9686
  O  O73  1  0.217400  0.505400  0.764800  1.0  -0.862
  O  O74  1  0.249100  0.247900  0.755400  1.0  -0.9208
  O  O75  1  0.404600  0.272400  0.808700  1.0  -0.8844
  O  O76  1  0.363300  0.450300  0.709600  1.0  -0.9426
  O  O77  1  0.805100  0.675000  0.920400  1.0  -0.9555
  O  O78  1  0.733000  0.906400  0.603900  1.0  -0.9488
  O  O79  1  0.779800  0.068600  0.602100  1.0  -0.9542
  O  O80  1  0.784600  0.846300  0.914400  1.0  -0.9686
  O  O81  1  0.717400  0.005400  0.764800  1.0  -0.862
  O  O82  1  0.749100  0.747900  0.755400  1.0  -0.9208
  O  O83  1  0.904600  0.772400  0.808700  1.0  -0.8844
  O  O84  1  0.863300  0.950300  0.709600  1.0  -0.9423
  O  O85  1  0.694900  0.825000  0.420400  1.0  -0.9565
  O  O86  1  0.767000  0.593600  0.103900  1.0  -0.9478
  O  O87  1  0.720200  0.431400  0.102100  1.0  -0.9539
  O  O88  1  0.715400  0.653700  0.414400  1.0  -0.9685
  O  O89  1  0.782600  0.494600  0.264800  1.0  -0.8622
  O  O90  1  0.750900  0.752100  0.255400  1.0  -0.9213
  O  O91  1  0.595400  0.727600  0.308700  1.0  -0.8814
  O  O92  1  0.636700  0.549700  0.209600  1.0  -0.9415
  O  O93  1  0.194900  0.325000  0.420400  1.0  -0.9565
  O  O94  1  0.267000  0.093600  0.103900  1.0  -0.9478
  O  O95  1  0.220200  0.931400  0.102100  1.0  -0.9539
  O  O96  1  0.215400  0.153700  0.414400  1.0  -0.9685
  O  O97  1  0.282600  0.994600  0.264800  1.0  -0.8622
  O  O98  1  0.250900  0.252100  0.255400  1.0  -0.9213
  O  O99  1  0.095400  0.227600  0.308700  1.0  -0.8814
  O  O100  1  0.136700  0.049700  0.209600  1.0  -0.9406
