# generated using pymatgen
data_NdH2C7(NO3)2
_symmetry_space_group_name_H-M   'P 1'
_cell_length_a   10.98900000
_cell_length_b   11.94600000
_cell_length_c   19.40200000
_cell_angle_alpha   90.00000000
_cell_angle_beta   90.00000000
_cell_angle_gamma   90.00000000
_symmetry_Int_Tables_number   1
_chemical_formula_structural   NdH2C7(NO3)2
_chemical_formula_sum   'Nd8 H16 C56 N16 O48'
_cell_volume   2546.98967279
_cell_formula_units_Z   8
loop_
 _symmetry_equiv_pos_site_id
 _symmetry_equiv_pos_as_xyz
  1  'x, y, z'
loop_
 _atom_site_type_symbol
 _atom_site_label
 _atom_site_symmetry_multiplicity
 _atom_site_fract_x
 _atom_site_fract_y
 _atom_site_fract_z
 _atom_site_occupancy
 _atom_site_charge
  Nd  Nd1  1  0.136720  0.341810  0.014380  1.0  2.2174
  Nd  Nd2  1  0.617970  0.524000  0.228550  1.0  2.1797
  Nd  Nd3  1  0.863280  0.658190  0.514380  1.0  2.2173
  Nd  Nd4  1  0.382030  0.476000  0.728550  1.0  2.1793
  Nd  Nd5  1  0.363280  0.841810  0.014380  1.0  2.2175
  Nd  Nd6  1  0.882030  0.024000  0.228550  1.0  2.1793
  Nd  Nd7  1  0.636720  0.158190  0.514380  1.0  2.2173
  Nd  Nd8  1  0.117970  0.976000  0.728550  1.0  2.1796
  H  H9  1  0.349300  0.493300  0.121800  1.0  0.043
  H  H10  1  0.231800  0.240300  0.282100  1.0  0.1637
  H  H11  1  0.870100  0.398300  0.125700  1.0  0.0563
  H  H12  1  0.005400  0.756400  0.114800  1.0  0.1288
  H  H13  1  0.650700  0.506700  0.621800  1.0  0.0429
  H  H14  1  0.768200  0.759700  0.782100  1.0  0.1636
  H  H15  1  0.129900  0.601700  0.625700  1.0  0.0562
  H  H16  1  0.994600  0.243600  0.614800  1.0  0.1294
  H  H17  1  0.150700  0.993300  0.121800  1.0  0.0427
  H  H18  1  0.268200  0.740300  0.282100  1.0  0.1635
  H  H19  1  0.629900  0.898300  0.125700  1.0  0.0571
  H  H20  1  0.494600  0.256400  0.114800  1.0  0.1291
  H  H21  1  0.849300  0.006700  0.621800  1.0  0.043
  H  H22  1  0.731800  0.259700  0.782100  1.0  0.1636
  H  H23  1  0.370100  0.101700  0.625700  1.0  0.0556
  H  H24  1  0.505400  0.743600  0.614800  1.0  0.1294
  C  C25  1  0.327900  0.438300  0.153400  1.0  0.4416
  C  C26  1  0.364200  0.351800  0.255800  1.0  0.2312
  C  C27  1  0.257700  0.289600  0.248100  1.0  -0.1418
  C  C28  1  0.193000  0.304000  0.188700  1.0  0.1809
  C  C29  1  0.086200  0.229400  0.170400  1.0  0.6834
  C  C30  1  0.447300  0.332600  0.316700  1.0  0.6203
  C  C31  1  0.898200  0.471700  0.124000  1.0  0.492
  C  C32  1  0.873600  0.654900  0.153700  1.0  0.1941
  C  C33  1  0.978600  0.682700  0.118000  1.0  -0.1397
  C  C34  1  0.041300  0.596100  0.087600  1.0  0.2125
  C  C35  1  0.160500  0.616000  0.050100  1.0  0.6703
  C  C36  1  0.796000  0.744600  0.187900  1.0  0.6994
  C  C37  1  0.799200  0.564900  0.359900  1.0  0.6086
  C  C38  1  0.677400  0.617400  0.383700  1.0  0.556
  C  C39  1  0.672100  0.561700  0.653400  1.0  0.4431
  C  C40  1  0.635800  0.648200  0.755800  1.0  0.2307
  C  C41  1  0.742300  0.710400  0.748100  1.0  -0.1393
  C  C42  1  0.807000  0.696000  0.688700  1.0  0.1817
  C  C43  1  0.913800  0.770600  0.670400  1.0  0.6823
  C  C44  1  0.552700  0.667400  0.816700  1.0  0.622
  C  C45  1  0.101800  0.528300  0.624000  1.0  0.4896
  C  C46  1  0.126400  0.345100  0.653700  1.0  0.1936
  C  C47  1  0.021400  0.317300  0.618000  1.0  -0.1423
  C  C48  1  0.958700  0.403900  0.587600  1.0  0.2117
  C  C49  1  0.839500  0.384000  0.550100  1.0  0.6697
  C  C50  1  0.204000  0.255400  0.687900  1.0  0.6985
  C  C51  1  0.200800  0.435100  0.859900  1.0  0.6085
  C  C52  1  0.322600  0.382600  0.883700  1.0  0.5553
  C  C53  1  0.172100  0.938300  0.153400  1.0  0.4428
  C  C54  1  0.135800  0.851800  0.255800  1.0  0.2312
  C  C55  1  0.242300  0.789600  0.248100  1.0  -0.1393
  C  C56  1  0.307000  0.804000  0.188700  1.0  0.1817
  C  C57  1  0.413800  0.729400  0.170400  1.0  0.6821
  C  C58  1  0.052700  0.832600  0.316700  1.0  0.6219
  C  C59  1  0.601800  0.971700  0.124000  1.0  0.49
  C  C60  1  0.626400  0.154900  0.153700  1.0  0.1933
  C  C61  1  0.521400  0.182700  0.118000  1.0  -0.1422
  C  C62  1  0.458700  0.096100  0.087600  1.0  0.2116
  C  C63  1  0.339500  0.116000  0.050100  1.0  0.6699
  C  C64  1  0.704000  0.244600  0.187900  1.0  0.6987
  C  C65  1  0.700800  0.064900  0.359900  1.0  0.609
  C  C66  1  0.822600  0.117400  0.383700  1.0  0.5548
  C  C67  1  0.827900  0.061700  0.653400  1.0  0.4418
  C  C68  1  0.864200  0.148200  0.755800  1.0  0.2308
  C  C69  1  0.757700  0.210400  0.748100  1.0  -0.1422
  C  C70  1  0.693000  0.196000  0.688700  1.0  0.1812
  C  C71  1  0.586200  0.270600  0.670400  1.0  0.6839
  C  C72  1  0.947300  0.167400  0.816700  1.0  0.6203
  C  C73  1  0.398200  0.028300  0.624000  1.0  0.492
  C  C74  1  0.373600  0.845100  0.653700  1.0  0.1941
  C  C75  1  0.478600  0.817300  0.618000  1.0  -0.1397
  C  C76  1  0.541300  0.903900  0.587600  1.0  0.2124
  C  C77  1  0.660500  0.884000  0.550100  1.0  0.6702
  C  C78  1  0.296000  0.755400  0.687900  1.0  0.6992
  C  C79  1  0.299200  0.935100  0.859900  1.0  0.608
  C  C80  1  0.177400  0.882600  0.883700  1.0  0.5561
  N  N81  1  0.227600  0.378800  0.140000  1.0  -0.5106
  N  N82  1  0.399900  0.425700  0.208200  1.0  -0.5314
  N  N83  1  0.000500  0.490900  0.088700  1.0  -0.5591
  N  N84  1  0.832900  0.549200  0.157100  1.0  -0.5209
  N  N85  1  0.772400  0.621200  0.640000  1.0  -0.5088
  N  N86  1  0.600100  0.574300  0.708200  1.0  -0.5315
  N  N87  1  0.999500  0.509100  0.588700  1.0  -0.5592
  N  N88  1  0.167100  0.450800  0.657100  1.0  -0.5214
  N  N89  1  0.272400  0.878800  0.140000  1.0  -0.5084
  N  N90  1  0.100100  0.925700  0.208200  1.0  -0.5299
  N  N91  1  0.499500  0.990900  0.088700  1.0  -0.5595
  N  N92  1  0.667100  0.049200  0.157100  1.0  -0.521
  N  N93  1  0.727600  0.121200  0.640000  1.0  -0.5108
  N  N94  1  0.899900  0.074300  0.708200  1.0  -0.5311
  N  N95  1  0.500500  0.009100  0.588700  1.0  -0.5591
  N  N96  1  0.332900  0.950800  0.657100  1.0  -0.5205
  O  O97  1  0.044700  0.238700  0.110060  1.0  -0.7689
  O  O98  1  0.050300  0.162200  0.215880  1.0  -0.64
  O  O99  1  0.542900  0.391900  0.319070  1.0  -0.698
  O  O100  1  0.414800  0.261700  0.358100  1.0  -0.5936
  O  O101  1  0.208400  0.534500  0.018600  1.0  -0.6716
  O  O102  1  0.205700  0.711400  0.056660  1.0  -0.6689
  O  O103  1  0.700500  0.713100  0.216510  1.0  -0.6391
  O  O104  1  0.834100  0.842700  0.183800  1.0  -0.7365
  O  O105  1  0.889300  0.579000  0.397600  1.0  -0.6727
  O  O106  1  0.795200  0.510900  0.304400  1.0  -0.6373
  O  O107  1  0.674100  0.651500  0.444580  1.0  -0.6412
  O  O108  1  0.591800  0.620400  0.340090  1.0  -0.6061
  O  O109  1  0.955300  0.761300  0.610060  1.0  -0.7716
  O  O110  1  0.949700  0.837800  0.715880  1.0  -0.6402
  O  O111  1  0.457100  0.608100  0.819070  1.0  -0.6974
  O  O112  1  0.585200  0.738300  0.858100  1.0  -0.5976
  O  O113  1  0.791600  0.465500  0.518600  1.0  -0.6706
  O  O114  1  0.794300  0.288600  0.556660  1.0  -0.6693
  O  O115  1  0.299500  0.286900  0.716510  1.0  -0.6389
  O  O116  1  0.165900  0.157300  0.683800  1.0  -0.7359
  O  O117  1  0.110700  0.421000  0.897600  1.0  -0.6724
  O  O118  1  0.204800  0.489100  0.804400  1.0  -0.6376
  O  O119  1  0.325900  0.348500  0.944580  1.0  -0.6405
  O  O120  1  0.408200  0.379600  0.840090  1.0  -0.6059
  O  O121  1  0.455300  0.738700  0.110060  1.0  -0.7702
  O  O122  1  0.449700  0.662200  0.215880  1.0  -0.6398
  O  O123  1  0.957100  0.891900  0.319070  1.0  -0.6972
  O  O124  1  0.085200  0.761700  0.358100  1.0  -0.5931
  O  O125  1  0.291600  0.034500  0.018600  1.0  -0.6717
  O  O126  1  0.294300  0.211400  0.056660  1.0  -0.6695
  O  O127  1  0.799500  0.213100  0.216510  1.0  -0.6385
  O  O128  1  0.665900  0.342700  0.183800  1.0  -0.7359
  O  O129  1  0.610700  0.079000  0.397600  1.0  -0.6732
  O  O130  1  0.704800  0.010900  0.304400  1.0  -0.637
  O  O131  1  0.825900  0.151500  0.444580  1.0  -0.6416
  O  O132  1  0.908200  0.120400  0.340090  1.0  -0.6047
  O  O133  1  0.544700  0.261300  0.610060  1.0  -0.7703
  O  O134  1  0.550300  0.337800  0.715880  1.0  -0.6403
  O  O135  1  0.042900  0.108100  0.819070  1.0  -0.6985
  O  O136  1  0.914800  0.238300  0.858100  1.0  -0.5974
  O  O137  1  0.708400  0.965500  0.518600  1.0  -0.6707
  O  O138  1  0.705700  0.788600  0.556660  1.0  -0.6686
  O  O139  1  0.200500  0.786900  0.716510  1.0  -0.6397
  O  O140  1  0.334100  0.657300  0.683800  1.0  -0.736
  O  O141  1  0.389300  0.921000  0.897600  1.0  -0.6703
  O  O142  1  0.295200  0.989100  0.804400  1.0  -0.6376
  O  O143  1  0.174100  0.848500  0.944580  1.0  -0.6401
  O  O144  1  0.091800  0.879600  0.840090  1.0  -0.6052
