# generated using pymatgen
data_CeH2C7(NO3)2
_symmetry_space_group_name_H-M   'P 1'
_cell_length_a   11.03600000
_cell_length_b   12.05600000
_cell_length_c   19.56100000
_cell_angle_alpha   90.00000000
_cell_angle_beta   90.00000000
_cell_angle_gamma   90.00000000
_symmetry_Int_Tables_number   1
_chemical_formula_structural   CeH2C7(NO3)2
_chemical_formula_sum   'Ce8 H16 C56 N16 O48'
_cell_volume   2602.59136298
_cell_formula_units_Z   8
loop_
 _symmetry_equiv_pos_site_id
 _symmetry_equiv_pos_as_xyz
  1  'x, y, z'
loop_
 _atom_site_type_symbol
 _atom_site_label
 _atom_site_symmetry_multiplicity
 _atom_site_fract_x
 _atom_site_fract_y
 _atom_site_fract_z
 _atom_site_occupancy
 _atom_site_charge
  Ce  Ce1  1  0.364310  0.840170  0.878790  1.0  2.1836
  Ce  Ce2  1  0.882690  0.020710  0.664440  1.0  2.139
  Ce  Ce3  1  0.635690  0.159830  0.378790  1.0  2.1821
  Ce  Ce4  1  0.117310  0.979290  0.164440  1.0  2.1391
  Ce  Ce5  1  0.135690  0.340170  0.878790  1.0  2.1835
  Ce  Ce6  1  0.617310  0.520710  0.664440  1.0  2.1392
  Ce  Ce7  1  0.864310  0.659830  0.378790  1.0  2.1821
  Ce  Ce8  1  0.382690  0.479290  0.164440  1.0  2.1389
  H  H9  1  0.153400  0.989900  0.769900  1.0  0.0544
  H  H10  1  0.268600  0.735800  0.611600  1.0  0.1583
  H  H11  1  0.630100  0.899300  0.767700  1.0  0.0505
  H  H12  1  0.493100  0.253200  0.778000  1.0  0.1298
  H  H13  1  0.846600  0.010100  0.269900  1.0  0.0553
  H  H14  1  0.731400  0.264200  0.111600  1.0  0.1582
  H  H15  1  0.369900  0.100700  0.267700  1.0  0.0487
  H  H16  1  0.506900  0.746800  0.278000  1.0  0.1305
  H  H17  1  0.346600  0.489900  0.769900  1.0  0.0546
  H  H18  1  0.231400  0.235800  0.611600  1.0  0.1582
  H  H19  1  0.869900  0.399300  0.767700  1.0  0.05
  H  H20  1  0.006900  0.753200  0.778000  1.0  0.1298
  H  H21  1  0.653400  0.510100  0.269900  1.0  0.0553
  H  H22  1  0.768600  0.764200  0.111600  1.0  0.1584
  H  H23  1  0.130100  0.600700  0.267700  1.0  0.0493
  H  H24  1  0.993100  0.246800  0.278000  1.0  0.1303
  C  C25  1  0.174100  0.935200  0.738500  1.0  0.4106
  C  C26  1  0.137300  0.847500  0.636800  1.0  0.2154
  C  C27  1  0.242700  0.785500  0.644900  1.0  -0.14
  C  C28  1  0.307100  0.801000  0.704600  1.0  0.1692
  C  C29  1  0.414500  0.725900  0.722400  1.0  0.6831
  C  C30  1  0.054400  0.827200  0.576000  1.0  0.6303
  C  C31  1  0.601700  0.971900  0.769000  1.0  0.476
  C  C32  1  0.625300  0.152800  0.739800  1.0  0.1907
  C  C33  1  0.520100  0.180300  0.774800  1.0  -0.1428
  C  C34  1  0.458200  0.094500  0.804200  1.0  0.1988
  C  C35  1  0.340000  0.113600  0.842500  1.0  0.6547
  C  C36  1  0.703000  0.242700  0.705500  1.0  0.685
  C  C37  1  0.821500  0.115900  0.510200  1.0  0.5597
  C  C38  1  0.700200  0.063400  0.532800  1.0  0.5962
  C  C39  1  0.825900  0.064800  0.238500  1.0  0.4106
  C  C40  1  0.862700  0.152500  0.136800  1.0  0.2141
  C  C41  1  0.757300  0.214500  0.144900  1.0  -0.1389
  C  C42  1  0.692900  0.199000  0.204600  1.0  0.1717
  C  C43  1  0.585500  0.274100  0.222400  1.0  0.6846
  C  C44  1  0.945600  0.172800  0.076000  1.0  0.6288
  C  C45  1  0.398300  0.028100  0.269000  1.0  0.4793
  C  C46  1  0.374700  0.847200  0.239800  1.0  0.1905
  C  C47  1  0.479900  0.819700  0.274800  1.0  -0.1392
  C  C48  1  0.541800  0.905500  0.304200  1.0  0.195
  C  C49  1  0.660000  0.886400  0.342500  1.0  0.6564
  C  C50  1  0.297000  0.757300  0.205500  1.0  0.6853
  C  C51  1  0.178500  0.884100  0.010200  1.0  0.5597
  C  C52  1  0.299800  0.936600  0.032800  1.0  0.5951
  C  C53  1  0.325900  0.435200  0.738500  1.0  0.4102
  C  C54  1  0.362700  0.347500  0.636800  1.0  0.2145
  C  C55  1  0.257300  0.285500  0.644900  1.0  -0.1387
  C  C56  1  0.192900  0.301000  0.704600  1.0  0.1712
  C  C57  1  0.085500  0.225900  0.722400  1.0  0.6843
  C  C58  1  0.445600  0.327200  0.576000  1.0  0.629
  C  C59  1  0.898300  0.471900  0.769000  1.0  0.4778
  C  C60  1  0.874700  0.652800  0.739800  1.0  0.1901
  C  C61  1  0.979900  0.680300  0.774800  1.0  -0.1406
  C  C62  1  0.041800  0.594500  0.804200  1.0  0.195
  C  C63  1  0.160000  0.613600  0.842500  1.0  0.6562
  C  C64  1  0.797000  0.742700  0.705500  1.0  0.6853
  C  C65  1  0.678500  0.615900  0.510200  1.0  0.5599
  C  C66  1  0.799800  0.563400  0.532800  1.0  0.5958
  C  C67  1  0.674100  0.564800  0.238500  1.0  0.4114
  C  C68  1  0.637300  0.652500  0.136800  1.0  0.2146
  C  C69  1  0.742700  0.714500  0.144900  1.0  -0.14
  C  C70  1  0.807100  0.699000  0.204600  1.0  0.1695
  C  C71  1  0.914500  0.774100  0.222400  1.0  0.6833
  C  C72  1  0.554400  0.672800  0.076000  1.0  0.63
  C  C73  1  0.101700  0.528100  0.269000  1.0  0.4769
  C  C74  1  0.125300  0.347200  0.239800  1.0  0.1914
  C  C75  1  0.020100  0.319700  0.274800  1.0  -0.1418
  C  C76  1  0.958200  0.405500  0.304200  1.0  0.199
  C  C77  1  0.840000  0.386400  0.342500  1.0  0.6548
  C  C78  1  0.203000  0.257300  0.205500  1.0  0.6851
  C  C79  1  0.321500  0.384100  0.010200  1.0  0.5596
  C  C80  1  0.200200  0.436600  0.032800  1.0  0.5959
  N  N81  1  0.274200  0.875200  0.751000  1.0  -0.487
  N  N82  1  0.101700  0.922000  0.683700  1.0  -0.5128
  N  N83  1  0.499500  0.990500  0.804100  1.0  -0.536
  N  N84  1  0.666000  0.047300  0.736000  1.0  -0.4916
  N  N85  1  0.725800  0.124800  0.251000  1.0  -0.4894
  N  N86  1  0.898300  0.078000  0.183700  1.0  -0.5134
  N  N87  1  0.500500  0.009500  0.304100  1.0  -0.536
  N  N88  1  0.334000  0.952700  0.236000  1.0  -0.4924
  N  N89  1  0.225800  0.375200  0.751000  1.0  -0.4901
  N  N90  1  0.398300  0.422000  0.683700  1.0  -0.5143
  N  N91  1  0.000500  0.490500  0.804100  1.0  -0.5357
  N  N92  1  0.834000  0.547300  0.736000  1.0  -0.4928
  N  N93  1  0.774200  0.624800  0.251000  1.0  -0.4868
  N  N94  1  0.601700  0.578000  0.183700  1.0  -0.5136
  N  N95  1  0.999500  0.509500  0.304100  1.0  -0.5361
  N  N96  1  0.166000  0.452700  0.236000  1.0  -0.4914
  O  O97  1  0.455700  0.736200  0.781600  1.0  -0.7493
  O  O98  1  0.449400  0.659800  0.677400  1.0  -0.6377
  O  O99  1  0.959500  0.888800  0.573600  1.0  -0.6966
  O  O100  1  0.086000  0.758300  0.535300  1.0  -0.5749
  O  O101  1  0.291200  0.033700  0.873300  1.0  -0.6495
  O  O102  1  0.295900  0.210300  0.836200  1.0  -0.669
  O  O103  1  0.799100  0.211800  0.677100  1.0  -0.6389
  O  O104  1  0.665900  0.339100  0.708900  1.0  -0.7184
  O  O105  1  0.825700  0.151500  0.449100  1.0  -0.6558
  O  O106  1  0.907400  0.117700  0.552200  1.0  -0.5805
  O  O107  1  0.610800  0.077800  0.495300  1.0  -0.6668
  O  O108  1  0.704900  0.009300  0.587800  1.0  -0.6355
  O  O109  1  0.544300  0.263800  0.281600  1.0  -0.7493
  O  O110  1  0.550600  0.340200  0.177400  1.0  -0.6382
  O  O111  1  0.040500  0.111200  0.073600  1.0  -0.6987
  O  O112  1  0.914000  0.241700  0.035300  1.0  -0.5765
  O  O113  1  0.708800  0.966300  0.373300  1.0  -0.6485
  O  O114  1  0.704100  0.789700  0.336200  1.0  -0.6689
  O  O115  1  0.200900  0.788200  0.177100  1.0  -0.64
  O  O116  1  0.334100  0.660900  0.208900  1.0  -0.7176
  O  O117  1  0.174300  0.848500  0.949100  1.0  -0.6562
  O  O118  1  0.092600  0.882300  0.052200  1.0  -0.5794
  O  O119  1  0.389200  0.922200  0.995300  1.0  -0.6659
  O  O120  1  0.295100  0.990700  0.087800  1.0  -0.6364
  O  O121  1  0.044300  0.236200  0.781600  1.0  -0.7484
  O  O122  1  0.050600  0.159800  0.677400  1.0  -0.637
  O  O123  1  0.540500  0.388800  0.573600  1.0  -0.6989
  O  O124  1  0.414000  0.258300  0.535300  1.0  -0.5743
  O  O125  1  0.208800  0.533700  0.873300  1.0  -0.6479
  O  O126  1  0.204100  0.710300  0.836200  1.0  -0.6697
  O  O127  1  0.700900  0.711800  0.677100  1.0  -0.6397
  O  O128  1  0.834100  0.839100  0.708900  1.0  -0.7186
  O  O129  1  0.674300  0.651500  0.449100  1.0  -0.6566
  O  O130  1  0.592600  0.617700  0.552200  1.0  -0.5801
  O  O131  1  0.889200  0.577800  0.495300  1.0  -0.6666
  O  O132  1  0.795100  0.509300  0.587800  1.0  -0.6357
  O  O133  1  0.955700  0.763800  0.281600  1.0  -0.7501
  O  O134  1  0.949400  0.840200  0.177400  1.0  -0.6386
  O  O135  1  0.459500  0.611200  0.073600  1.0  -0.6968
  O  O136  1  0.586000  0.741700  0.035300  1.0  -0.5764
  O  O137  1  0.791200  0.466300  0.373300  1.0  -0.65
  O  O138  1  0.795900  0.289700  0.336200  1.0  -0.67
  O  O139  1  0.299100  0.288200  0.177100  1.0  -0.6393
  O  O140  1  0.165900  0.160900  0.208900  1.0  -0.718
  O  O141  1  0.325700  0.348500  0.949100  1.0  -0.6554
  O  O142  1  0.407400  0.382300  0.052200  1.0  -0.5801
  O  O143  1  0.110800  0.422200  0.995300  1.0  -0.666
  O  O144  1  0.204900  0.490700  0.087800  1.0  -0.6366
