# generated using pymatgen
data_PrH2C7(NO3)2
_symmetry_space_group_name_H-M   'P 1'
_cell_length_a   11.00800000
_cell_length_b   12.00200000
_cell_length_c   19.47300000
_cell_angle_alpha   90.00000000
_cell_angle_beta   90.00000000
_cell_angle_gamma   90.00000000
_symmetry_Int_Tables_number   1
_chemical_formula_structural   PrH2C7(NO3)2
_chemical_formula_sum   'Pr8 H16 C56 N16 O48'
_cell_volume   2572.73412557
_cell_formula_units_Z   8
loop_
 _symmetry_equiv_pos_site_id
 _symmetry_equiv_pos_as_xyz
  1  'x, y, z'
loop_
 _atom_site_type_symbol
 _atom_site_label
 _atom_site_symmetry_multiplicity
 _atom_site_fract_x
 _atom_site_fract_y
 _atom_site_fract_z
 _atom_site_occupancy
 _atom_site_charge
  Pr  Pr1  1  0.863800  0.658990  0.648380  1.0  2.1076
  Pr  Pr2  1  0.382280  0.477170  0.862480  1.0  2.124
  Pr  Pr3  1  0.136200  0.341010  0.148380  1.0  2.108
  Pr  Pr4  1  0.617720  0.522830  0.362480  1.0  2.1245
  Pr  Pr5  1  0.636200  0.158990  0.648380  1.0  2.1079
  Pr  Pr6  1  0.117720  0.977170  0.862480  1.0  2.1244
  Pr  Pr7  1  0.363800  0.841010  0.148380  1.0  2.1078
  Pr  Pr8  1  0.882280  0.022830  0.362480  1.0  2.1241
  H  H9  1  0.651100  0.508000  0.756600  1.0  0.047
  H  H10  1  0.768700  0.760600  0.915900  1.0  0.1666
  H  H11  1  0.129600  0.601600  0.759700  1.0  0.0524
  H  H12  1  0.994000  0.244800  0.748500  1.0  0.1315
  H  H13  1  0.348900  0.492000  0.256600  1.0  0.0469
  H  H14  1  0.231300  0.239400  0.415900  1.0  0.1663
  H  H15  1  0.870400  0.398400  0.259700  1.0  0.0533
  H  H16  1  0.006000  0.755200  0.248500  1.0  0.1316
  H  H17  1  0.848900  0.008000  0.756600  1.0  0.0469
  H  H18  1  0.731300  0.260600  0.915900  1.0  0.1664
  H  H19  1  0.370400  0.101600  0.759700  1.0  0.0521
  H  H20  1  0.506000  0.744800  0.748500  1.0  0.1315
  H  H21  1  0.151100  0.992000  0.256600  1.0  0.0466
  H  H22  1  0.268700  0.739400  0.415900  1.0  0.1662
  H  H23  1  0.629600  0.898400  0.259700  1.0  0.0534
  H  H24  1  0.494000  0.255200  0.248500  1.0  0.1317
  C  C25  1  0.672600  0.562800  0.788100  1.0  0.4339
  C  C26  1  0.636300  0.650400  0.889800  1.0  0.2208
  C  C27  1  0.742500  0.711600  0.882000  1.0  -0.1193
  C  C28  1  0.807400  0.697300  0.822600  1.0  0.1837
  C  C29  1  0.913800  0.771500  0.804300  1.0  0.6809
  C  C30  1  0.553200  0.669300  0.950600  1.0  0.6321
  C  C31  1  0.101700  0.528500  0.758200  1.0  0.481
  C  C32  1  0.126100  0.346300  0.787200  1.0  0.1734
  C  C33  1  0.020800  0.318100  0.751900  1.0  -0.1349
  C  C34  1  0.958800  0.405200  0.722500  1.0  0.2054
  C  C35  1  0.839400  0.385500  0.684500  1.0  0.6599
  C  C36  1  0.203400  0.256900  0.822200  1.0  0.6918
  C  C37  1  0.322300  0.383500  0.017800  1.0  0.5537
  C  C38  1  0.200100  0.435500  0.993800  1.0  0.5917
  C  C39  1  0.327400  0.437200  0.288100  1.0  0.4323
  C  C40  1  0.363700  0.349600  0.389800  1.0  0.22
  C  C41  1  0.257500  0.288400  0.382000  1.0  -0.1204
  C  C42  1  0.192600  0.302700  0.322600  1.0  0.1824
  C  C43  1  0.086200  0.228500  0.304300  1.0  0.682
  C  C44  1  0.446800  0.330700  0.450600  1.0  0.6308
  C  C45  1  0.898300  0.471500  0.258200  1.0  0.4832
  C  C46  1  0.873900  0.653700  0.287200  1.0  0.1731
  C  C47  1  0.979200  0.681900  0.251900  1.0  -0.1325
  C  C48  1  0.041200  0.594800  0.222500  1.0  0.2056
  C  C49  1  0.160600  0.614500  0.184500  1.0  0.6603
  C  C50  1  0.796600  0.743100  0.322200  1.0  0.6927
  C  C51  1  0.677700  0.616500  0.517800  1.0  0.5538
  C  C52  1  0.799900  0.564500  0.493800  1.0  0.5926
  C  C53  1  0.827400  0.062800  0.788100  1.0  0.4324
  C  C54  1  0.863700  0.150400  0.889800  1.0  0.2194
  C  C55  1  0.757500  0.211600  0.882000  1.0  -0.1219
  C  C56  1  0.692600  0.197300  0.822600  1.0  0.1827
  C  C57  1  0.586200  0.271500  0.804300  1.0  0.6825
  C  C58  1  0.946800  0.169300  0.950600  1.0  0.6308
  C  C59  1  0.398300  0.028500  0.758200  1.0  0.4817
  C  C60  1  0.373900  0.846300  0.787200  1.0  0.1739
  C  C61  1  0.479200  0.818100  0.751900  1.0  -0.1325
  C  C62  1  0.541200  0.905200  0.722500  1.0  0.2058
  C  C63  1  0.660600  0.885500  0.684500  1.0  0.6603
  C  C64  1  0.296600  0.756900  0.822200  1.0  0.6927
  C  C65  1  0.177700  0.883500  0.017800  1.0  0.5536
  C  C66  1  0.299900  0.935500  0.993800  1.0  0.5917
  C  C67  1  0.172600  0.937200  0.288100  1.0  0.4337
  C  C68  1  0.136300  0.849600  0.389800  1.0  0.2216
  C  C69  1  0.242500  0.788400  0.382000  1.0  -0.1182
  C  C70  1  0.307400  0.802700  0.322600  1.0  0.1836
  C  C71  1  0.413800  0.728500  0.304300  1.0  0.6806
  C  C72  1  0.053200  0.830700  0.450600  1.0  0.6319
  C  C73  1  0.601700  0.971500  0.258200  1.0  0.4797
  C  C74  1  0.626100  0.153700  0.287200  1.0  0.1732
  C  C75  1  0.520800  0.181900  0.251900  1.0  -0.1348
  C  C76  1  0.458800  0.094800  0.222500  1.0  0.2051
  C  C77  1  0.339400  0.114500  0.184500  1.0  0.6601
  C  C78  1  0.703400  0.243100  0.322200  1.0  0.6917
  C  C79  1  0.822300  0.116500  0.517800  1.0  0.5536
  C  C80  1  0.700100  0.064500  0.493800  1.0  0.5923
  N  N81  1  0.772600  0.622500  0.774900  1.0  -0.4929
  N  N82  1  0.601200  0.575900  0.842900  1.0  -0.5197
  N  N83  1  0.999600  0.509400  0.723100  1.0  -0.5387
  N  N84  1  0.166700  0.452500  0.791200  1.0  -0.509
  N  N85  1  0.227400  0.377500  0.274900  1.0  -0.4955
  N  N86  1  0.398800  0.424100  0.342900  1.0  -0.5194
  N  N87  1  0.000400  0.490600  0.223100  1.0  -0.5364
  N  N88  1  0.833300  0.547500  0.291200  1.0  -0.5086
  N  N89  1  0.727400  0.122500  0.774900  1.0  -0.4956
  N  N90  1  0.898800  0.075900  0.842900  1.0  -0.5192
  N  N91  1  0.500400  0.009400  0.723100  1.0  -0.5378
  N  N92  1  0.333333  0.952500  0.791200  1.0  -0.5086
  N  N93  1  0.272600  0.877500  0.274900  1.0  -0.4929
  N  N94  1  0.101200  0.924100  0.342900  1.0  -0.5184
  N  N95  1  0.499600  0.990600  0.223100  1.0  -0.5379
  N  N96  1  0.666667  0.047500  0.291200  1.0  -0.509
  O  O97  1  0.955300  0.762700  0.744400  1.0  -0.7427
  O  O98  1  0.949100  0.838500  0.849800  1.0  -0.6354
  O  O99  1  0.458300  0.608600  0.952900  1.0  -0.6843
  O  O100  1  0.584200  0.739900  0.991800  1.0  -0.5777
  O  O101  1  0.791400  0.465600  0.653200  1.0  -0.6563
  O  O102  1  0.794600  0.288900  0.690900  1.0  -0.6715
  O  O103  1  0.299500  0.286600  0.850300  1.0  -0.6297
  O  O104  1  0.165800  0.158800  0.817900  1.0  -0.7327
  O  O105  1  0.407800  0.381100  0.974700  1.0  -0.5821
  O  O106  1  0.326000  0.347800  0.078100  1.0  -0.6311
  O  O107  1  0.204000  0.489300  0.938400  1.0  -0.6232
  O  O108  1  0.110600  0.421400  0.031700  1.0  -0.6594
  O  O109  1  0.044700  0.237300  0.244400  1.0  -0.7399
  O  O110  1  0.050900  0.161500  0.349800  1.0  -0.6356
  O  O111  1  0.541700  0.391400  0.452900  1.0  -0.6848
  O  O112  1  0.415800  0.260100  0.491800  1.0  -0.5744
  O  O113  1  0.208600  0.534400  0.153200  1.0  -0.6557
  O  O114  1  0.205400  0.711100  0.190900  1.0  -0.6713
  O  O115  1  0.700500  0.713400  0.350300  1.0  -0.6297
  O  O116  1  0.834200  0.841200  0.317900  1.0  -0.7338
  O  O117  1  0.592200  0.618900  0.474700  1.0  -0.5826
  O  O118  1  0.674000  0.652200  0.578100  1.0  -0.6315
  O  O119  1  0.796000  0.510700  0.438400  1.0  -0.6234
  O  O120  1  0.889400  0.578600  0.531700  1.0  -0.6607
  O  O121  1  0.544700  0.262700  0.744400  1.0  -0.7407
  O  O122  1  0.550900  0.338500  0.849800  1.0  -0.6357
  O  O123  1  0.041700  0.108600  0.952900  1.0  -0.685
  O  O124  1  0.915800  0.239900  0.991800  1.0  -0.5776
  O  O125  1  0.708600  0.965600  0.653200  1.0  -0.656
  O  O126  1  0.705400  0.788900  0.690900  1.0  -0.671
  O  O127  1  0.200500  0.786600  0.850300  1.0  -0.63
  O  O128  1  0.334200  0.658800  0.817900  1.0  -0.7326
  O  O129  1  0.092200  0.881100  0.974700  1.0  -0.5823
  O  O130  1  0.174000  0.847800  0.078100  1.0  -0.6309
  O  O131  1  0.296000  0.989300  0.938400  1.0  -0.6233
  O  O132  1  0.389400  0.921400  0.031700  1.0  -0.66
  O  O133  1  0.455300  0.737300  0.244400  1.0  -0.7413
  O  O134  1  0.449100  0.661500  0.349800  1.0  -0.6354
  O  O135  1  0.958300  0.891400  0.452900  1.0  -0.6842
  O  O136  1  0.084200  0.760100  0.491800  1.0  -0.5736
  O  O137  1  0.291400  0.034400  0.153200  1.0  -0.6561
  O  O138  1  0.294600  0.211100  0.190900  1.0  -0.6718
  O  O139  1  0.799500  0.213400  0.350300  1.0  -0.6295
  O  O140  1  0.665800  0.341200  0.317900  1.0  -0.7334
  O  O141  1  0.907800  0.118900  0.474700  1.0  -0.5815
  O  O142  1  0.826000  0.152200  0.578100  1.0  -0.6317
  O  O143  1  0.704000  0.010700  0.438400  1.0  -0.6231
  O  O144  1  0.610600  0.078600  0.531700  1.0  -0.66
