# generated using pymatgen
data_LaH2C7(NO3)2
_symmetry_space_group_name_H-M   'P 1'
_cell_length_a   11.04170000
_cell_length_b   12.13500000
_cell_length_c   19.65090000
_cell_angle_alpha   90.00000000
_cell_angle_beta   90.00000000
_cell_angle_gamma   90.00000000
_symmetry_Int_Tables_number   1
_chemical_formula_structural   LaH2C7(NO3)2
_chemical_formula_sum   'La8 H16 C56 N16 O48'
_cell_volume   2633.04432160
_cell_formula_units_Z   8
loop_
 _symmetry_equiv_pos_site_id
 _symmetry_equiv_pos_as_xyz
  1  'x, y, z'
loop_
 _atom_site_type_symbol
 _atom_site_label
 _atom_site_symmetry_multiplicity
 _atom_site_fract_x
 _atom_site_fract_y
 _atom_site_fract_z
 _atom_site_occupancy
 _atom_site_charge
  La  La1  1  0.635830  0.159590  0.121360  1.0  2.1175
  La  La2  1  0.116410  0.981930  0.335130  1.0  2.1361
  La  La3  1  0.364170  0.840410  0.621360  1.0  2.117
  La  La4  1  0.883590  0.018070  0.835130  1.0  2.1358
  La  La5  1  0.864170  0.659590  0.121360  1.0  2.1167
  La  La6  1  0.383590  0.481930  0.335130  1.0  2.1359
  La  La7  1  0.135830  0.340410  0.621360  1.0  2.1175
  La  La8  1  0.616410  0.518070  0.835130  1.0  2.1361
  H  H9  1  0.845000  0.012500  0.232200  1.0  0.0265
  H  H10  1  0.733700  0.267800  0.388000  1.0  0.1545
  H  H11  1  0.370300  0.099800  0.231600  1.0  0.0462
  H  H12  1  0.507600  0.747400  0.224200  1.0  0.1156
  H  H13  1  0.155000  0.987500  0.732200  1.0  0.0262
  H  H14  1  0.266300  0.732200  0.888000  1.0  0.1541
  H  H15  1  0.629700  0.900200  0.731600  1.0  0.0479
  H  H16  1  0.492400  0.252600  0.724200  1.0  0.1157
  H  H17  1  0.655000  0.512500  0.232200  1.0  0.0263
  H  H18  1  0.766300  0.767800  0.388000  1.0  0.1546
  H  H19  1  0.129700  0.599800  0.231600  1.0  0.0464
  H  H20  1  0.992400  0.247400  0.224200  1.0  0.1156
  H  H21  1  0.345000  0.487500  0.732200  1.0  0.0262
  H  H22  1  0.233700  0.232200  0.888000  1.0  0.154
  H  H23  1  0.870300  0.400200  0.731600  1.0  0.0474
  H  H24  1  0.007600  0.752600  0.724200  1.0  0.1156
  C  C25  1  0.823700  0.067300  0.263000  1.0  0.4027
  C  C26  1  0.862500  0.157600  0.362700  1.0  0.1222
  C  C27  1  0.758700  0.218000  0.354900  1.0  -0.0889
  C  C28  1  0.692700  0.202200  0.296300  1.0  0.1504
  C  C29  1  0.586500  0.275800  0.277500  1.0  0.6721
  C  C30  1  0.947300  0.176000  0.422300  1.0  0.6279
  C  C31  1  0.398300  0.027500  0.230600  1.0  0.4379
  C  C32  1  0.373400  0.849900  0.260600  1.0  0.115
  C  C33  1  0.480400  0.819800  0.226400  1.0  -0.1023
  C  C34  1  0.541300  0.905900  0.196500  1.0  0.1711
  C  C35  1  0.661300  0.884600  0.158100  1.0  0.6603
  C  C36  1  0.295800  0.761000  0.293800  1.0  0.6829
  C  C37  1  0.178000  0.887200  0.491200  1.0  0.5837
  C  C38  1  0.299200  0.938400  0.468000  1.0  0.6285
  C  C39  1  0.176300  0.932700  0.763000  1.0  0.4041
  C  C40  1  0.137500  0.842400  0.862700  1.0  0.1234
  C  C41  1  0.241300  0.782000  0.854900  1.0  -0.0873
  C  C42  1  0.307300  0.797800  0.796300  1.0  0.1504
  C  C43  1  0.413500  0.724200  0.777500  1.0  0.6718
  C  C44  1  0.052700  0.824000  0.922300  1.0  0.6273
  C  C45  1  0.601700  0.972500  0.730600  1.0  0.4361
  C  C46  1  0.626600  0.150100  0.760600  1.0  0.1148
  C  C47  1  0.519600  0.180200  0.726400  1.0  -0.1054
  C  C48  1  0.458700  0.094100  0.696500  1.0  0.17
  C  C49  1  0.338700  0.115400  0.658100  1.0  0.6607
  C  C50  1  0.704200  0.239000  0.793800  1.0  0.6827
  C  C51  1  0.822000  0.112800  0.991200  1.0  0.5836
  C  C52  1  0.700800  0.061600  0.968000  1.0  0.6294
  C  C53  1  0.676300  0.567300  0.263000  1.0  0.4035
  C  C54  1  0.637500  0.657600  0.362700  1.0  0.1231
  C  C55  1  0.741300  0.718000  0.354900  1.0  -0.0871
  C  C56  1  0.807300  0.702200  0.296300  1.0  0.1503
  C  C57  1  0.913500  0.775800  0.277500  1.0  0.672
  C  C58  1  0.552700  0.676000  0.422300  1.0  0.6272
  C  C59  1  0.101700  0.527500  0.230600  1.0  0.4359
  C  C60  1  0.126600  0.349900  0.260600  1.0  0.1152
  C  C61  1  0.019600  0.319800  0.226400  1.0  -0.1042
  C  C62  1  0.958700  0.405900  0.196500  1.0  0.17
  C  C63  1  0.838700  0.384600  0.158100  1.0  0.6604
  C  C64  1  0.204200  0.261000  0.293800  1.0  0.6822
  C  C65  1  0.322000  0.387200  0.491200  1.0  0.5833
  C  C66  1  0.200800  0.438400  0.468000  1.0  0.6287
  C  C67  1  0.323700  0.432700  0.763000  1.0  0.4032
  C  C68  1  0.362500  0.342400  0.862700  1.0  0.1222
  C  C69  1  0.258700  0.282000  0.854900  1.0  -0.0891
  C  C70  1  0.192700  0.297800  0.796300  1.0  0.1502
  C  C71  1  0.086500  0.224200  0.777500  1.0  0.6717
  C  C72  1  0.447300  0.324000  0.922300  1.0  0.628
  C  C73  1  0.898300  0.472500  0.730600  1.0  0.4377
  C  C74  1  0.873400  0.650100  0.760600  1.0  0.1149
  C  C75  1  0.980400  0.680200  0.726400  1.0  -0.1037
  C  C76  1  0.041300  0.594100  0.696500  1.0  0.1714
  C  C77  1  0.161300  0.615400  0.658100  1.0  0.6605
  C  C78  1  0.795800  0.739000  0.793800  1.0  0.6835
  C  C79  1  0.678000  0.612800  0.991200  1.0  0.5842
  C  C80  1  0.799200  0.561600  0.968000  1.0  0.6294
  N  N81  1  0.725100  0.126400  0.249700  1.0  -0.4548
  N  N82  1  0.893400  0.080800  0.317000  1.0  -0.427
  N  N83  1  0.500000  0.008900  0.196300  1.0  -0.4791
  N  N84  1  0.332800  0.953100  0.263600  1.0  -0.4604
  N  N85  1  0.274900  0.873600  0.749700  1.0  -0.4531
  N  N86  1  0.106600  0.919200  0.817000  1.0  -0.4276
  N  N87  1  0.500000  0.991100  0.696300  1.0  -0.4795
  N  N88  1  0.667200  0.046900  0.763600  1.0  -0.4588
  N  N89  1  0.774900  0.626400  0.249700  1.0  -0.4532
  N  N90  1  0.606600  0.580800  0.317000  1.0  -0.4279
  N  N91  1  0.000000  0.508900  0.196300  1.0  -0.4797
  N  N92  1  0.167200  0.453100  0.263600  1.0  -0.4593
  N  N93  1  0.225100  0.373600  0.749700  1.0  -0.4549
  N  N94  1  0.393400  0.419200  0.817000  1.0  -0.4285
  N  N95  1  0.000000  0.491100  0.696300  1.0  -0.4785
  N  N96  1  0.832800  0.546900  0.763600  1.0  -0.4604
  O  O97  1  0.543100  0.263900  0.219000  1.0  -0.7248
  O  O98  1  0.553000  0.343700  0.321700  1.0  -0.6663
  O  O99  1  0.038500  0.115500  0.426100  1.0  -0.6761
  O  O100  1  0.917300  0.249300  0.463100  1.0  -0.5685
  O  O101  1  0.709800  0.965500  0.128600  1.0  -0.6612
  O  O102  1  0.702700  0.789700  0.162700  1.0  -0.6794
  O  O103  1  0.200800  0.791800  0.322200  1.0  -0.6396
  O  O104  1  0.332900  0.662800  0.289400  1.0  -0.7439
  O  O105  1  0.091200  0.885300  0.448300  1.0  -0.6046
  O  O106  1  0.173700  0.850200  0.550500  1.0  -0.6238
  O  O107  1  0.295900  0.994300  0.413100  1.0  -0.6447
  O  O108  1  0.387300  0.924600  0.504500  1.0  -0.6104
  O  O109  1  0.456900  0.736100  0.719000  1.0  -0.7252
  O  O110  1  0.447000  0.656300  0.821700  1.0  -0.666
  O  O111  1  0.961500  0.884500  0.926100  1.0  -0.6742
  O  O112  1  0.082700  0.750700  0.963100  1.0  -0.5648
  O  O113  1  0.290200  0.034500  0.628600  1.0  -0.6606
  O  O114  1  0.297300  0.210300  0.662700  1.0  -0.6801
  O  O115  1  0.799200  0.208200  0.822200  1.0  -0.6378
  O  O116  1  0.667100  0.337200  0.789400  1.0  -0.7431
  O  O117  1  0.908800  0.114700  0.948300  1.0  -0.605
  O  O118  1  0.826300  0.149800  0.050500  1.0  -0.6245
  O  O119  1  0.704100  0.005700  0.913100  1.0  -0.6429
  O  O120  1  0.612700  0.075400  0.004500  1.0  -0.6116
  O  O121  1  0.956900  0.763900  0.219000  1.0  -0.7254
  O  O122  1  0.947000  0.843700  0.321700  1.0  -0.6659
  O  O123  1  0.461500  0.615500  0.426100  1.0  -0.6744
  O  O124  1  0.582700  0.749300  0.463100  1.0  -0.5648
  O  O125  1  0.790200  0.465500  0.128600  1.0  -0.6613
  O  O126  1  0.797300  0.289700  0.162700  1.0  -0.6801
  O  O127  1  0.299200  0.291800  0.322200  1.0  -0.6383
  O  O128  1  0.167100  0.162800  0.289400  1.0  -0.7428
  O  O129  1  0.408800  0.385300  0.448300  1.0  -0.6042
  O  O130  1  0.326300  0.350200  0.550500  1.0  -0.6239
  O  O131  1  0.204100  0.494300  0.413100  1.0  -0.645
  O  O132  1  0.112700  0.424600  0.504500  1.0  -0.6109
  O  O133  1  0.043100  0.236100  0.719000  1.0  -0.7248
  O  O134  1  0.053000  0.156300  0.821700  1.0  -0.6662
  O  O135  1  0.538500  0.384500  0.926100  1.0  -0.6756
  O  O136  1  0.417300  0.250700  0.963100  1.0  -0.5639
  O  O137  1  0.209800  0.534500  0.628600  1.0  -0.6604
  O  O138  1  0.202700  0.710300  0.662700  1.0  -0.6792
  O  O139  1  0.700800  0.708200  0.822200  1.0  -0.6389
  O  O140  1  0.832900  0.837200  0.789400  1.0  -0.7446
  O  O141  1  0.591200  0.614700  0.948300  1.0  -0.6044
  O  O142  1  0.673700  0.649800  0.050500  1.0  -0.6247
  O  O143  1  0.795900  0.505700  0.913100  1.0  -0.6431
  O  O144  1  0.887300  0.575400  0.004500  1.0  -0.6111
