# generated using pymatgen
data_InH10C20SO8
_symmetry_space_group_name_H-M   'P 1'
_cell_length_a   25.09800000
_cell_length_b   25.09800000
_cell_length_c   28.44640000
_cell_angle_alpha   90.00000000
_cell_angle_beta   90.00000000
_cell_angle_gamma   120.00000000
_symmetry_Int_Tables_number   1
_chemical_formula_structural   InH10C20SO8
_chemical_formula_sum   'In12 H120 C240 S12 O96'
_cell_volume   15518.01524608
_cell_formula_units_Z   12
loop_
 _symmetry_equiv_pos_site_id
 _symmetry_equiv_pos_as_xyz
  1  'x, y, z'
loop_
 _atom_site_type_symbol
 _atom_site_label
 _atom_site_symmetry_multiplicity
 _atom_site_fract_x
 _atom_site_fract_y
 _atom_site_fract_z
 _atom_site_occupancy
 _atom_site_charge
  In  In1  1  0.687850  0.162940  0.000000  1.0  1.4903
  In  In2  1  0.837060  0.524910  0.000000  1.0  1.4899
  In  In3  1  0.475090  0.312150  0.000000  1.0  1.4886
  In  In4  1  0.312150  0.837060  0.000000  1.0  1.4882
  In  In5  1  0.162940  0.475090  0.000000  1.0  1.492
  In  In6  1  0.524910  0.687850  0.000000  1.0  1.4886
  In  In7  1  0.162940  0.687850  0.500000  1.0  1.4867
  In  In8  1  0.524910  0.837060  0.500000  1.0  1.4908
  In  In9  1  0.312150  0.475090  0.500000  1.0  1.4926
  In  In10  1  0.837060  0.312150  0.500000  1.0  1.4901
  In  In11  1  0.475090  0.162940  0.500000  1.0  1.4879
  In  In12  1  0.687850  0.524910  0.500000  1.0  1.4896
  H  H13  1  0.702400  0.169300  0.167600  1.0  0.1182
  H  H14  1  0.589900  0.225000  0.116500  1.0  0.1125
  H  H15  1  0.673700  0.178500  0.243500  1.0  0.1263
  H  H16  1  0.563200  0.235800  0.192100  1.0  0.1084
  H  H17  1  0.830700  0.533100  0.167600  1.0  0.1176
  H  H18  1  0.775000  0.364900  0.116500  1.0  0.1132
  H  H19  1  0.821500  0.495200  0.243500  1.0  0.1264
  H  H20  1  0.764200  0.327400  0.192100  1.0  0.1097
  H  H21  1  0.466900  0.297600  0.167600  1.0  0.1185
  H  H22  1  0.635100  0.410100  0.116500  1.0  0.1126
  H  H23  1  0.504800  0.326300  0.243500  1.0  0.1274
  H  H24  1  0.672600  0.436800  0.192100  1.0  0.1092
  H  H25  1  0.297600  0.830700  0.167600  1.0  0.1183
  H  H26  1  0.410100  0.775000  0.116500  1.0  0.1128
  H  H27  1  0.326300  0.821500  0.243500  1.0  0.1269
  H  H28  1  0.436800  0.764200  0.192100  1.0  0.1093
  H  H29  1  0.169300  0.466900  0.167600  1.0  0.1174
  H  H30  1  0.225000  0.635100  0.116500  1.0  0.1129
  H  H31  1  0.178500  0.504800  0.243500  1.0  0.1264
  H  H32  1  0.235800  0.672600  0.192100  1.0  0.1106
  H  H33  1  0.533100  0.702400  0.167600  1.0  0.1189
  H  H34  1  0.364900  0.589900  0.116500  1.0  0.1132
  H  H35  1  0.495200  0.673700  0.243500  1.0  0.1261
  H  H36  1  0.327400  0.563200  0.192100  1.0  0.1087
  H  H37  1  0.169300  0.702400  0.332400  1.0  0.1187
  H  H38  1  0.225000  0.589900  0.383500  1.0  0.1133
  H  H39  1  0.178500  0.673700  0.256500  1.0  0.1267
  H  H40  1  0.235800  0.563200  0.307900  1.0  0.1093
  H  H41  1  0.533100  0.830700  0.332400  1.0  0.1184
  H  H42  1  0.364900  0.775000  0.383500  1.0  0.1132
  H  H43  1  0.495200  0.821500  0.256500  1.0  0.1258
  H  H44  1  0.327400  0.764200  0.307900  1.0  0.1084
  H  H45  1  0.297600  0.466900  0.332400  1.0  0.1173
  H  H46  1  0.410100  0.635100  0.383500  1.0  0.1138
  H  H47  1  0.326300  0.504800  0.256500  1.0  0.1254
  H  H48  1  0.436800  0.672600  0.307900  1.0  0.1094
  H  H49  1  0.830700  0.297600  0.332400  1.0  0.1184
  H  H50  1  0.775000  0.410100  0.383500  1.0  0.1137
  H  H51  1  0.821500  0.326300  0.256500  1.0  0.1256
  H  H52  1  0.764200  0.436800  0.307900  1.0  0.109
  H  H53  1  0.466900  0.169300  0.332400  1.0  0.1188
  H  H54  1  0.635100  0.225000  0.383500  1.0  0.1133
  H  H55  1  0.504800  0.178500  0.256500  1.0  0.1261
  H  H56  1  0.672600  0.235800  0.307900  1.0  0.1093
  H  H57  1  0.702400  0.533100  0.332400  1.0  0.1176
  H  H58  1  0.589900  0.364900  0.383500  1.0  0.1136
  H  H59  1  0.673700  0.495200  0.256500  1.0  0.126
  H  H60  1  0.563200  0.327400  0.307900  1.0  0.1103
  H  H61  1  0.297600  0.830700  0.832400  1.0  0.1182
  H  H62  1  0.410100  0.775000  0.883500  1.0  0.1133
  H  H63  1  0.326300  0.821500  0.756500  1.0  0.1264
  H  H64  1  0.436800  0.764200  0.807900  1.0  0.1093
  H  H65  1  0.169300  0.466900  0.832400  1.0  0.1176
  H  H66  1  0.225000  0.635100  0.883500  1.0  0.1135
  H  H67  1  0.178500  0.504800  0.756500  1.0  0.1252
  H  H68  1  0.235800  0.672600  0.807900  1.0  0.1103
  H  H69  1  0.533100  0.702400  0.832400  1.0  0.1189
  H  H70  1  0.364900  0.589900  0.883500  1.0  0.1136
  H  H71  1  0.495200  0.673700  0.756500  1.0  0.1259
  H  H72  1  0.327400  0.563200  0.807900  1.0  0.1089
  H  H73  1  0.702400  0.169300  0.832400  1.0  0.1182
  H  H74  1  0.589900  0.225000  0.883500  1.0  0.1132
  H  H75  1  0.673700  0.178500  0.756500  1.0  0.1259
  H  H76  1  0.563200  0.235800  0.807900  1.0  0.1084
  H  H77  1  0.830700  0.533100  0.832400  1.0  0.1177
  H  H78  1  0.775000  0.364900  0.883500  1.0  0.1137
  H  H79  1  0.821500  0.495200  0.756500  1.0  0.1262
  H  H80  1  0.764200  0.327400  0.807900  1.0  0.1098
  H  H81  1  0.466900  0.297600  0.832400  1.0  0.1184
  H  H82  1  0.635100  0.410100  0.883500  1.0  0.1132
  H  H83  1  0.504800  0.326300  0.756500  1.0  0.1266
  H  H84  1  0.672600  0.436800  0.807900  1.0  0.1089
  H  H85  1  0.830700  0.297600  0.667600  1.0  0.1186
  H  H86  1  0.775000  0.410100  0.616500  1.0  0.1132
  H  H87  1  0.821500  0.326300  0.743500  1.0  0.1261
  H  H88  1  0.764200  0.436800  0.692100  1.0  0.109
  H  H89  1  0.466900  0.169300  0.667600  1.0  0.1189
  H  H90  1  0.635100  0.225000  0.616500  1.0  0.1127
  H  H91  1  0.504800  0.178500  0.743500  1.0  0.1266
  H  H92  1  0.672600  0.235800  0.692100  1.0  0.1091
  H  H93  1  0.702400  0.533100  0.667600  1.0  0.1176
  H  H94  1  0.589900  0.364900  0.616500  1.0  0.1131
  H  H95  1  0.673700  0.495200  0.743500  1.0  0.1265
  H  H96  1  0.563200  0.327400  0.692100  1.0  0.1101
  H  H97  1  0.169300  0.702400  0.667600  1.0  0.1187
  H  H98  1  0.225000  0.589900  0.616500  1.0  0.1129
  H  H99  1  0.178500  0.673700  0.743500  1.0  0.1272
  H  H100  1  0.235800  0.563200  0.692100  1.0  0.1091
  H  H101  1  0.533100  0.830700  0.667600  1.0  0.1184
  H  H102  1  0.364900  0.775000  0.616500  1.0  0.1126
  H  H103  1  0.495200  0.821500  0.743500  1.0  0.1262
  H  H104  1  0.327400  0.764200  0.692100  1.0  0.1084
  H  H105  1  0.297600  0.466900  0.667600  1.0  0.1173
  H  H106  1  0.410100  0.635100  0.616500  1.0  0.1132
  H  H107  1  0.326300  0.504800  0.743500  1.0  0.1264
  H  H108  1  0.436800  0.672600  0.692100  1.0  0.1099
  H  H109  1  0.848100  0.381400  0.000000  1.0  0.1186
  H  H110  1  0.956800  0.451900  0.000000  1.0  0.1192
  H  H111  1  0.618600  0.466700  0.000000  1.0  0.1184
  H  H112  1  0.548100  0.504900  0.000000  1.0  0.1194
  H  H113  1  0.533300  0.151900  0.000000  1.0  0.1176
  H  H114  1  0.495100  0.043200  0.000000  1.0  0.1218
  H  H115  1  0.151900  0.618600  0.000000  1.0  0.1182
  H  H116  1  0.043200  0.548100  0.000000  1.0  0.1191
  H  H117  1  0.381400  0.533300  0.000000  1.0  0.1178
  H  H118  1  0.451900  0.495100  0.000000  1.0  0.1201
  H  H119  1  0.466700  0.848100  0.000000  1.0  0.1174
  H  H120  1  0.504900  0.956800  0.000000  1.0  0.1204
  H  H121  1  0.381400  0.848100  0.500000  1.0  0.118
  H  H122  1  0.451900  0.956800  0.500000  1.0  0.121
  H  H123  1  0.466700  0.618600  0.500000  1.0  0.1188
  H  H124  1  0.504900  0.548100  0.500000  1.0  0.1194
  H  H125  1  0.151900  0.533300  0.500000  1.0  0.1178
  H  H126  1  0.043200  0.495100  0.500000  1.0  0.12
  H  H127  1  0.618600  0.151900  0.500000  1.0  0.1174
  H  H128  1  0.548100  0.043200  0.500000  1.0  0.1211
  H  H129  1  0.533300  0.381400  0.500000  1.0  0.1182
  H  H130  1  0.495100  0.451900  0.500000  1.0  0.119
  H  H131  1  0.848100  0.466700  0.500000  1.0  0.1183
  H  H132  1  0.956800  0.504900  0.500000  1.0  0.1199
  C  C133  1  0.660750  0.182510  0.085390  1.0  0.6878
  C  C134  1  0.646500  0.193400  0.134250  1.0  -0.1178
  C  C135  1  0.673300  0.181400  0.172420  1.0  -0.0468
  C  C136  1  0.606400  0.214800  0.141900  1.0  -0.0388
  C  C137  1  0.656300  0.187400  0.217980  1.0  -0.0665
  C  C138  1  0.590400  0.221300  0.187370  1.0  -0.1213
  C  C139  1  0.614200  0.206500  0.225570  1.0  -0.0003
  C  C140  1  0.817490  0.478240  0.085390  1.0  0.6865
  C  C141  1  0.806600  0.453100  0.134250  1.0  -0.1173
  C  C142  1  0.818600  0.491900  0.172420  1.0  -0.0483
  C  C143  1  0.785200  0.391600  0.141900  1.0  -0.0389
  C  C144  1  0.812600  0.468900  0.217980  1.0  -0.0657
  C  C145  1  0.778700  0.369100  0.187370  1.0  -0.1195
  C  C146  1  0.793500  0.407700  0.225570  1.0  -0.0026
  C  C147  1  0.521760  0.339250  0.085390  1.0  0.6881
  C  C148  1  0.546900  0.353500  0.134250  1.0  -0.1168
  C  C149  1  0.508100  0.326700  0.172420  1.0  -0.0477
  C  C150  1  0.608400  0.393600  0.141900  1.0  -0.0385
  C  C151  1  0.531100  0.343700  0.217980  1.0  -0.0659
  C  C152  1  0.630900  0.409600  0.187370  1.0  -0.1218
  C  C153  1  0.592300  0.385800  0.225570  1.0  -0.0024
  C  C154  1  0.339250  0.817490  0.085390  1.0  0.6879
  C  C155  1  0.353500  0.806600  0.134250  1.0  -0.1177
  C  C156  1  0.326700  0.818600  0.172420  1.0  -0.05
  C  C157  1  0.393600  0.785200  0.141900  1.0  -0.0391
  C  C158  1  0.343700  0.812600  0.217980  1.0  -0.0668
  C  C159  1  0.409600  0.778700  0.187370  1.0  -0.1197
  C  C160  1  0.385800  0.793500  0.225570  1.0  -0.0002
  C  C161  1  0.182510  0.521760  0.085390  1.0  0.687
  C  C162  1  0.193400  0.546900  0.134250  1.0  -0.1186
  C  C163  1  0.181400  0.508100  0.172420  1.0  -0.0487
  C  C164  1  0.214800  0.608400  0.141900  1.0  -0.0386
  C  C165  1  0.187400  0.531100  0.217980  1.0  -0.0664
  C  C166  1  0.221300  0.630900  0.187370  1.0  -0.1222
  C  C167  1  0.206500  0.592300  0.225570  1.0  -0.002
  C  C168  1  0.478240  0.660750  0.085390  1.0  0.6874
  C  C169  1  0.453100  0.646500  0.134250  1.0  -0.1158
  C  C170  1  0.491900  0.673300  0.172420  1.0  -0.0463
  C  C171  1  0.391600  0.606400  0.141900  1.0  -0.0387
  C  C172  1  0.468900  0.656300  0.217980  1.0  -0.0653
  C  C173  1  0.369100  0.590400  0.187370  1.0  -0.121
  C  C174  1  0.407700  0.614200  0.225570  1.0  -0.0033
  C  C175  1  0.182510  0.660750  0.414610  1.0  0.6879
  C  C176  1  0.193400  0.646500  0.365750  1.0  -0.1178
  C  C177  1  0.181400  0.673300  0.327580  1.0  -0.0493
  C  C178  1  0.214800  0.606400  0.358100  1.0  -0.0377
  C  C179  1  0.187400  0.656300  0.282020  1.0  -0.0666
  C  C180  1  0.221300  0.590400  0.312630  1.0  -0.1197
  C  C181  1  0.206500  0.614200  0.274430  1.0  -0.0024
  C  C182  1  0.478240  0.817490  0.414610  1.0  0.6879
  C  C183  1  0.453100  0.806600  0.365750  1.0  -0.119
  C  C184  1  0.491900  0.818600  0.327580  1.0  -0.0485
  C  C185  1  0.391600  0.785200  0.358100  1.0  -0.0395
  C  C186  1  0.468900  0.812600  0.282020  1.0  -0.066
  C  C187  1  0.369100  0.778700  0.312630  1.0  -0.1201
  C  C188  1  0.407700  0.793500  0.274430  1.0  0.0006
  C  C189  1  0.339250  0.521760  0.414610  1.0  0.6869
  C  C190  1  0.353500  0.546900  0.365750  1.0  -0.1201
  C  C191  1  0.326700  0.508100  0.327580  1.0  -0.0493
  C  C192  1  0.393600  0.608400  0.358100  1.0  -0.0384
  C  C193  1  0.343700  0.531100  0.282020  1.0  -0.0653
  C  C194  1  0.409600  0.630900  0.312630  1.0  -0.1204
  C  C195  1  0.385800  0.592300  0.274430  1.0  -0.0021
  C  C196  1  0.817490  0.339250  0.414610  1.0  0.6879
  C  C197  1  0.806600  0.353500  0.365750  1.0  -0.1185
  C  C198  1  0.818600  0.326700  0.327580  1.0  -0.0469
  C  C199  1  0.785200  0.393600  0.358100  1.0  -0.0383
  C  C200  1  0.812600  0.343700  0.282020  1.0  -0.0648
  C  C201  1  0.778700  0.409600  0.312630  1.0  -0.1208
  C  C202  1  0.793500  0.385800  0.274430  1.0  -0.0021
  C  C203  1  0.521760  0.182510  0.414610  1.0  0.6885
  C  C204  1  0.546900  0.193400  0.365750  1.0  -0.1194
  C  C205  1  0.508100  0.181400  0.327580  1.0  -0.0477
  C  C206  1  0.608400  0.214800  0.358100  1.0  -0.0382
  C  C207  1  0.531100  0.187400  0.282020  1.0  -0.0668
  C  C208  1  0.630900  0.221300  0.312630  1.0  -0.1191
  C  C209  1  0.592300  0.206500  0.274430  1.0  -0.0005
  C  C210  1  0.660750  0.478240  0.414610  1.0  0.687
  C  C211  1  0.646500  0.453100  0.365750  1.0  -0.119
  C  C212  1  0.673300  0.491900  0.327580  1.0  -0.0473
  C  C213  1  0.606400  0.391600  0.358100  1.0  -0.0382
  C  C214  1  0.656300  0.468900  0.282020  1.0  -0.0662
  C  C215  1  0.590400  0.369100  0.312630  1.0  -0.1192
  C  C216  1  0.614200  0.407700  0.274430  1.0  -0.0019
  C  C217  1  0.339250  0.817490  0.914610  1.0  0.6882
  C  C218  1  0.353500  0.806600  0.865750  1.0  -0.1186
  C  C219  1  0.326700  0.818600  0.827580  1.0  -0.0501
  C  C220  1  0.393600  0.785200  0.858100  1.0  -0.0387
  C  C221  1  0.343700  0.812600  0.782020  1.0  -0.0666
  C  C222  1  0.409600  0.778700  0.812630  1.0  -0.12
  C  C223  1  0.385800  0.793500  0.774430  1.0  0.0002
  C  C224  1  0.182510  0.521760  0.914610  1.0  0.6871
  C  C225  1  0.193400  0.546900  0.865750  1.0  -0.1193
  C  C226  1  0.181400  0.508100  0.827580  1.0  -0.049
  C  C227  1  0.214800  0.608400  0.858100  1.0  -0.0385
  C  C228  1  0.187400  0.531100  0.782020  1.0  -0.0663
  C  C229  1  0.221300  0.630900  0.812630  1.0  -0.1214
  C  C230  1  0.206500  0.592300  0.774430  1.0  -0.0019
  C  C231  1  0.478240  0.660750  0.914610  1.0  0.6877
  C  C232  1  0.453100  0.646500  0.865750  1.0  -0.1185
  C  C233  1  0.491900  0.673300  0.827580  1.0  -0.0464
  C  C234  1  0.391600  0.606400  0.858100  1.0  -0.0383
  C  C235  1  0.468900  0.656300  0.782020  1.0  -0.0654
  C  C236  1  0.369100  0.590400  0.812630  1.0  -0.1205
  C  C237  1  0.407700  0.614200  0.774430  1.0  -0.0029
  C  C238  1  0.660750  0.182510  0.914610  1.0  0.6881
  C  C239  1  0.646500  0.193400  0.865750  1.0  -0.1197
  C  C240  1  0.673300  0.181400  0.827580  1.0  -0.0469
  C  C241  1  0.606400  0.214800  0.858100  1.0  -0.0386
  C  C242  1  0.656300  0.187400  0.782020  1.0  -0.0661
  C  C243  1  0.590400  0.221300  0.812630  1.0  -0.1204
  C  C244  1  0.614200  0.206500  0.774430  1.0  -1e-04
  C  C245  1  0.817490  0.478240  0.914610  1.0  0.6868
  C  C246  1  0.806600  0.453100  0.865750  1.0  -0.1198
  C  C247  1  0.818600  0.491900  0.827580  1.0  -0.0485
  C  C248  1  0.785200  0.391600  0.858100  1.0  -0.0382
  C  C249  1  0.812600  0.468900  0.782020  1.0  -0.0659
  C  C250  1  0.778700  0.369100  0.812630  1.0  -0.1198
  C  C251  1  0.793500  0.407700  0.774430  1.0  -0.002
  C  C252  1  0.521760  0.339250  0.914610  1.0  0.6881
  C  C253  1  0.546900  0.353500  0.865750  1.0  -0.1177
  C  C254  1  0.508100  0.326700  0.827580  1.0  -0.0481
  C  C255  1  0.608400  0.393600  0.858100  1.0  -0.0383
  C  C256  1  0.531100  0.343700  0.782020  1.0  -0.0659
  C  C257  1  0.630900  0.409600  0.812630  1.0  -0.1215
  C  C258  1  0.592300  0.385800  0.774430  1.0  -0.0021
  C  C259  1  0.817490  0.339250  0.585390  1.0  0.6876
  C  C260  1  0.806600  0.353500  0.634250  1.0  -0.1158
  C  C261  1  0.818600  0.326700  0.672420  1.0  -0.0468
  C  C262  1  0.785200  0.393600  0.641900  1.0  -0.0388
  C  C263  1  0.812600  0.343700  0.717980  1.0  -0.0645
  C  C264  1  0.778700  0.409600  0.687370  1.0  -0.121
  C  C265  1  0.793500  0.385800  0.725570  1.0  -0.0029
  C  C266  1  0.521760  0.182510  0.585390  1.0  0.6882
  C  C267  1  0.546900  0.193400  0.634250  1.0  -0.1181
  C  C268  1  0.508100  0.181400  0.672420  1.0  -0.0473
  C  C269  1  0.608400  0.214800  0.641900  1.0  -0.0391
  C  C270  1  0.531100  0.187400  0.717980  1.0  -0.067
  C  C271  1  0.630900  0.221300  0.687370  1.0  -0.1194
  C  C272  1  0.592300  0.206500  0.725570  1.0  -0.0007
  C  C273  1  0.660750  0.478240  0.585390  1.0  0.6867
  C  C274  1  0.646500  0.453100  0.634250  1.0  -0.1174
  C  C275  1  0.673300  0.491900  0.672420  1.0  -0.0472
  C  C276  1  0.606400  0.391600  0.641900  1.0  -0.0379
  C  C277  1  0.656300  0.468900  0.717980  1.0  -0.0657
  C  C278  1  0.590400  0.369100  0.687370  1.0  -0.1189
  C  C279  1  0.614200  0.407700  0.725570  1.0  -0.002
  C  C280  1  0.182510  0.660750  0.585390  1.0  0.6879
  C  C281  1  0.193400  0.646500  0.634250  1.0  -0.1169
  C  C282  1  0.181400  0.673300  0.672420  1.0  -0.0489
  C  C283  1  0.214800  0.606400  0.641900  1.0  -0.0382
  C  C284  1  0.187400  0.656300  0.717980  1.0  -0.0666
  C  C285  1  0.221300  0.590400  0.687370  1.0  -0.1201
  C  C286  1  0.206500  0.614200  0.725570  1.0  -0.0024
  C  C287  1  0.478240  0.817490  0.585390  1.0  0.6874
  C  C288  1  0.453100  0.806600  0.634250  1.0  -0.1171
  C  C289  1  0.491900  0.818600  0.672420  1.0  -0.049
  C  C290  1  0.391600  0.785200  0.641900  1.0  -0.0393
  C  C291  1  0.468900  0.812600  0.717980  1.0  -0.0663
  C  C292  1  0.369100  0.778700  0.687370  1.0  -0.1196
  C  C293  1  0.407700  0.793500  0.725570  1.0  0.0003
  C  C294  1  0.339250  0.521760  0.585390  1.0  0.6868
  C  C295  1  0.353500  0.546900  0.634250  1.0  -0.1184
  C  C296  1  0.326700  0.508100  0.672420  1.0  -0.0489
  C  C297  1  0.393600  0.608400  0.641900  1.0  -0.0394
  C  C298  1  0.343700  0.531100  0.717980  1.0  -0.0656
  C  C299  1  0.409600  0.630900  0.687370  1.0  -0.1208
  C  C300  1  0.385800  0.592300  0.725570  1.0  -0.0029
  C  C301  1  0.801000  0.255400  0.000000  1.0  0.6936
  C  C302  1  0.863400  0.309700  0.000000  1.0  -0.132
  C  C303  1  0.974500  0.381000  0.000000  1.0  -0.1695
  C  C304  1  0.041600  0.412000  0.000000  1.0  0.6889
  C  C305  1  0.877500  0.369100  0.000000  1.0  -0.0056
  C  C306  1  0.939700  0.409400  0.000000  1.0  -0.018
  C  C307  1  0.744600  0.545600  0.000000  1.0  0.6895
  C  C308  1  0.690300  0.553700  0.000000  1.0  -0.1322
  C  C309  1  0.619000  0.593500  0.000000  1.0  -0.1705
  C  C310  1  0.588000  0.629600  0.000000  1.0  0.691
  C  C311  1  0.630900  0.508400  0.000000  1.0  -0.0043
  C  C312  1  0.590600  0.530300  0.000000  1.0  -0.0195
  C  C313  1  0.454400  0.199000  0.000000  1.0  0.6914
  C  C314  1  0.446300  0.136600  0.000000  1.0  -0.1349
  C  C315  1  0.406500  0.025500  0.000000  1.0  -0.171
  C  C316  1  0.370400  0.958400  0.000000  1.0  0.6923
  C  C317  1  0.491600  0.122500  0.000000  1.0  -0.0039
  C  C318  1  0.469700  0.060300  0.000000  1.0  -0.02
  C  C319  1  0.199000  0.744600  0.000000  1.0  0.6906
  C  C320  1  0.136600  0.690300  0.000000  1.0  -0.1317
  C  C321  1  0.025500  0.619000  0.000000  1.0  -0.1691
  C  C322  1  0.958400  0.588000  0.000000  1.0  0.6887
  C  C323  1  0.122500  0.630900  0.000000  1.0  -0.0054
  C  C324  1  0.060300  0.590600  0.000000  1.0  -0.019
  C  C325  1  0.255400  0.454400  0.000000  1.0  0.6887
  C  C326  1  0.309700  0.446300  0.000000  1.0  -0.1327
  C  C327  1  0.381000  0.406500  0.000000  1.0  -0.1703
  C  C328  1  0.412000  0.370400  0.000000  1.0  0.6913
  C  C329  1  0.369100  0.491600  0.000000  1.0  -0.0046
  C  C330  1  0.409400  0.469700  0.000000  1.0  -0.0198
  C  C331  1  0.545600  0.801000  0.000000  1.0  0.6931
  C  C332  1  0.553700  0.863400  0.000000  1.0  -0.1348
  C  C333  1  0.593500  0.974500  0.000000  1.0  -0.1701
  C  C334  1  0.629600  0.041600  0.000000  1.0  0.6917
  C  C335  1  0.508400  0.877500  0.000000  1.0  -0.0042
  C  C336  1  0.530300  0.939700  0.000000  1.0  -0.02
  C  C337  1  0.255400  0.801000  0.500000  1.0  0.6927
  C  C338  1  0.309700  0.863400  0.500000  1.0  -0.1348
  C  C339  1  0.381000  0.974500  0.500000  1.0  -0.1706
  C  C340  1  0.412000  0.041600  0.500000  1.0  0.6922
  C  C341  1  0.369100  0.877500  0.500000  1.0  -0.004
  C  C342  1  0.409400  0.939700  0.500000  1.0  -0.02
  C  C343  1  0.545600  0.744600  0.500000  1.0  0.6922
  C  C344  1  0.553700  0.690300  0.500000  1.0  -0.132
  C  C345  1  0.593500  0.619000  0.500000  1.0  -0.1698
  C  C346  1  0.629600  0.588000  0.500000  1.0  0.6881
  C  C347  1  0.508400  0.630900  0.500000  1.0  -0.0054
  C  C348  1  0.530300  0.590600  0.500000  1.0  -0.0183
  C  C349  1  0.199000  0.454400  0.500000  1.0  0.6901
  C  C350  1  0.136600  0.446300  0.500000  1.0  -0.1332
  C  C351  1  0.025500  0.406500  0.500000  1.0  -0.1703
  C  C352  1  0.958400  0.370400  0.500000  1.0  0.6923
  C  C353  1  0.122500  0.491600  0.500000  1.0  -0.0049
  C  C354  1  0.060300  0.469700  0.500000  1.0  -0.0195
  C  C355  1  0.744600  0.199000  0.500000  1.0  0.6919
  C  C356  1  0.690300  0.136600  0.500000  1.0  -0.1347
  C  C357  1  0.619000  0.025500  0.500000  1.0  -0.1698
  C  C358  1  0.588000  0.958400  0.500000  1.0  0.6922
  C  C359  1  0.630900  0.122500  0.500000  1.0  -0.0045
  C  C360  1  0.590600  0.060300  0.500000  1.0  -0.0198
  C  C361  1  0.454400  0.255400  0.500000  1.0  0.6919
  C  C362  1  0.446300  0.309700  0.500000  1.0  -0.1329
  C  C363  1  0.406500  0.381000  0.500000  1.0  -0.1695
  C  C364  1  0.370400  0.412000  0.500000  1.0  0.6898
  C  C365  1  0.491600  0.369100  0.500000  1.0  -0.0054
  C  C366  1  0.469700  0.409400  0.500000  1.0  -0.0186
  C  C367  1  0.801000  0.545600  0.500000  1.0  0.6882
  C  C368  1  0.863400  0.553700  0.500000  1.0  -0.1319
  C  C369  1  0.974500  0.593500  0.500000  1.0  -0.1701
  C  C370  1  0.041600  0.629600  0.500000  1.0  0.6907
  C  C371  1  0.877500  0.508400  0.500000  1.0  -0.0043
  C  C372  1  0.939700  0.530300  0.500000  1.0  -0.0198
  S  S373  1  0.928130  0.303180  0.000000  1.0  0.1637
  S  S374  1  0.696820  0.624950  0.000000  1.0  0.1678
  S  S375  1  0.375050  0.071870  0.000000  1.0  0.1649
  S  S376  1  0.071870  0.696820  0.000000  1.0  0.1677
  S  S377  1  0.303180  0.375050  0.000000  1.0  0.1678
  S  S378  1  0.624950  0.928130  0.000000  1.0  0.16
  S  S379  1  0.303180  0.928130  0.500000  1.0  0.1649
  S  S380  1  0.624950  0.696820  0.500000  1.0  0.1646
  S  S381  1  0.071870  0.375050  0.500000  1.0  0.1678
  S  S382  1  0.696820  0.071870  0.500000  1.0  0.1606
  S  S383  1  0.375050  0.303180  0.500000  1.0  0.1664
  S  S384  1  0.928130  0.624950  0.500000  1.0  0.1689
  O  O385  1  0.696870  0.161530  0.078910  1.0  -0.5454
  O  O386  1  0.636410  0.193270  0.051360  1.0  -0.5633
  O  O387  1  0.838470  0.535340  0.078910  1.0  -0.5406
  O  O388  1  0.806730  0.443140  0.051360  1.0  -0.5635
  O  O389  1  0.464660  0.303130  0.078910  1.0  -0.5461
  O  O390  1  0.556860  0.363590  0.051360  1.0  -0.5671
  O  O391  1  0.303130  0.838470  0.078910  1.0  -0.5448
  O  O392  1  0.363590  0.806730  0.051360  1.0  -0.5652
  O  O393  1  0.161530  0.464660  0.078910  1.0  -0.5359
  O  O394  1  0.193270  0.556860  0.051360  1.0  -0.5611
  O  O395  1  0.535340  0.696870  0.078910  1.0  -0.5468
  O  O396  1  0.443140  0.636410  0.051360  1.0  -0.5657
  O  O397  1  0.161530  0.696870  0.421090  1.0  -0.5467
  O  O398  1  0.193270  0.636410  0.448640  1.0  -0.5683
  O  O399  1  0.535340  0.838470  0.421090  1.0  -0.5458
  O  O400  1  0.443140  0.806730  0.448640  1.0  -0.5653
  O  O401  1  0.303130  0.464660  0.421090  1.0  -0.5379
  O  O402  1  0.363590  0.556860  0.448640  1.0  -0.5623
  O  O403  1  0.838470  0.303130  0.421090  1.0  -0.5484
  O  O404  1  0.806730  0.363590  0.448640  1.0  -0.5669
  O  O405  1  0.464660  0.161530  0.421090  1.0  -0.5457
  O  O406  1  0.556860  0.193270  0.448640  1.0  -0.5659
  O  O407  1  0.696870  0.535340  0.421090  1.0  -0.5411
  O  O408  1  0.636410  0.443140  0.448640  1.0  -0.5642
  O  O409  1  0.303130  0.838470  0.921090  1.0  -0.5451
  O  O410  1  0.363590  0.806730  0.948640  1.0  -0.5661
  O  O411  1  0.161530  0.464660  0.921090  1.0  -0.5372
  O  O412  1  0.193270  0.556860  0.948640  1.0  -0.5626
  O  O413  1  0.535340  0.696870  0.921090  1.0  -0.5482
  O  O414  1  0.443140  0.636410  0.948640  1.0  -0.5671
  O  O415  1  0.696870  0.161530  0.921090  1.0  -0.5464
  O  O416  1  0.636410  0.193270  0.948640  1.0  -0.565
  O  O417  1  0.838470  0.535340  0.921090  1.0  -0.541
  O  O418  1  0.806730  0.443140  0.948640  1.0  -0.5641
  O  O419  1  0.464660  0.303130  0.921090  1.0  -0.547
  O  O420  1  0.556860  0.363590  0.948640  1.0  -0.5682
  O  O421  1  0.838470  0.303130  0.578910  1.0  -0.5475
  O  O422  1  0.806730  0.363590  0.551360  1.0  -0.5655
  O  O423  1  0.464660  0.161530  0.578910  1.0  -0.545
  O  O424  1  0.556860  0.193270  0.551360  1.0  -0.5645
  O  O425  1  0.696870  0.535340  0.578910  1.0  -0.5406
  O  O426  1  0.636410  0.443140  0.551360  1.0  -0.5635
  O  O427  1  0.161530  0.696870  0.578910  1.0  -0.5459
  O  O428  1  0.193270  0.636410  0.551360  1.0  -0.5672
  O  O429  1  0.535340  0.838470  0.578910  1.0  -0.5447
  O  O430  1  0.443140  0.806730  0.551360  1.0  -0.5644
  O  O431  1  0.303130  0.464660  0.578910  1.0  -0.5365
  O  O432  1  0.363590  0.556860  0.551360  1.0  -0.561
  O  O433  1  0.068680  0.381320  0.000000  1.0  -0.5677
  O  O434  1  0.793060  0.202030  0.000000  1.0  -0.5454
  O  O435  1  0.072370  0.470080  0.000000  1.0  -0.6011
  O  O436  1  0.756120  0.264240  0.000000  1.0  -0.543
  O  O437  1  0.618680  0.687360  0.000000  1.0  -0.5653
  O  O438  1  0.797970  0.591030  0.000000  1.0  -0.5435
  O  O439  1  0.529920  0.602290  0.000000  1.0  -0.6015
  O  O440  1  0.735760  0.491880  0.000000  1.0  -0.5384
  O  O441  1  0.312640  0.931320  0.000000  1.0  -0.5669
  O  O442  1  0.408970  0.206940  0.000000  1.0  -0.5447
  O  O443  1  0.397710  0.927630  0.000000  1.0  -0.6024
  O  O444  1  0.508120  0.243880  0.000000  1.0  -0.5414
  O  O445  1  0.931320  0.618680  0.000000  1.0  -0.5663
  O  O446  1  0.206940  0.797970  0.000000  1.0  -0.5446
  O  O447  1  0.927630  0.529920  0.000000  1.0  -0.6022
  O  O448  1  0.243880  0.735760  0.000000  1.0  -0.5404
  O  O449  1  0.381320  0.312640  0.000000  1.0  -0.567
  O  O450  1  0.202030  0.408970  0.000000  1.0  -0.5455
  O  O451  1  0.470080  0.397710  0.000000  1.0  -0.6013
  O  O452  1  0.264240  0.508120  0.000000  1.0  -0.5401
  O  O453  1  0.687360  0.068680  0.000000  1.0  -0.5647
  O  O454  1  0.591030  0.793060  0.000000  1.0  -0.5445
  O  O455  1  0.602290  0.072370  0.000000  1.0  -0.6016
  O  O456  1  0.491880  0.756120  0.000000  1.0  -0.5421
  O  O457  1  0.381320  0.068680  0.500000  1.0  -0.5655
  O  O458  1  0.202030  0.793060  0.500000  1.0  -0.5475
  O  O459  1  0.470080  0.072370  0.500000  1.0  -0.6022
  O  O460  1  0.264240  0.756120  0.500000  1.0  -0.5421
  O  O461  1  0.687360  0.618680  0.500000  1.0  -0.5682
  O  O462  1  0.591030  0.797970  0.500000  1.0  -0.5422
  O  O463  1  0.602290  0.529920  0.500000  1.0  -0.6026
  O  O464  1  0.491880  0.735760  0.500000  1.0  -0.5432
  O  O465  1  0.931320  0.312640  0.500000  1.0  -0.5681
  O  O466  1  0.206940  0.408970  0.500000  1.0  -0.5434
  O  O467  1  0.927630  0.397710  0.500000  1.0  -0.6012
  O  O468  1  0.243880  0.508120  0.500000  1.0  -0.5391
  O  O469  1  0.618680  0.931320  0.500000  1.0  -0.5652
  O  O470  1  0.797970  0.206940  0.500000  1.0  -0.5459
  O  O471  1  0.529920  0.927630  0.500000  1.0  -0.602
  O  O472  1  0.735760  0.243880  0.500000  1.0  -0.5411
  O  O473  1  0.312640  0.381320  0.500000  1.0  -0.5682
  O  O474  1  0.408970  0.202030  0.500000  1.0  -0.5444
  O  O475  1  0.397710  0.470080  0.500000  1.0  -0.6005
  O  O476  1  0.508120  0.264240  0.500000  1.0  -0.5403
  O  O477  1  0.068680  0.687360  0.500000  1.0  -0.5669
  O  O478  1  0.793060  0.591030  0.500000  1.0  -0.5436
  O  O479  1  0.072370  0.602290  0.500000  1.0  -0.6016
  O  O480  1  0.756120  0.491880  0.500000  1.0  -0.5397
