# generated using pymatgen
data_GdH2C7(NO3)2
_symmetry_space_group_name_H-M   'P 1'
_cell_length_a   10.93400000
_cell_length_b   11.79270000
_cell_length_c   19.21520000
_cell_angle_alpha   90.00000000
_cell_angle_beta   90.00000000
_cell_angle_gamma   90.00000000
_symmetry_Int_Tables_number   1
_chemical_formula_structural   GdH2C7(NO3)2
_chemical_formula_sum   'Gd8 H16 C56 N16 O48'
_cell_volume   2477.63443956
_cell_formula_units_Z   8
loop_
 _symmetry_equiv_pos_site_id
 _symmetry_equiv_pos_as_xyz
  1  'x, y, z'
loop_
 _atom_site_type_symbol
 _atom_site_label
 _atom_site_symmetry_multiplicity
 _atom_site_fract_x
 _atom_site_fract_y
 _atom_site_fract_z
 _atom_site_occupancy
 _atom_site_charge
  Gd  Gd1  1  0.362100  0.842760  0.425840  1.0  2.1309
  Gd  Gd2  1  0.880860  0.029440  0.211370  1.0  2.1056
  Gd  Gd3  1  0.637900  0.157240  0.925840  1.0  2.1294
  Gd  Gd4  1  0.119140  0.970560  0.711370  1.0  2.1062
  Gd  Gd5  1  0.137900  0.342760  0.425840  1.0  2.1297
  Gd  Gd6  1  0.619140  0.529440  0.211370  1.0  2.1062
  Gd  Gd7  1  0.862100  0.657240  0.925840  1.0  2.1305
  Gd  Gd8  1  0.380860  0.470560  0.711370  1.0  2.1056
  H  H9  1  0.145800  0.996900  0.321600  1.0  0.0427
  H  H10  1  0.270700  0.749300  0.156300  1.0  0.1539
  H  H11  1  0.629400  0.898600  0.311300  1.0  0.051
  H  H12  1  0.493200  0.260600  0.325700  1.0  0.1295
  H  H13  1  0.854200  0.003100  0.821600  1.0  0.0432
  H  H14  1  0.729300  0.250700  0.656300  1.0  0.1537
  H  H15  1  0.370600  0.101400  0.811300  1.0  0.0492
  H  H16  1  0.506800  0.739400  0.825700  1.0  0.13
  H  H17  1  0.354200  0.496900  0.321600  1.0  0.0426
  H  H18  1  0.229300  0.249300  0.156300  1.0  0.1536
  H  H19  1  0.870600  0.398600  0.311300  1.0  0.0502
  H  H20  1  0.006800  0.760600  0.325700  1.0  0.1295
  H  H21  1  0.645800  0.503100  0.821600  1.0  0.0431
  H  H22  1  0.770700  0.750700  0.656300  1.0  0.1542
  H  H23  1  0.129400  0.601400  0.811300  1.0  0.0498
  H  H24  1  0.993200  0.239400  0.825700  1.0  0.13
  C  C25  1  0.168500  0.943000  0.288800  1.0  0.4387
  C  C26  1  0.135000  0.859300  0.184700  1.0  0.1916
  C  C27  1  0.242900  0.796900  0.191400  1.0  -0.1213
  C  C28  1  0.305000  0.809800  0.252100  1.0  0.1802
  C  C29  1  0.413900  0.732800  0.269600  1.0  0.6764
  C  C30  1  0.052400  0.841100  0.122300  1.0  0.6399
  C  C31  1  0.601600  0.972900  0.314200  1.0  0.4793
  C  C32  1  0.626600  0.158300  0.286400  1.0  0.1903
  C  C33  1  0.521000  0.186200  0.322400  1.0  -0.1332
  C  C34  1  0.460100  0.097300  0.352800  1.0  0.1959
  C  C35  1  0.339600  0.116400  0.391000  1.0  0.676
  C  C36  1  0.703500  0.249700  0.250900  1.0  0.6942
  C  C37  1  0.700500  0.069200  0.080400  1.0  0.5949
  C  C38  1  0.822600  0.120700  0.055000  1.0  0.5636
  C  C39  1  0.831500  0.057000  0.788800  1.0  0.4387
  C  C40  1  0.865000  0.140700  0.684700  1.0  0.1927
  C  C41  1  0.757100  0.203100  0.691400  1.0  -0.1189
  C  C42  1  0.695000  0.190200  0.752100  1.0  0.1798
  C  C43  1  0.586100  0.267200  0.769600  1.0  0.677
  C  C44  1  0.947600  0.158900  0.622300  1.0  0.6396
  C  C45  1  0.398400  0.027100  0.814200  1.0  0.4815
  C  C46  1  0.373400  0.841700  0.786400  1.0  0.19
  C  C47  1  0.479000  0.813800  0.822400  1.0  -0.1328
  C  C48  1  0.539900  0.902700  0.852800  1.0  0.1936
  C  C49  1  0.660400  0.883600  0.891000  1.0  0.6774
  C  C50  1  0.296500  0.750300  0.750900  1.0  0.6938
  C  C51  1  0.299500  0.930800  0.580400  1.0  0.5952
  C  C52  1  0.177400  0.879300  0.555000  1.0  0.5633
  C  C53  1  0.331500  0.443000  0.288800  1.0  0.4384
  C  C54  1  0.365000  0.359300  0.184700  1.0  0.1925
  C  C55  1  0.257100  0.296900  0.191400  1.0  -0.1192
  C  C56  1  0.195000  0.309800  0.252100  1.0  0.1798
  C  C57  1  0.086100  0.232800  0.269600  1.0  0.6768
  C  C58  1  0.447600  0.341100  0.122300  1.0  0.6398
  C  C59  1  0.898400  0.472900  0.314200  1.0  0.4804
  C  C60  1  0.873400  0.658300  0.286400  1.0  0.1898
  C  C61  1  0.979000  0.686200  0.322400  1.0  -0.1321
  C  C62  1  0.039900  0.597300  0.352800  1.0  0.1938
  C  C63  1  0.160400  0.616400  0.391000  1.0  0.6775
  C  C64  1  0.796500  0.749700  0.250900  1.0  0.694
  C  C65  1  0.799500  0.569200  0.080400  1.0  0.5952
  C  C66  1  0.677400  0.620700  0.055000  1.0  0.5636
  C  C67  1  0.668500  0.557000  0.788800  1.0  0.4394
  C  C68  1  0.635000  0.640700  0.684700  1.0  0.1917
  C  C69  1  0.742900  0.703100  0.691400  1.0  -0.121
  C  C70  1  0.805000  0.690200  0.752100  1.0  0.1799
  C  C71  1  0.913900  0.767200  0.769600  1.0  0.6764
  C  C72  1  0.552400  0.658900  0.622300  1.0  0.6399
  C  C73  1  0.101600  0.527100  0.814200  1.0  0.4799
  C  C74  1  0.126600  0.341700  0.786400  1.0  0.1907
  C  C75  1  0.021000  0.313800  0.822400  1.0  -0.1341
  C  C76  1  0.960100  0.402700  0.852800  1.0  0.1959
  C  C77  1  0.839600  0.383600  0.891000  1.0  0.6759
  C  C78  1  0.203500  0.250300  0.750900  1.0  0.694
  C  C79  1  0.200500  0.430800  0.580400  1.0  0.5949
  C  C80  1  0.322600  0.379300  0.555000  1.0  0.5637
  N  N81  1  0.269800  0.883500  0.301600  1.0  -0.4936
  N  N82  1  0.097100  0.931800  0.233100  1.0  -0.5265
  N  N83  1  0.499200  0.990800  0.351200  1.0  -0.5249
  N  N84  1  0.666900  0.051400  0.281300  1.0  -0.5041
  N  N85  1  0.730200  0.116500  0.801600  1.0  -0.4955
  N  N86  1  0.902900  0.068200  0.733100  1.0  -0.5243
  N  N87  1  0.500800  0.009200  0.851200  1.0  -0.5257
  N  N88  1  0.333100  0.948600  0.781300  1.0  -0.5034
  N  N89  1  0.230200  0.383500  0.301600  1.0  -0.4959
  N  N90  1  0.402900  0.431800  0.233100  1.0  -0.5261
  N  N91  1  0.000800  0.490800  0.351200  1.0  -0.5244
  N  N92  1  0.833100  0.551400  0.281300  1.0  -0.5038
  N  N93  1  0.769800  0.616500  0.801600  1.0  -0.4934
  N  N94  1  0.597100  0.568200  0.733100  1.0  -0.5264
  N  N95  1  0.999200  0.509200  0.851200  1.0  -0.5256
  N  N96  1  0.166900  0.448600  0.781300  1.0  -0.5042
  O  O97  1  0.453800  0.740500  0.331400  1.0  -0.7488
  O  O98  1  0.450700  0.667300  0.223700  1.0  -0.6299
  O  O99  1  0.954100  0.898500  0.121900  1.0  -0.6815
  O  O100  1  0.086700  0.772000  0.079300  1.0  -0.5914
  O  O101  1  0.295400  0.035400  0.425400  1.0  -0.6523
  O  O102  1  0.291500  0.212300  0.383300  1.0  -0.6763
  O  O103  1  0.800200  0.217600  0.222000  1.0  -0.6335
  O  O104  1  0.665800  0.348800  0.254900  1.0  -0.7136
  O  O105  1  0.610700  0.082500  0.042300  1.0  -0.6543
  O  O106  1  0.704700  0.015100  0.137200  1.0  -0.63
  O  O107  1  0.826900  0.153600  0.993500  1.0  -0.6168
  O  O108  1  0.909100  0.124900  0.100300  1.0  -0.6022
  O  O109  1  0.546200  0.259500  0.831400  1.0  -0.7495
  O  O110  1  0.549300  0.332700  0.723700  1.0  -0.6313
  O  O111  1  0.045900  0.101500  0.621900  1.0  -0.6831
  O  O112  1  0.913300  0.228000  0.579300  1.0  -0.5929
  O  O113  1  0.704600  0.964600  0.925400  1.0  -0.6524
  O  O114  1  0.708500  0.787700  0.883300  1.0  -0.6751
  O  O115  1  0.199800  0.782400  0.722000  1.0  -0.6338
  O  O116  1  0.334200  0.651200  0.754900  1.0  -0.7129
  O  O117  1  0.389300  0.917500  0.542300  1.0  -0.6518
  O  O118  1  0.295300  0.984900  0.637200  1.0  -0.6314
  O  O119  1  0.173100  0.846400  0.493500  1.0  -0.6173
  O  O120  1  0.090900  0.875100  0.600300  1.0  -0.6027
  O  O121  1  0.046200  0.240500  0.331400  1.0  -0.7488
  O  O122  1  0.049300  0.167300  0.223700  1.0  -0.6307
  O  O123  1  0.545900  0.398500  0.121900  1.0  -0.6827
  O  O124  1  0.413300  0.272000  0.079300  1.0  -0.5916
  O  O125  1  0.204600  0.535400  0.425400  1.0  -0.6528
  O  O126  1  0.208500  0.712300  0.383300  1.0  -0.6758
  O  O127  1  0.699800  0.717600  0.222000  1.0  -0.6337
  O  O128  1  0.834200  0.848800  0.254900  1.0  -0.7146
  O  O129  1  0.889300  0.582500  0.042300  1.0  -0.6524
  O  O130  1  0.795300  0.515100  0.137200  1.0  -0.6306
  O  O131  1  0.673100  0.653600  0.993500  1.0  -0.6171
  O  O132  1  0.590900  0.624900  0.100300  1.0  -0.6018
  O  O133  1  0.953800  0.759500  0.831400  1.0  -0.7497
  O  O134  1  0.950700  0.832700  0.723700  1.0  -0.6305
  O  O135  1  0.454100  0.601500  0.621900  1.0  -0.682
  O  O136  1  0.586700  0.728000  0.579300  1.0  -0.592
  O  O137  1  0.795400  0.464600  0.925400  1.0  -0.6521
  O  O138  1  0.791500  0.287700  0.883300  1.0  -0.6759
  O  O139  1  0.300200  0.282400  0.722000  1.0  -0.6336
  O  O140  1  0.165800  0.151200  0.754900  1.0  -0.7122
  O  O141  1  0.110700  0.417500  0.542300  1.0  -0.6523
  O  O142  1  0.204700  0.484900  0.637200  1.0  -0.6311
  O  O143  1  0.326900  0.346400  0.493500  1.0  -0.6171
  O  O144  1  0.409100  0.375100  0.600300  1.0  -0.6018
