# generated using pymatgen
data_EuH2C7(NO3)2
_symmetry_space_group_name_H-M   'P 1'
_cell_length_a   10.94300000
_cell_length_b   11.82800000
_cell_length_c   19.26100000
_cell_angle_alpha   90.00000000
_cell_angle_beta   90.00000000
_cell_angle_gamma   90.00000000
_symmetry_Int_Tables_number   1
_chemical_formula_structural   EuH2C7(NO3)2
_chemical_formula_sum   'Eu8 H16 C56 N16 O48'
_cell_volume   2493.02449884
_cell_formula_units_Z   8
loop_
 _symmetry_equiv_pos_site_id
 _symmetry_equiv_pos_as_xyz
  1  'x, y, z'
loop_
 _atom_site_type_symbol
 _atom_site_label
 _atom_site_symmetry_multiplicity
 _atom_site_fract_x
 _atom_site_fract_y
 _atom_site_fract_z
 _atom_site_occupancy
 _atom_site_charge
  Eu  Eu1  1  0.862450  0.842490  0.103010  1.0  2.1018
  Eu  Eu2  1  0.381060  0.028470  0.317460  1.0  2.0796
  Eu  Eu3  1  0.137550  0.157510  0.603010  1.0  2.1014
  Eu  Eu4  1  0.618940  0.971530  0.817460  1.0  2.0797
  Eu  Eu5  1  0.637550  0.342490  0.103010  1.0  2.1013
  Eu  Eu6  1  0.118940  0.528470  0.317460  1.0  2.0798
  Eu  Eu7  1  0.362450  0.657510  0.603010  1.0  2.1017
  Eu  Eu8  1  0.881060  0.471530  0.817460  1.0  2.0795
  H  H9  1  0.645600  0.994500  0.207700  1.0  0.04
  H  H10  1  0.770500  0.750100  0.372500  1.0  0.143
  H  H11  1  0.129600  0.898500  0.216700  1.0  0.0601
  H  H12  1  0.993600  0.258900  0.202900  1.0  0.1252
  H  H13  1  0.354400  0.005500  0.707700  1.0  0.0399
  H  H14  1  0.229500  0.249900  0.872500  1.0  0.1439
  H  H15  1  0.870400  0.101500  0.716700  1.0  0.0584
  H  H16  1  0.006400  0.741100  0.702900  1.0  0.1258
  H  H17  1  0.854400  0.494500  0.207700  1.0  0.04
  H  H18  1  0.729500  0.250100  0.372500  1.0  0.1438
  H  H19  1  0.370400  0.398500  0.216700  1.0  0.0593
  H  H20  1  0.506400  0.758900  0.202900  1.0  0.1253
  H  H21  1  0.145600  0.505500  0.707700  1.0  0.0399
  H  H22  1  0.270500  0.749900  0.872500  1.0  0.1433
  H  H23  1  0.629600  0.601500  0.716700  1.0  0.0591
  H  H24  1  0.493600  0.241100  0.702900  1.0  0.1258
  C  C25  1  0.668700  0.941600  0.240900  1.0  0.4072
  C  C26  1  0.635600  0.857900  0.344000  1.0  0.1971
  C  C27  1  0.742700  0.796900  0.337100  1.0  -0.109
  C  C28  1  0.805800  0.807800  0.276800  1.0  0.1223
  C  C29  1  0.913500  0.732700  0.258800  1.0  0.7134
  C  C30  1  0.551500  0.840000  0.406200  1.0  0.6617
  C  C31  1  0.101700  0.972600  0.214100  1.0  0.4217
  C  C32  1  0.126600  0.156200  0.242200  1.0  0.1636
  C  C33  1  0.020800  0.184600  0.206300  1.0  -0.1159
  C  C34  1  0.959500  0.097300  0.176300  1.0  0.1682
  C  C35  1  0.839700  0.116000  0.137600  1.0  0.6716
  C  C36  1  0.203800  0.249200  0.277400  1.0  0.6797
  C  C37  1  0.322800  0.120500  0.473100  1.0  0.5593
  C  C38  1  0.201100  0.068200  0.448600  1.0  0.5537
  C  C39  1  0.331300  0.058400  0.740900  1.0  0.4066
  C  C40  1  0.364400  0.142100  0.844000  1.0  0.1972
  C  C41  1  0.257300  0.203100  0.837100  1.0  -0.1095
  C  C42  1  0.194200  0.192200  0.776800  1.0  0.1205
  C  C43  1  0.086500  0.267300  0.758800  1.0  0.714
  C  C44  1  0.448500  0.160000  0.906200  1.0  0.6608
  C  C45  1  0.898300  0.027400  0.714100  1.0  0.4237
  C  C46  1  0.873400  0.843800  0.742200  1.0  0.1637
  C  C47  1  0.979200  0.815400  0.706300  1.0  -0.1156
  C  C48  1  0.040500  0.902700  0.676300  1.0  0.169
  C  C49  1  0.160300  0.884000  0.637600  1.0  0.6717
  C  C50  1  0.796200  0.750800  0.777400  1.0  0.6794
  C  C51  1  0.677200  0.879500  0.973100  1.0  0.5601
  C  C52  1  0.798900  0.931800  0.948600  1.0  0.5533
  C  C53  1  0.831300  0.441600  0.240900  1.0  0.4064
  C  C54  1  0.864400  0.357900  0.344000  1.0  0.1973
  C  C55  1  0.757300  0.296900  0.337100  1.0  -0.1105
  C  C56  1  0.694200  0.307800  0.276800  1.0  0.1207
  C  C57  1  0.586500  0.232700  0.258800  1.0  0.7134
  C  C58  1  0.948500  0.340000  0.406200  1.0  0.6606
  C  C59  1  0.398300  0.472600  0.214100  1.0  0.423
  C  C60  1  0.373400  0.656200  0.242200  1.0  0.1637
  C  C61  1  0.479200  0.684600  0.206300  1.0  -0.1154
  C  C62  1  0.540500  0.597300  0.176300  1.0  0.1691
  C  C63  1  0.660300  0.616000  0.137600  1.0  0.672
  C  C64  1  0.296200  0.749200  0.277400  1.0  0.6796
  C  C65  1  0.177200  0.620500  0.473100  1.0  0.5601
  C  C66  1  0.298900  0.568200  0.448600  1.0  0.553
  C  C67  1  0.168700  0.558400  0.740900  1.0  0.4076
  C  C68  1  0.135600  0.642100  0.844000  1.0  0.1968
  C  C69  1  0.242700  0.703100  0.837100  1.0  -0.1079
  C  C70  1  0.305800  0.692200  0.776800  1.0  0.1219
  C  C71  1  0.413500  0.767300  0.758800  1.0  0.7133
  C  C72  1  0.051500  0.660000  0.906200  1.0  0.6621
  C  C73  1  0.601700  0.527400  0.714100  1.0  0.4224
  C  C74  1  0.626600  0.343800  0.742200  1.0  0.164
  C  C75  1  0.520800  0.315400  0.706300  1.0  -0.1166
  C  C76  1  0.459500  0.402700  0.676300  1.0  0.1683
  C  C77  1  0.339700  0.384000  0.637600  1.0  0.6713
  C  C78  1  0.703800  0.250800  0.777400  1.0  0.6795
  C  C79  1  0.822800  0.379500  0.973100  1.0  0.5597
  C  C80  1  0.701100  0.431800  0.948600  1.0  0.5543
  N  N81  1  0.769900  0.883900  0.228300  1.0  -0.4514
  N  N82  1  0.597400  0.931600  0.295700  1.0  -0.4012
  N  N83  1  0.998900  0.990700  0.177300  1.0  -0.5296
  N  N84  1  0.167500  0.051100  0.247300  1.0  -0.4805
  N  N85  1  0.230100  0.116100  0.728300  1.0  -0.4533
  N  N86  1  0.402600  0.068400  0.795700  1.0  -0.3997
  N  N87  1  0.001100  0.009300  0.677300  1.0  -0.5282
  N  N88  1  0.832500  0.948900  0.747300  1.0  -0.4814
  N  N89  1  0.730100  0.383900  0.228300  1.0  -0.4529
  N  N90  1  0.902600  0.431600  0.295700  1.0  -0.402
  N  N91  1  0.501100  0.490700  0.177300  1.0  -0.5279
  N  N92  1  0.332500  0.551100  0.247300  1.0  -0.4817
  N  N93  1  0.269900  0.616100  0.728300  1.0  -0.4515
  N  N94  1  0.097400  0.568400  0.795700  1.0  -0.4018
  N  N95  1  0.498900  0.509300  0.677300  1.0  -0.5286
  N  N96  1  0.667500  0.448900  0.747300  1.0  -0.4808
  O  O97  1  0.954400  0.740500  0.198400  1.0  -0.7155
  O  O98  1  0.950800  0.666667  0.305000  1.0  -0.6849
  O  O99  1  0.453900  0.896500  0.407000  1.0  -0.6826
  O  O100  1  0.585400  0.769200  0.449400  1.0  -0.547
  O  O101  1  0.795000  0.035300  0.104300  1.0  -0.6434
  O  O102  1  0.792500  0.211700  0.145800  1.0  -0.6488
  O  O103  1  0.300500  0.217400  0.306500  1.0  -0.6324
  O  O104  1  0.166500  0.348600  0.273600  1.0  -0.7186
  O  O105  1  0.408200  0.124100  0.429000  1.0  -0.5983
  O  O106  1  0.326600  0.153300  0.534700  1.0  -0.6303
  O  O107  1  0.204700  0.014600  0.391900  1.0  -0.6226
  O  O108  1  0.109800  0.081800  0.486400  1.0  -0.6616
  O  O109  1  0.045600  0.259500  0.698400  1.0  -0.7133
  O  O110  1  0.049200  0.333333  0.805000  1.0  -0.6849
  O  O111  1  0.546100  0.103500  0.907000  1.0  -0.6827
  O  O112  1  0.414600  0.230800  0.949400  1.0  -0.5493
  O  O113  1  0.205000  0.964700  0.604300  1.0  -0.642
  O  O114  1  0.207500  0.788300  0.645800  1.0  -0.6482
  O  O115  1  0.699500  0.782600  0.806500  1.0  -0.6321
  O  O116  1  0.833500  0.651400  0.773600  1.0  -0.7188
  O  O117  1  0.591800  0.875900  0.929000  1.0  -0.5983
  O  O118  1  0.673400  0.846700  0.034700  1.0  -0.6302
  O  O119  1  0.795300  0.985400  0.891900  1.0  -0.6234
  O  O120  1  0.890200  0.918200  0.986400  1.0  -0.6608
  O  O121  1  0.545600  0.240500  0.198400  1.0  -0.7129
  O  O122  1  0.549200  0.166700  0.305000  1.0  -0.6782
  O  O123  1  0.046100  0.396500  0.407000  1.0  -0.6832
  O  O124  1  0.914600  0.269200  0.449400  1.0  -0.5475
  O  O125  1  0.705000  0.535300  0.104300  1.0  -0.6429
  O  O126  1  0.707500  0.711700  0.145800  1.0  -0.6489
  O  O127  1  0.199500  0.717400  0.306500  1.0  -0.6316
  O  O128  1  0.333500  0.848600  0.273600  1.0  -0.7198
  O  O129  1  0.091800  0.624100  0.429000  1.0  -0.5974
  O  O130  1  0.173400  0.653300  0.534700  1.0  -0.6302
  O  O131  1  0.295300  0.514600  0.391900  1.0  -0.6232
  O  O132  1  0.390200  0.581800  0.486400  1.0  -0.6617
  O  O133  1  0.454400  0.759500  0.698400  1.0  -0.7149
  O  O134  1  0.450800  0.833300  0.805000  1.0  -0.6785
  O  O135  1  0.953900  0.603500  0.907000  1.0  -0.6834
  O  O136  1  0.085400  0.730800  0.949400  1.0  -0.5476
  O  O137  1  0.295000  0.464700  0.604300  1.0  -0.6424
  O  O138  1  0.292500  0.288300  0.645800  1.0  -0.6484
  O  O139  1  0.800500  0.282600  0.806500  1.0  -0.6323
  O  O140  1  0.666500  0.151400  0.773600  1.0  -0.7178
  O  O141  1  0.908200  0.375900  0.929000  1.0  -0.5971
  O  O142  1  0.826600  0.346700  0.034700  1.0  -0.6304
  O  O143  1  0.704700  0.485400  0.891900  1.0  -0.6233
  O  O144  1  0.609800  0.418200  0.986400  1.0  -0.6609
