# generated using pymatgen
data_SmH2C7(NO3)2
_symmetry_space_group_name_H-M   'P 1'
_cell_length_a   10.96200000
_cell_length_b   11.86800000
_cell_length_c   19.30700000
_cell_angle_alpha   90.00000000
_cell_angle_beta   90.00000000
_cell_angle_gamma   90.00000000
_symmetry_Int_Tables_number   1
_chemical_formula_structural   SmH2C7(NO3)2
_chemical_formula_sum   'Sm8 H16 C56 N16 O48'
_cell_volume   2511.78308791
_cell_formula_units_Z   8
loop_
 _symmetry_equiv_pos_site_id
 _symmetry_equiv_pos_as_xyz
  1  'x, y, z'
loop_
 _atom_site_type_symbol
 _atom_site_label
 _atom_site_symmetry_multiplicity
 _atom_site_fract_x
 _atom_site_fract_y
 _atom_site_fract_z
 _atom_site_occupancy
 _atom_site_charge
  Sm  Sm1  1  0.362760  0.657660  0.601190  1.0  2.2189
  Sm  Sm2  1  0.881200  0.472920  0.815640  1.0  2.1895
  Sm  Sm3  1  0.637240  0.342340  0.101190  1.0  2.2188
  Sm  Sm4  1  0.118800  0.527080  0.315640  1.0  2.1901
  Sm  Sm5  1  0.137240  0.157660  0.601190  1.0  2.2187
  Sm  Sm6  1  0.618800  0.972920  0.815640  1.0  2.1899
  Sm  Sm7  1  0.862760  0.842340  0.101190  1.0  2.219
  Sm  Sm8  1  0.381200  0.027080  0.315640  1.0  2.1896
  H  H9  1  0.148000  0.504700  0.707100  1.0  0.0392
  H  H10  1  0.270900  0.752600  0.869800  1.0  0.1653
  H  H11  1  0.627700  0.601600  0.715100  1.0  0.0471
  H  H12  1  0.495100  0.242000  0.701500  1.0  0.1285
  H  H13  1  0.852000  0.495300  0.207100  1.0  0.0392
  H  H14  1  0.729100  0.247400  0.369800  1.0  0.1651
  H  H15  1  0.372300  0.398400  0.215100  1.0  0.0484
  H  H16  1  0.504900  0.758000  0.201500  1.0  0.1289
  H  H17  1  0.352000  0.004700  0.707100  1.0  0.0392
  H  H18  1  0.229100  0.252600  0.869800  1.0  0.165
  H  H19  1  0.872300  0.101600  0.715100  1.0  0.0468
  H  H20  1  0.004900  0.742000  0.701500  1.0  0.1292
  H  H21  1  0.648000  0.995300  0.207100  1.0  0.0392
  H  H22  1  0.770900  0.747400  0.369800  1.0  0.165
  H  H23  1  0.127700  0.898400  0.215100  1.0  0.0488
  H  H24  1  0.995100  0.258000  0.201500  1.0  0.1286
  C  C25  1  0.169800  0.559200  0.739400  1.0  0.4456
  C  C26  1  0.135600  0.644100  0.842500  1.0  0.2238
  C  C27  1  0.243100  0.704900  0.835000  1.0  -0.1456
  C  C28  1  0.306400  0.692000  0.774800  1.0  0.1914
  C  C29  1  0.413000  0.768700  0.756500  1.0  0.6835
  C  C30  1  0.051700  0.662800  0.904300  1.0  0.6355
  C  C31  1  0.600700  0.527500  0.712300  1.0  0.4909
  C  C32  1  0.626500  0.342900  0.740000  1.0  0.1927
  C  C33  1  0.522100  0.316100  0.704700  1.0  -0.1302
  C  C34  1  0.458700  0.402800  0.674200  1.0  0.212
  C  C35  1  0.339000  0.383500  0.636100  1.0  0.6745
  C  C36  1  0.703600  0.253100  0.775400  1.0  0.7062
  C  C37  1  0.822100  0.380200  0.971000  1.0  0.5581
  C  C38  1  0.700500  0.432500  0.946900  1.0  0.5866
  C  C39  1  0.830200  0.440800  0.239400  1.0  0.4443
  C  C40  1  0.864400  0.355900  0.342500  1.0  0.2247
  C  C41  1  0.756900  0.295100  0.335000  1.0  -0.1464
  C  C42  1  0.693600  0.308000  0.274800  1.0  0.1905
  C  C43  1  0.587000  0.231300  0.256500  1.0  0.6841
  C  C44  1  0.948300  0.337200  0.404300  1.0  0.635
  C  C45  1  0.399300  0.472500  0.212300  1.0  0.4929
  C  C46  1  0.373500  0.657100  0.240000  1.0  0.1934
  C  C47  1  0.477900  0.683900  0.204700  1.0  -0.1273
  C  C48  1  0.541300  0.597200  0.174200  1.0  0.2124
  C  C49  1  0.661000  0.616500  0.136100  1.0  0.6751
  C  C50  1  0.296400  0.746900  0.275400  1.0  0.7068
  C  C51  1  0.177900  0.619800  0.471000  1.0  0.5583
  C  C52  1  0.299500  0.567500  0.446900  1.0  0.5859
  C  C53  1  0.330200  0.059200  0.739400  1.0  0.4443
  C  C54  1  0.364400  0.144100  0.842500  1.0  0.2239
  C  C55  1  0.256900  0.204900  0.835000  1.0  -0.1467
  C  C56  1  0.193600  0.192000  0.774800  1.0  0.1906
  C  C57  1  0.087000  0.268700  0.756500  1.0  0.6845
  C  C58  1  0.448300  0.162800  0.904300  1.0  0.6351
  C  C59  1  0.899300  0.027500  0.712300  1.0  0.4934
  C  C60  1  0.873500  0.842900  0.740000  1.0  0.1932
  C  C61  1  0.977900  0.816100  0.704700  1.0  -0.1288
  C  C62  1  0.041300  0.902800  0.674200  1.0  0.2123
  C  C63  1  0.161000  0.883500  0.636100  1.0  0.6748
  C  C64  1  0.796400  0.753100  0.775400  1.0  0.7066
  C  C65  1  0.677900  0.880200  0.971000  1.0  0.5582
  C  C66  1  0.799500  0.932500  0.946900  1.0  0.5854
  C  C67  1  0.669800  0.940800  0.239400  1.0  0.4453
  C  C68  1  0.635600  0.855900  0.342500  1.0  0.2248
  C  C69  1  0.743100  0.795100  0.335000  1.0  -0.1458
  C  C70  1  0.806400  0.808000  0.274800  1.0  0.1914
  C  C71  1  0.913000  0.731300  0.256500  1.0  0.6834
  C  C72  1  0.551700  0.837200  0.404300  1.0  0.6353
  C  C73  1  0.100700  0.972500  0.212300  1.0  0.4913
  C  C74  1  0.126500  0.157100  0.240000  1.0  0.1927
  C  C75  1  0.022100  0.183900  0.204700  1.0  -0.1286
  C  C76  1  0.958700  0.097200  0.174200  1.0  0.2118
  C  C77  1  0.839000  0.116500  0.136100  1.0  0.6748
  C  C78  1  0.203600  0.246900  0.275400  1.0  0.7064
  C  C79  1  0.322100  0.119800  0.471000  1.0  0.5579
  C  C80  1  0.200500  0.067500  0.446900  1.0  0.5868
  N  N81  1  0.270400  0.618900  0.726200  1.0  -0.5054
  N  N82  1  0.098400  0.570400  0.794000  1.0  -0.5334
  N  N83  1  0.498900  0.509100  0.675700  1.0  -0.5563
  N  N84  1  0.667000  0.450400  0.745200  1.0  -0.5196
  N  N85  1  0.729600  0.381100  0.226200  1.0  -0.5095
  N  N86  1  0.901600  0.429600  0.294000  1.0  -0.535
  N  N87  1  0.501100  0.490900  0.175700  1.0  -0.5543
  N  N88  1  0.333000  0.549600  0.245200  1.0  -0.5196
  N  N89  1  0.229600  0.118900  0.726200  1.0  -0.5098
  N  N90  1  0.401600  0.070400  0.794000  1.0  -0.5331
  N  N91  1  0.001100  0.009100  0.675700  1.0  -0.5548
  N  N92  1  0.833000  0.950400  0.745200  1.0  -0.5196
  N  N93  1  0.770400  0.881100  0.226200  1.0  -0.505
  N  N94  1  0.598400  0.929600  0.294000  1.0  -0.5344
  N  N95  1  0.998900  0.990900  0.175700  1.0  -0.5564
  N  N96  1  0.167000  0.049600  0.245200  1.0  -0.519
  O  O97  1  0.454500  0.760100  0.696200  1.0  -0.7616
  O  O98  1  0.449800  0.834300  0.803100  1.0  -0.6388
  O  O99  1  0.955800  0.604500  0.905600  1.0  -0.698
  O  O100  1  0.084500  0.733200  0.946500  1.0  -0.5987
  O  O101  1  0.294000  0.465600  0.603300  1.0  -0.6728
  O  O102  1  0.291900  0.288500  0.643600  1.0  -0.6813
  O  O103  1  0.799800  0.283900  0.804300  1.0  -0.6436
  O  O104  1  0.666000  0.153900  0.772000  1.0  -0.7411
  O  O105  1  0.825300  0.346500  0.032300  1.0  -0.6461
  O  O106  1  0.908600  0.376800  0.927100  1.0  -0.6034
  O  O107  1  0.609500  0.418600  0.984600  1.0  -0.6745
  O  O108  1  0.704200  0.486800  0.890100  1.0  -0.6418
  O  O109  1  0.545500  0.239900  0.196200  1.0  -0.7597
  O  O110  1  0.550200  0.165700  0.303100  1.0  -0.6393
  O  O111  1  0.044200  0.395500  0.405600  1.0  -0.6984
  O  O112  1  0.915500  0.266800  0.446500  1.0  -0.5962
  O  O113  1  0.706000  0.534400  0.103300  1.0  -0.6722
  O  O114  1  0.708100  0.711500  0.143600  1.0  -0.6835
  O  O115  1  0.200200  0.716100  0.304300  1.0  -0.6429
  O  O116  1  0.334000  0.846100  0.272000  1.0  -0.7427
  O  O117  1  0.174700  0.653500  0.532300  1.0  -0.6457
  O  O118  1  0.091400  0.623200  0.427100  1.0  -0.6034
  O  O119  1  0.390500  0.581400  0.484600  1.0  -0.6759
  O  O120  1  0.295800  0.513200  0.390100  1.0  -0.6412
  O  O121  1  0.045500  0.260100  0.696200  1.0  -0.7585
  O  O122  1  0.050200  0.334300  0.803100  1.0  -0.6396
  O  O123  1  0.544200  0.104500  0.905600  1.0  -0.6987
  O  O124  1  0.415500  0.233200  0.946500  1.0  -0.5999
  O  O125  1  0.206000  0.965600  0.603300  1.0  -0.6729
  O  O126  1  0.208100  0.788500  0.643600  1.0  -0.6805
  O  O127  1  0.700200  0.783900  0.804300  1.0  -0.6432
  O  O128  1  0.834000  0.653900  0.772000  1.0  -0.7418
  O  O129  1  0.674700  0.846500  0.032300  1.0  -0.6458
  O  O130  1  0.591400  0.876800  0.927100  1.0  -0.6021
  O  O131  1  0.890500  0.918600  0.984600  1.0  -0.6752
  O  O132  1  0.795800  0.986800  0.890100  1.0  -0.6416
  O  O133  1  0.954500  0.739900  0.196200  1.0  -0.7615
  O  O134  1  0.949800  0.665700  0.303100  1.0  -0.6386
  O  O135  1  0.455800  0.895500  0.405600  1.0  -0.6978
  O  O136  1  0.584500  0.766800  0.446500  1.0  -0.5952
  O  O137  1  0.794000  0.034400  0.103300  1.0  -0.6723
  O  O138  1  0.791900  0.211500  0.143600  1.0  -0.6841
  O  O139  1  0.299800  0.216100  0.304300  1.0  -0.6434
  O  O140  1  0.166000  0.346100  0.272000  1.0  -0.7417
  O  O141  1  0.325300  0.153500  0.532300  1.0  -0.6467
  O  O142  1  0.408600  0.123200  0.427100  1.0  -0.6019
  O  O143  1  0.109500  0.081400  0.484600  1.0  -0.6751
  O  O144  1  0.204200  0.013200  0.390100  1.0  -0.6409
