# generated using pymatgen
data_Co3Mo12(P2O13)4
_symmetry_space_group_name_H-M   'P 1'
_cell_length_a   12.78460000
_cell_length_b   12.83110000
_cell_length_c   15.99370000
_cell_angle_alpha   67.35800000
_cell_angle_beta   67.22400000
_cell_angle_gamma   63.05300000
_symmetry_Int_Tables_number   1
_chemical_formula_structural   Co3Mo12(P2O13)4
_chemical_formula_sum   'Co3 Mo12 P8 O52'
_cell_volume   2085.14154201
_cell_formula_units_Z   1
loop_
 _symmetry_equiv_pos_site_id
 _symmetry_equiv_pos_as_xyz
  1  'x, y, z'
loop_
 _atom_site_type_symbol
 _atom_site_label
 _atom_site_symmetry_multiplicity
 _atom_site_fract_x
 _atom_site_fract_y
 _atom_site_fract_z
 _atom_site_occupancy
 _atom_site_charge
  Co  Co1  1  0.033640  0.527290  0.383800  1.0  1.1067
  Co  Co2  1  0.966360  0.472710  0.616200  1.0  1.1056
  Co  Co3  1  0.500000  0.000000  0.000000  1.0  0.9568
  Mo  Mo4  1  0.661550  0.704360  0.156970  1.0  1.2941
  Mo  Mo5  1  0.206360  0.158110  0.162840  1.0  1.2884
  Mo  Mo6  1  0.200000  0.961180  0.158670  1.0  1.3115
  Mo  Mo7  1  0.476230  0.161760  0.165030  1.0  1.3022
  Mo  Mo8  1  0.461940  0.701150  0.154020  1.0  1.2351
  Mo  Mo9  1  0.669470  0.967670  0.164360  1.0  1.2897
  Mo  Mo10  1  0.338450  0.295640  0.843030  1.0  1.2953
  Mo  Mo11  1  0.793640  0.841890  0.837160  1.0  1.2858
  Mo  Mo12  1  0.800000  0.038820  0.841330  1.0  1.3107
  Mo  Mo13  1  0.523770  0.838240  0.834970  1.0  1.3007
  Mo  Mo14  1  0.538060  0.298850  0.845980  1.0  1.2343
  Mo  Mo15  1  0.330530  0.032330  0.835640  1.0  1.2901
  P  P16  1  0.210710  0.285420  0.309990  1.0  1.7605
  P  P17  1  0.794280  0.699810  0.305150  1.0  1.76
  P  P18  1  0.207040  0.702390  0.318380  1.0  1.7121
  P  P19  1  0.407180  0.900260  0.271810  1.0  1.8678
  P  P20  1  0.789290  0.714580  0.690010  1.0  1.7604
  P  P21  1  0.205720  0.300190  0.694850  1.0  1.7604
  P  P22  1  0.792960  0.297610  0.681620  1.0  1.7133
  P  P23  1  0.592820  0.099740  0.728190  1.0  1.8675
  O  O24  1  0.234900  0.723200  0.397500  1.0  -0.4572
  O  O25  1  0.726500  0.675000  0.408300  1.0  -0.4536
  O  O26  1  0.190100  0.215800  0.413500  1.0  -0.4526
  O  O27  1  0.364000  0.852800  0.375200  1.0  -0.5193
  O  O28  1  0.156800  0.420800  0.295900  1.0  -0.597
  O  O29  1  0.754800  0.645700  0.255300  1.0  -0.6592
  O  O30  1  0.349000  0.249300  0.265400  1.0  -0.616
  O  O31  1  0.931400  0.644100  0.290200  1.0  -0.6009
  O  O32  1  0.746300  0.831200  0.094200  1.0  -0.5834
  O  O33  1  0.757600  0.838200  0.262700  1.0  -0.6295
  O  O34  1  0.360500  0.040400  0.238300  1.0  -0.7958
  O  O35  1  0.547300  0.854200  0.234600  1.0  -0.7966
  O  O36  1  0.140000  0.825000  0.259500  1.0  -0.6381
  O  O37  1  0.327400  0.638700  0.255200  1.0  -0.6371
  O  O38  1  0.151800  0.248100  0.262800  1.0  -0.6449
  O  O39  1  0.335000  0.240000  0.099100  1.0  -0.5182
  O  O40  1  0.107100  0.392100  0.502700  1.0  -0.6398
  O  O41  1  0.130500  0.626200  0.369900  1.0  -0.6806
  O  O42  1  0.320000  0.824200  0.088500  1.0  -0.6014
  O  O43  1  0.357700  0.854100  0.222700  1.0  -0.7534
  O  O44  1  0.132100  0.043000  0.257700  1.0  -0.6077
  O  O45  1  0.547800  0.629800  0.251700  1.0  -0.6018
  O  O46  1  0.562500  0.054000  0.261200  1.0  -0.6138
  O  O47  1  0.557300  0.050600  0.081900  1.0  -0.7702
  O  O48  1  0.310100  0.050800  0.076800  1.0  -0.7638
  O  O49  1  0.551900  0.811800  0.073100  1.0  -0.7701
  O  O50  1  0.765100  0.276800  0.602500  1.0  -0.4589
  O  O51  1  0.273500  0.325000  0.591700  1.0  -0.4557
  O  O52  1  0.809900  0.784200  0.586500  1.0  -0.4533
  O  O53  1  0.636000  0.147200  0.624800  1.0  -0.5207
  O  O54  1  0.843200  0.579200  0.704100  1.0  -0.5958
  O  O55  1  0.245200  0.354300  0.744700  1.0  -0.6595
  O  O56  1  0.651000  0.750700  0.734600  1.0  -0.6155
  O  O57  1  0.068600  0.355900  0.709800  1.0  -0.5998
  O  O58  1  0.253700  0.168800  0.905800  1.0  -0.5809
  O  O59  1  0.242400  0.161800  0.737300  1.0  -0.6283
  O  O60  1  0.639500  0.959600  0.761700  1.0  -0.7917
  O  O61  1  0.452700  0.145800  0.765400  1.0  -0.7925
  O  O62  1  0.860000  0.175000  0.740500  1.0  -0.6388
  O  O63  1  0.672600  0.361300  0.744800  1.0  -0.638
  O  O64  1  0.848200  0.751900  0.737200  1.0  -0.6437
  O  O65  1  0.665000  0.760000  0.900900  1.0  -0.5283
  O  O66  1  0.892900  0.607900  0.497300  1.0  -0.6401
  O  O67  1  0.869500  0.373800  0.630100  1.0  -0.6808
  O  O68  1  0.680000  0.175800  0.911500  1.0  -0.6006
  O  O69  1  0.642300  0.145900  0.777300  1.0  -0.7527
  O  O70  1  0.867900  0.957000  0.742300  1.0  -0.6096
  O  O71  1  0.452200  0.370200  0.748300  1.0  -0.6019
  O  O72  1  0.437500  0.946000  0.738800  1.0  -0.6135
  O  O73  1  0.442700  0.949400  0.918100  1.0  -0.7702
  O  O74  1  0.689900  0.949200  0.923200  1.0  -0.7671
  O  O75  1  0.448100  0.188200  0.926900  1.0  -0.7694
