# generated using pymatgen
data_Co3H28C40(N5O4)2
_symmetry_space_group_name_H-M   'P 1'
_cell_length_a   11.10400000
_cell_length_b   19.88340000
_cell_length_c   21.30250000
_cell_angle_alpha   90.00000000
_cell_angle_beta   90.00000000
_cell_angle_gamma   90.00000000
_symmetry_Int_Tables_number   1
_chemical_formula_structural   Co3H28C40(N5O4)2
_chemical_formula_sum   'Co12 H112 C160 N40 O32'
_cell_volume   4703.27829086
_cell_formula_units_Z   4
loop_
 _symmetry_equiv_pos_site_id
 _symmetry_equiv_pos_as_xyz
  1  'x, y, z'
loop_
 _atom_site_type_symbol
 _atom_site_label
 _atom_site_symmetry_multiplicity
 _atom_site_fract_x
 _atom_site_fract_y
 _atom_site_fract_z
 _atom_site_occupancy
 _atom_site_charge
  Co  Co1  1  0.305950  0.537030  0.776480  1.0  0.8691
  Co  Co2  1  0.194050  0.962970  0.776480  1.0  0.8677
  Co  Co3  1  0.694050  0.037030  0.723520  1.0  0.869
  Co  Co4  1  0.805950  0.462970  0.723520  1.0  0.8685
  Co  Co5  1  0.694050  0.462970  0.223520  1.0  0.8682
  Co  Co6  1  0.805950  0.037030  0.223520  1.0  0.8693
  Co  Co7  1  0.305950  0.962970  0.276480  1.0  0.8682
  Co  Co8  1  0.194050  0.537030  0.276480  1.0  0.8686
  Co  Co9  1  0.000000  0.500000  0.000000  1.0  0.5634
  Co  Co10  1  0.500000  0.000000  0.000000  1.0  0.5634
  Co  Co11  1  0.000000  0.000000  0.500000  1.0  0.5634
  Co  Co12  1  0.500000  0.500000  0.500000  1.0  0.5634
  H  H13  1  0.045700  0.652600  0.029100  1.0  0.0845
  H  H14  1  0.208100  0.419200  0.689300  1.0  0.0789
  H  H15  1  0.316400  0.414600  0.864900  1.0  0.0833
  H  H16  1  0.756200  0.558400  0.971000  1.0  0.089
  H  H17  1  0.307900  0.299000  0.866600  1.0  0.1185
  H  H18  1  0.374100  0.659500  0.692500  1.0  0.0759
  H  H19  1  0.794000  0.448700  0.885100  1.0  0.0843
  H  H20  1  0.946700  0.754700  0.029200  1.0  0.1303
  H  H21  1  0.196700  0.303300  0.686100  1.0  0.1198
  H  H22  1  0.647100  0.657400  0.969200  1.0  0.1248
  H  H23  1  0.429300  0.771400  0.697500  1.0  0.1208
  H  H24  1  0.430600  0.756800  0.885800  1.0  0.1082
  H  H25  1  0.373800  0.644600  0.875900  1.0  0.0861
  H  H26  1  0.454800  0.822700  0.795300  1.0  0.102
  H  H27  1  0.454300  0.847400  0.029100  1.0  0.0852
  H  H28  1  0.291900  0.080800  0.689300  1.0  0.0789
  H  H29  1  0.183600  0.085400  0.864900  1.0  0.0842
  H  H30  1  0.743800  0.941600  0.971000  1.0  0.0898
  H  H31  1  0.192100  0.201000  0.866600  1.0  0.1183
  H  H32  1  0.125900  0.840500  0.692500  1.0  0.0762
  H  H33  1  0.706000  0.051300  0.885100  1.0  0.0844
  H  H34  1  0.553300  0.745300  0.029200  1.0  0.1306
  H  H35  1  0.303300  0.196700  0.686100  1.0  0.1197
  H  H36  1  0.852900  0.842600  0.969200  1.0  0.126
  H  H37  1  0.070700  0.728600  0.697500  1.0  0.1206
  H  H38  1  0.069400  0.743200  0.885800  1.0  0.1086
  H  H39  1  0.126200  0.855400  0.875900  1.0  0.0857
  H  H40  1  0.045200  0.677300  0.795300  1.0  0.1021
  H  H41  1  0.954300  0.152600  0.470900  1.0  0.0855
  H  H42  1  0.791900  0.919200  0.810700  1.0  0.0782
  H  H43  1  0.683600  0.914600  0.635100  1.0  0.0837
  H  H44  1  0.243800  0.058400  0.529000  1.0  0.0892
  H  H45  1  0.692100  0.799000  0.633400  1.0  0.1191
  H  H46  1  0.625900  0.159500  0.807500  1.0  0.0751
  H  H47  1  0.206000  0.948700  0.614900  1.0  0.0841
  H  H48  1  0.053300  0.254700  0.470800  1.0  0.1308
  H  H49  1  0.803300  0.803300  0.813900  1.0  0.1195
  H  H50  1  0.352900  0.157400  0.530800  1.0  0.1255
  H  H51  1  0.570700  0.271400  0.802500  1.0  0.1206
  H  H52  1  0.569400  0.256800  0.614200  1.0  0.1082
  H  H53  1  0.626200  0.144600  0.624100  1.0  0.0855
  H  H54  1  0.545200  0.322700  0.704700  1.0  0.1026
  H  H55  1  0.545700  0.347400  0.470900  1.0  0.0847
  H  H56  1  0.708100  0.580800  0.810700  1.0  0.0784
  H  H57  1  0.816400  0.585400  0.635100  1.0  0.0839
  H  H58  1  0.256200  0.441600  0.529000  1.0  0.0895
  H  H59  1  0.807900  0.701000  0.633400  1.0  0.1185
  H  H60  1  0.874100  0.340500  0.807500  1.0  0.0749
  H  H61  1  0.294000  0.551300  0.614900  1.0  0.0845
  H  H62  1  0.446700  0.245300  0.470800  1.0  0.1309
  H  H63  1  0.696700  0.696700  0.813900  1.0  0.1195
  H  H64  1  0.147100  0.342600  0.530800  1.0  0.1248
  H  H65  1  0.929300  0.228600  0.802500  1.0  0.121
  H  H66  1  0.930600  0.243200  0.614200  1.0  0.1083
  H  H67  1  0.873800  0.355400  0.624100  1.0  0.0861
  H  H68  1  0.954800  0.177300  0.704700  1.0  0.1015
  H  H69  1  0.954300  0.347400  0.970900  1.0  0.085
  H  H70  1  0.791900  0.580800  0.310700  1.0  0.0782
  H  H71  1  0.683600  0.585400  0.135100  1.0  0.084
  H  H72  1  0.243800  0.441600  0.029000  1.0  0.0893
  H  H73  1  0.692100  0.701000  0.133400  1.0  0.1186
  H  H74  1  0.625900  0.340500  0.307500  1.0  0.0754
  H  H75  1  0.206000  0.551300  0.114900  1.0  0.0844
  H  H76  1  0.053300  0.245300  0.970800  1.0  0.1307
  H  H77  1  0.803300  0.696700  0.313900  1.0  0.1194
  H  H78  1  0.352900  0.342600  0.030800  1.0  0.1256
  H  H79  1  0.570700  0.228600  0.302500  1.0  0.1207
  H  H80  1  0.569400  0.243200  0.114200  1.0  0.1085
  H  H81  1  0.626200  0.355400  0.124100  1.0  0.0856
  H  H82  1  0.545200  0.177300  0.204700  1.0  0.102
  H  H83  1  0.545700  0.152600  0.970900  1.0  0.0849
  H  H84  1  0.708100  0.919200  0.310700  1.0  0.0783
  H  H85  1  0.816400  0.914600  0.135100  1.0  0.0839
  H  H86  1  0.256200  0.058400  0.029000  1.0  0.0889
  H  H87  1  0.807900  0.799000  0.133400  1.0  0.1188
  H  H88  1  0.874100  0.159500  0.307500  1.0  0.0749
  H  H89  1  0.294000  0.948700  0.114900  1.0  0.084
  H  H90  1  0.446700  0.254700  0.970800  1.0  0.1307
  H  H91  1  0.696700  0.803300  0.313900  1.0  0.1195
  H  H92  1  0.147100  0.157400  0.030800  1.0  0.1246
  H  H93  1  0.929300  0.271400  0.302500  1.0  0.1208
  H  H94  1  0.930600  0.256800  0.114200  1.0  0.1079
  H  H95  1  0.873800  0.144600  0.124100  1.0  0.086
  H  H96  1  0.954800  0.322700  0.204700  1.0  0.102
  H  H97  1  0.045700  0.847400  0.529100  1.0  0.0846
  H  H98  1  0.208100  0.080800  0.189300  1.0  0.0787
  H  H99  1  0.316400  0.085400  0.364900  1.0  0.0834
  H  H100  1  0.756200  0.941600  0.471000  1.0  0.0898
  H  H101  1  0.307900  0.201000  0.366600  1.0  0.1185
  H  H102  1  0.374100  0.840500  0.192500  1.0  0.0757
  H  H103  1  0.794000  0.051300  0.385100  1.0  0.0848
  H  H104  1  0.946700  0.745300  0.529200  1.0  0.1306
  H  H105  1  0.196700  0.196700  0.186100  1.0  0.1196
  H  H106  1  0.647100  0.842600  0.469200  1.0  0.1253
  H  H107  1  0.429300  0.728600  0.197500  1.0  0.1207
  H  H108  1  0.430600  0.743200  0.385800  1.0  0.1086
  H  H109  1  0.373800  0.855400  0.375900  1.0  0.0858
  H  H110  1  0.454800  0.677300  0.295300  1.0  0.1016
  H  H111  1  0.454300  0.652600  0.529100  1.0  0.0854
  H  H112  1  0.291900  0.419200  0.189300  1.0  0.0789
  H  H113  1  0.183600  0.414600  0.364900  1.0  0.0839
  H  H114  1  0.743800  0.558400  0.471000  1.0  0.0894
  H  H115  1  0.192100  0.299000  0.366600  1.0  0.1186
  H  H116  1  0.125900  0.659500  0.192500  1.0  0.0761
  H  H117  1  0.706000  0.448700  0.385100  1.0  0.0839
  H  H118  1  0.553300  0.754700  0.529200  1.0  0.1306
  H  H119  1  0.303300  0.303300  0.186100  1.0  0.1201
  H  H120  1  0.852900  0.657400  0.469200  1.0  0.1256
  H  H121  1  0.070700  0.771400  0.197500  1.0  0.1208
  H  H122  1  0.069400  0.756800  0.385800  1.0  0.1084
  H  H123  1  0.126200  0.644600  0.375900  1.0  0.0858
  H  H124  1  0.045200  0.822700  0.295300  1.0  0.1025
  C  C125  1  0.156600  0.535630  0.896930  1.0  0.6219
  C  C126  1  0.252900  0.287420  0.775770  1.0  0.0914
  C  C127  1  0.963400  0.653970  0.016830  1.0  0.1537
  C  C128  1  0.228800  0.394330  0.725890  1.0  0.1725
  C  C129  1  0.043900  0.511640  0.867220  1.0  -0.055
  C  C130  1  0.291700  0.391510  0.828000  1.0  0.1697
  C  C131  1  0.794800  0.599010  0.983000  1.0  0.1549
  C  C132  1  0.287400  0.322580  0.829360  1.0  -0.2078
  C  C133  1  0.783400  0.718080  0.999800  1.0  0.0817
  C  C134  1  0.384400  0.679710  0.732550  1.0  0.1591
  C  C135  1  0.867000  0.467440  0.869760  1.0  0.215
  C  C136  1  0.905000  0.715000  0.017230  1.0  -0.2225
  C  C137  1  0.222200  0.325110  0.723460  1.0  -0.2068
  C  C138  1  0.729100  0.657910  0.981970  1.0  -0.2065
  C  C139  1  0.417600  0.746500  0.735100  1.0  -0.1797
  C  C140  1  0.418200  0.737900  0.845400  1.0  -0.1981
  C  C141  1  0.384300  0.670800  0.839010  1.0  0.1555
  C  C142  1  0.433700  0.776500  0.792300  1.0  0.0258
  C  C143  1  0.002600  0.504330  0.805880  1.0  -0.0326
  C  C144  1  0.045500  0.521530  0.741890  1.0  0.6329
  C  C145  1  0.343400  0.964370  0.896930  1.0  0.6201
  C  C146  1  0.247100  0.212580  0.775770  1.0  0.0911
  C  C147  1  0.536600  0.846030  0.016830  1.0  0.1534
  C  C148  1  0.271200  0.105670  0.725890  1.0  0.1728
  C  C149  1  0.456100  0.988360  0.867220  1.0  -0.0552
  C  C150  1  0.208300  0.108490  0.828000  1.0  0.1697
  C  C151  1  0.705200  0.900990  0.983000  1.0  0.1555
  C  C152  1  0.212600  0.177420  0.829360  1.0  -0.2081
  C  C153  1  0.716600  0.781920  0.999800  1.0  0.0815
  C  C154  1  0.115600  0.820290  0.732550  1.0  0.1588
  C  C155  1  0.633000  0.032560  0.869760  1.0  0.2137
  C  C156  1  0.595000  0.785000  0.017230  1.0  -0.223
  C  C157  1  0.277800  0.174890  0.723460  1.0  -0.2058
  C  C158  1  0.770900  0.842090  0.981970  1.0  -0.2071
  C  C159  1  0.082400  0.753500  0.735100  1.0  -0.1799
  C  C160  1  0.081800  0.762100  0.845400  1.0  -0.1983
  C  C161  1  0.115700  0.829200  0.839010  1.0  0.1555
  C  C162  1  0.066300  0.723500  0.792300  1.0  0.0263
  C  C163  1  0.497400  0.995670  0.805880  1.0  -0.0324
  C  C164  1  0.454500  0.978470  0.741890  1.0  0.6325
  C  C165  1  0.843400  0.035630  0.603070  1.0  0.6202
  C  C166  1  0.747100  0.787420  0.724230  1.0  0.0912
  C  C167  1  0.036600  0.153970  0.483170  1.0  0.1537
  C  C168  1  0.771200  0.894330  0.774110  1.0  0.1737
  C  C169  1  0.956100  0.011640  0.632780  1.0  -0.0552
  C  C170  1  0.708300  0.891510  0.672000  1.0  0.1699
  C  C171  1  0.205200  0.099010  0.517000  1.0  0.1549
  C  C172  1  0.712600  0.822580  0.670640  1.0  -0.208
  C  C173  1  0.216600  0.218080  0.500200  1.0  0.082
  C  C174  1  0.615600  0.179710  0.767450  1.0  0.1595
  C  C175  1  0.133000  0.967440  0.630240  1.0  0.2141
  C  C176  1  0.095000  0.215000  0.482770  1.0  -0.2233
  C  C177  1  0.777800  0.825110  0.776540  1.0  -0.2061
  C  C178  1  0.270900  0.157910  0.518030  1.0  -0.2075
  C  C179  1  0.582400  0.246500  0.764900  1.0  -0.1823
  C  C180  1  0.581800  0.237900  0.654600  1.0  -0.199
  C  C181  1  0.615700  0.170800  0.660990  1.0  0.1555
  C  C182  1  0.566300  0.276500  0.707700  1.0  0.0299
  C  C183  1  0.997400  0.004330  0.694120  1.0  -0.0328
  C  C184  1  0.954500  0.021530  0.758110  1.0  0.6324
  C  C185  1  0.656600  0.464370  0.603070  1.0  0.6216
  C  C186  1  0.752900  0.712580  0.724230  1.0  0.0913
  C  C187  1  0.463400  0.346030  0.483170  1.0  0.1539
  C  C188  1  0.728800  0.605670  0.774110  1.0  0.1729
  C  C189  1  0.543900  0.488360  0.632780  1.0  -0.055
  C  C190  1  0.791700  0.608490  0.672000  1.0  0.1691
  C  C191  1  0.294800  0.400990  0.517000  1.0  0.1557
  C  C192  1  0.787400  0.677420  0.670640  1.0  -0.2085
  C  C193  1  0.283400  0.281920  0.500200  1.0  0.0823
  C  C194  1  0.884400  0.320290  0.767450  1.0  0.1585
  C  C195  1  0.367000  0.532560  0.630240  1.0  0.2156
  C  C196  1  0.405000  0.285000  0.482770  1.0  -0.2222
  C  C197  1  0.722200  0.674890  0.776540  1.0  -0.206
  C  C198  1  0.229100  0.342090  0.518030  1.0  -0.2064
  C  C199  1  0.917600  0.253500  0.764900  1.0  -0.1815
  C  C200  1  0.918200  0.262100  0.654600  1.0  -0.1988
  C  C201  1  0.884300  0.329200  0.660990  1.0  0.1557
  C  C202  1  0.933700  0.223500  0.707700  1.0  0.0242
  C  C203  1  0.502600  0.495670  0.694120  1.0  -0.0324
  C  C204  1  0.545500  0.478470  0.758110  1.0  0.6335
  C  C205  1  0.843400  0.464370  0.103070  1.0  0.6199
  C  C206  1  0.747100  0.712580  0.224230  1.0  0.0911
  C  C207  1  0.036600  0.346030  0.983170  1.0  0.1539
  C  C208  1  0.771200  0.605670  0.274110  1.0  0.1739
  C  C209  1  0.956100  0.488360  0.132780  1.0  -0.0554
  C  C210  1  0.708300  0.608490  0.172000  1.0  0.1694
  C  C211  1  0.205200  0.400990  0.017000  1.0  0.1551
  C  C212  1  0.712600  0.677420  0.170640  1.0  -0.2083
  C  C213  1  0.216600  0.281920  0.000200  1.0  0.0823
  C  C214  1  0.615600  0.320290  0.267450  1.0  0.1591
  C  C215  1  0.133000  0.532560  0.130240  1.0  0.214
  C  C216  1  0.095000  0.285000  0.982770  1.0  -0.223
  C  C217  1  0.777800  0.674890  0.276540  1.0  -0.2061
  C  C218  1  0.270900  0.342090  0.018030  1.0  -0.2077
  C  C219  1  0.582400  0.253500  0.264900  1.0  -0.1818
  C  C220  1  0.581800  0.262100  0.154600  1.0  -0.1989
  C  C221  1  0.615700  0.329200  0.160990  1.0  0.1555
  C  C222  1  0.566300  0.223500  0.207700  1.0  0.0273
  C  C223  1  0.997400  0.495670  0.194120  1.0  -0.0325
  C  C224  1  0.954500  0.478470  0.258110  1.0  0.6327
  C  C225  1  0.656600  0.035630  0.103070  1.0  0.6219
  C  C226  1  0.752900  0.787420  0.224230  1.0  0.0914
  C  C227  1  0.463400  0.153970  0.983170  1.0  0.1539
  C  C228  1  0.728800  0.894330  0.274110  1.0  0.1727
  C  C229  1  0.543900  0.011640  0.132780  1.0  -0.0551
  C  C230  1  0.791700  0.891510  0.172000  1.0  0.1694
  C  C231  1  0.294800  0.099010  0.017000  1.0  0.1552
  C  C232  1  0.787400  0.822580  0.170640  1.0  -0.2082
  C  C233  1  0.283400  0.218080  0.000200  1.0  0.0821
  C  C234  1  0.884400  0.179710  0.267450  1.0  0.1591
  C  C235  1  0.367000  0.967440  0.130240  1.0  0.2147
  C  C236  1  0.405000  0.215000  0.982770  1.0  -0.2228
  C  C237  1  0.722200  0.825110  0.276540  1.0  -0.206
  C  C238  1  0.229100  0.157910  0.018030  1.0  -0.2065
  C  C239  1  0.917600  0.246500  0.264900  1.0  -0.1823
  C  C240  1  0.918200  0.237900  0.154600  1.0  -0.1989
  C  C241  1  0.884300  0.170800  0.160990  1.0  0.1558
  C  C242  1  0.933700  0.276500  0.207700  1.0  0.0269
  C  C243  1  0.502600  0.004330  0.194120  1.0  -0.0327
  C  C244  1  0.545500  0.021530  0.258110  1.0  0.6332
  C  C245  1  0.156600  0.964370  0.396930  1.0  0.6224
  C  C246  1  0.252900  0.212580  0.275770  1.0  0.0914
  C  C247  1  0.963400  0.846030  0.516830  1.0  0.1536
  C  C248  1  0.228800  0.105670  0.225890  1.0  0.1725
  C  C249  1  0.043900  0.988360  0.367220  1.0  -0.0549
  C  C250  1  0.291700  0.108490  0.328000  1.0  0.17
  C  C251  1  0.794800  0.900990  0.483000  1.0  0.1562
  C  C252  1  0.287400  0.177420  0.329360  1.0  -0.208
  C  C253  1  0.783400  0.781920  0.499800  1.0  0.0816
  C  C254  1  0.384400  0.820290  0.232550  1.0  0.1588
  C  C255  1  0.867000  0.032560  0.369760  1.0  0.2152
  C  C256  1  0.905000  0.785000  0.517230  1.0  -0.222
  C  C257  1  0.222200  0.174890  0.223460  1.0  -0.207
  C  C258  1  0.729100  0.842090  0.481970  1.0  -0.2062
  C  C259  1  0.417600  0.753500  0.235100  1.0  -0.1794
  C  C260  1  0.418200  0.762100  0.345400  1.0  -0.1977
  C  C261  1  0.384300  0.829200  0.339010  1.0  0.1549
  C  C262  1  0.433700  0.723500  0.292300  1.0  0.0232
  C  C263  1  0.002600  0.995670  0.305880  1.0  -0.0324
  C  C264  1  0.045500  0.978470  0.241890  1.0  0.6329
  C  C265  1  0.343400  0.535630  0.396930  1.0  0.6197
  C  C266  1  0.247100  0.287420  0.275770  1.0  0.0912
  C  C267  1  0.536600  0.653970  0.516830  1.0  0.1534
  C  C268  1  0.271200  0.394330  0.225890  1.0  0.1729
  C  C269  1  0.456100  0.511640  0.367220  1.0  -0.0551
  C  C270  1  0.208300  0.391510  0.328000  1.0  0.1695
  C  C271  1  0.705200  0.599010  0.483000  1.0  0.1548
  C  C272  1  0.212600  0.322580  0.329360  1.0  -0.2079
  C  C273  1  0.716600  0.718080  0.499800  1.0  0.0816
  C  C274  1  0.115600  0.679710  0.232550  1.0  0.1589
  C  C275  1  0.633000  0.467440  0.369760  1.0  0.2145
  C  C276  1  0.595000  0.715000  0.517230  1.0  -0.2234
  C  C277  1  0.277800  0.325110  0.223460  1.0  -0.2058
  C  C278  1  0.770900  0.657910  0.481970  1.0  -0.2074
  C  C279  1  0.082400  0.746500  0.235100  1.0  -0.1803
  C  C280  1  0.081800  0.737900  0.345400  1.0  -0.1985
  C  C281  1  0.115700  0.670800  0.339010  1.0  0.1558
  C  C282  1  0.066300  0.776500  0.292300  1.0  0.0288
  C  C283  1  0.497400  0.504330  0.305880  1.0  -0.0326
  C  C284  1  0.454500  0.521530  0.241890  1.0  0.6325
  N  N285  1  0.956600  0.488070  0.907180  1.0  -0.3127
  N  N286  1  0.366000  0.641800  0.783610  1.0  -0.3253
  N  N287  1  0.262600  0.428140  0.777050  1.0  -0.3354
  N  N288  1  0.910400  0.596740  0.000090  1.0  -0.2436
  N  N289  1  0.890200  0.475860  0.808810  1.0  -0.3818
  N  N290  1  0.543400  0.011930  0.907180  1.0  -0.3123
  N  N291  1  0.134000  0.858200  0.783610  1.0  -0.3255
  N  N292  1  0.237400  0.071860  0.777050  1.0  -0.3363
  N  N293  1  0.589600  0.903260  0.000090  1.0  -0.2454
  N  N294  1  0.609800  0.024140  0.808810  1.0  -0.3818
  N  N295  1  0.043400  0.988070  0.592820  1.0  -0.3131
  N  N296  1  0.634000  0.141800  0.716390  1.0  -0.3252
  N  N297  1  0.737400  0.928140  0.722950  1.0  -0.336
  N  N298  1  0.089600  0.096740  0.499910  1.0  -0.2458
  N  N299  1  0.109800  0.975860  0.691190  1.0  -0.3813
  N  N300  1  0.456600  0.511930  0.592820  1.0  -0.3136
  N  N301  1  0.866000  0.358200  0.716390  1.0  -0.3254
  N  N302  1  0.762600  0.571860  0.722950  1.0  -0.3355
  N  N303  1  0.410400  0.403260  0.499910  1.0  -0.2448
  N  N304  1  0.390200  0.524140  0.691190  1.0  -0.3816
  N  N305  1  0.043400  0.511930  0.092820  1.0  -0.3132
  N  N306  1  0.634000  0.358200  0.216390  1.0  -0.3257
  N  N307  1  0.737400  0.571860  0.222950  1.0  -0.3361
  N  N308  1  0.089600  0.403260  0.999910  1.0  -0.246
  N  N309  1  0.109800  0.524140  0.191190  1.0  -0.3814
  N  N310  1  0.456600  0.988070  0.092820  1.0  -0.3137
  N  N311  1  0.866000  0.141800  0.216390  1.0  -0.3254
  N  N312  1  0.762600  0.928140  0.222950  1.0  -0.3355
  N  N313  1  0.410400  0.096740  0.999910  1.0  -0.244
  N  N314  1  0.390200  0.975860  0.191190  1.0  -0.3818
  N  N315  1  0.956600  0.011930  0.407180  1.0  -0.3129
  N  N316  1  0.366000  0.858200  0.283610  1.0  -0.3251
  N  N317  1  0.262600  0.071860  0.277050  1.0  -0.3357
  N  N318  1  0.910400  0.903260  0.500090  1.0  -0.2442
  N  N319  1  0.890200  0.024140  0.308810  1.0  -0.3817
  N  N320  1  0.543400  0.488070  0.407180  1.0  -0.3119
  N  N321  1  0.134000  0.641800  0.283610  1.0  -0.3251
  N  N322  1  0.237400  0.428140  0.277050  1.0  -0.3358
  N  N323  1  0.589600  0.596740  0.500090  1.0  -0.2454
  N  N324  1  0.609800  0.475860  0.308810  1.0  -0.3819
  O  O325  1  0.152850  0.542390  0.956380  1.0  -0.5484
  O  O326  1  0.140930  0.555840  0.733810  1.0  -0.6056
  O  O327  1  0.250720  0.546820  0.866480  1.0  -0.5614
  O  O328  1  0.980890  0.500980  0.697210  1.0  -0.5652
  O  O329  1  0.347150  0.957610  0.956380  1.0  -0.5464
  O  O330  1  0.359070  0.944160  0.733810  1.0  -0.6059
  O  O331  1  0.249280  0.953180  0.866480  1.0  -0.5613
  O  O332  1  0.519110  0.999020  0.697210  1.0  -0.5651
  O  O333  1  0.847150  0.042390  0.543620  1.0  -0.5481
  O  O334  1  0.859070  0.055840  0.766190  1.0  -0.6062
  O  O335  1  0.749280  0.046820  0.633520  1.0  -0.5616
  O  O336  1  0.019110  0.000980  0.802790  1.0  -0.5655
  O  O337  1  0.652850  0.457610  0.543620  1.0  -0.5487
  O  O338  1  0.640930  0.444160  0.766190  1.0  -0.6055
  O  O339  1  0.750720  0.453180  0.633520  1.0  -0.5613
  O  O340  1  0.480890  0.499020  0.802790  1.0  -0.5649
  O  O341  1  0.847150  0.457610  0.043620  1.0  -0.5483
  O  O342  1  0.859070  0.444160  0.266190  1.0  -0.6061
  O  O343  1  0.749280  0.453180  0.133520  1.0  -0.5621
  O  O344  1  0.019110  0.499020  0.302790  1.0  -0.5658
  O  O345  1  0.652850  0.042390  0.043620  1.0  -0.5482
  O  O346  1  0.640930  0.055840  0.266190  1.0  -0.6061
  O  O347  1  0.750720  0.046820  0.133520  1.0  -0.5612
  O  O348  1  0.480890  0.000980  0.302790  1.0  -0.5645
  O  O349  1  0.152850  0.957610  0.456380  1.0  -0.5484
  O  O350  1  0.140930  0.944160  0.233810  1.0  -0.6054
  O  O351  1  0.250720  0.953180  0.366480  1.0  -0.561
  O  O352  1  0.980890  0.999020  0.197210  1.0  -0.5645
  O  O353  1  0.347150  0.542390  0.456380  1.0  -0.5475
  O  O354  1  0.359070  0.555840  0.233810  1.0  -0.6056
  O  O355  1  0.249280  0.546820  0.366480  1.0  -0.5615
  O  O356  1  0.519110  0.500980  0.197210  1.0  -0.5657
