# generated using pymatgen
data_Be3P4(HO3)4
_symmetry_space_group_name_H-M   'P 1'
_cell_length_a   8.50090000
_cell_length_b   15.36520000
_cell_length_c   13.37400000
_cell_angle_alpha   90.00000000
_cell_angle_beta   90.00000000
_cell_angle_gamma   90.00000000
_symmetry_Int_Tables_number   1
_chemical_formula_structural   Be3P4(HO3)4
_chemical_formula_sum   'Be12 P16 H16 O48'
_cell_volume   1746.88551557
_cell_formula_units_Z   4
loop_
 _symmetry_equiv_pos_site_id
 _symmetry_equiv_pos_as_xyz
  1  'x, y, z'
loop_
 _atom_site_type_symbol
 _atom_site_label
 _atom_site_symmetry_multiplicity
 _atom_site_fract_x
 _atom_site_fract_y
 _atom_site_fract_z
 _atom_site_occupancy
 _atom_site_charge
  Be  Be1  1  0.534300  0.411270  0.390870  1.0  1.1372
  Be  Be2  1  0.965700  0.088730  0.890870  1.0  1.1368
  Be  Be3  1  0.465700  0.411270  0.109130  1.0  1.1396
  Be  Be4  1  0.034300  0.088730  0.609130  1.0  1.1381
  Be  Be5  1  0.465700  0.588730  0.609130  1.0  1.1378
  Be  Be6  1  0.034300  0.911270  0.109130  1.0  1.1382
  Be  Be7  1  0.534300  0.588730  0.890870  1.0  1.1372
  Be  Be8  1  0.965700  0.911270  0.390870  1.0  1.1385
  Be  Be9  1  0.000000  0.237100  0.250000  1.0  1.1842
  Be  Be10  1  0.500000  0.262900  0.750000  1.0  1.1846
  Be  Be11  1  0.000000  0.762900  0.750000  1.0  1.1846
  Be  Be12  1  0.500000  0.737100  0.250000  1.0  1.1842
  P  P13  1  0.027440  0.098070  0.387810  1.0  1.5761
  P  P14  1  0.252900  0.368650  0.272540  1.0  1.6505
  P  P15  1  0.472560  0.401930  0.887810  1.0  1.5689
  P  P16  1  0.247100  0.131350  0.772540  1.0  1.6509
  P  P17  1  0.972560  0.098070  0.112190  1.0  1.5675
  P  P18  1  0.747100  0.368650  0.227460  1.0  1.6473
  P  P19  1  0.527440  0.401930  0.612190  1.0  1.5756
  P  P20  1  0.752900  0.131350  0.727460  1.0  1.6482
  P  P21  1  0.972560  0.901930  0.612190  1.0  1.5694
  P  P22  1  0.747100  0.631350  0.727460  1.0  1.651
  P  P23  1  0.527440  0.598070  0.112190  1.0  1.5771
  P  P24  1  0.752900  0.868650  0.227460  1.0  1.6504
  P  P25  1  0.027440  0.901930  0.887810  1.0  1.575
  P  P26  1  0.252900  0.631350  0.772540  1.0  1.6484
  P  P27  1  0.472560  0.598070  0.387810  1.0  1.5667
  P  P28  1  0.247100  0.868650  0.272540  1.0  1.6476
  H  H29  1  0.157700  0.090200  0.337800  1.0  -0.1098
  H  H30  1  0.166900  0.438500  0.260600  1.0  -0.0759
  H  H31  1  0.342300  0.409800  0.837800  1.0  -0.1118
  H  H32  1  0.333100  0.061500  0.760600  1.0  -0.0748
  H  H33  1  0.842300  0.090200  0.162200  1.0  -0.1107
  H  H34  1  0.833100  0.438500  0.239400  1.0  -0.0753
  H  H35  1  0.657700  0.409800  0.662200  1.0  -0.1095
  H  H36  1  0.666900  0.061500  0.739400  1.0  -0.0759
  H  H37  1  0.842300  0.909800  0.662200  1.0  -0.111
  H  H38  1  0.833100  0.561500  0.739400  1.0  -0.0753
  H  H39  1  0.657700  0.590200  0.162200  1.0  -0.1091
  H  H40  1  0.666900  0.938500  0.239400  1.0  -0.0761
  H  H41  1  0.157700  0.909800  0.837800  1.0  -0.1103
  H  H42  1  0.166900  0.561500  0.760600  1.0  -0.0756
  H  H43  1  0.342300  0.590200  0.337800  1.0  -0.1115
  H  H44  1  0.333100  0.938500  0.260600  1.0  -0.0748
  O  O45  1  0.071810  0.120490  0.494940  1.0  -0.889
  O  O46  1  0.936830  0.014260  0.377580  1.0  -0.7312
  O  O47  1  0.937160  0.173880  0.340730  1.0  -0.8384
  O  O48  1  0.142000  0.294380  0.294090  1.0  -0.7524
  O  O49  1  0.344470  0.355530  0.177180  1.0  -0.7094
  O  O50  1  0.352710  0.384250  0.365070  1.0  -0.8471
  O  O51  1  0.428190  0.379510  0.994940  1.0  -0.887
  O  O52  1  0.563170  0.485740  0.877580  1.0  -0.7317
  O  O53  1  0.562840  0.326120  0.840730  1.0  -0.8404
  O  O54  1  0.358000  0.205620  0.794090  1.0  -0.7526
  O  O55  1  0.155530  0.144470  0.677180  1.0  -0.7093
  O  O56  1  0.147290  0.115750  0.865070  1.0  -0.847
  O  O57  1  0.928190  0.120490  0.005060  1.0  -0.8881
  O  O58  1  0.063170  0.014260  0.122420  1.0  -0.7317
  O  O59  1  0.062840  0.173880  0.159270  1.0  -0.8409
  O  O60  1  0.858000  0.294380  0.205910  1.0  -0.7488
  O  O61  1  0.655530  0.355530  0.322820  1.0  -0.7113
  O  O62  1  0.647290  0.384250  0.134930  1.0  -0.8451
  O  O63  1  0.571810  0.379510  0.505060  1.0  -0.8866
  O  O64  1  0.436830  0.485740  0.622420  1.0  -0.7306
  O  O65  1  0.437160  0.326120  0.659270  1.0  -0.8394
  O  O66  1  0.642000  0.205620  0.705910  1.0  -0.748
  O  O67  1  0.844470  0.144470  0.822820  1.0  -0.7119
  O  O68  1  0.852710  0.115750  0.634930  1.0  -0.8452
  O  O69  1  0.928190  0.879510  0.505060  1.0  -0.8862
  O  O70  1  0.063170  0.985740  0.622420  1.0  -0.729
  O  O71  1  0.062840  0.826120  0.659270  1.0  -0.841
  O  O72  1  0.858000  0.705620  0.705910  1.0  -0.7488
  O  O73  1  0.655530  0.644470  0.822820  1.0  -0.7111
  O  O74  1  0.647290  0.615750  0.634930  1.0  -0.8457
  O  O75  1  0.571810  0.620490  0.005060  1.0  -0.8875
  O  O76  1  0.436830  0.514260  0.122420  1.0  -0.7306
  O  O77  1  0.437160  0.673880  0.159270  1.0  -0.8391
  O  O78  1  0.642000  0.794380  0.205910  1.0  -0.7491
  O  O79  1  0.844470  0.855530  0.322820  1.0  -0.7114
  O  O80  1  0.852710  0.884250  0.134930  1.0  -0.8463
  O  O81  1  0.071810  0.879510  0.994940  1.0  -0.8877
  O  O82  1  0.936830  0.985740  0.877580  1.0  -0.7313
  O  O83  1  0.937160  0.826120  0.840730  1.0  -0.8392
  O  O84  1  0.142000  0.705620  0.794090  1.0  -0.7517
  O  O85  1  0.344470  0.644470  0.677180  1.0  -0.7098
  O  O86  1  0.352710  0.615750  0.865070  1.0  -0.8472
  O  O87  1  0.428190  0.620490  0.494940  1.0  -0.8886
  O  O88  1  0.563170  0.514260  0.377580  1.0  -0.7319
  O  O89  1  0.562840  0.673880  0.340730  1.0  -0.8396
  O  O90  1  0.358000  0.794380  0.294090  1.0  -0.7522
  O  O91  1  0.155530  0.855530  0.177180  1.0  -0.7089
  O  O92  1  0.147290  0.884250  0.365070  1.0  -0.847
