# generated using pymatgen
data_Zn2H7C12O7
_symmetry_space_group_name_H-M   'P 1'
_cell_length_a   14.49880000
_cell_length_b   17.16590000
_cell_length_c   18.15360000
_cell_angle_alpha   90.00000000
_cell_angle_beta   90.00000000
_cell_angle_gamma   90.00000000
_symmetry_Int_Tables_number   1
_chemical_formula_structural   Zn2H7C12O7
_chemical_formula_sum   'Zn16 H56 C96 O56'
_cell_volume   4518.15784502
_cell_formula_units_Z   8
loop_
 _symmetry_equiv_pos_site_id
 _symmetry_equiv_pos_as_xyz
  1  'x, y, z'
loop_
 _atom_site_type_symbol
 _atom_site_label
 _atom_site_symmetry_multiplicity
 _atom_site_fract_x
 _atom_site_fract_y
 _atom_site_fract_z
 _atom_site_occupancy
 _atom_site_charge
  Zn  Zn1  1  0.444490  0.939480  0.451770  1.0  1.2195
  Zn  Zn2  1  0.652920  0.947050  0.397640  1.0  1.0353
  Zn  Zn3  1  0.555510  0.439480  0.048230  1.0  1.2188
  Zn  Zn4  1  0.347080  0.447050  0.102360  1.0  1.0355
  Zn  Zn5  1  0.555510  0.060520  0.548230  1.0  1.2202
  Zn  Zn6  1  0.347080  0.052950  0.602360  1.0  1.0354
  Zn  Zn7  1  0.444490  0.560520  0.951770  1.0  1.2202
  Zn  Zn8  1  0.652920  0.552950  0.897640  1.0  1.0351
  Zn  Zn9  1  0.055510  0.060520  0.951770  1.0  1.2203
  Zn  Zn10  1  0.847080  0.052950  0.897640  1.0  1.0346
  Zn  Zn11  1  0.944490  0.560520  0.548230  1.0  1.22
  Zn  Zn12  1  0.152920  0.552950  0.602360  1.0  1.0357
  Zn  Zn13  1  0.944490  0.939480  0.048230  1.0  1.2196
  Zn  Zn14  1  0.152920  0.947050  0.102360  1.0  1.0357
  Zn  Zn15  1  0.055510  0.439480  0.451770  1.0  1.2188
  Zn  Zn16  1  0.847080  0.447050  0.397640  1.0  1.0348
  H  H17  1  0.609700  0.927600  0.521100  1.0  0.4735
  H  H18  1  0.369100  0.120800  0.302000  1.0  0.1072
  H  H19  1  0.338800  0.231800  0.233400  1.0  0.1118
  H  H20  1  0.596000  0.225200  0.153100  1.0  0.1089
  H  H21  1  0.626500  0.115800  0.222700  1.0  0.1077
  H  H22  1  0.935800  0.891100  0.553700  1.0  0.0902
  H  H23  1  0.921600  0.065100  0.407500  1.0  0.0998
  H  H24  1  0.390300  0.427600  0.978900  1.0  0.4734
  H  H25  1  0.630900  0.620800  0.198000  1.0  0.1071
  H  H26  1  0.661200  0.731800  0.266600  1.0  0.1117
  H  H27  1  0.404000  0.725200  0.346900  1.0  0.108
  H  H28  1  0.373500  0.615800  0.277300  1.0  0.1074
  H  H29  1  0.064200  0.391100  0.946300  1.0  0.0905
  H  H30  1  0.078400  0.565100  0.092500  1.0  0.0995
  H  H31  1  0.390300  0.072400  0.478900  1.0  0.4757
  H  H32  1  0.630900  0.879200  0.698000  1.0  0.1069
  H  H33  1  0.661200  0.768200  0.766600  1.0  0.1116
  H  H34  1  0.404000  0.774800  0.846900  1.0  0.1083
  H  H35  1  0.373500  0.884200  0.777300  1.0  0.1073
  H  H36  1  0.064200  0.108900  0.446300  1.0  0.0902
  H  H37  1  0.078400  0.934900  0.592500  1.0  0.0997
  H  H38  1  0.609700  0.572400  0.021100  1.0  0.4746
  H  H39  1  0.369100  0.379200  0.802000  1.0  0.1068
  H  H40  1  0.338800  0.268200  0.733400  1.0  0.1122
  H  H41  1  0.596000  0.274800  0.653100  1.0  0.1087
  H  H42  1  0.626500  0.384200  0.722700  1.0  0.1076
  H  H43  1  0.935800  0.608900  0.053700  1.0  0.0902
  H  H44  1  0.921600  0.434900  0.907500  1.0  0.0996
  H  H45  1  0.890300  0.072400  0.021100  1.0  0.4759
  H  H46  1  0.130900  0.879200  0.802000  1.0  0.1067
  H  H47  1  0.161200  0.768200  0.733400  1.0  0.1119
  H  H48  1  0.904000  0.774800  0.653100  1.0  0.1081
  H  H49  1  0.873500  0.884200  0.722700  1.0  0.1071
  H  H50  1  0.564200  0.108900  0.053700  1.0  0.0902
  H  H51  1  0.578400  0.934900  0.907500  1.0  0.0996
  H  H52  1  0.109700  0.572400  0.478900  1.0  0.4744
  H  H53  1  0.869100  0.379200  0.698000  1.0  0.1069
  H  H54  1  0.838800  0.268200  0.766600  1.0  0.1119
  H  H55  1  0.096000  0.274800  0.846900  1.0  0.1086
  H  H56  1  0.126500  0.384200  0.777300  1.0  0.1078
  H  H57  1  0.435800  0.608900  0.446300  1.0  0.0906
  H  H58  1  0.421600  0.434900  0.592500  1.0  0.0996
  H  H59  1  0.109700  0.927600  0.978900  1.0  0.4728
  H  H60  1  0.869100  0.120800  0.198000  1.0  0.1071
  H  H61  1  0.838800  0.231800  0.266600  1.0  0.1118
  H  H62  1  0.096000  0.225200  0.346900  1.0  0.1082
  H  H63  1  0.126500  0.115800  0.277300  1.0  0.1077
  H  H64  1  0.435800  0.891100  0.946300  1.0  0.0904
  H  H65  1  0.421600  0.065100  0.092500  1.0  0.0995
  H  H66  1  0.890300  0.427600  0.521100  1.0  0.4742
  H  H67  1  0.130900  0.620800  0.302000  1.0  0.1071
  H  H68  1  0.161200  0.731800  0.233400  1.0  0.1117
  H  H69  1  0.904000  0.725200  0.153100  1.0  0.1083
  H  H70  1  0.873500  0.615800  0.222700  1.0  0.1074
  H  H71  1  0.564200  0.391100  0.553700  1.0  0.0902
  H  H72  1  0.578400  0.565100  0.407500  1.0  0.0997
  C  C73  1  0.522800  0.040900  0.320700  1.0  0.7151
  C  C74  1  0.500700  0.107600  0.270400  1.0  -0.1363
  C  C75  1  0.415200  0.142100  0.272600  1.0  -0.0491
  C  C76  1  0.396800  0.208600  0.231400  1.0  -0.0514
  C  C77  1  0.465400  0.240200  0.187300  1.0  -0.1263
  C  C78  1  0.550600  0.204800  0.183700  1.0  -0.0447
  C  C79  1  0.568600  0.139100  0.225100  1.0  -0.0404
  C  C80  1  0.449300  0.314200  0.144700  1.0  0.7308
  C  C81  1  0.819700  0.945100  0.454300  1.0  0.6705
  C  C82  1  0.914200  0.973500  0.476900  1.0  -0.1199
  C  C83  1  0.961600  0.935100  0.532000  1.0  -0.058
  C  C84  1  0.952900  0.038800  0.444700  1.0  -0.0732
  C  C85  1  0.477200  0.540900  0.179300  1.0  0.7148
  C  C86  1  0.499300  0.607600  0.229600  1.0  -0.1384
  C  C87  1  0.584800  0.642100  0.227400  1.0  -0.0475
  C  C88  1  0.603200  0.708600  0.268600  1.0  -0.0517
  C  C89  1  0.534600  0.740200  0.312700  1.0  -0.126
  C  C90  1  0.449400  0.704800  0.316300  1.0  -0.0453
  C  C91  1  0.431400  0.639100  0.274900  1.0  -0.0406
  C  C92  1  0.550700  0.814200  0.355300  1.0  0.7314
  C  C93  1  0.180300  0.445100  0.045700  1.0  0.6702
  C  C94  1  0.085800  0.473500  0.023100  1.0  -0.1198
  C  C95  1  0.038400  0.435100  0.968000  1.0  -0.0572
  C  C96  1  0.047100  0.538800  0.055300  1.0  -0.0739
  C  C97  1  0.477200  0.959100  0.679300  1.0  0.7151
  C  C98  1  0.499300  0.892400  0.729600  1.0  -0.1381
  C  C99  1  0.584800  0.857900  0.727400  1.0  -0.0489
  C  C100  1  0.603200  0.791400  0.768600  1.0  -0.0519
  C  C101  1  0.534600  0.759800  0.812700  1.0  -0.1262
  C  C102  1  0.449400  0.795200  0.816300  1.0  -0.0449
  C  C103  1  0.431400  0.860900  0.774900  1.0  -0.0409
  C  C104  1  0.550700  0.685800  0.855300  1.0  0.7314
  C  C105  1  0.180300  0.054900  0.545700  1.0  0.6707
  C  C106  1  0.085800  0.026500  0.523100  1.0  -0.1197
  C  C107  1  0.038400  0.064900  0.468000  1.0  -0.0573
  C  C108  1  0.047100  0.961200  0.555300  1.0  -0.0743
  C  C109  1  0.522800  0.459100  0.820700  1.0  0.7152
  C  C110  1  0.500700  0.392400  0.770400  1.0  -0.1373
  C  C111  1  0.415200  0.357900  0.772600  1.0  -0.0496
  C  C112  1  0.396800  0.291400  0.731400  1.0  -0.0511
  C  C113  1  0.465400  0.259800  0.687300  1.0  -0.1264
  C  C114  1  0.550600  0.295200  0.683700  1.0  -0.0442
  C  C115  1  0.568600  0.360900  0.725100  1.0  -0.0405
  C  C116  1  0.449300  0.185800  0.644700  1.0  0.7307
  C  C117  1  0.819700  0.554900  0.954300  1.0  0.6705
  C  C118  1  0.914200  0.526500  0.976900  1.0  -0.12
  C  C119  1  0.961600  0.564900  0.032000  1.0  -0.0582
  C  C120  1  0.952900  0.461200  0.944700  1.0  -0.0738
  C  C121  1  0.977200  0.959100  0.820700  1.0  0.715
  C  C122  1  0.999300  0.892400  0.770400  1.0  -0.1378
  C  C123  1  0.084800  0.857900  0.772600  1.0  -0.0484
  C  C124  1  0.103200  0.791400  0.731400  1.0  -0.0509
  C  C125  1  0.034600  0.759800  0.687300  1.0  -0.1261
  C  C126  1  0.949400  0.795200  0.683700  1.0  -0.0445
  C  C127  1  0.931400  0.860900  0.725100  1.0  -0.0407
  C  C128  1  0.050700  0.685800  0.644700  1.0  0.7313
  C  C129  1  0.680300  0.054900  0.954300  1.0  0.6705
  C  C130  1  0.585800  0.026500  0.976900  1.0  -0.1194
  C  C131  1  0.538400  0.064900  0.032000  1.0  -0.0577
  C  C132  1  0.547100  0.961200  0.944700  1.0  -0.0733
  C  C133  1  0.022800  0.459100  0.679300  1.0  0.7152
  C  C134  1  0.000700  0.392400  0.729600  1.0  -0.1375
  C  C135  1  0.915200  0.357900  0.727400  1.0  -0.0499
  C  C136  1  0.896800  0.291400  0.768600  1.0  -0.0519
  C  C137  1  0.965400  0.259800  0.812700  1.0  -0.1265
  C  C138  1  0.050600  0.295200  0.816300  1.0  -0.0444
  C  C139  1  0.068600  0.360900  0.774900  1.0  -0.0403
  C  C140  1  0.949300  0.185800  0.855300  1.0  0.7308
  C  C141  1  0.319700  0.554900  0.545700  1.0  0.6705
  C  C142  1  0.414200  0.526500  0.523100  1.0  -0.1198
  C  C143  1  0.461600  0.564900  0.468000  1.0  -0.0579
  C  C144  1  0.452900  0.461200  0.555300  1.0  -0.0751
  C  C145  1  0.022800  0.040900  0.179300  1.0  0.7151
  C  C146  1  0.000700  0.107600  0.229600  1.0  -0.1375
  C  C147  1  0.915200  0.142100  0.227400  1.0  -0.0489
  C  C148  1  0.896800  0.208600  0.268600  1.0  -0.0522
  C  C149  1  0.965400  0.240200  0.312700  1.0  -0.1264
  C  C150  1  0.050600  0.204800  0.316300  1.0  -0.0447
  C  C151  1  0.068600  0.139100  0.274900  1.0  -0.0401
  C  C152  1  0.949300  0.314200  0.355300  1.0  0.7308
  C  C153  1  0.319700  0.945100  0.045700  1.0  0.6707
  C  C154  1  0.414200  0.973500  0.023100  1.0  -0.1196
  C  C155  1  0.461600  0.935100  0.968000  1.0  -0.0577
  C  C156  1  0.452900  0.038800  0.055300  1.0  -0.0748
  C  C157  1  0.977200  0.540900  0.320700  1.0  0.7148
  C  C158  1  0.999300  0.607600  0.270400  1.0  -0.1371
  C  C159  1  0.084800  0.642100  0.272600  1.0  -0.0479
  C  C160  1  0.103200  0.708600  0.231400  1.0  -0.0511
  C  C161  1  0.034600  0.740200  0.187300  1.0  -0.1258
  C  C162  1  0.949400  0.704800  0.183700  1.0  -0.0451
  C  C163  1  0.931400  0.639100  0.225100  1.0  -0.0406
  C  C164  1  0.050700  0.814200  0.144700  1.0  0.7313
  C  C165  1  0.680300  0.445100  0.454300  1.0  0.6699
  C  C166  1  0.585800  0.473500  0.476900  1.0  -0.1198
  C  C167  1  0.538400  0.435100  0.532000  1.0  -0.0574
  C  C168  1  0.547100  0.538800  0.444700  1.0  -0.0728
  O  O169  1  0.580700  0.960300  0.487100  1.0  -1.0216
  O  O170  1  0.459100  0.014300  0.359800  1.0  -0.6643
  O  O171  1  0.604400  0.015900  0.320000  1.0  -0.5859
  O  O172  1  0.515600  0.342500  0.111500  1.0  -0.6627
  O  O173  1  0.368500  0.343100  0.147200  1.0  -0.5856
  O  O174  1  0.781400  0.980600  0.403300  1.0  -0.6128
  O  O175  1  0.784800  0.889300  0.487500  1.0  -0.6352
  O  O176  1  0.419300  0.460300  0.012900  1.0  -1.0215
  O  O177  1  0.540900  0.514300  0.140200  1.0  -0.6641
  O  O178  1  0.395600  0.515900  0.180000  1.0  -0.586
  O  O179  1  0.484400  0.842500  0.388500  1.0  -0.6623
  O  O180  1  0.631500  0.843100  0.352800  1.0  -0.5863
  O  O181  1  0.218600  0.480600  0.096700  1.0  -0.6141
  O  O182  1  0.215200  0.389300  0.012500  1.0  -0.6358
  O  O183  1  0.419300  0.039700  0.512900  1.0  -1.021
  O  O184  1  0.540900  0.985700  0.640200  1.0  -0.6656
  O  O185  1  0.395600  0.984100  0.680000  1.0  -0.5861
  O  O186  1  0.484400  0.657500  0.888500  1.0  -0.6624
  O  O187  1  0.631500  0.656900  0.852800  1.0  -0.5863
  O  O188  1  0.218600  0.019400  0.596700  1.0  -0.6142
  O  O189  1  0.215200  0.110700  0.512500  1.0  -0.6358
  O  O190  1  0.580700  0.539700  0.987100  1.0  -1.0214
  O  O191  1  0.459100  0.485700  0.859800  1.0  -0.6653
  O  O192  1  0.604400  0.484100  0.820000  1.0  -0.586
  O  O193  1  0.515600  0.157500  0.611500  1.0  -0.6631
  O  O194  1  0.368500  0.156900  0.647200  1.0  -0.5856
  O  O195  1  0.781400  0.519400  0.903300  1.0  -0.6123
  O  O196  1  0.784800  0.610700  0.987500  1.0  -0.6347
  O  O197  1  0.919300  0.039700  0.987100  1.0  -1.0218
  O  O198  1  0.040900  0.985700  0.859800  1.0  -0.6653
  O  O199  1  0.895600  0.984100  0.820000  1.0  -0.586
  O  O200  1  0.984400  0.657500  0.611500  1.0  -0.663
  O  O201  1  0.131500  0.656900  0.647200  1.0  -0.5859
  O  O202  1  0.718600  0.019400  0.903300  1.0  -0.6131
  O  O203  1  0.715200  0.110700  0.987500  1.0  -0.6354
  O  O204  1  0.080700  0.539700  0.512900  1.0  -1.0208
  O  O205  1  0.959100  0.485700  0.640200  1.0  -0.6655
  O  O206  1  0.104400  0.484100  0.680000  1.0  -0.5862
  O  O207  1  0.015600  0.157500  0.888500  1.0  -0.663
  O  O208  1  0.868500  0.156900  0.852800  1.0  -0.586
  O  O209  1  0.281400  0.519400  0.596700  1.0  -0.6137
  O  O210  1  0.284800  0.610700  0.512500  1.0  -0.6349
  O  O211  1  0.080700  0.960300  0.012900  1.0  -1.0212
  O  O212  1  0.959100  0.014300  0.140200  1.0  -0.6644
  O  O213  1  0.104400  0.015900  0.180000  1.0  -0.5859
  O  O214  1  0.015600  0.342500  0.388500  1.0  -0.663
  O  O215  1  0.868500  0.343100  0.352800  1.0  -0.5859
  O  O216  1  0.281400  0.980600  0.096700  1.0  -0.6136
  O  O217  1  0.284800  0.889300  0.012500  1.0  -0.6354
  O  O218  1  0.919300  0.460300  0.487100  1.0  -1.0222
  O  O219  1  0.040900  0.514300  0.359800  1.0  -0.6639
  O  O220  1  0.895600  0.515900  0.320000  1.0  -0.5865
  O  O221  1  0.984400  0.842500  0.111500  1.0  -0.6625
  O  O222  1  0.131500  0.843100  0.147200  1.0  -0.586
  O  O223  1  0.718600  0.480600  0.403300  1.0  -0.6134
  O  O224  1  0.715200  0.389300  0.487500  1.0  -0.6355
