# generated using pymatgen
data_ZnH17C12Br(NO)2
_symmetry_space_group_name_H-M   'P 1'
_cell_length_a   14.78430000
_cell_length_b   15.95390000
_cell_length_c   15.95390000
_cell_angle_alpha   120.00000000
_cell_angle_beta   90.00000000
_cell_angle_gamma   90.00000000
_symmetry_Int_Tables_number   1
_chemical_formula_structural   ZnH17C12Br(NO)2
_chemical_formula_sum   'Zn6 H102 C72 Br6 N12 O12'
_cell_volume   3258.85569055
_cell_formula_units_Z   6
loop_
 _symmetry_equiv_pos_site_id
 _symmetry_equiv_pos_as_xyz
  1  'x, y, z'
loop_
 _atom_site_type_symbol
 _atom_site_label
 _atom_site_symmetry_multiplicity
 _atom_site_fract_x
 _atom_site_fract_y
 _atom_site_fract_z
 _atom_site_occupancy
 _atom_site_charge
  Zn  Zn1  1  0.985100  0.385540  0.633480  1.0  0.7544
  Zn  Zn2  1  0.651770  0.247940  0.614460  1.0  0.7708
  Zn  Zn3  1  0.485100  0.614460  0.366520  1.0  0.7591
  Zn  Zn4  1  0.151770  0.752060  0.385540  1.0  0.7697
  Zn  Zn5  1  0.318430  0.366520  0.752060  1.0  0.7655
  Zn  Zn6  1  0.818430  0.633480  0.247940  1.0  0.7695
  H  H7  1  0.512800  0.714300  0.070100  1.0  0.104
  H  H8  1  0.129970  0.701900  0.171900  1.0  0.0869
  H  H9  1  0.332670  0.557200  0.109700  1.0  0.1161
  H  H10  1  0.064400  0.202700  0.473600  1.0  0.0935
  H  H11  1  0.906600  0.242800  0.785800  1.0  0.0922
  H  H12  1  0.999330  0.552500  0.442800  1.0  0.1151
  H  H13  1  0.948800  0.002800  0.384900  1.0  0.1152
  H  H14  1  0.629970  0.298100  0.828100  1.0  0.0879
  H  H15  1  0.125870  0.541700  0.328100  1.0  0.0866
  H  H16  1  0.231670  0.612000  0.244000  1.0  0.2672
  H  H17  1  0.846130  0.929900  0.644200  1.0  0.103
  H  H18  1  0.763770  0.675600  0.897200  1.0  0.1034
  H  H19  1  0.430430  0.221600  0.324400  1.0  0.1041
  H  H20  1  0.775330  0.619300  0.477300  1.0  0.0778
  H  H21  1  0.108670  0.522700  0.142000  1.0  0.077
  H  H22  1  0.731070  0.270900  0.797300  1.0  0.0945
  H  H23  1  0.782130  0.384900  0.382100  1.0  0.1158
  H  H24  1  0.346130  0.070100  0.355800  1.0  0.1025
  H  H25  1  0.283670  0.358300  0.268800  1.0  0.0944
  H  H26  1  0.450330  0.089500  0.358300  1.0  0.0957
  H  H27  1  0.597100  0.897200  0.221600  1.0  0.1023
  H  H28  1  0.275330  0.380700  0.522700  1.0  0.0777
  H  H29  1  0.796630  0.470000  0.298100  1.0  0.0878
  H  H30  1  0.792530  0.786400  0.458300  1.0  0.0869
  H  H31  1  0.403030  0.091600  0.447300  1.0  0.1001
  H  H32  1  0.761870  0.518100  0.763200  1.0  0.0755
  H  H33  1  0.073270  0.457000  0.242800  1.0  0.0906
  H  H34  1  0.617000  0.731200  0.089500  1.0  0.0939
  H  H35  1  0.898330  0.632000  0.388000  1.0  0.2666
  H  H36  1  0.731670  0.388000  0.756000  1.0  0.268
  H  H37  1  0.097100  0.102800  0.778400  1.0  0.101
  H  H38  1  0.708900  0.043100  0.495400  1.0  0.0763
  H  H39  1  0.608670  0.477300  0.858000  1.0  0.0776
  H  H40  1  0.166000  0.109700  0.552500  1.0  0.1148
  H  H41  1  0.296630  0.530000  0.701900  1.0  0.09
  H  H42  1  0.398330  0.368000  0.612000  1.0  0.267
  H  H43  1  0.903030  0.908400  0.552700  1.0  0.1004
  H  H44  1  0.658070  0.679900  0.892800  1.0  0.0967
  H  H45  1  0.661970  0.492300  0.146900  1.0  0.0737
  H  H46  1  0.783670  0.641700  0.731200  1.0  0.0946
  H  H47  1  0.263770  0.324400  0.102800  1.0  0.1039
  H  H48  1  0.625870  0.458300  0.671900  1.0  0.0875
  H  H49  1  0.739930  0.785800  0.543000  1.0  0.0913
  H  H50  1  0.491400  0.892800  0.212900  1.0  0.0992
  H  H51  1  0.179470  0.355800  0.285700  1.0  0.1015
  H  H52  1  0.832670  0.442800  0.890300  1.0  0.1156
  H  H53  1  0.117000  0.268800  0.910500  1.0  0.0938
  H  H54  1  0.208900  0.956900  0.504600  1.0  0.0764
  H  H55  1  0.282130  0.615100  0.617900  1.0  0.1165
  H  H56  1  0.324730  0.212900  0.320100  1.0  0.0984
  H  H57  1  0.542230  0.495400  0.452300  1.0  0.0765
  H  H58  1  0.499330  0.447500  0.557200  1.0  0.1155
  H  H59  1  0.095200  0.236800  0.754900  1.0  0.0751
  H  H60  1  0.065000  0.244000  0.632000  1.0  0.2663
  H  H61  1  0.991400  0.107200  0.787100  1.0  0.0977
  H  H62  1  0.236370  0.447300  0.355700  1.0  0.1002
  H  H63  1  0.042230  0.504600  0.547700  1.0  0.0764
  H  H64  1  0.442000  0.858000  0.380700  1.0  0.0784
  H  H65  1  0.292530  0.213600  0.541700  1.0  0.0862
  H  H66  1  0.704170  0.606600  0.917800  1.0  0.1022
  H  H67  1  0.406600  0.757200  0.214200  1.0  0.0932
  H  H68  1  0.459200  0.671900  0.213600  1.0  0.089
  H  H69  1  0.370830  0.311200  0.393400  1.0  0.1066
  H  H70  1  0.666000  0.890300  0.447500  1.0  0.1153
  H  H71  1  0.736370  0.552700  0.644300  1.0  0.0985
  H  H72  1  0.679470  0.644200  0.714300  1.0  0.1036
  H  H73  1  0.069700  0.355700  0.908400  1.0  0.1032
  H  H74  1  0.995300  0.853100  0.345400  1.0  0.0722
  H  H75  1  0.824730  0.787100  0.679900  1.0  0.0988
  H  H76  1  0.595200  0.763200  0.245100  1.0  0.0771
  H  H77  1  0.231070  0.729100  0.202700  1.0  0.0945
  H  H78  1  0.615470  0.382100  0.997200  1.0  0.1152
  H  H79  1  0.963300  0.171900  0.470000  1.0  0.0886
  H  H80  1  0.115470  0.617900  0.002800  1.0  0.1151
  H  H81  1  0.950330  0.910500  0.641700  1.0  0.0946
  H  H82  1  0.428530  0.245100  0.481900  1.0  0.0748
  H  H83  1  0.397730  0.526400  0.729100  1.0  0.0958
  H  H84  1  0.537500  0.917800  0.311200  1.0  0.1056
  H  H85  1  0.375570  0.452300  0.956900  1.0  0.0758
  H  H86  1  0.261870  0.481900  0.236800  1.0  0.0751
  H  H87  1  0.158070  0.320100  0.107200  1.0  0.0953
  H  H88  1  0.942000  0.142000  0.619300  1.0  0.0775
  H  H89  1  0.828630  0.345400  0.492300  1.0  0.0718
  H  H90  1  0.448800  0.997200  0.615100  1.0  0.1153
  H  H91  1  0.037500  0.082200  0.688800  1.0  0.1035
  H  H92  1  0.569700  0.644300  0.091600  1.0  0.1013
  H  H93  1  0.928530  0.754900  0.518100  1.0  0.0756
  H  H94  1  0.565000  0.756000  0.368000  1.0  0.2663
  H  H95  1  0.161970  0.507700  0.853100  1.0  0.0736
  H  H96  1  0.870830  0.688800  0.606600  1.0  0.1038
  H  H97  1  0.239930  0.214200  0.457000  1.0  0.0907
  H  H98  1  0.897730  0.473600  0.270900  1.0  0.0939
  H  H99  1  0.328630  0.654600  0.507700  1.0  0.0722
  H  H100  1  0.875570  0.547700  0.043100  1.0  0.0763
  H  H101  1  0.573270  0.543000  0.757200  1.0  0.0911
  H  H102  1  0.204170  0.393400  0.082200  1.0  0.1022
  H  H103  1  0.564400  0.797300  0.526400  1.0  0.0938
  H  H104  1  0.959200  0.328100  0.786400  1.0  0.0882
  H  H105  1  0.930430  0.778400  0.675600  1.0  0.104
  H  H106  1  0.463300  0.828100  0.530000  1.0  0.0895
  H  H107  1  0.495300  0.146900  0.654600  1.0  0.0727
  H  H108  1  0.012800  0.285700  0.929900  1.0  0.1044
  C  C109  1  0.669170  0.415500  0.004600  1.0  -0.2305
  C  C110  1  0.169170  0.584500  0.995400  1.0  -0.2325
  C  C111  1  0.155200  0.966500  0.480300  1.0  0.1786
  C  C112  1  0.109470  0.562900  0.212700  1.0  0.0279
  C  C113  1  0.685530  0.631900  0.383000  1.0  0.63
  C  C114  1  0.697770  0.481200  0.094400  1.0  0.1795
  C  C115  1  0.609470  0.437100  0.787300  1.0  0.029
  C  C116  1  0.378130  0.210700  0.438300  1.0  0.1045
  C  C117  1  0.797070  0.450700  0.941800  1.0  -0.2186
  C  C118  1  0.630400  0.941800  0.491100  1.0  -0.2199
  C  C119  1  0.624670  0.500000  0.741700  1.0  -0.1967
  C  C120  1  0.130400  0.058200  0.508900  1.0  -0.2206
  C  C121  1  0.197770  0.518800  0.905600  1.0  0.1796
  C  C122  1  0.963730  0.508900  0.450700  1.0  -0.22
  C  C123  1  0.895930  0.893600  0.603700  1.0  -0.3627
  C  C124  1  0.709170  0.638100  0.880100  1.0  -0.3776
  C  C125  1  0.018870  0.617000  0.248900  1.0  0.6351
  C  C126  1  0.291330  0.241700  0.500000  1.0  -0.1955
  C  C127  1  0.711470  0.561700  0.772400  1.0  0.1048
  C  C128  1  0.776130  0.649800  0.437100  1.0  0.0299
  C  C129  1  0.335830  0.589100  0.584500  1.0  -0.2317
  C  C130  1  0.354830  0.500100  0.676000  1.0  -0.0495
  C  C131  1  0.502500  0.004600  0.589100  1.0  -0.2339
  C  C132  1  0.002500  0.995400  0.410900  1.0  -0.2349
  C  C133  1  0.544800  0.772400  0.210700  1.0  0.1039
  C  C134  1  0.518870  0.383000  0.751100  1.0  0.632
  C  C135  1  0.864430  0.386800  0.481200  1.0  0.1827
  C  C136  1  0.297070  0.549300  0.058200  1.0  -0.2172
  C  C137  1  0.942800  0.212700  0.649800  1.0  0.029
  C  C138  1  0.211470  0.438300  0.227600  1.0  0.1044
  C  C139  1  0.384630  0.527400  0.602500  1.0  0.148
  C  C140  1  0.884630  0.472600  0.397500  1.0  0.1482
  C  C141  1  0.458000  0.741700  0.241700  1.0  -0.1949
  C  C142  1  0.021500  0.175900  0.499900  1.0  -0.0455
  C  C143  1  0.375830  0.242000  0.361900  1.0  -0.3751
  C  C144  1  0.717970  0.397500  0.924900  1.0  0.1493
  C  C145  1  0.729270  0.603700  0.710100  1.0  -0.3624
  C  C146  1  0.655200  0.033500  0.519700  1.0  0.1784
  C  C147  1  0.364430  0.613200  0.518800  1.0  0.1824
  C  C148  1  0.229270  0.396300  0.289900  1.0  -0.3629
  C  C149  1  0.031100  0.905600  0.386800  1.0  0.1805
  C  C150  1  0.875830  0.758000  0.638100  1.0  -0.3741
  C  C151  1  0.531100  0.094400  0.613200  1.0  0.1792
  C  C152  1  0.217970  0.602500  0.075100  1.0  0.1492
  C  C153  1  0.542500  0.880100  0.242000  1.0  -0.3785
  C  C154  1  0.209170  0.361900  0.119900  1.0  -0.3783
  C  C155  1  0.124670  0.500000  0.258300  1.0  -0.1977
  C  C156  1  0.852200  0.248900  0.631900  1.0  0.6339
  C  C157  1  0.185530  0.368100  0.617000  1.0  0.6313
  C  C158  1  0.521500  0.824100  0.500100  1.0  -0.0464
  C  C159  1  0.321870  0.486200  0.966500  1.0  0.1775
  C  C160  1  0.051300  0.075100  0.472600  1.0  0.1459
  C  C161  1  0.878130  0.789300  0.561700  1.0  0.105
  C  C162  1  0.988530  0.480300  0.513800  1.0  0.1802
  C  C163  1  0.958000  0.258300  0.758300  1.0  -0.1948
  C  C164  1  0.352200  0.751100  0.368100  1.0  0.6326
  C  C165  1  0.188170  0.676000  0.175900  1.0  -0.0457
  C  C166  1  0.044800  0.227600  0.789300  1.0  0.103
  C  C167  1  0.062600  0.289900  0.893600  1.0  -0.3618
  C  C168  1  0.562600  0.710100  0.106400  1.0  -0.363
  C  C169  1  0.835830  0.410900  0.415500  1.0  -0.2373
  C  C170  1  0.042500  0.119900  0.758000  1.0  -0.3781
  C  C171  1  0.488530  0.519700  0.486200  1.0  0.1806
  C  C172  1  0.821870  0.513800  0.033500  1.0  0.1775
  C  C173  1  0.395930  0.106400  0.396300  1.0  -0.3627
  C  C174  1  0.442800  0.787300  0.350200  1.0  0.0295
  C  C175  1  0.551300  0.924900  0.527400  1.0  0.1468
  C  C176  1  0.791330  0.758300  0.500000  1.0  -0.1941
  C  C177  1  0.463730  0.491100  0.549300  1.0  -0.2189
  C  C178  1  0.688170  0.324000  0.824100  1.0  -0.0447
  C  C179  1  0.854830  0.499900  0.324000  1.0  -0.0457
  C  C180  1  0.276130  0.350200  0.562900  1.0  0.0295
  Br  Br181  1  0.479360  0.475230  0.208790  1.0  -0.5081
  Br  Br182  1  0.312690  0.208790  0.733560  1.0  -0.5067
  Br  Br183  1  0.146030  0.733560  0.524770  1.0  -0.5067
  Br  Br184  1  0.646030  0.266440  0.475230  1.0  -0.5079
  Br  Br185  1  0.979360  0.524770  0.791210  1.0  -0.504
  Br  Br186  1  0.812690  0.791210  0.266440  1.0  -0.5079
  N  N187  1  0.013400  0.242900  0.605300  1.0  -0.3639
  N  N188  1  0.607500  0.111600  0.580700  1.0  -0.3348
  N  N189  1  0.180070  0.637600  0.242900  1.0  -0.3634
  N  N190  1  0.513400  0.757100  0.394700  1.0  -0.3633
  N  N191  1  0.107500  0.888400  0.419300  1.0  -0.3319
  N  N192  1  0.440830  0.580700  0.469100  1.0  -0.3355
  N  N193  1  0.940830  0.419300  0.530900  1.0  -0.3338
  N  N194  1  0.846730  0.605300  0.362400  1.0  -0.3655
  N  N195  1  0.346730  0.394700  0.637600  1.0  -0.3659
  N  N196  1  0.274170  0.469100  0.888400  1.0  -0.3363
  N  N197  1  0.680070  0.362400  0.757100  1.0  -0.3636
  N  N198  1  0.774170  0.530900  0.111600  1.0  -0.3356
  O  O199  1  0.449970  0.422800  0.801800  1.0  -0.5895
  O  O200  1  0.616630  0.621000  0.422800  1.0  -0.5892
  O  O201  1  0.283300  0.801800  0.379000  1.0  -0.5905
  O  O202  1  0.852500  0.328800  0.636100  1.0  -0.5747
  O  O203  1  0.116630  0.379000  0.577200  1.0  -0.5885
  O  O204  1  0.519170  0.307300  0.671200  1.0  -0.5744
  O  O205  1  0.685830  0.636100  0.307300  1.0  -0.5717
  O  O206  1  0.949970  0.577200  0.198200  1.0  -0.59
  O  O207  1  0.783300  0.198200  0.621000  1.0  -0.5871
  O  O208  1  0.019170  0.692700  0.328800  1.0  -0.5735
  O  O209  1  0.352500  0.671200  0.363900  1.0  -0.5758
  O  O210  1  0.185830  0.363900  0.692700  1.0  -0.5728
