# generated using pymatgen
data_CuH12C11NO4
_symmetry_space_group_name_H-M   'P 1'
_cell_length_a   25.66700000
_cell_length_b   13.07600000
_cell_length_c   8.72500000
_cell_angle_alpha   90.00000000
_cell_angle_beta   95.07000000
_cell_angle_gamma   90.00000000
_symmetry_Int_Tables_number   1
_chemical_formula_structural   CuH12C11NO4
_chemical_formula_sum   'Cu8 H96 C88 N8 O32'
_cell_volume   2916.84221517
_cell_formula_units_Z   8
loop_
 _symmetry_equiv_pos_site_id
 _symmetry_equiv_pos_as_xyz
  1  'x, y, z'
loop_
 _atom_site_type_symbol
 _atom_site_label
 _atom_site_symmetry_multiplicity
 _atom_site_fract_x
 _atom_site_fract_y
 _atom_site_fract_z
 _atom_site_occupancy
 _atom_site_charge
  Cu  Cu1  1  0.292640  0.296740  0.061820  1.0  0.8
  Cu  Cu2  1  0.792640  0.796740  0.061820  1.0  0.8
  Cu  Cu3  1  0.707360  0.296740  0.438180  1.0  0.8004
  Cu  Cu4  1  0.207360  0.796740  0.438180  1.0  0.8004
  Cu  Cu5  1  0.707360  0.703260  0.938180  1.0  0.8004
  Cu  Cu6  1  0.207360  0.203260  0.938180  1.0  0.8004
  Cu  Cu7  1  0.292640  0.703260  0.561820  1.0  0.7997
  Cu  Cu8  1  0.792640  0.203260  0.561820  1.0  0.7997
  H  H9  1  0.185900  0.228500  0.465900  1.0  0.1066
  H  H10  1  0.141600  0.288900  0.369200  1.0  0.1102
  H  H11  1  0.181200  0.393900  0.565500  1.0  0.0851
  H  H12  1  0.235700  0.379500  0.499900  1.0  0.0787
  H  H13  1  0.200100  0.460900  0.268100  1.0  0.104
  H  H14  1  0.149700  0.484700  0.350100  1.0  0.1227
  H  H15  1  0.396100  0.239900  0.245400  1.0  0.0847
  H  H16  1  0.459300  0.302300  0.420100  1.0  0.1322
  H  H17  1  0.390800  0.575600  0.375700  1.0  0.1232
  H  H18  1  0.330200  0.506500  0.200500  1.0  0.0772
  H  H19  1  0.462300  0.553000  0.577000  1.0  0.0931
  H  H20  1  0.481500  0.442100  0.620100  1.0  0.1026
  H  H21  1  0.685900  0.728500  0.465900  1.0  0.1066
  H  H22  1  0.641600  0.788900  0.369200  1.0  0.1102
  H  H23  1  0.681200  0.893900  0.565500  1.0  0.0851
  H  H24  1  0.735700  0.879500  0.499900  1.0  0.0787
  H  H25  1  0.700100  0.960900  0.268100  1.0  0.104
  H  H26  1  0.649700  0.984700  0.350100  1.0  0.1227
  H  H27  1  0.896100  0.739900  0.245400  1.0  0.0847
  H  H28  1  0.959300  0.802300  0.420100  1.0  0.1322
  H  H29  1  0.890800  0.075600  0.375700  1.0  0.1232
  H  H30  1  0.830200  0.006500  0.200500  1.0  0.0772
  H  H31  1  0.962300  0.053000  0.577000  1.0  0.0931
  H  H32  1  0.981500  0.942100  0.620100  1.0  0.1026
  H  H33  1  0.814100  0.228500  0.034100  1.0  0.1063
  H  H34  1  0.858400  0.288900  0.130800  1.0  0.1079
  H  H35  1  0.818800  0.393900  0.934500  1.0  0.0845
  H  H36  1  0.764300  0.379500  0.000100  1.0  0.0763
  H  H37  1  0.799900  0.460900  0.231900  1.0  0.1043
  H  H38  1  0.850300  0.484700  0.149900  1.0  0.1209
  H  H39  1  0.603900  0.239900  0.254600  1.0  0.0853
  H  H40  1  0.540700  0.302300  0.079900  1.0  0.1323
  H  H41  1  0.609200  0.575600  0.124300  1.0  0.1234
  H  H42  1  0.669800  0.506500  0.299500  1.0  0.0767
  H  H43  1  0.537700  0.553000  0.923000  1.0  0.0936
  H  H44  1  0.518500  0.442100  0.879900  1.0  0.1013
  H  H45  1  0.314100  0.728500  0.034100  1.0  0.1063
  H  H46  1  0.358400  0.788900  0.130800  1.0  0.1079
  H  H47  1  0.318800  0.893900  0.934500  1.0  0.0845
  H  H48  1  0.264300  0.879500  0.000100  1.0  0.0763
  H  H49  1  0.299900  0.960900  0.231900  1.0  0.1043
  H  H50  1  0.350300  0.984700  0.149900  1.0  0.1209
  H  H51  1  0.103900  0.739900  0.254600  1.0  0.0853
  H  H52  1  0.040700  0.802300  0.079900  1.0  0.1323
  H  H53  1  0.109200  0.075600  0.124300  1.0  0.1234
  H  H54  1  0.169800  0.006500  0.299500  1.0  0.0767
  H  H55  1  0.037700  0.053000  0.923000  1.0  0.0936
  H  H56  1  0.018500  0.942100  0.879900  1.0  0.1013
  H  H57  1  0.814100  0.771500  0.534100  1.0  0.1062
  H  H58  1  0.858400  0.711100  0.630800  1.0  0.1087
  H  H59  1  0.818800  0.606100  0.434500  1.0  0.084
  H  H60  1  0.764300  0.620500  0.500100  1.0  0.0761
  H  H61  1  0.799900  0.539100  0.731900  1.0  0.1044
  H  H62  1  0.850300  0.515300  0.649900  1.0  0.121
  H  H63  1  0.603900  0.760100  0.754600  1.0  0.0841
  H  H64  1  0.540700  0.697700  0.579900  1.0  0.1324
  H  H65  1  0.609200  0.424400  0.624300  1.0  0.1226
  H  H66  1  0.669800  0.493500  0.799500  1.0  0.0768
  H  H67  1  0.537700  0.447000  0.423000  1.0  0.0937
  H  H68  1  0.518500  0.557900  0.379900  1.0  0.1031
  H  H69  1  0.314100  0.271500  0.534100  1.0  0.1062
  H  H70  1  0.358400  0.211100  0.630800  1.0  0.1087
  H  H71  1  0.318800  0.106100  0.434500  1.0  0.084
  H  H72  1  0.264300  0.120500  0.500100  1.0  0.0761
  H  H73  1  0.299900  0.039100  0.731900  1.0  0.1044
  H  H74  1  0.350300  0.015300  0.649900  1.0  0.121
  H  H75  1  0.103900  0.260100  0.754600  1.0  0.0841
  H  H76  1  0.040700  0.197700  0.579900  1.0  0.1324
  H  H77  1  0.109200  0.924400  0.624300  1.0  0.1226
  H  H78  1  0.169800  0.993500  0.799500  1.0  0.0768
  H  H79  1  0.037700  0.947000  0.423000  1.0  0.0937
  H  H80  1  0.018500  0.057900  0.379900  1.0  0.1031
  H  H81  1  0.185900  0.771500  0.965900  1.0  0.1055
  H  H82  1  0.141600  0.711100  0.869200  1.0  0.1105
  H  H83  1  0.181200  0.606100  0.065500  1.0  0.0847
  H  H84  1  0.235700  0.620500  0.999900  1.0  0.0789
  H  H85  1  0.200100  0.539100  0.768100  1.0  0.1036
  H  H86  1  0.149700  0.515300  0.850100  1.0  0.1223
  H  H87  1  0.396100  0.760100  0.745400  1.0  0.0846
  H  H88  1  0.459300  0.697700  0.920100  1.0  0.1316
  H  H89  1  0.390800  0.424400  0.875700  1.0  0.1224
  H  H90  1  0.330200  0.493500  0.700500  1.0  0.0767
  H  H91  1  0.462300  0.447000  0.077000  1.0  0.0943
  H  H92  1  0.481500  0.557900  0.120100  1.0  0.1024
  H  H93  1  0.685900  0.271500  0.965900  1.0  0.1055
  H  H94  1  0.641600  0.211100  0.869200  1.0  0.1105
  H  H95  1  0.681200  0.106100  0.065500  1.0  0.0847
  H  H96  1  0.735700  0.120500  0.999900  1.0  0.0789
  H  H97  1  0.700100  0.039100  0.768100  1.0  0.1036
  H  H98  1  0.649700  0.015300  0.850100  1.0  0.1223
  H  H99  1  0.896100  0.260100  0.745400  1.0  0.0846
  H  H100  1  0.959300  0.197700  0.920100  1.0  0.1316
  H  H101  1  0.890800  0.924400  0.875700  1.0  0.1224
  H  H102  1  0.830200  0.993500  0.700500  1.0  0.0767
  H  H103  1  0.962300  0.947000  0.077000  1.0  0.0943
  H  H104  1  0.981500  0.057900  0.120100  1.0  0.1024
  C  C105  1  0.205430  0.262500  0.248300  1.0  0.7233
  C  C106  1  0.179140  0.284700  0.394300  1.0  -0.3433
  C  C107  1  0.198380  0.384300  0.471900  1.0  -0.0428
  C  C108  1  0.187300  0.476200  0.367000  1.0  -0.3582
  C  C109  1  0.210930  0.577200  0.423700  1.0  0.7279
  C  C110  1  0.395220  0.308800  0.271200  1.0  0.1816
  C  C111  1  0.433190  0.345800  0.377800  1.0  -0.2258
  C  C112  1  0.432770  0.446100  0.421900  1.0  0.1638
  C  C113  1  0.392780  0.506600  0.350900  1.0  -0.2014
  C  C114  1  0.356660  0.464700  0.245500  1.0  0.1802
  C  C115  1  0.474800  0.489700  0.535400  1.0  -0.176
  C  C116  1  0.705430  0.762500  0.248300  1.0  0.7233
  C  C117  1  0.679140  0.784700  0.394300  1.0  -0.3433
  C  C118  1  0.698380  0.884300  0.471900  1.0  -0.0428
  C  C119  1  0.687300  0.976200  0.367000  1.0  -0.3582
  C  C120  1  0.710930  0.077200  0.423700  1.0  0.7279
  C  C121  1  0.895220  0.808800  0.271200  1.0  0.1816
  C  C122  1  0.933190  0.845800  0.377800  1.0  -0.2258
  C  C123  1  0.932770  0.946100  0.421900  1.0  0.1638
  C  C124  1  0.892780  0.006600  0.350900  1.0  -0.2014
  C  C125  1  0.856660  0.964700  0.245500  1.0  0.1802
  C  C126  1  0.974800  0.989700  0.535400  1.0  -0.176
  C  C127  1  0.794570  0.262500  0.251700  1.0  0.7209
  C  C128  1  0.820860  0.284700  0.105700  1.0  -0.343
  C  C129  1  0.801620  0.384300  0.028100  1.0  -0.0384
  C  C130  1  0.812700  0.476200  0.133000  1.0  -0.3578
  C  C131  1  0.789070  0.577200  0.076300  1.0  0.7272
  C  C132  1  0.604780  0.308800  0.228800  1.0  0.1825
  C  C133  1  0.566810  0.345800  0.122200  1.0  -0.2239
  C  C134  1  0.567230  0.446100  0.078100  1.0  0.1654
  C  C135  1  0.607220  0.506600  0.149100  1.0  -0.2018
  C  C136  1  0.643340  0.464700  0.254500  1.0  0.1804
  C  C137  1  0.525200  0.489700  0.964600  1.0  -0.1754
  C  C138  1  0.294570  0.762500  0.251700  1.0  0.7209
  C  C139  1  0.320860  0.784700  0.105700  1.0  -0.343
  C  C140  1  0.301620  0.884300  0.028100  1.0  -0.0384
  C  C141  1  0.312700  0.976200  0.133000  1.0  -0.3578
  C  C142  1  0.289070  0.077200  0.076300  1.0  0.7272
  C  C143  1  0.104780  0.808800  0.228800  1.0  0.1825
  C  C144  1  0.066810  0.845800  0.122200  1.0  -0.2239
  C  C145  1  0.067230  0.946100  0.078100  1.0  0.1654
  C  C146  1  0.107220  0.006600  0.149100  1.0  -0.2018
  C  C147  1  0.143340  0.964700  0.254500  1.0  0.1804
  C  C148  1  0.025200  0.989700  0.964600  1.0  -0.1754
  C  C149  1  0.794570  0.737500  0.751700  1.0  0.721
  C  C150  1  0.820860  0.715300  0.605700  1.0  -0.3441
  C  C151  1  0.801620  0.615700  0.528100  1.0  -0.0384
  C  C152  1  0.812700  0.523800  0.633000  1.0  -0.3583
  C  C153  1  0.789070  0.422800  0.576300  1.0  0.7276
  C  C154  1  0.604780  0.691200  0.728800  1.0  0.1833
  C  C155  1  0.566810  0.654200  0.622200  1.0  -0.2274
  C  C156  1  0.567230  0.553900  0.578100  1.0  0.1657
  C  C157  1  0.607220  0.493400  0.649100  1.0  -0.2009
  C  C158  1  0.643340  0.535300  0.754500  1.0  0.1806
  C  C159  1  0.525200  0.510300  0.464600  1.0  -0.175
  C  C160  1  0.294570  0.237500  0.751700  1.0  0.721
  C  C161  1  0.320860  0.215300  0.605700  1.0  -0.3441
  C  C162  1  0.301620  0.115700  0.528100  1.0  -0.0384
  C  C163  1  0.312700  0.023800  0.633000  1.0  -0.3583
  C  C164  1  0.289070  0.922800  0.576300  1.0  0.7276
  C  C165  1  0.104780  0.191200  0.728800  1.0  0.1833
  C  C166  1  0.066810  0.154200  0.622200  1.0  -0.2274
  C  C167  1  0.067230  0.053900  0.578100  1.0  0.1657
  C  C168  1  0.107220  0.993400  0.649100  1.0  -0.2009
  C  C169  1  0.143340  0.035300  0.754500  1.0  0.1806
  C  C170  1  0.025200  0.010300  0.464600  1.0  -0.175
  C  C171  1  0.205430  0.737500  0.748300  1.0  0.7242
  C  C172  1  0.179140  0.715300  0.894300  1.0  -0.3439
  C  C173  1  0.198380  0.615700  0.971900  1.0  -0.0433
  C  C174  1  0.187300  0.523800  0.867000  1.0  -0.3574
  C  C175  1  0.210930  0.422800  0.923700  1.0  0.7276
  C  C176  1  0.395220  0.691200  0.771200  1.0  0.1822
  C  C177  1  0.433190  0.654200  0.877800  1.0  -0.2268
  C  C178  1  0.432770  0.553900  0.921900  1.0  0.164
  C  C179  1  0.392780  0.493400  0.850900  1.0  -0.2005
  C  C180  1  0.356660  0.535300  0.745500  1.0  0.1806
  C  C181  1  0.474800  0.510300  0.035400  1.0  -0.1758
  C  C182  1  0.705430  0.237500  0.748300  1.0  0.7242
  C  C183  1  0.679140  0.215300  0.894300  1.0  -0.3439
  C  C184  1  0.698380  0.115700  0.971900  1.0  -0.0433
  C  C185  1  0.687300  0.023800  0.867000  1.0  -0.3574
  C  C186  1  0.710930  0.922800  0.923700  1.0  0.7276
  C  C187  1  0.895220  0.191200  0.771200  1.0  0.1822
  C  C188  1  0.933190  0.154200  0.877800  1.0  -0.2268
  C  C189  1  0.932770  0.053900  0.921900  1.0  0.164
  C  C190  1  0.892780  0.993400  0.850900  1.0  -0.2005
  C  C191  1  0.856660  0.035300  0.745500  1.0  0.1806
  C  C192  1  0.974800  0.010300  0.035400  1.0  -0.1758
  N  N193  1  0.357460  0.366000  0.203500  1.0  -0.3392
  N  N194  1  0.857460  0.866000  0.203500  1.0  -0.3392
  N  N195  1  0.642540  0.366000  0.296500  1.0  -0.3392
  N  N196  1  0.142540  0.866000  0.296500  1.0  -0.3392
  N  N197  1  0.642540  0.634000  0.796500  1.0  -0.3399
  N  N198  1  0.142540  0.134000  0.796500  1.0  -0.3399
  N  N199  1  0.357460  0.634000  0.703500  1.0  -0.3381
  N  N200  1  0.857460  0.134000  0.703500  1.0  -0.3381
  O  O201  1  0.251790  0.292090  0.243200  1.0  -0.5851
  O  O202  1  0.178920  0.217200  0.140100  1.0  -0.5761
  O  O203  1  0.183810  0.655090  0.392100  1.0  -0.5767
  O  O204  1  0.255490  0.576230  0.493200  1.0  -0.5724
  O  O205  1  0.751790  0.792090  0.243200  1.0  -0.5851
  O  O206  1  0.678920  0.717200  0.140100  1.0  -0.5761
  O  O207  1  0.683810  0.155090  0.392100  1.0  -0.5767
  O  O208  1  0.755490  0.076230  0.493200  1.0  -0.5724
  O  O209  1  0.748210  0.292090  0.256800  1.0  -0.5847
  O  O210  1  0.821080  0.217200  0.359900  1.0  -0.5757
  O  O211  1  0.816190  0.655090  0.107900  1.0  -0.5773
  O  O212  1  0.744510  0.576230  0.006800  1.0  -0.5712
  O  O213  1  0.248210  0.792090  0.256800  1.0  -0.5847
  O  O214  1  0.321080  0.717200  0.359900  1.0  -0.5757
  O  O215  1  0.316190  0.155090  0.107900  1.0  -0.5773
  O  O216  1  0.244510  0.076230  0.006800  1.0  -0.5712
  O  O217  1  0.748210  0.707910  0.756800  1.0  -0.5846
  O  O218  1  0.821080  0.782800  0.859900  1.0  -0.5762
  O  O219  1  0.816190  0.344910  0.607900  1.0  -0.5766
  O  O220  1  0.744510  0.423770  0.506800  1.0  -0.5711
  O  O221  1  0.248210  0.207910  0.756800  1.0  -0.5846
  O  O222  1  0.321080  0.282800  0.859900  1.0  -0.5762
  O  O223  1  0.316190  0.844910  0.607900  1.0  -0.5766
  O  O224  1  0.244510  0.923770  0.506800  1.0  -0.5711
  O  O225  1  0.251790  0.707910  0.743200  1.0  -0.5851
  O  O226  1  0.178920  0.782800  0.640100  1.0  -0.5764
  O  O227  1  0.183810  0.344910  0.892100  1.0  -0.5769
  O  O228  1  0.255490  0.423770  0.993200  1.0  -0.5724
  O  O229  1  0.751790  0.207910  0.743200  1.0  -0.5851
  O  O230  1  0.678920  0.282800  0.640100  1.0  -0.5764
  O  O231  1  0.683810  0.844910  0.892100  1.0  -0.5769
  O  O232  1  0.755490  0.923770  0.993200  1.0  -0.5724
