# generated using pymatgen
data_Cu2H26C23(NO4)2
_symmetry_space_group_name_H-M   'P 1'
_cell_length_a   8.67700000
_cell_length_b   13.04200000
_cell_length_c   28.20100000
_cell_angle_alpha   90.00000000
_cell_angle_beta   90.00000000
_cell_angle_gamma   90.00000000
_symmetry_Int_Tables_number   1
_chemical_formula_structural   Cu2H26C23(NO4)2
_chemical_formula_sum   'Cu8 H104 C92 N8 O32'
_cell_volume   3191.37840423
_cell_formula_units_Z   4
loop_
 _symmetry_equiv_pos_site_id
 _symmetry_equiv_pos_as_xyz
  1  'x, y, z'
loop_
 _atom_site_type_symbol
 _atom_site_label
 _atom_site_symmetry_multiplicity
 _atom_site_fract_x
 _atom_site_fract_y
 _atom_site_fract_z
 _atom_site_occupancy
 _atom_site_charge
  Cu  Cu1  1  0.949260  0.953440  0.461230  1.0  0.8184
  Cu  Cu2  1  0.949260  0.546560  0.038770  1.0  0.8198
  Cu  Cu3  1  0.550740  0.046560  0.961230  1.0  0.818
  Cu  Cu4  1  0.550740  0.453440  0.538770  1.0  0.8193
  Cu  Cu5  1  0.050740  0.046560  0.538770  1.0  0.8195
  Cu  Cu6  1  0.050740  0.453440  0.961230  1.0  0.8177
  Cu  Cu7  1  0.449260  0.953440  0.038770  1.0  0.8197
  Cu  Cu8  1  0.449260  0.546560  0.461230  1.0  0.8185
  H  H9  1  0.121600  0.733000  0.590300  1.0  0.1177
  H  H10  1  0.216800  0.709400  0.544500  1.0  0.1153
  H  H11  1  0.913800  0.642400  0.561800  1.0  0.0704
  H  H12  1  0.994200  0.627900  0.512400  1.0  0.0733
  H  H13  1  0.016400  0.475500  0.557400  1.0  0.1036
  H  H14  1  0.099900  0.535800  0.598100  1.0  0.1127
  H  H15  1  0.784900  0.753000  0.428300  1.0  0.0691
  H  H16  1  0.618400  0.692500  0.371900  1.0  0.1288
  H  H17  1  0.648100  0.964300  0.306800  1.0  0.1365
  H  H18  1  0.813800  0.016200  0.364800  1.0  0.0838
  H  H19  1  0.447500  0.728200  0.303700  1.0  0.0821
  H  H20  1  0.442600  0.840100  0.283200  1.0  0.0815
  H  H21  1  0.671500  0.693900  0.259800  1.0  0.0809
  H  H22  1  0.121600  0.767000  0.909700  1.0  0.1201
  H  H23  1  0.216800  0.790600  0.955500  1.0  0.115
  H  H24  1  0.913800  0.857600  0.938200  1.0  0.0745
  H  H25  1  0.994200  0.872100  0.987600  1.0  0.0731
  H  H26  1  0.016400  0.024500  0.942600  1.0  0.1039
  H  H27  1  0.099900  0.964200  0.901900  1.0  0.112
  H  H28  1  0.784900  0.747000  0.071700  1.0  0.07
  H  H29  1  0.618400  0.807500  0.128100  1.0  0.1286
  H  H30  1  0.648100  0.535700  0.193200  1.0  0.1369
  H  H31  1  0.813800  0.483800  0.135200  1.0  0.0839
  H  H32  1  0.447500  0.771800  0.196300  1.0  0.0827
  H  H33  1  0.442600  0.659900  0.216800  1.0  0.0824
  H  H34  1  0.671500  0.806100  0.240200  1.0  0.0798
  H  H35  1  0.378400  0.267000  0.090300  1.0  0.121
  H  H36  1  0.283200  0.290600  0.044500  1.0  0.1146
  H  H37  1  0.586200  0.357600  0.061800  1.0  0.0718
  H  H38  1  0.505800  0.372100  0.012400  1.0  0.073
  H  H39  1  0.483600  0.524500  0.057400  1.0  0.1027
  H  H40  1  0.400100  0.464200  0.098100  1.0  0.116
  H  H41  1  0.715100  0.247000  0.928300  1.0  0.0687
  H  H42  1  0.881600  0.307500  0.871900  1.0  0.1291
  H  H43  1  0.851900  0.035700  0.806800  1.0  0.136
  H  H44  1  0.686200  0.983800  0.864800  1.0  0.0845
  H  H45  1  0.052500  0.271800  0.803700  1.0  0.0819
  H  H46  1  0.057400  0.159900  0.783200  1.0  0.0824
  H  H47  1  0.828500  0.306100  0.759800  1.0  0.0805
  H  H48  1  0.378400  0.233000  0.409700  1.0  0.1221
  H  H49  1  0.283200  0.209400  0.455500  1.0  0.1147
  H  H50  1  0.586200  0.142400  0.438200  1.0  0.0712
  H  H51  1  0.505800  0.127900  0.487600  1.0  0.0729
  H  H52  1  0.483600  0.975500  0.442600  1.0  0.1045
  H  H53  1  0.400100  0.035800  0.401900  1.0  0.1143
  H  H54  1  0.715100  0.253000  0.571700  1.0  0.0696
  H  H55  1  0.881600  0.192500  0.628100  1.0  0.1295
  H  H56  1  0.851900  0.464300  0.693200  1.0  0.1355
  H  H57  1  0.686200  0.516200  0.635200  1.0  0.0845
  H  H58  1  0.052500  0.228200  0.696300  1.0  0.0818
  H  H59  1  0.057400  0.340100  0.716800  1.0  0.0807
  H  H60  1  0.828500  0.193900  0.740200  1.0  0.0811
  H  H61  1  0.878400  0.267000  0.409700  1.0  0.1231
  H  H62  1  0.783200  0.290600  0.455500  1.0  0.1148
  H  H63  1  0.086200  0.357600  0.438200  1.0  0.076
  H  H64  1  0.005800  0.372100  0.487600  1.0  0.0734
  H  H65  1  0.983600  0.524500  0.442600  1.0  0.1037
  H  H66  1  0.900100  0.464200  0.401900  1.0  0.1147
  H  H67  1  0.215100  0.247000  0.571700  1.0  0.0698
  H  H68  1  0.381600  0.307500  0.628100  1.0  0.1292
  H  H69  1  0.351900  0.035700  0.693200  1.0  0.1371
  H  H70  1  0.186200  0.983800  0.635200  1.0  0.0843
  H  H71  1  0.552500  0.271800  0.696300  1.0  0.0825
  H  H72  1  0.557400  0.159900  0.716800  1.0  0.0821
  H  H73  1  0.328500  0.306100  0.740200  1.0  0.0807
  H  H74  1  0.878400  0.233000  0.090300  1.0  0.1214
  H  H75  1  0.783200  0.209400  0.044500  1.0  0.1146
  H  H76  1  0.086200  0.142400  0.061800  1.0  0.0692
  H  H77  1  0.005800  0.127900  0.012400  1.0  0.0732
  H  H78  1  0.983600  0.975500  0.057400  1.0  0.1038
  H  H79  1  0.900100  0.035800  0.098100  1.0  0.1163
  H  H80  1  0.215100  0.253000  0.928300  1.0  0.0688
  H  H81  1  0.381600  0.192500  0.871900  1.0  0.1294
  H  H82  1  0.351900  0.464300  0.806800  1.0  0.1364
  H  H83  1  0.186200  0.516200  0.864800  1.0  0.085
  H  H84  1  0.552500  0.228200  0.803700  1.0  0.0821
  H  H85  1  0.557400  0.340100  0.783200  1.0  0.0812
  H  H86  1  0.328500  0.193900  0.759800  1.0  0.0816
  H  H87  1  0.621600  0.733000  0.909700  1.0  0.1198
  H  H88  1  0.716800  0.709400  0.955500  1.0  0.1151
  H  H89  1  0.413800  0.642400  0.938200  1.0  0.0722
  H  H90  1  0.494200  0.627900  0.987600  1.0  0.0727
  H  H91  1  0.516400  0.475500  0.942600  1.0  0.1043
  H  H92  1  0.599900  0.535800  0.901900  1.0  0.1121
  H  H93  1  0.284900  0.753000  0.071700  1.0  0.0698
  H  H94  1  0.118400  0.692500  0.128100  1.0  0.1286
  H  H95  1  0.148100  0.964300  0.193200  1.0  0.1358
  H  H96  1  0.313800  0.016200  0.135200  1.0  0.0841
  H  H97  1  0.947500  0.728200  0.196300  1.0  0.0817
  H  H98  1  0.942600  0.840100  0.216800  1.0  0.081
  H  H99  1  0.171500  0.693900  0.240200  1.0  0.0803
  H  H100  1  0.621600  0.767000  0.590300  1.0  0.1181
  H  H101  1  0.716800  0.790600  0.544500  1.0  0.1152
  H  H102  1  0.413800  0.857600  0.561800  1.0  0.075
  H  H103  1  0.494200  0.872100  0.512400  1.0  0.0729
  H  H104  1  0.516400  0.024500  0.557400  1.0  0.1028
  H  H105  1  0.599900  0.964200  0.598100  1.0  0.1131
  H  H106  1  0.284900  0.747000  0.428300  1.0  0.069
  H  H107  1  0.118400  0.807500  0.371900  1.0  0.1286
  H  H108  1  0.148100  0.535700  0.306800  1.0  0.1357
  H  H109  1  0.313800  0.483800  0.364800  1.0  0.0837
  H  H110  1  0.947500  0.771800  0.303700  1.0  0.082
  H  H111  1  0.942600  0.659900  0.283200  1.0  0.0829
  H  H112  1  0.171500  0.806100  0.259800  1.0  0.08
  C  C113  1  0.062000  0.825200  0.534840  1.0  0.7143
  C  C114  1  0.114100  0.724400  0.556220  1.0  -0.3559
  C  C115  1  0.012500  0.632800  0.546300  1.0  -0.0306
  C  C116  1  0.086100  0.531900  0.563970  1.0  -0.3443
  C  C117  1  0.239400  0.510400  0.541000  1.0  0.7336
  C  C118  1  0.757500  0.796100  0.403400  1.0  0.176
  C  C119  1  0.656700  0.758900  0.369560  1.0  -0.226
  C  C120  1  0.613900  0.820900  0.332500  1.0  0.1506
  C  C121  1  0.674600  0.919600  0.331170  1.0  -0.202
  C  C122  1  0.774200  0.950000  0.366300  1.0  0.1799
  C  C123  1  0.510700  0.784700  0.292660  1.0  -0.1865
  C  C124  1  0.062000  0.674800  0.965160  1.0  0.7127
  C  C125  1  0.114100  0.775600  0.943780  1.0  -0.3584
  C  C126  1  0.012500  0.867200  0.953700  1.0  -0.0279
  C  C127  1  0.086100  0.968100  0.936030  1.0  -0.3436
  C  C128  1  0.239400  0.989600  0.959000  1.0  0.7336
  C  C129  1  0.757500  0.703900  0.096600  1.0  0.176
  C  C130  1  0.656700  0.741100  0.130440  1.0  -0.2159
  C  C131  1  0.613900  0.679100  0.167500  1.0  0.1511
  C  C132  1  0.674600  0.580400  0.168830  1.0  -0.2011
  C  C133  1  0.774200  0.550000  0.133700  1.0  0.1796
  C  C134  1  0.510700  0.715300  0.207340  1.0  -0.1861
  C  C135  1  0.438000  0.174800  0.034840  1.0  0.7132
  C  C136  1  0.385900  0.275600  0.056220  1.0  -0.3573
  C  C137  1  0.487500  0.367200  0.046300  1.0  -0.0356
  C  C138  1  0.413900  0.468100  0.063970  1.0  -0.3439
  C  C139  1  0.260600  0.489600  0.041000  1.0  0.7331
  C  C140  1  0.742500  0.203900  0.903400  1.0  0.1749
  C  C141  1  0.843300  0.241100  0.869560  1.0  -0.2174
  C  C142  1  0.886100  0.179100  0.832500  1.0  0.1515
  C  C143  1  0.825400  0.080400  0.831170  1.0  -0.2
  C  C144  1  0.725800  0.050000  0.866300  1.0  0.1795
  C  C145  1  0.989300  0.215300  0.792660  1.0  -0.1856
  C  C146  1  0.438000  0.325200  0.465160  1.0  0.7138
  C  C147  1  0.385900  0.224400  0.443780  1.0  -0.3583
  C  C148  1  0.487500  0.132800  0.453700  1.0  -0.0334
  C  C149  1  0.413900  0.031900  0.436030  1.0  -0.3431
  C  C150  1  0.260600  0.010400  0.459000  1.0  0.7328
  C  C151  1  0.742500  0.296100  0.596600  1.0  0.1758
  C  C152  1  0.843300  0.258900  0.630440  1.0  -0.2146
  C  C153  1  0.886100  0.320900  0.667500  1.0  0.1518
  C  C154  1  0.825400  0.419600  0.668830  1.0  -0.202
  C  C155  1  0.725800  0.450000  0.633700  1.0  0.1788
  C  C156  1  0.989300  0.284700  0.707340  1.0  -0.1841
  C  C157  1  0.938000  0.174800  0.465160  1.0  0.7131
  C  C158  1  0.885900  0.275600  0.443780  1.0  -0.3593
  C  C159  1  0.987500  0.367200  0.453700  1.0  -0.0281
  C  C160  1  0.913900  0.468100  0.436030  1.0  -0.3422
  C  C161  1  0.760600  0.489600  0.459000  1.0  0.7332
  C  C162  1  0.242500  0.203900  0.596600  1.0  0.1755
  C  C163  1  0.343300  0.241100  0.630440  1.0  -0.2164
  C  C164  1  0.386100  0.179100  0.667500  1.0  0.1518
  C  C165  1  0.325400  0.080400  0.668830  1.0  -0.2005
  C  C166  1  0.225800  0.050000  0.633700  1.0  0.1809
  C  C167  1  0.489300  0.215300  0.707340  1.0  -0.1854
  C  C168  1  0.938000  0.325200  0.034840  1.0  0.7142
  C  C169  1  0.885900  0.224400  0.056220  1.0  -0.3594
  C  C170  1  0.987500  0.132800  0.046300  1.0  -0.0362
  C  C171  1  0.913900  0.031900  0.063970  1.0  -0.3436
  C  C172  1  0.760600  0.010400  0.041000  1.0  0.7328
  C  C173  1  0.242500  0.296100  0.903400  1.0  0.1752
  C  C174  1  0.343300  0.258900  0.869560  1.0  -0.2253
  C  C175  1  0.386100  0.320900  0.832500  1.0  0.1509
  C  C176  1  0.325400  0.419600  0.831170  1.0  -0.2016
  C  C177  1  0.225800  0.450000  0.866300  1.0  0.1798
  C  C178  1  0.489300  0.284700  0.792660  1.0  -0.1846
  C  C179  1  0.562000  0.825200  0.965160  1.0  0.7133
  C  C180  1  0.614100  0.724400  0.943780  1.0  -0.3563
  C  C181  1  0.512500  0.632800  0.953700  1.0  -0.0282
  C  C182  1  0.586100  0.531900  0.936030  1.0  -0.3442
  C  C183  1  0.739400  0.510400  0.959000  1.0  0.7336
  C  C184  1  0.257500  0.796100  0.096600  1.0  0.1764
  C  C185  1  0.156700  0.758900  0.130440  1.0  -0.225
  C  C186  1  0.113900  0.820900  0.167500  1.0  0.151
  C  C187  1  0.174600  0.919600  0.168830  1.0  -0.2027
  C  C188  1  0.274200  0.950000  0.133700  1.0  0.1784
  C  C189  1  0.010700  0.784700  0.207340  1.0  -0.1855
  C  C190  1  0.562000  0.674800  0.534840  1.0  0.7133
  C  C191  1  0.614100  0.775600  0.556220  1.0  -0.3547
  C  C192  1  0.512500  0.867200  0.546300  1.0  -0.0303
  C  C193  1  0.586100  0.968100  0.563970  1.0  -0.3433
  C  C194  1  0.739400  0.989600  0.541000  1.0  0.7334
  C  C195  1  0.257500  0.703900  0.403400  1.0  0.1757
  C  C196  1  0.156700  0.741100  0.369560  1.0  -0.2263
  C  C197  1  0.113900  0.679100  0.332500  1.0  0.1512
  C  C198  1  0.174600  0.580400  0.331170  1.0  -0.2004
  C  C199  1  0.274200  0.550000  0.366300  1.0  0.1787
  C  C200  1  0.010700  0.715300  0.292660  1.0  -0.1866
  C  C201  1  0.605500  0.750000  0.250000  1.0  -0.0959
  C  C202  1  0.894500  0.250000  0.750000  1.0  -0.0974
  C  C203  1  0.394500  0.250000  0.750000  1.0  -0.0894
  C  C204  1  0.105500  0.750000  0.250000  1.0  -0.0959
  N  N205  1  0.817800  0.890300  0.402530  1.0  -0.3404
  N  N206  1  0.817800  0.609700  0.097470  1.0  -0.3414
  N  N207  1  0.682200  0.109700  0.902530  1.0  -0.3414
  N  N208  1  0.682200  0.390300  0.597470  1.0  -0.3413
  N  N209  1  0.182200  0.109700  0.597470  1.0  -0.3422
  N  N210  1  0.182200  0.390300  0.902530  1.0  -0.3415
  N  N211  1  0.317800  0.890300  0.097470  1.0  -0.3413
  N  N212  1  0.317800  0.609700  0.402530  1.0  -0.3397
  O  O213  1  0.005800  0.824690  0.494260  1.0  -0.5689
  O  O214  1  0.084900  0.904010  0.559740  1.0  -0.5872
  O  O215  1  0.257700  0.540320  0.499240  1.0  -0.5854
  O  O216  1  0.339900  0.464000  0.564870  1.0  -0.5642
  O  O217  1  0.005800  0.675310  0.005740  1.0  -0.5688
  O  O218  1  0.084900  0.595990  0.940260  1.0  -0.5872
  O  O219  1  0.257700  0.959680  0.000760  1.0  -0.5848
  O  O220  1  0.339900  0.036000  0.935130  1.0  -0.5638
  O  O221  1  0.494200  0.175310  0.994260  1.0  -0.5687
  O  O222  1  0.415100  0.095990  0.059740  1.0  -0.5873
  O  O223  1  0.242300  0.459680  0.999240  1.0  -0.5858
  O  O224  1  0.160100  0.536000  0.064870  1.0  -0.5641
  O  O225  1  0.494200  0.324690  0.505740  1.0  -0.5686
  O  O226  1  0.415100  0.404010  0.440260  1.0  -0.5873
  O  O227  1  0.242300  0.040320  0.500760  1.0  -0.5857
  O  O228  1  0.160100  0.964000  0.435130  1.0  -0.5634
  O  O229  1  0.994200  0.175310  0.505740  1.0  -0.5686
  O  O230  1  0.915100  0.095990  0.440260  1.0  -0.5875
  O  O231  1  0.742300  0.459680  0.500760  1.0  -0.5857
  O  O232  1  0.660100  0.536000  0.435130  1.0  -0.5629
  O  O233  1  0.994200  0.324690  0.994260  1.0  -0.5688
  O  O234  1  0.915100  0.404010  0.059740  1.0  -0.5873
  O  O235  1  0.742300  0.040320  0.999240  1.0  -0.5859
  O  O236  1  0.660100  0.964000  0.064870  1.0  -0.5642
  O  O237  1  0.505800  0.824690  0.005740  1.0  -0.5687
  O  O238  1  0.584900  0.904010  0.940260  1.0  -0.5869
  O  O239  1  0.757700  0.540320  0.000760  1.0  -0.5848
  O  O240  1  0.839900  0.464000  0.935130  1.0  -0.564
  O  O241  1  0.505800  0.675310  0.494260  1.0  -0.5689
  O  O242  1  0.584900  0.595990  0.559740  1.0  -0.5871
  O  O243  1  0.757700  0.959680  0.499240  1.0  -0.5851
  O  O244  1  0.839900  0.036000  0.564870  1.0  -0.564
