# generated using pymatgen
data_ZnH24(C5N8)3
_symmetry_space_group_name_H-M   'P 1'
_cell_length_a   17.50800000
_cell_length_b   17.50800000
_cell_length_c   20.78880000
_cell_angle_alpha   90.00000000
_cell_angle_beta   90.00000000
_cell_angle_gamma   120.00000000
_symmetry_Int_Tables_number   1
_chemical_formula_structural   ZnH24(C5N8)3
_chemical_formula_sum   'Zn6 H144 C90 N144'
_cell_volume   5518.65352330
_cell_formula_units_Z   6
loop_
 _symmetry_equiv_pos_site_id
 _symmetry_equiv_pos_as_xyz
  1  'x, y, z'
loop_
 _atom_site_type_symbol
 _atom_site_label
 _atom_site_symmetry_multiplicity
 _atom_site_fract_x
 _atom_site_fract_y
 _atom_site_fract_z
 _atom_site_occupancy
 _atom_site_charge
  Zn  Zn1  1  0.000000  0.000000  0.724630  1.0  0.6981
  Zn  Zn2  1  0.666667  0.333333  0.057960  1.0  0.6981
  Zn  Zn3  1  0.333333  0.666667  0.391300  1.0  0.6987
  Zn  Zn4  1  0.666667  0.333333  0.555020  1.0  0.828
  Zn  Zn5  1  0.333333  0.666667  0.888350  1.0  0.8279
  Zn  Zn6  1  0.000000  0.000000  0.221690  1.0  0.8279
  H  H7  1  0.809100  0.455800  0.438200  1.0  0.1047
  H  H8  1  0.063600  0.856700  0.659700  1.0  0.0999
  H  H9  1  0.453900  0.650900  0.009300  1.0  0.1062
  H  H10  1  0.883500  0.801400  0.797500  1.0  0.1011
  H  H11  1  0.678000  0.944700  0.017900  1.0  0.129
  H  H12  1  0.648500  0.968200  0.951200  1.0  0.116
  H  H13  1  0.739900  0.871400  0.962700  1.0  0.1056
  H  H14  1  0.783100  0.970600  0.936800  1.0  0.1142
  H  H15  1  0.645800  0.818900  0.872100  1.0  0.1272
  H  H16  1  0.682800  0.917800  0.847000  1.0  0.1352
  H  H17  1  0.679400  0.648200  0.484900  1.0  0.1159
  H  H18  1  0.740400  0.677600  0.421900  1.0  0.1295
  H  H19  1  0.868500  0.734600  0.492200  1.0  0.0983
  H  H20  1  0.816400  0.787900  0.497400  1.0  0.1098
  H  H21  1  0.748600  0.715600  0.593000  1.0  0.1245
  H  H22  1  0.787500  0.650400  0.585900  1.0  0.1243
  H  H23  1  0.475770  0.789130  0.771530  1.0  0.1021
  H  H24  1  0.730270  0.190030  0.993030  1.0  0.0999
  H  H25  1  0.120570  0.984230  0.342630  1.0  0.1062
  H  H26  1  0.550170  0.134730  0.130830  1.0  0.1011
  H  H27  1  0.344670  0.278030  0.351230  1.0  0.129
  H  H28  1  0.315170  0.301530  0.284530  1.0  0.1161
  H  H29  1  0.406570  0.204730  0.296030  1.0  0.1054
  H  H30  1  0.449770  0.303930  0.270130  1.0  0.1142
  H  H31  1  0.312470  0.152230  0.205430  1.0  0.1272
  H  H32  1  0.349470  0.251130  0.180330  1.0  0.1352
  H  H33  1  0.346070  0.981530  0.818230  1.0  0.1159
  H  H34  1  0.407070  0.010930  0.755230  1.0  0.1295
  H  H35  1  0.535170  0.067930  0.825530  1.0  0.0983
  H  H36  1  0.483070  0.121230  0.830730  1.0  0.1108
  H  H37  1  0.415270  0.048930  0.926330  1.0  0.1245
  H  H38  1  0.454170  0.983730  0.919230  1.0  0.1243
  H  H39  1  0.142430  0.122470  0.104870  1.0  0.1047
  H  H40  1  0.396930  0.523370  0.326370  1.0  0.0999
  H  H41  1  0.787230  0.317570  0.675970  1.0  0.1066
  H  H42  1  0.216830  0.468070  0.464170  1.0  0.1011
  H  H43  1  0.011330  0.611370  0.684570  1.0  0.1289
  H  H44  1  0.981830  0.634870  0.617870  1.0  0.116
  H  H45  1  0.073230  0.538070  0.629370  1.0  0.1056
  H  H46  1  0.116430  0.637270  0.603470  1.0  0.1139
  H  H47  1  0.979130  0.485570  0.538770  1.0  0.1272
  H  H48  1  0.016130  0.584470  0.513670  1.0  0.1352
  H  H49  1  0.012730  0.314870  0.151570  1.0  0.1159
  H  H50  1  0.073730  0.344270  0.088570  1.0  0.1296
  H  H51  1  0.201830  0.401270  0.158870  1.0  0.0983
  H  H52  1  0.149730  0.454570  0.164070  1.0  0.1098
  H  H53  1  0.081930  0.382270  0.259670  1.0  0.1245
  H  H54  1  0.120830  0.317070  0.252570  1.0  0.1243
  H  H55  1  0.544200  0.353300  0.438200  1.0  0.1032
  H  H56  1  0.143300  0.206900  0.659700  1.0  0.1011
  H  H57  1  0.349100  0.803000  0.009300  1.0  0.1087
  H  H58  1  0.198600  0.082100  0.797500  1.0  0.1022
  H  H59  1  0.055300  0.733300  0.017900  1.0  0.1304
  H  H60  1  0.031800  0.680300  0.951200  1.0  0.1156
  H  H61  1  0.128600  0.868500  0.962700  1.0  0.0996
  H  H62  1  0.029400  0.812500  0.936800  1.0  0.1178
  H  H63  1  0.181100  0.826900  0.872100  1.0  0.1234
  H  H64  1  0.082200  0.765000  0.847000  1.0  0.1348
  H  H65  1  0.351800  0.031200  0.484900  1.0  0.1223
  H  H66  1  0.322400  0.062800  0.421900  1.0  0.129
  H  H67  1  0.265400  0.133900  0.492200  1.0  0.1072
  H  H68  1  0.212100  0.028500  0.497400  1.0  0.1118
  H  H69  1  0.284400  0.033000  0.593000  1.0  0.1268
  H  H70  1  0.349600  0.137100  0.585900  1.0  0.1252
  H  H71  1  0.210870  0.686630  0.771530  1.0  0.1046
  H  H72  1  0.809970  0.540230  0.993030  1.0  0.1011
  H  H73  1  0.015770  0.136330  0.342630  1.0  0.1087
  H  H74  1  0.865270  0.415430  0.130830  1.0  0.1022
  H  H75  1  0.721970  0.066630  0.351230  1.0  0.1304
  H  H76  1  0.698470  0.013630  0.284530  1.0  0.1155
  H  H77  1  0.795270  0.201830  0.296030  1.0  0.0998
  H  H78  1  0.696070  0.145830  0.270130  1.0  0.1178
  H  H79  1  0.847770  0.160230  0.205430  1.0  0.1234
  H  H80  1  0.748870  0.098330  0.180330  1.0  0.1348
  H  H81  1  0.018470  0.364530  0.818230  1.0  0.1223
  H  H82  1  0.989070  0.396130  0.755230  1.0  0.129
  H  H83  1  0.932070  0.467230  0.825530  1.0  0.1072
  H  H84  1  0.878770  0.361830  0.830730  1.0  0.1122
  H  H85  1  0.951070  0.366330  0.926330  1.0  0.1268
  H  H86  1  0.016270  0.470430  0.919230  1.0  0.1252
  H  H87  1  0.877530  0.019970  0.104870  1.0  0.1032
  H  H88  1  0.476630  0.873570  0.326370  1.0  0.1008
  H  H89  1  0.682430  0.469670  0.675970  1.0  0.1057
  H  H90  1  0.531930  0.748770  0.464170  1.0  0.1022
  H  H91  1  0.388630  0.399970  0.684570  1.0  0.1304
  H  H92  1  0.365130  0.346970  0.617870  1.0  0.1156
  H  H93  1  0.461930  0.535170  0.629370  1.0  0.0998
  H  H94  1  0.362730  0.479170  0.603470  1.0  0.1207
  H  H95  1  0.514430  0.493570  0.538770  1.0  0.1234
  H  H96  1  0.415530  0.431670  0.513670  1.0  0.1348
  H  H97  1  0.685130  0.697870  0.151570  1.0  0.1223
  H  H98  1  0.655730  0.729470  0.088570  1.0  0.1291
  H  H99  1  0.598730  0.800570  0.158870  1.0  0.1072
  H  H100  1  0.545430  0.695170  0.164070  1.0  0.1118
  H  H101  1  0.617730  0.699670  0.259670  1.0  0.1268
  H  H102  1  0.682930  0.803770  0.252570  1.0  0.1252
  H  H103  1  0.646700  0.190900  0.438200  1.0  0.1033
  H  H104  1  0.793100  0.936400  0.659700  1.0  0.1009
  H  H105  1  0.197000  0.546100  0.009300  1.0  0.1072
  H  H106  1  0.917900  0.116500  0.797500  1.0  0.1011
  H  H107  1  0.266700  0.322000  0.017900  1.0  0.1288
  H  H108  1  0.319700  0.351500  0.951200  1.0  0.1124
  H  H109  1  0.131500  0.260100  0.962700  1.0  0.1014
  H  H110  1  0.187500  0.216900  0.936800  1.0  0.1128
  H  H111  1  0.173100  0.354200  0.872100  1.0  0.1275
  H  H112  1  0.235000  0.317200  0.847000  1.0  0.1343
  H  H113  1  0.968800  0.320600  0.484900  1.0  0.1211
  H  H114  1  0.937200  0.259600  0.421900  1.0  0.1304
  H  H115  1  0.866100  0.131500  0.492200  1.0  0.1021
  H  H116  1  0.971500  0.183600  0.497400  1.0  0.1108
  H  H117  1  0.967000  0.251400  0.593000  1.0  0.125
  H  H118  1  0.862900  0.212500  0.585900  1.0  0.124
  H  H119  1  0.313370  0.524230  0.771530  1.0  0.1019
  H  H120  1  0.459770  0.269730  0.993030  1.0  0.1006
  H  H121  1  0.863670  0.879430  0.342630  1.0  0.1072
  H  H122  1  0.584570  0.449830  0.130830  1.0  0.1011
  H  H123  1  0.933370  0.655330  0.351230  1.0  0.1284
  H  H124  1  0.986370  0.684830  0.284530  1.0  0.1123
  H  H125  1  0.798170  0.593430  0.296030  1.0  0.1014
  H  H126  1  0.854170  0.550230  0.270130  1.0  0.1128
  H  H127  1  0.839770  0.687530  0.205430  1.0  0.1276
  H  H128  1  0.901670  0.650530  0.180330  1.0  0.1343
  H  H129  1  0.635470  0.653930  0.818230  1.0  0.1211
  H  H130  1  0.603870  0.592930  0.755230  1.0  0.1304
  H  H131  1  0.532770  0.464830  0.825530  1.0  0.1021
  H  H132  1  0.638170  0.516930  0.830730  1.0  0.1117
  H  H133  1  0.633670  0.584730  0.926330  1.0  0.125
  H  H134  1  0.529570  0.545830  0.919230  1.0  0.124
  H  H135  1  0.980030  0.857570  0.104870  1.0  0.1033
  H  H136  1  0.126430  0.603070  0.326370  1.0  0.1008
  H  H137  1  0.530330  0.212770  0.675970  1.0  0.1043
  H  H138  1  0.251230  0.783170  0.464170  1.0  0.1011
  H  H139  1  0.600030  0.988670  0.684570  1.0  0.1288
  H  H140  1  0.653030  0.018170  0.617870  1.0  0.1124
  H  H141  1  0.464830  0.926770  0.629370  1.0  0.1014
  H  H142  1  0.520830  0.883570  0.603470  1.0  0.1136
  H  H143  1  0.506430  0.020870  0.538770  1.0  0.1275
  H  H144  1  0.568330  0.983870  0.513670  1.0  0.1343
  H  H145  1  0.302130  0.987270  0.151570  1.0  0.121
  H  H146  1  0.270530  0.926270  0.088570  1.0  0.1304
  H  H147  1  0.199430  0.798170  0.158870  1.0  0.1021
  H  H148  1  0.304830  0.850270  0.164070  1.0  0.1108
  H  H149  1  0.300330  0.918070  0.259670  1.0  0.125
  H  H150  1  0.196230  0.879170  0.252570  1.0  0.124
  C  C151  1  0.779900  0.485300  0.453980  1.0  0.248
  C  C152  1  0.004300  0.839400  0.649270  1.0  0.2421
  C  C153  1  0.483200  0.709400  0.992840  1.0  0.237
  C  C154  1  0.855300  0.834900  0.805200  1.0  0.2397
  C  C155  1  0.657900  0.923600  0.973550  1.0  -0.033
  C  C156  1  0.727800  0.913000  0.938600  1.0  -0.0928
  C  C157  1  0.698700  0.878500  0.870400  1.0  -0.0084
  C  C158  1  0.736300  0.658500  0.467200  1.0  -0.0157
  C  C159  1  0.812400  0.730400  0.506000  1.0  -0.0908
  C  C160  1  0.799800  0.711300  0.577800  1.0  -0.0195
  C  C161  1  0.446570  0.818630  0.787310  1.0  0.2487
  C  C162  1  0.670970  0.172730  0.982600  1.0  0.2421
  C  C163  1  0.149870  0.042730  0.326170  1.0  0.237
  C  C164  1  0.521970  0.168230  0.138530  1.0  0.2397
  C  C165  1  0.324570  0.256930  0.306880  1.0  -0.033
  C  C166  1  0.394470  0.246330  0.271930  1.0  -0.0928
  C  C167  1  0.365370  0.211830  0.203730  1.0  -0.0086
  C  C168  1  0.402970  0.991830  0.800530  1.0  -0.0157
  C  C169  1  0.479070  0.063730  0.839330  1.0  -0.0908
  C  C170  1  0.466470  0.044630  0.911130  1.0  -0.0195
  C  C171  1  0.113230  0.151970  0.120650  1.0  0.2487
  C  C172  1  0.337630  0.506070  0.315940  1.0  0.2422
  C  C173  1  0.816530  0.376070  0.659510  1.0  0.2362
  C  C174  1  0.188630  0.501570  0.471870  1.0  0.2397
  C  C175  1  0.991230  0.590270  0.640220  1.0  -0.033
  C  C176  1  0.061130  0.579670  0.605270  1.0  -0.0929
  C  C177  1  0.032030  0.545170  0.537070  1.0  -0.0084
  C  C178  1  0.069630  0.325170  0.133870  1.0  -0.0157
  C  C179  1  0.145730  0.397070  0.172670  1.0  -0.0908
  C  C180  1  0.133130  0.377970  0.244470  1.0  -0.0195
  C  C181  1  0.514700  0.294600  0.453980  1.0  0.2478
  C  C182  1  0.160600  0.164900  0.649270  1.0  0.2418
  C  C183  1  0.290600  0.773800  0.992840  1.0  0.2397
  C  C184  1  0.165100  0.020400  0.805200  1.0  0.2399
  C  C185  1  0.076400  0.734300  0.973550  1.0  -0.0308
  C  C186  1  0.087000  0.814800  0.938600  1.0  -0.0932
  C  C187  1  0.121500  0.820200  0.870400  1.0  -0.0083
  C  C188  1  0.341500  0.077800  0.467200  1.0  -0.0238
  C  C189  1  0.269600  0.082000  0.506000  1.0  -0.0847
  C  C190  1  0.288700  0.088500  0.577800  1.0  -0.0208
  C  C191  1  0.181370  0.627930  0.787310  1.0  0.2487
  C  C192  1  0.827270  0.498230  0.982600  1.0  0.2418
  C  C193  1  0.957270  0.107130  0.326170  1.0  0.2397
  C  C194  1  0.831770  0.353730  0.138530  1.0  0.2399
  C  C195  1  0.743070  0.067630  0.306880  1.0  -0.0308
  C  C196  1  0.753670  0.148130  0.271930  1.0  -0.0932
  C  C197  1  0.788170  0.153530  0.203730  1.0  -0.0085
  C  C198  1  0.008170  0.411130  0.800530  1.0  -0.0238
  C  C199  1  0.936270  0.415330  0.839330  1.0  -0.0847
  C  C200  1  0.955370  0.421830  0.911130  1.0  -0.0208
  C  C201  1  0.848030  0.961270  0.120650  1.0  0.2487
  C  C202  1  0.493930  0.831570  0.315940  1.0  0.2419
  C  C203  1  0.623930  0.440470  0.659510  1.0  0.2384
  C  C204  1  0.498430  0.687070  0.471870  1.0  0.2399
  C  C205  1  0.409730  0.400970  0.640220  1.0  -0.0308
  C  C206  1  0.420330  0.481470  0.605270  1.0  -0.0933
  C  C207  1  0.454830  0.486870  0.537070  1.0  -0.0083
  C  C208  1  0.674830  0.744470  0.133870  1.0  -0.0238
  C  C209  1  0.602930  0.748670  0.172670  1.0  -0.0847
  C  C210  1  0.622030  0.755170  0.244470  1.0  -0.0208
  C  C211  1  0.705400  0.220100  0.453980  1.0  0.2493
  C  C212  1  0.835100  0.995700  0.649270  1.0  0.2423
  C  C213  1  0.226200  0.516800  0.992840  1.0  0.237
  C  C214  1  0.979600  0.144700  0.805200  1.0  0.2403
  C  C215  1  0.265700  0.342100  0.973550  1.0  -0.0261
  C  C216  1  0.185200  0.272200  0.938600  1.0  -0.0942
  C  C217  1  0.179800  0.301300  0.870400  1.0  -0.0086
  C  C218  1  0.922200  0.263700  0.467200  1.0  -0.0237
  C  C219  1  0.918000  0.187600  0.506000  1.0  -0.0903
  C  C220  1  0.911500  0.200200  0.577800  1.0  -0.0189
  C  C221  1  0.372070  0.553430  0.787310  1.0  0.25
  C  C222  1  0.501770  0.329030  0.982600  1.0  0.2423
  C  C223  1  0.892870  0.850130  0.326170  1.0  0.237
  C  C224  1  0.646270  0.478030  0.138530  1.0  0.2403
  C  C225  1  0.932370  0.675430  0.306880  1.0  -0.0261
  C  C226  1  0.851870  0.605530  0.271930  1.0  -0.0942
  C  C227  1  0.846470  0.634630  0.203730  1.0  -0.0084
  C  C228  1  0.588870  0.597030  0.800530  1.0  -0.0237
  C  C229  1  0.584670  0.520930  0.839330  1.0  -0.0903
  C  C230  1  0.578170  0.533530  0.911130  1.0  -0.0189
  C  C231  1  0.038730  0.886770  0.120650  1.0  0.25
  C  C232  1  0.168430  0.662370  0.315940  1.0  0.2422
  C  C233  1  0.559530  0.183470  0.659510  1.0  0.2358
  C  C234  1  0.312930  0.811370  0.471870  1.0  0.2403
  C  C235  1  0.599030  0.008770  0.640220  1.0  -0.0261
  C  C236  1  0.518530  0.938870  0.605270  1.0  -0.0943
  C  C237  1  0.513130  0.967970  0.537070  1.0  -0.0086
  C  C238  1  0.255530  0.930370  0.133870  1.0  -0.0237
  C  C239  1  0.251330  0.854270  0.172670  1.0  -0.0903
  C  C240  1  0.244830  0.866870  0.244470  1.0  -0.0189
  N  N241  1  0.800700  0.566900  0.437440  1.0  -0.3576
  N  N242  1  0.740100  0.576680  0.470320  1.0  0.1533
  N  N243  1  0.687200  0.509330  0.505540  1.0  -0.383
  N  N244  1  0.712420  0.449970  0.495770  1.0  -0.1899
  N  N245  1  0.951700  0.768500  0.615670  1.0  -0.3548
  N  N246  1  0.878800  0.773800  0.613550  1.0  0.1651
  N  N247  1  0.883800  0.842700  0.643700  1.0  -0.3737
  N  N248  1  0.964080  0.884700  0.667270  1.0  -0.203
  N  N249  1  0.562700  0.771200  0.011040  1.0  -0.3567
  N  N250  1  0.574720  0.839200  0.975700  1.0  0.1324
  N  N251  1  0.508120  0.822150  0.936880  1.0  -0.3888
  N  N252  1  0.448580  0.738930  0.948360  1.0  -0.2009
  N  N253  1  0.780600  0.805400  0.838600  1.0  -0.3601
  N  N254  1  0.769500  0.874300  0.835860  1.0  0.1946
  N  N255  1  0.830100  0.941800  0.803870  1.0  -0.3042
  N  N256  1  0.885760  0.917250  0.783820  1.0  -0.2368
  N  N257  1  0.467370  0.900230  0.770770  1.0  -0.3576
  N  N258  1  0.406770  0.910010  0.803650  1.0  0.1533
  N  N259  1  0.353870  0.842660  0.838870  1.0  -0.383
  N  N260  1  0.379090  0.783300  0.829100  1.0  -0.1899
  N  N261  1  0.618370  0.101830  0.949000  1.0  -0.3548
  N  N262  1  0.545470  0.107130  0.946880  1.0  0.1651
  N  N263  1  0.550470  0.176030  0.977030  1.0  -0.3737
  N  N264  1  0.630750  0.218030  0.000600  1.0  -0.203
  N  N265  1  0.229370  0.104530  0.344370  1.0  -0.3567
  N  N266  1  0.241390  0.172530  0.309030  1.0  0.1324
  N  N267  1  0.174790  0.155480  0.270210  1.0  -0.3888
  N  N268  1  0.115250  0.072260  0.281690  1.0  -0.2009
  N  N269  1  0.447270  0.138730  0.171930  1.0  -0.3601
  N  N270  1  0.436170  0.207630  0.169190  1.0  0.1944
  N  N271  1  0.496770  0.275130  0.137200  1.0  -0.3043
  N  N272  1  0.552430  0.250580  0.117150  1.0  -0.2368
  N  N273  1  0.134030  0.233570  0.104110  1.0  -0.3576
  N  N274  1  0.073430  0.243350  0.136990  1.0  0.1533
  N  N275  1  0.020530  0.176000  0.172210  1.0  -0.383
  N  N276  1  0.045750  0.116640  0.162440  1.0  -0.1904
  N  N277  1  0.285030  0.435170  0.282340  1.0  -0.3548
  N  N278  1  0.212130  0.440470  0.280220  1.0  0.1651
  N  N279  1  0.217130  0.509370  0.310370  1.0  -0.3737
  N  N280  1  0.297410  0.551370  0.333940  1.0  -0.203
  N  N281  1  0.896030  0.437870  0.677710  1.0  -0.3569
  N  N282  1  0.908050  0.505870  0.642370  1.0  0.1324
  N  N283  1  0.841450  0.488820  0.603550  1.0  -0.3888
  N  N284  1  0.781910  0.405600  0.615030  1.0  -0.2009
  N  N285  1  0.113930  0.472070  0.505270  1.0  -0.3602
  N  N286  1  0.102830  0.540970  0.502530  1.0  0.1945
  N  N287  1  0.163430  0.608470  0.470540  1.0  -0.3042
  N  N288  1  0.219090  0.583920  0.450490  1.0  -0.2368
  N  N289  1  0.433100  0.233800  0.437440  1.0  -0.3546
  N  N290  1  0.423320  0.163420  0.470320  1.0  0.1535
  N  N291  1  0.490670  0.177870  0.505540  1.0  -0.381
  N  N292  1  0.550030  0.262450  0.495770  1.0  -0.1909
  N  N293  1  0.231500  0.183200  0.615670  1.0  -0.3544
  N  N294  1  0.226200  0.105000  0.613550  1.0  0.1634
  N  N295  1  0.157300  0.041100  0.643700  1.0  -0.3746
  N  N296  1  0.115300  0.079380  0.667270  1.0  -0.2018
  N  N297  1  0.228800  0.791500  0.011040  1.0  -0.3586
  N  N298  1  0.160800  0.735520  0.975700  1.0  0.1288
  N  N299  1  0.177850  0.685970  0.936880  1.0  -0.3881
  N  N300  1  0.261070  0.709650  0.948360  1.0  -0.2002
  N  N301  1  0.194600  0.975200  0.838600  1.0  -0.3599
  N  N302  1  0.125700  0.895200  0.835860  1.0  0.1978
  N  N303  1  0.058200  0.888300  0.803870  1.0  -0.3051
  N  N304  1  0.082750  0.968510  0.783820  1.0  -0.2377
  N  N305  1  0.099770  0.567130  0.770770  1.0  -0.3546
  N  N306  1  0.089990  0.496750  0.803650  1.0  0.1535
  N  N307  1  0.157340  0.511200  0.838870  1.0  -0.381
  N  N308  1  0.216700  0.595780  0.829100  1.0  -0.1909
  N  N309  1  0.898170  0.516530  0.949000  1.0  -0.3544
  N  N310  1  0.892870  0.438330  0.946880  1.0  0.1634
  N  N311  1  0.823970  0.374430  0.977030  1.0  -0.3746
  N  N312  1  0.781970  0.412710  0.000600  1.0  -0.2018
  N  N313  1  0.895470  0.124830  0.344370  1.0  -0.3585
  N  N314  1  0.827470  0.068850  0.309030  1.0  0.1288
  N  N315  1  0.844520  0.019300  0.270210  1.0  -0.3881
  N  N316  1  0.927740  0.042980  0.281690  1.0  -0.2002
  N  N317  1  0.861270  0.308530  0.171930  1.0  -0.3599
  N  N318  1  0.792370  0.228530  0.169190  1.0  0.1977
  N  N319  1  0.724870  0.221630  0.137200  1.0  -0.3051
  N  N320  1  0.749420  0.301840  0.117150  1.0  -0.2377
  N  N321  1  0.766430  0.900470  0.104110  1.0  -0.3546
  N  N322  1  0.756650  0.830090  0.136990  1.0  0.1535
  N  N323  1  0.824000  0.844540  0.172210  1.0  -0.381
  N  N324  1  0.883360  0.929120  0.162440  1.0  -0.1909
  N  N325  1  0.564830  0.849870  0.282340  1.0  -0.3544
  N  N326  1  0.559530  0.771670  0.280220  1.0  0.1634
  N  N327  1  0.490630  0.707770  0.310370  1.0  -0.3746
  N  N328  1  0.448630  0.746050  0.333940  1.0  -0.2018
  N  N329  1  0.562130  0.458170  0.677710  1.0  -0.3585
  N  N330  1  0.494130  0.402190  0.642370  1.0  0.1288
  N  N331  1  0.511180  0.352640  0.603550  1.0  -0.3881
  N  N332  1  0.594400  0.376320  0.615030  1.0  -0.2002
  N  N333  1  0.527930  0.641870  0.505270  1.0  -0.3599
  N  N334  1  0.459030  0.561870  0.502530  1.0  0.1977
  N  N335  1  0.391530  0.554970  0.470540  1.0  -0.3052
  N  N336  1  0.416080  0.635180  0.450490  1.0  -0.2376
  N  N337  1  0.766200  0.199300  0.437440  1.0  -0.3561
  N  N338  1  0.836580  0.259900  0.470320  1.0  0.1536
  N  N339  1  0.822130  0.312800  0.505540  1.0  -0.3828
  N  N340  1  0.737550  0.287580  0.495770  1.0  -0.1909
  N  N341  1  0.816800  0.048300  0.615670  1.0  -0.3533
  N  N342  1  0.895000  0.121200  0.613550  1.0  0.1649
  N  N343  1  0.958900  0.116200  0.643700  1.0  -0.3746
  N  N344  1  0.920620  0.035920  0.667270  1.0  -0.2041
  N  N345  1  0.208500  0.437300  0.011040  1.0  -0.3574
  N  N346  1  0.264480  0.425280  0.975700  1.0  0.1314
  N  N347  1  0.314030  0.491880  0.936880  1.0  -0.3896
  N  N348  1  0.290350  0.551420  0.948360  1.0  -0.2004
  N  N349  1  0.024800  0.219400  0.838600  1.0  -0.3577
  N  N350  1  0.104800  0.230500  0.835860  1.0  0.1982
  N  N351  1  0.111700  0.169900  0.803870  1.0  -0.3062
  N  N352  1  0.031490  0.114240  0.783820  1.0  -0.2374
  N  N353  1  0.432870  0.532630  0.770770  1.0  -0.3561
  N  N354  1  0.503250  0.593230  0.803650  1.0  0.1536
  N  N355  1  0.488800  0.646130  0.838870  1.0  -0.3828
  N  N356  1  0.404220  0.620910  0.829100  1.0  -0.1909
  N  N357  1  0.483470  0.381630  0.949000  1.0  -0.3533
  N  N358  1  0.561670  0.454530  0.946880  1.0  0.1649
  N  N359  1  0.625570  0.449530  0.977030  1.0  -0.3746
  N  N360  1  0.587290  0.369250  0.000600  1.0  -0.2041
  N  N361  1  0.875170  0.770630  0.344370  1.0  -0.3574
  N  N362  1  0.931150  0.758610  0.309030  1.0  0.1315
  N  N363  1  0.980700  0.825210  0.270210  1.0  -0.3896
  N  N364  1  0.957020  0.884750  0.281690  1.0  -0.2003
  N  N365  1  0.691470  0.552730  0.171930  1.0  -0.3577
  N  N366  1  0.771470  0.563830  0.169190  1.0  0.1981
  N  N367  1  0.778370  0.503230  0.137200  1.0  -0.3062
  N  N368  1  0.698160  0.447570  0.117150  1.0  -0.2374
  N  N369  1  0.099530  0.865970  0.104110  1.0  -0.3561
  N  N370  1  0.169910  0.926570  0.136990  1.0  0.1536
  N  N371  1  0.155460  0.979470  0.172210  1.0  -0.3827
  N  N372  1  0.070880  0.954250  0.162440  1.0  -0.1909
  N  N373  1  0.150130  0.714970  0.282340  1.0  -0.3533
  N  N374  1  0.228330  0.787870  0.280220  1.0  0.1649
  N  N375  1  0.292230  0.782870  0.310370  1.0  -0.3746
  N  N376  1  0.253950  0.702590  0.333940  1.0  -0.2041
  N  N377  1  0.541830  0.103970  0.677710  1.0  -0.3571
  N  N378  1  0.597810  0.091950  0.642370  1.0  0.1315
  N  N379  1  0.647360  0.158550  0.603550  1.0  -0.3896
  N  N380  1  0.623680  0.218090  0.615030  1.0  -0.2004
  N  N381  1  0.358130  0.886070  0.505270  1.0  -0.3577
  N  N382  1  0.438130  0.897170  0.502530  1.0  0.1981
  N  N383  1  0.445030  0.836570  0.470540  1.0  -0.3062
  N  N384  1  0.364820  0.780910  0.450490  1.0  -0.2374
