# generated using pymatgen
data_LaH8C18N3O8
_symmetry_space_group_name_H-M   'P 1'
_cell_length_a   10.39500000
_cell_length_b   10.77900000
_cell_length_c   21.44500000
_cell_angle_alpha   90.00000000
_cell_angle_beta   90.00000000
_cell_angle_gamma   112.06000000
_symmetry_Int_Tables_number   1
_chemical_formula_structural   LaH8C18N3O8
_chemical_formula_sum   'La4 H32 C72 N12 O32'
_cell_volume   2226.95197601
_cell_formula_units_Z   4
loop_
 _symmetry_equiv_pos_site_id
 _symmetry_equiv_pos_as_xyz
  1  'x, y, z'
loop_
 _atom_site_type_symbol
 _atom_site_label
 _atom_site_symmetry_multiplicity
 _atom_site_fract_x
 _atom_site_fract_y
 _atom_site_fract_z
 _atom_site_occupancy
 _atom_site_charge
  La  La1  1  0.766940  0.759430  0.527800  1.0  2.1918
  La  La2  1  0.733060  0.240570  0.027800  1.0  2.1923
  La  La3  1  0.233060  0.240570  0.472200  1.0  2.1941
  La  La4  1  0.266940  0.759430  0.972200  1.0  2.1932
  H  H5  1  0.228900  0.804900  0.673500  1.0  0.3985
  H  H6  1  0.782500  0.178400  0.840800  1.0  0.1064
  H  H7  1  0.287000  0.486600  0.634000  1.0  0.0985
  H  H8  1  0.667400  0.072000  0.663500  1.0  0.1193
  H  H9  1  0.399800  0.908800  0.804000  1.0  0.1138
  H  H10  1  0.011600  0.299900  0.801500  1.0  0.1444
  H  H11  1  0.214200  0.495900  0.817900  1.0  0.1078
  H  H12  1  0.590200  0.714900  0.748700  1.0  0.0951
  H  H13  1  0.271100  0.195100  0.173500  1.0  0.3992
  H  H14  1  0.717500  0.821600  0.340800  1.0  0.1068
  H  H15  1  0.213000  0.513400  0.134000  1.0  0.0981
  H  H16  1  0.832600  0.928000  0.163500  1.0  0.1196
  H  H17  1  0.100200  0.091200  0.304000  1.0  0.1138
  H  H18  1  0.488400  0.700100  0.301500  1.0  0.1442
  H  H19  1  0.285800  0.504100  0.317900  1.0  0.1073
  H  H20  1  0.909800  0.285100  0.248700  1.0  0.095
  H  H21  1  0.771100  0.195100  0.326500  1.0  0.397
  H  H22  1  0.217500  0.821600  0.159200  1.0  0.1067
  H  H23  1  0.713000  0.513400  0.366000  1.0  0.0985
  H  H24  1  0.332600  0.928000  0.336500  1.0  0.1196
  H  H25  1  0.600200  0.091200  0.196000  1.0  0.1131
  H  H26  1  0.988400  0.700100  0.198500  1.0  0.1457
  H  H27  1  0.785800  0.504100  0.182100  1.0  0.1079
  H  H28  1  0.409800  0.285100  0.251300  1.0  0.0948
  H  H29  1  0.728900  0.804900  0.826500  1.0  0.398
  H  H30  1  0.282500  0.178400  0.659200  1.0  0.107
  H  H31  1  0.787000  0.486600  0.866000  1.0  0.0994
  H  H32  1  0.167400  0.072000  0.836500  1.0  0.1193
  H  H33  1  0.899800  0.908800  0.696000  1.0  0.1132
  H  H34  1  0.511600  0.299900  0.698500  1.0  0.1459
  H  H35  1  0.714200  0.495900  0.682100  1.0  0.1081
  H  H36  1  0.090200  0.714900  0.751300  1.0  0.095
  C  C37  1  0.552900  0.661300  0.629450  1.0  0.697
  C  C38  1  0.745500  0.141300  0.749000  1.0  0.0587
  C  C39  1  0.716400  0.127700  0.812200  1.0  -0.0623
  C  C40  1  0.559900  0.021400  0.902460  1.0  0.8268
  C  C41  1  0.588400  0.038400  0.833110  1.0  -0.1542
  C  C42  1  0.517600  0.980300  0.726910  1.0  -0.1446
  C  C43  1  0.088000  0.383400  0.715930  1.0  0.1509
  C  C44  1  0.229100  0.476400  0.724930  1.0  -0.0286
  C  C45  1  0.317700  0.518600  0.673780  1.0  -0.0344
  C  C46  1  0.411200  0.905800  0.678910  1.0  0.6364
  C  C47  1  0.646800  0.065500  0.705860  1.0  -0.0419
  C  C48  1  0.458800  0.661900  0.859080  1.0  0.7343
  C  C49  1  0.486800  0.965900  0.790340  1.0  0.0143
  C  C50  1  0.996300  0.305300  0.759020  1.0  -0.1685
  C  C51  1  0.452900  0.609300  0.683130  1.0  -0.1562
  C  C52  1  0.274700  0.523600  0.784270  1.0  -0.0407
  C  C53  1  0.499300  0.655200  0.742880  1.0  -0.0008
  C  C54  1  0.411400  0.612800  0.793780  1.0  -0.1546
  C  C55  1  0.947100  0.338700  0.129450  1.0  0.6991
  C  C56  1  0.754500  0.858700  0.249000  1.0  0.0576
  C  C57  1  0.783600  0.872300  0.312200  1.0  -0.0637
  C  C58  1  0.940100  0.978600  0.402460  1.0  0.8272
  C  C59  1  0.911600  0.961600  0.333110  1.0  -0.1548
  C  C60  1  0.982400  0.019700  0.226910  1.0  -0.1446
  C  C61  1  0.412000  0.616600  0.215930  1.0  0.1506
  C  C62  1  0.270900  0.523600  0.224930  1.0  -0.0281
  C  C63  1  0.182300  0.481400  0.173780  1.0  -0.0365
  C  C64  1  0.088800  0.094200  0.178910  1.0  0.636
  C  C65  1  0.853200  0.934500  0.205860  1.0  -0.0409
  C  C66  1  0.041200  0.338100  0.359080  1.0  0.7332
  C  C67  1  0.013200  0.034100  0.290340  1.0  0.0126
  C  C68  1  0.503700  0.694700  0.259020  1.0  -0.1701
  C  C69  1  0.047100  0.390700  0.183130  1.0  -0.1562
  C  C70  1  0.225300  0.476400  0.284270  1.0  -0.041
  C  C71  1  0.000700  0.344800  0.242880  1.0  -0.0015
  C  C72  1  0.088600  0.387200  0.293780  1.0  -0.1547
  C  C73  1  0.447100  0.338700  0.370550  1.0  0.6987
  C  C74  1  0.254500  0.858700  0.251000  1.0  0.0581
  C  C75  1  0.283600  0.872300  0.187800  1.0  -0.0626
  C  C76  1  0.440100  0.978600  0.097540  1.0  0.8248
  C  C77  1  0.411600  0.961600  0.166890  1.0  -0.1544
  C  C78  1  0.482400  0.019700  0.273090  1.0  -0.1457
  C  C79  1  0.912000  0.616600  0.284070  1.0  0.1504
  C  C80  1  0.770900  0.523600  0.275070  1.0  -0.0276
  C  C81  1  0.682300  0.481400  0.326220  1.0  -0.0425
  C  C82  1  0.588800  0.094200  0.321090  1.0  0.6371
  C  C83  1  0.353200  0.934500  0.294140  1.0  -0.0438
  C  C84  1  0.541200  0.338100  0.140920  1.0  0.7343
  C  C85  1  0.513200  0.034100  0.209660  1.0  0.0126
  C  C86  1  0.003700  0.694700  0.240980  1.0  -0.1678
  C  C87  1  0.547100  0.390700  0.316870  1.0  -0.1554
  C  C88  1  0.725300  0.476400  0.215730  1.0  -0.0422
  C  C89  1  0.500700  0.344800  0.257120  1.0  -0.0017
  C  C90  1  0.588600  0.387200  0.206220  1.0  -0.1545
  C  C91  1  0.052900  0.661300  0.870550  1.0  0.6987
  C  C92  1  0.245500  0.141300  0.751000  1.0  0.0589
  C  C93  1  0.216400  0.127700  0.687800  1.0  -0.0639
  C  C94  1  0.059900  0.021400  0.597540  1.0  0.8245
  C  C95  1  0.088400  0.038400  0.666890  1.0  -0.1538
  C  C96  1  0.017600  0.980300  0.773090  1.0  -0.1454
  C  C97  1  0.588000  0.383400  0.784070  1.0  0.1504
  C  C98  1  0.729100  0.476400  0.775070  1.0  -0.0278
  C  C99  1  0.817700  0.518600  0.826220  1.0  -0.0419
  C  C100  1  0.911200  0.905800  0.821090  1.0  0.6367
  C  C101  1  0.146800  0.065500  0.794140  1.0  -0.0422
  C  C102  1  0.958800  0.661900  0.640920  1.0  0.7316
  C  C103  1  0.986800  0.965900  0.709660  1.0  0.0145
  C  C104  1  0.496300  0.305300  0.740980  1.0  -0.1667
  C  C105  1  0.952900  0.609300  0.816870  1.0  -0.1561
  C  C106  1  0.774700  0.523600  0.715730  1.0  -0.0411
  C  C107  1  0.999300  0.655200  0.757120  1.0  -0.0008
  C  C108  1  0.911400  0.612800  0.706220  1.0  -0.1537
  N  N109  1  0.877800  0.237100  0.726690  1.0  0.1788
  N  N110  1  0.897900  0.275000  0.666250  1.0  -0.1704
  N  N111  1  0.025800  0.362500  0.659500  1.0  -0.2495
  N  N112  1  0.622200  0.762900  0.226690  1.0  0.1795
  N  N113  1  0.602100  0.725000  0.166250  1.0  -0.1685
  N  N114  1  0.474200  0.637500  0.159500  1.0  -0.2474
  N  N115  1  0.122200  0.762900  0.273310  1.0  0.1805
  N  N116  1  0.102100  0.725000  0.333750  1.0  -0.1697
  N  N117  1  0.974200  0.637500  0.340500  1.0  -0.249
  N  N118  1  0.377800  0.237100  0.773310  1.0  0.1802
  N  N119  1  0.397900  0.275000  0.833750  1.0  -0.1701
  N  N120  1  0.525800  0.362500  0.840500  1.0  -0.2509
  O  O121  1  0.585100  0.723500  0.869890  1.0  -0.6001
  O  O122  1  0.523900  0.601000  0.576760  1.0  -0.7494
  O  O123  1  0.290000  0.838600  0.702970  1.0  -0.5009
  O  O124  1  0.657500  0.084500  0.938280  1.0  -0.7753
  O  O125  1  0.662300  0.759700  0.637920  1.0  -0.6228
  O  O126  1  0.437700  0.909500  0.623620  1.0  -0.5211
  O  O127  1  0.365600  0.635200  0.900330  1.0  -0.7637
  O  O128  1  0.441600  0.946400  0.919620  1.0  -0.7295
  O  O129  1  0.914900  0.276500  0.369890  1.0  -0.6013
  O  O130  1  0.976100  0.399000  0.076760  1.0  -0.7522
  O  O131  1  0.210000  0.161400  0.202970  1.0  -0.5001
  O  O132  1  0.842500  0.915500  0.438280  1.0  -0.7759
  O  O133  1  0.837700  0.240300  0.137920  1.0  -0.6235
  O  O134  1  0.062300  0.090500  0.123620  1.0  -0.5213
  O  O135  1  0.134400  0.364800  0.400330  1.0  -0.7651
  O  O136  1  0.058400  0.053600  0.419620  1.0  -0.7296
  O  O137  1  0.414900  0.276500  0.130110  1.0  -0.5986
  O  O138  1  0.476100  0.399000  0.423240  1.0  -0.7447
  O  O139  1  0.710000  0.161400  0.297030  1.0  -0.5006
  O  O140  1  0.342500  0.915500  0.061720  1.0  -0.7754
  O  O141  1  0.337700  0.240300  0.362080  1.0  -0.6241
  O  O142  1  0.562300  0.090500  0.376380  1.0  -0.5229
  O  O143  1  0.634400  0.364800  0.099670  1.0  -0.7629
  O  O144  1  0.558400  0.053600  0.080380  1.0  -0.7303
  O  O145  1  0.085100  0.723500  0.630110  1.0  -0.5981
  O  O146  1  0.023900  0.601000  0.923240  1.0  -0.7423
  O  O147  1  0.790000  0.838600  0.797030  1.0  -0.5018
  O  O148  1  0.157500  0.084500  0.561720  1.0  -0.7753
  O  O149  1  0.162300  0.759700  0.862080  1.0  -0.6237
  O  O150  1  0.937700  0.909500  0.876380  1.0  -0.5228
  O  O151  1  0.865600  0.635200  0.599670  1.0  -0.7626
  O  O152  1  0.941600  0.946400  0.580380  1.0  -0.7295
