# generated using pymatgen
data_ErH8C18N3O8
_symmetry_space_group_name_H-M   'P 1'
_cell_length_a   9.74940000
_cell_length_b   11.04840000
_cell_length_c   20.48450000
_cell_angle_alpha   90.00000000
_cell_angle_beta   90.00000000
_cell_angle_gamma   108.89800000
_symmetry_Int_Tables_number   1
_chemical_formula_structural   ErH8C18N3O8
_chemical_formula_sum   'Er4 H32 C72 N12 O32'
_cell_volume   2087.55611163
_cell_formula_units_Z   4
loop_
 _symmetry_equiv_pos_site_id
 _symmetry_equiv_pos_as_xyz
  1  'x, y, z'
loop_
 _atom_site_type_symbol
 _atom_site_label
 _atom_site_symmetry_multiplicity
 _atom_site_fract_x
 _atom_site_fract_y
 _atom_site_fract_z
 _atom_site_occupancy
 _atom_site_charge
  Er  Er1  1  0.300160  0.315220  0.965340  1.0  1.5646
  Er  Er2  1  0.199840  0.684780  0.465340  1.0  1.5651
  Er  Er3  1  0.699840  0.684780  0.034660  1.0  1.5659
  Er  Er4  1  0.800160  0.315220  0.534660  1.0  1.5656
  H  H5  1  0.750400  0.662800  0.343100  1.0  0.3953
  H  H6  1  0.192800  0.293600  0.170800  1.0  0.1129
  H  H7  1  0.992900  0.130900  0.207700  1.0  0.1506
  H  H8  1  0.320300  0.366800  0.358100  1.0  0.1202
  H  H9  1  0.771400  0.982300  0.185800  1.0  0.1227
  H  H10  1  0.580400  0.551200  0.211900  1.0  0.1066
  H  H11  1  0.389400  0.743900  0.248900  1.0  0.102
  H  H12  1  0.685400  0.947900  0.377700  1.0  0.1259
  H  H13  1  0.749600  0.337200  0.843100  1.0  0.3948
  H  H14  1  0.307200  0.706400  0.670800  1.0  0.113
  H  H15  1  0.507100  0.869100  0.707700  1.0  0.1505
  H  H16  1  0.179700  0.633200  0.858100  1.0  0.1201
  H  H17  1  0.728600  0.017700  0.685800  1.0  0.1225
  H  H18  1  0.919600  0.448800  0.711900  1.0  0.1064
  H  H19  1  0.110600  0.256100  0.748900  1.0  0.1022
  H  H20  1  0.814600  0.052100  0.877700  1.0  0.1261
  H  H21  1  0.249600  0.337200  0.656900  1.0  0.3958
  H  H22  1  0.807200  0.706400  0.829200  1.0  0.1132
  H  H23  1  0.007100  0.869100  0.792300  1.0  0.1498
  H  H24  1  0.679700  0.633200  0.641900  1.0  0.1203
  H  H25  1  0.228600  0.017700  0.814200  1.0  0.1221
  H  H26  1  0.419600  0.448800  0.788100  1.0  0.1059
  H  H27  1  0.610600  0.256100  0.751100  1.0  0.1022
  H  H28  1  0.314600  0.052100  0.622300  1.0  0.1255
  H  H29  1  0.250400  0.662800  0.156900  1.0  0.3966
  H  H30  1  0.692800  0.293600  0.329200  1.0  0.1136
  H  H31  1  0.492900  0.130900  0.292300  1.0  0.15
  H  H32  1  0.820300  0.366800  0.141900  1.0  0.1203
  H  H33  1  0.271400  0.982300  0.314200  1.0  0.1222
  H  H34  1  0.080400  0.551200  0.288100  1.0  0.1062
  H  H35  1  0.889400  0.743900  0.251100  1.0  0.102
  H  H36  1  0.185400  0.947900  0.122300  1.0  0.1253
  C  C37  1  0.748000  0.982700  0.283300  1.0  0.0668
  C  C38  1  0.523100  0.835600  0.321600  1.0  -0.108
  C  C39  1  0.574000  0.856000  0.206500  1.0  -0.1113
  C  C40  1  0.260800  0.338700  0.201400  1.0  -0.0356
  C  C41  1  0.992800  0.142500  0.252700  1.0  -0.1473
  C  C42  1  0.337400  0.382700  0.313800  1.0  0.008
  C  C43  1  0.420600  0.773200  0.375500  1.0  0.6379
  C  C44  1  0.233700  0.316800  0.268000  1.0  -0.0146
  C  C45  1  0.708200  0.946300  0.219800  1.0  -0.0829
  C  C46  1  0.419800  0.451300  0.109100  1.0  0.7597
  C  C47  1  0.535500  0.813000  0.136800  1.0  0.6881
  C  C48  1  0.466200  0.472400  0.292700  1.0  -0.1676
  C  C49  1  0.390200  0.428300  0.180900  1.0  -0.1547
  C  C50  1  0.493000  0.493300  0.226000  1.0  0.0344
  C  C51  1  0.574100  0.542200  0.341600  1.0  0.639
  C  C52  1  0.098100  0.225100  0.289000  1.0  0.1414
  C  C53  1  0.480500  0.802200  0.257600  1.0  -0.0111
  C  C54  1  0.656900  0.925800  0.334900  1.0  -0.0562
  C  C55  1  0.752000  0.017300  0.783300  1.0  0.0672
  C  C56  1  0.976900  0.164400  0.821600  1.0  -0.1084
  C  C57  1  0.926000  0.144000  0.706500  1.0  -0.1106
  C  C58  1  0.239200  0.661300  0.701400  1.0  -0.0362
  C  C59  1  0.507200  0.857500  0.752700  1.0  -0.1473
  C  C60  1  0.162600  0.617300  0.813800  1.0  0.0075
  C  C61  1  0.079400  0.226800  0.875500  1.0  0.6402
  C  C62  1  0.266300  0.683200  0.768000  1.0  -0.0154
  C  C63  1  0.791800  0.053700  0.719800  1.0  -0.0824
  C  C64  1  0.080200  0.548700  0.609100  1.0  0.7603
  C  C65  1  0.964500  0.187000  0.636800  1.0  0.6872
  C  C66  1  0.033800  0.527600  0.792700  1.0  -0.168
  C  C67  1  0.109800  0.571700  0.680900  1.0  -0.155
  C  C68  1  0.007000  0.506700  0.726000  1.0  0.0346
  C  C69  1  0.925900  0.457800  0.841600  1.0  0.6385
  C  C70  1  0.401900  0.774900  0.789000  1.0  0.1417
  C  C71  1  0.019500  0.197800  0.757600  1.0  -0.0101
  C  C72  1  0.843100  0.074200  0.834900  1.0  -0.0562
  C  C73  1  0.252000  0.017300  0.716700  1.0  0.0665
  C  C74  1  0.476900  0.164400  0.678400  1.0  -0.1092
  C  C75  1  0.426000  0.144000  0.793500  1.0  -0.1103
  C  C76  1  0.739200  0.661300  0.798600  1.0  -0.0362
  C  C77  1  0.007200  0.857500  0.747300  1.0  -0.147
  C  C78  1  0.662600  0.617300  0.686200  1.0  0.007
  C  C79  1  0.579400  0.226800  0.624500  1.0  0.6329
  C  C80  1  0.766300  0.683200  0.732000  1.0  -0.0151
  C  C81  1  0.291800  0.053700  0.780200  1.0  -0.0832
  C  C82  1  0.580200  0.548700  0.890900  1.0  0.7621
  C  C83  1  0.464500  0.187000  0.863200  1.0  0.6887
  C  C84  1  0.533800  0.527600  0.707300  1.0  -0.1691
  C  C85  1  0.609800  0.571700  0.819100  1.0  -0.1558
  C  C86  1  0.507000  0.506700  0.774000  1.0  0.0342
  C  C87  1  0.425900  0.457800  0.658400  1.0  0.6391
  C  C88  1  0.901900  0.774900  0.711000  1.0  0.1406
  C  C89  1  0.519500  0.197800  0.742400  1.0  -0.0104
  C  C90  1  0.343100  0.074200  0.665100  1.0  -0.0526
  C  C91  1  0.248000  0.982700  0.216700  1.0  0.0666
  C  C92  1  0.023100  0.835600  0.178400  1.0  -0.1089
  C  C93  1  0.074000  0.856000  0.293500  1.0  -0.1109
  C  C94  1  0.760800  0.338700  0.298600  1.0  -0.0362
  C  C95  1  0.492800  0.142500  0.247300  1.0  -0.1468
  C  C96  1  0.837400  0.382700  0.186200  1.0  0.0102
  C  C97  1  0.920600  0.773200  0.124500  1.0  0.634
  C  C98  1  0.733700  0.316800  0.232000  1.0  -0.0153
  C  C99  1  0.208200  0.946300  0.280200  1.0  -0.0837
  C  C100  1  0.919800  0.451300  0.390900  1.0  0.7625
  C  C101  1  0.035500  0.813000  0.363200  1.0  0.6859
  C  C102  1  0.966200  0.472400  0.207300  1.0  -0.1689
  C  C103  1  0.890200  0.428300  0.319100  1.0  -0.1557
  C  C104  1  0.993000  0.493300  0.274000  1.0  0.0345
  C  C105  1  0.074100  0.542200  0.158400  1.0  0.6389
  C  C106  1  0.598100  0.225100  0.211000  1.0  0.1414
  C  C107  1  0.980500  0.802200  0.242400  1.0  -0.0113
  C  C108  1  0.156900  0.925800  0.165100  1.0  -0.0541
  N  N109  1  0.929000  0.125600  0.356800  1.0  -0.1419
  N  N110  1  0.056500  0.213600  0.353200  1.0  -0.2015
  N  N111  1  0.886600  0.079700  0.295700  1.0  0.1737
  N  N112  1  0.571000  0.874400  0.856800  1.0  -0.1413
  N  N113  1  0.443500  0.786400  0.853200  1.0  -0.2034
  N  N114  1  0.613400  0.920300  0.795700  1.0  0.1732
  N  N115  1  0.071000  0.874400  0.643200  1.0  -0.1411
  N  N116  1  0.943500  0.786400  0.646800  1.0  -0.2034
  N  N117  1  0.113400  0.920300  0.704300  1.0  0.1719
  N  N118  1  0.429000  0.125600  0.143200  1.0  -0.1416
  N  N119  1  0.556500  0.213600  0.146800  1.0  -0.1997
  N  N120  1  0.386600  0.079700  0.204300  1.0  0.1717
  O  O121  1  0.321600  0.393600  0.070100  1.0  -0.706
  O  O122  1  0.689500  0.621700  0.314200  1.0  -0.5088
  O  O123  1  0.406300  0.761700  0.120000  1.0  -0.5097
  O  O124  1  0.438800  0.820500  0.432300  1.0  -0.6064
  O  O125  1  0.316000  0.674100  0.363100  1.0  -0.5837
  O  O126  1  0.541000  0.525700  0.091700  1.0  -0.6992
  O  O127  1  0.641100  0.832200  0.098600  1.0  -0.6449
  O  O128  1  0.559600  0.530100  0.400000  1.0  -0.4643
  O  O129  1  0.178400  0.606400  0.570100  1.0  -0.7064
  O  O130  1  0.810500  0.378300  0.814200  1.0  -0.5092
  O  O131  1  0.093700  0.238300  0.620000  1.0  -0.5091
  O  O132  1  0.061200  0.179500  0.932300  1.0  -0.6046
  O  O133  1  0.184000  0.325900  0.863100  1.0  -0.5826
  O  O134  1  0.959000  0.474300  0.591700  1.0  -0.6991
  O  O135  1  0.858900  0.167800  0.598600  1.0  -0.6453
  O  O136  1  0.940400  0.469900  0.900000  1.0  -0.4643
  O  O137  1  0.678400  0.606400  0.929900  1.0  -0.7059
  O  O138  1  0.310500  0.378300  0.685800  1.0  -0.5089
  O  O139  1  0.593700  0.238300  0.880000  1.0  -0.5124
  O  O140  1  0.561200  0.179500  0.567700  1.0  -0.5981
  O  O141  1  0.684000  0.325900  0.636900  1.0  -0.5744
  O  O142  1  0.459000  0.474300  0.908300  1.0  -0.7005
  O  O143  1  0.358900  0.167800  0.901400  1.0  -0.6446
  O  O144  1  0.440400  0.469900  0.600000  1.0  -0.4629
  O  O145  1  0.821600  0.393600  0.429900  1.0  -0.7054
  O  O146  1  0.189500  0.621700  0.185800  1.0  -0.5089
  O  O147  1  0.906300  0.761700  0.380000  1.0  -0.512
  O  O148  1  0.938800  0.820500  0.067700  1.0  -0.6003
  O  O149  1  0.816000  0.674100  0.136900  1.0  -0.5739
  O  O150  1  0.041000  0.525700  0.408300  1.0  -0.6995
  O  O151  1  0.141100  0.832200  0.401400  1.0  -0.6443
  O  O152  1  0.059600  0.530100  0.100000  1.0  -0.4628
