# generated using pymatgen
data_CoH2(CO2)2
_symmetry_space_group_name_H-M   'P 1'
_cell_length_a   15.20500000
_cell_length_b   18.00500000
_cell_length_c   21.50000000
_cell_angle_alpha   71.21000000
_cell_angle_beta   84.47000000
_cell_angle_gamma   67.15000000
_symmetry_Int_Tables_number   1
_chemical_formula_structural   CoH2(CO2)2
_chemical_formula_sum   'Co36 H72 C72 O144'
_cell_volume   5132.21144383
_cell_formula_units_Z   36
loop_
 _symmetry_equiv_pos_site_id
 _symmetry_equiv_pos_as_xyz
  1  'x, y, z'
loop_
 _atom_site_type_symbol
 _atom_site_label
 _atom_site_symmetry_multiplicity
 _atom_site_fract_x
 _atom_site_fract_y
 _atom_site_fract_z
 _atom_site_occupancy
 _atom_site_charge
  Co  Co1  1  0.524630  0.635770  0.730480  1.0  1.1109
  Co  Co2  1  0.237810  0.349050  0.516900  1.0  1.078
  Co  Co3  1  0.141820  0.031170  0.603050  1.0  1.1228
  Co  Co4  1  0.219630  0.175170  0.520770  1.0  1.0424
  Co  Co5  1  0.636720  0.592600  0.603740  1.0  1.1066
  Co  Co6  1  0.904770  0.015790  0.850300  1.0  1.0756
  Co  Co7  1  0.696840  0.740290  0.063110  1.0  1.1154
  Co  Co8  1  0.808820  0.697770  0.936350  1.0  1.1036
  Co  Co9  1  0.446930  0.490870  0.812280  1.0  1.118
  Co  Co10  1  0.886100  0.842250  0.854370  1.0  1.11
  Co  Co11  1  0.029820  0.073640  0.729770  1.0  1.1287
  Co  Co12  1  0.571170  0.682480  0.183580  1.0  1.0782
  Co  Co13  1  0.333700  0.333280  0.666667  1.0  1.0909
  Co  Co14  1  0.333500  0.833400  0.666900  1.0  1.1168
  Co  Co15  1  0.666667  0.666667  0.833160  1.0  1.0808
  Co  Co16  1  0.666400  0.166680  0.833420  1.0  1.0933
  Co  Co17  1  0.475370  0.364230  0.269520  1.0  1.111
  Co  Co18  1  0.762190  0.650950  0.483100  1.0  1.0813
  Co  Co19  1  0.858180  0.968830  0.396950  1.0  1.123
  Co  Co20  1  0.780370  0.824830  0.479230  1.0  1.0415
  Co  Co21  1  0.363280  0.407400  0.396260  1.0  1.1058
  Co  Co22  1  0.095230  0.984210  0.149700  1.0  1.076
  Co  Co23  1  0.303160  0.259710  0.936890  1.0  1.1166
  Co  Co24  1  0.191180  0.302230  0.063650  1.0  1.105
  Co  Co25  1  0.553070  0.509130  0.187720  1.0  1.1196
  Co  Co26  1  0.113900  0.157750  0.145630  1.0  1.1105
  Co  Co27  1  0.970180  0.926360  0.270230  1.0  1.1293
  Co  Co28  1  0.428830  0.317520  0.816420  1.0  1.079
  Co  Co29  1  0.666300  0.666667  0.333333  1.0  1.0896
  Co  Co30  1  0.666500  0.166600  0.333100  1.0  1.1171
  Co  Co31  1  0.333333  0.333370  0.166840  1.0  1.0819
  Co  Co32  1  0.333600  0.833320  0.166580  1.0  1.0951
  Co  Co33  1  0.000000  0.000000  0.000000  1.0  1.1495
  Co  Co34  1  0.000000  0.500000  0.000000  1.0  1.0841
  Co  Co35  1  0.000000  0.000000  0.500000  1.0  1.1251
  Co  Co36  1  0.000000  0.500000  0.500000  1.0  1.1557
  H  H37  1  0.789700  0.611100  0.677400  1.0  0.0437
  H  H38  1  0.583800  0.551400  0.917800  1.0  0.0227
  H  H39  1  0.748400  0.783100  0.750700  1.0  0.0096
  H  H40  1  0.608300  0.350800  0.907500  1.0  0.0091
  H  H41  1  0.183700  0.801200  0.620800  1.0  0.0154
  H  H42  1  0.423900  0.685800  0.557100  1.0  0.0229
  H  H43  1  0.354200  0.537200  0.676600  1.0  0.0123
  H  H44  1  0.714400  0.991800  0.759200  1.0  0.0039
  H  H45  1  0.935000  0.317400  0.114300  1.0  0.0114
  H  H46  1  0.485300  0.862700  0.718200  1.0  0.0169
  H  H47  1  0.544200  0.727300  0.986300  1.0  0.0013
  H  H48  1  0.842300  0.465500  0.962800  1.0  0.0198
  H  H49  1  0.313800  0.129700  0.658900  1.0  0.0018
  H  H50  1  0.609400  0.232500  0.697300  1.0  0.0077
  H  H51  1  0.754600  0.552100  0.079300  1.0  0.0155
  H  H52  1  0.400600  0.011700  0.539000  1.0  0.042
  H  H53  1  0.838700  0.234600  0.706700  1.0  0.0098
  H  H54  1  0.247400  0.969200  0.780700  1.0  0.0111
  H  H55  1  0.716900  0.937400  0.932600  1.0  0.0545
  H  H56  1  0.722600  0.106200  0.971700  1.0  0.0624
  H  H57  1  0.611900  0.399900  0.731600  1.0  0.0087
  H  H58  1  0.056900  0.436700  0.640100  1.0  0.0079
  H  H59  1  0.177000  0.565700  0.378900  1.0  0.0014
  H  H60  1  0.087500  0.881400  0.750500  1.0  0.0064
  H  H61  1  0.496300  0.097800  0.957400  1.0  0.0105
  H  H62  1  0.047500  0.269800  0.596800  1.0  0.0208
  H  H63  1  0.905700  0.645300  0.111700  1.0  0.0448
  H  H64  1  0.262300  0.659500  0.783100  1.0  0.0162
  H  H65  1  0.432900  0.210700  0.421000  1.0  0.043
  H  H66  1  0.021300  0.205100  0.008500  1.0  0.055
  H  H67  1  0.110900  0.065300  0.897300  1.0  0.014
  H  H68  1  0.226500  0.260800  0.771800  1.0  0.0052
  H  H69  1  0.435200  0.410300  0.559800  1.0  -0.0028
  H  H70  1  0.073400  0.121500  0.418100  1.0  0.0286
  H  H71  1  0.047300  0.314800  0.430500  1.0  0.0573
  H  H72  1  0.880700  0.052000  0.654300  1.0  0.0062
  H  H73  1  0.210300  0.388900  0.322600  1.0  0.0428
  H  H74  1  0.416200  0.448600  0.082200  1.0  0.0236
  H  H75  1  0.251600  0.216900  0.249300  1.0  0.0088
  H  H76  1  0.391700  0.649200  0.092500  1.0  0.0096
  H  H77  1  0.816300  0.198800  0.379200  1.0  0.0152
  H  H78  1  0.576100  0.314200  0.442900  1.0  0.0234
  H  H79  1  0.645800  0.462800  0.323400  1.0  0.0127
  H  H80  1  0.285600  0.008200  0.240800  1.0  0.0048
  H  H81  1  0.065000  0.682600  0.885700  1.0  0.0101
  H  H82  1  0.514700  0.137300  0.281800  1.0  0.0145
  H  H83  1  0.455800  0.272700  0.013700  1.0  0.0026
  H  H84  1  0.157700  0.534500  0.037200  1.0  0.0198
  H  H85  1  0.686200  0.870300  0.341100  1.0  0.0022
  H  H86  1  0.390600  0.767500  0.302700  1.0  0.0085
  H  H87  1  0.245400  0.447900  0.920700  1.0  0.0155
  H  H88  1  0.599400  0.988300  0.461000  1.0  0.0418
  H  H89  1  0.161300  0.765400  0.293300  1.0  0.0086
  H  H90  1  0.752600  0.030800  0.219300  1.0  0.0113
  H  H91  1  0.283100  0.062600  0.067400  1.0  0.0545
  H  H92  1  0.277400  0.893800  0.028300  1.0  0.0622
  H  H93  1  0.388100  0.600100  0.268400  1.0  0.0086
  H  H94  1  0.943100  0.563300  0.359900  1.0  0.0066
  H  H95  1  0.823000  0.434300  0.621100  1.0  0.0004
  H  H96  1  0.912500  0.118600  0.249500  1.0  0.0063
  H  H97  1  0.503700  0.902200  0.042600  1.0  0.0107
  H  H98  1  0.952500  0.730200  0.403200  1.0  0.0212
  H  H99  1  0.094300  0.354700  0.888300  1.0  0.0451
  H  H100  1  0.737700  0.340500  0.216900  1.0  0.0161
  H  H101  1  0.567100  0.789300  0.579000  1.0  0.0429
  H  H102  1  0.978700  0.794900  0.991500  1.0  0.0538
  H  H103  1  0.889100  0.934700  0.102700  1.0  0.0142
  H  H104  1  0.773500  0.739200  0.228200  1.0  0.0054
  H  H105  1  0.564800  0.589700  0.440200  1.0  -0.0032
  H  H106  1  0.926600  0.878500  0.581900  1.0  0.0274
  H  H107  1  0.952700  0.685200  0.569500  1.0  0.0573
  H  H108  1  0.119300  0.948000  0.345700  1.0  0.0088
  C  C109  1  0.738900  0.619400  0.705600  1.0  0.6527
  C  C110  1  0.558000  0.555200  0.878900  1.0  0.6769
  C  C111  1  0.774700  0.778800  0.789600  1.0  0.7311
  C  C112  1  0.592900  0.321800  0.884200  1.0  0.725
  C  C113  1  0.154500  0.859900  0.604200  1.0  0.6817
  C  C114  1  0.425400  0.700400  0.594700  1.0  0.6827
  C  C115  1  0.361000  0.480800  0.694400  1.0  0.6886
  C  C116  1  0.734100  0.018500  0.782500  1.0  0.6921
  C  C117  1  0.979800  0.340300  0.094700  1.0  0.659
  C  C118  1  0.516500  0.804000  0.731600  1.0  0.7001
  C  C119  1  0.596300  0.715000  0.959600  1.0  0.6845
  C  C120  1  0.818900  0.523600  0.941500  1.0  0.6786
  C  C121  1  0.306800  0.186200  0.640900  1.0  0.671
  C  C122  1  0.548500  0.256000  0.712300  1.0  0.6856
  C  C123  1  0.706200  0.561700  0.109200  1.0  0.7049
  C  C124  1  0.359300  0.990400  0.566700  1.0  0.6689
  C  C125  1  0.825100  0.196800  0.743600  1.0  0.7187
  C  C126  1  0.245200  0.961000  0.740400  1.0  0.7204
  C  C127  1  0.726300  0.880500  0.951200  1.0  0.6469
  C  C128  1  0.782900  0.079600  0.957400  1.0  0.6683
  C  C129  1  0.604900  0.456500  0.714200  1.0  0.7269
  C  C130  1  0.117300  0.412400  0.624800  1.0  0.691
  C  C131  1  0.161500  0.526800  0.413800  1.0  0.7057
  C  C132  1  0.037600  0.892400  0.779100  1.0  0.6686
  C  C133  1  0.510100  0.136400  0.921300  1.0  0.7078
  C  C134  1  0.058800  0.212600  0.616500  1.0  0.7145
  C  C135  1  0.904900  0.633300  0.072800  1.0  0.679
  C  C136  1  0.308600  0.679700  0.762100  1.0  0.6772
  C  C137  1  0.378000  0.223900  0.445200  1.0  0.6583
  C  C138  1  0.027500  0.148800  0.026500  1.0  0.662
  C  C139  1  0.070600  0.062200  0.869100  1.0  0.6878
  C  C140  1  0.264800  0.267900  0.799000  1.0  0.6947
  C  C141  1  0.399700  0.400000  0.533000  1.0  0.6876
  C  C142  1  0.105400  0.112900  0.456100  1.0  0.6856
  C  C143  1  0.067300  0.345400  0.449600  1.0  0.6481
  C  C144  1  0.930200  0.046000  0.625000  1.0  0.6922
  C  C145  1  0.261100  0.380600  0.294400  1.0  0.6542
  C  C146  1  0.442000  0.444800  0.121100  1.0  0.6781
  C  C147  1  0.225300  0.221200  0.210400  1.0  0.7299
  C  C148  1  0.407100  0.678200  0.115800  1.0  0.726
  C  C149  1  0.845500  0.140100  0.395800  1.0  0.6812
  C  C150  1  0.574600  0.299600  0.405300  1.0  0.6806
  C  C151  1  0.639000  0.519200  0.305600  1.0  0.689
  C  C152  1  0.265900  0.981500  0.217500  1.0  0.6915
  C  C153  1  0.020200  0.659700  0.905300  1.0  0.6561
  C  C154  1  0.483500  0.196000  0.268400  1.0  0.7009
  C  C155  1  0.403700  0.285000  0.040400  1.0  0.6846
  C  C156  1  0.181100  0.476400  0.058500  1.0  0.6784
  C  C157  1  0.693200  0.813800  0.359100  1.0  0.6694
  C  C158  1  0.451500  0.744000  0.287700  1.0  0.6848
  C  C159  1  0.293800  0.438300  0.890800  1.0  0.7048
  C  C160  1  0.640700  0.009600  0.433300  1.0  0.6707
  C  C161  1  0.174900  0.803200  0.256400  1.0  0.7187
  C  C162  1  0.754800  0.039000  0.259600  1.0  0.7228
  C  C163  1  0.273700  0.119500  0.048800  1.0  0.6467
  C  C164  1  0.217100  0.920400  0.042600  1.0  0.669
  C  C165  1  0.395100  0.543500  0.285800  1.0  0.7272
  C  C166  1  0.882700  0.587600  0.375200  1.0  0.69
  C  C167  1  0.838500  0.473200  0.586200  1.0  0.7064
  C  C168  1  0.962400  0.107600  0.220900  1.0  0.668
  C  C169  1  0.489900  0.863600  0.078700  1.0  0.7088
  C  C170  1  0.941200  0.787400  0.383500  1.0  0.7127
  C  C171  1  0.095100  0.366700  0.927200  1.0  0.6822
  C  C172  1  0.691400  0.320300  0.237900  1.0  0.6748
  C  C173  1  0.622000  0.776100  0.554800  1.0  0.6584
  C  C174  1  0.972500  0.851200  0.973500  1.0  0.6635
  C  C175  1  0.929400  0.937800  0.130900  1.0  0.6892
  C  C176  1  0.735200  0.732100  0.201000  1.0  0.6945
  C  C177  1  0.600300  0.600000  0.467000  1.0  0.6884
  C  C178  1  0.894600  0.887100  0.543900  1.0  0.6849
  C  C179  1  0.932700  0.654600  0.550400  1.0  0.6481
  C  C180  1  0.069800  0.954000  0.375000  1.0  0.691
  O  O181  1  0.013300  0.420300  0.445000  1.0  -0.6048
  O  O182  1  0.311400  0.906700  0.728400  1.0  -0.5684
  O  O183  1  0.354400  0.762400  0.602000  1.0  -0.594
  O  O184  1  0.330500  0.451900  0.659700  1.0  -0.5998
  O  O185  1  0.997000  0.118100  0.994000  1.0  -0.5927
  O  O186  1  0.679200  0.087300  0.779100  1.0  -0.5744
  O  O187  1  0.336900  0.214500  0.675500  1.0  -0.5871
  O  O188  1  0.652400  0.248900  0.888300  1.0  -0.592
  O  O189  1  0.948500  0.420100  0.070300  1.0  -0.642
  O  O190  1  0.976000  0.572200  0.061900  1.0  -0.6
  O  O191  1  0.388900  0.913600  0.596800  1.0  -0.5986
  O  O192  1  0.749900  0.629600  0.757700  1.0  -0.6148
  O  O193  1  0.913000  0.037100  0.575100  1.0  -0.5823
  O  O194  1  0.749400  0.223300  0.767100  1.0  -0.5744
  O  O195  1  0.582100  0.701900  0.908200  1.0  -0.5996
  O  O196  1  0.281100  0.755200  0.737800  1.0  -0.5872
  O  O197  1  0.082800  0.555400  0.435000  1.0  -0.5865
  O  O198  1  0.346200  0.295200  0.456200  1.0  -0.6485
  O  O199  1  0.585600  0.111200  0.898700  1.0  -0.5758
  O  O200  1  0.671500  0.503800  0.133500  1.0  -0.6203
  O  O201  1  0.851900  0.046300  0.997400  1.0  -0.6143
  O  O202  1  0.890400  0.121500  0.763700  1.0  -0.665
  O  O203  1  0.338500  0.169200  0.465700  1.0  -0.603
  O  O204  1  0.749100  0.553700  0.902000  1.0  -0.616
  O  O205  1  0.689700  0.858000  0.006800  1.0  -0.59
  O  O206  1  0.586500  0.780400  0.763100  1.0  -0.5813
  O  O207  1  0.015000  0.962200  0.790600  1.0  -0.6576
  O  O208  1  0.248400  0.248400  0.858000  1.0  -0.5871
  O  O209  1  0.081000  0.889000  0.567800  1.0  -0.6104
  O  O210  1  0.680600  0.629200  0.122200  1.0  -0.6526
  O  O211  1  0.511300  0.509900  0.882400  1.0  -0.6011
  O  O212  1  0.021400  0.192800  0.670800  1.0  -0.6026
  O  O213  1  0.004200  0.836500  0.799600  1.0  -0.5911
  O  O214  1  0.185700  0.379900  0.664000  1.0  -0.6082
  O  O215  1  0.169400  0.010800  0.703100  1.0  -0.6579
  O  O216  1  0.481700  0.287400  0.670600  1.0  -0.6038
  O  O217  1  0.833800  0.678300  0.034100  1.0  -0.686
  O  O218  1  0.498800  0.655300  0.632600  1.0  -0.704
  O  O219  1  0.225300  0.454000  0.430700  1.0  -0.66
  O  O220  1  0.417800  0.417400  0.475300  1.0  -0.5831
  O  O221  1  0.820300  0.822600  0.785300  1.0  -0.5827
  O  O222  1  0.443400  0.212600  0.901500  1.0  -0.6641
  O  O223  1  0.085100  0.084000  0.809500  1.0  -0.5826
  O  O224  1  0.155000  0.156000  0.451900  1.0  -0.5976
  O  O225  1  0.095200  0.058200  0.508500  1.0  -0.6509
  O  O226  1  0.643100  0.475900  0.662000  1.0  -0.5845
  O  O227  1  0.790500  0.079200  0.896800  1.0  -0.6355
  O  O228  1  0.148000  0.309800  0.479400  1.0  -0.662
  O  O229  1  0.759400  0.727700  0.841900  1.0  -0.6476
  O  O230  1  0.671200  0.713400  0.978900  1.0  -0.6581
  O  O231  1  0.572500  0.605900  0.826000  1.0  -0.6461
  O  O232  1  0.110400  0.162200  0.586200  1.0  -0.6517
  O  O233  1  0.068400  0.106400  0.085400  1.0  -0.6883
  O  O234  1  0.007400  0.048500  0.644600  1.0  -0.6901
  O  O235  1  0.393500  0.621700  0.763700  1.0  -0.6649
  O  O236  1  0.267600  0.223500  0.584100  1.0  -0.6452
  O  O237  1  0.328600  0.297100  0.770100  1.0  -0.6701
  O  O238  1  0.659600  0.619600  0.688200  1.0  -0.6456
  O  O239  1  0.193200  0.902700  0.620900  1.0  -0.6441
  O  O240  1  0.516800  0.359100  0.853100  1.0  -0.6656
  O  O241  1  0.338300  0.369200  0.562200  1.0  -0.6636
  O  O242  1  0.816200  0.973000  0.812500  1.0  -0.7186
  O  O243  1  0.123000  0.415200  0.564100  1.0  -0.6371
  O  O244  1  0.860600  0.567000  0.954700  1.0  -0.6817
  O  O245  1  0.544300  0.252000  0.771800  1.0  -0.6644
  O  O246  1  0.274700  0.042300  0.571700  1.0  -0.6443
  O  O247  1  0.557700  0.504400  0.746700  1.0  -0.6571
  O  O248  1  0.003900  0.035800  0.895000  1.0  -0.6545
  O  O249  1  0.472700  0.766200  0.711300  1.0  -0.6662
  O  O250  1  0.059100  0.291200  0.095700  1.0  -0.6414
  O  O251  1  0.400400  0.442100  0.751100  1.0  -0.6625
  O  O252  1  0.776100  0.828200  0.919000  1.0  -0.6876
  O  O253  1  0.986700  0.579700  0.555000  1.0  -0.604
  O  O254  1  0.688600  0.093300  0.271600  1.0  -0.5683
  O  O255  1  0.645600  0.237600  0.398000  1.0  -0.5938
  O  O256  1  0.669500  0.548100  0.340300  1.0  -0.6015
  O  O257  1  0.003000  0.881900  0.006000  1.0  -0.593
  O  O258  1  0.320800  0.912700  0.220900  1.0  -0.5724
  O  O259  1  0.663100  0.785500  0.324500  1.0  -0.5875
  O  O260  1  0.347600  0.751100  0.111700  1.0  -0.5925
  O  O261  1  0.051500  0.579900  0.929700  1.0  -0.6403
  O  O262  1  0.024000  0.427800  0.938100  1.0  -0.6003
  O  O263  1  0.611100  0.086400  0.403200  1.0  -0.598
  O  O264  1  0.250100  0.370400  0.242300  1.0  -0.6129
  O  O265  1  0.087000  0.962900  0.424900  1.0  -0.5848
  O  O266  1  0.250600  0.776700  0.232900  1.0  -0.5746
  O  O267  1  0.417900  0.298100  0.091800  1.0  -0.6014
  O  O268  1  0.718900  0.244800  0.262200  1.0  -0.5887
  O  O269  1  0.917200  0.444600  0.565000  1.0  -0.5871
  O  O270  1  0.653800  0.704800  0.543800  1.0  -0.6493
  O  O271  1  0.414400  0.888800  0.101300  1.0  -0.5764
  O  O272  1  0.328500  0.496200  0.866500  1.0  -0.6193
  O  O273  1  0.148100  0.953700  0.002600  1.0  -0.6151
  O  O274  1  0.109600  0.878500  0.236300  1.0  -0.6639
  O  O275  1  0.661500  0.830800  0.534300  1.0  -0.6048
  O  O276  1  0.250900  0.446300  0.098000  1.0  -0.6169
  O  O277  1  0.310300  0.142000  0.993200  1.0  -0.5885
  O  O278  1  0.413500  0.219600  0.236900  1.0  -0.5803
  O  O279  1  0.985000  0.037800  0.209400  1.0  -0.6585
  O  O280  1  0.751600  0.751600  0.142000  1.0  -0.5886
  O  O281  1  0.919000  0.111000  0.432200  1.0  -0.6103
  O  O282  1  0.319400  0.370800  0.877800  1.0  -0.6538
  O  O283  1  0.488700  0.490100  0.117600  1.0  -0.6002
  O  O284  1  0.978600  0.807200  0.329200  1.0  -0.6024
  O  O285  1  0.995800  0.163500  0.200400  1.0  -0.5911
  O  O286  1  0.814300  0.620100  0.336000  1.0  -0.6073
  O  O287  1  0.830600  0.989200  0.296900  1.0  -0.6582
  O  O288  1  0.518300  0.712600  0.329400  1.0  -0.6053
  O  O289  1  0.166200  0.321700  0.965900  1.0  -0.6868
  O  O290  1  0.501200  0.344700  0.367400  1.0  -0.7031
  O  O291  1  0.774700  0.546000  0.569300  1.0  -0.6612
  O  O292  1  0.582200  0.582600  0.524700  1.0  -0.5821
  O  O293  1  0.179700  0.177400  0.214700  1.0  -0.5818
  O  O294  1  0.556600  0.787400  0.098500  1.0  -0.6646
  O  O295  1  0.914900  0.916000  0.190500  1.0  -0.5821
  O  O296  1  0.845000  0.844000  0.548100  1.0  -0.5972
  O  O297  1  0.904800  0.941800  0.491500  1.0  -0.6521
  O  O298  1  0.356900  0.524100  0.338000  1.0  -0.5847
  O  O299  1  0.209500  0.920800  0.103200  1.0  -0.6355
  O  O300  1  0.852000  0.690200  0.520600  1.0  -0.6622
  O  O301  1  0.240600  0.272300  0.158100  1.0  -0.6476
  O  O302  1  0.328800  0.286600  0.021100  1.0  -0.6582
  O  O303  1  0.427500  0.394100  0.174000  1.0  -0.6467
  O  O304  1  0.889600  0.837800  0.413800  1.0  -0.6503
  O  O305  1  0.931600  0.893600  0.914600  1.0  -0.6872
  O  O306  1  0.992600  0.951500  0.355400  1.0  -0.6901
  O  O307  1  0.606500  0.378300  0.236300  1.0  -0.665
  O  O308  1  0.732400  0.776500  0.415900  1.0  -0.6459
  O  O309  1  0.671400  0.702900  0.229900  1.0  -0.669
  O  O310  1  0.340400  0.380400  0.311800  1.0  -0.6463
  O  O311  1  0.806800  0.097300  0.379100  1.0  -0.6447
  O  O312  1  0.483200  0.640900  0.146900  1.0  -0.6663
  O  O313  1  0.661700  0.630800  0.437800  1.0  -0.663
  O  O314  1  0.183800  0.027000  0.187500  1.0  -0.7172
  O  O315  1  0.877000  0.584800  0.435900  1.0  -0.6376
  O  O316  1  0.139400  0.433000  0.045300  1.0  -0.6813
  O  O317  1  0.455700  0.748000  0.228200  1.0  -0.6639
  O  O318  1  0.725300  0.957700  0.428300  1.0  -0.6443
  O  O319  1  0.442300  0.495600  0.253300  1.0  -0.6588
  O  O320  1  0.996100  0.964200  0.105000  1.0  -0.6552
  O  O321  1  0.527300  0.233800  0.288700  1.0  -0.6659
  O  O322  1  0.940900  0.708800  0.904300  1.0  -0.6393
  O  O323  1  0.599600  0.557900  0.248900  1.0  -0.6615
  O  O324  1  0.223900  0.171800  0.081000  1.0  -0.6857
