# generated using pymatgen
data_Zn3H6C18O13
_symmetry_space_group_name_H-M   'P 1'
_cell_length_a   17.07130000
_cell_length_b   17.07130000
_cell_length_c   17.07130000
_cell_angle_alpha   105.83000000
_cell_angle_beta   105.83000000
_cell_angle_gamma   117.02900000
_symmetry_Int_Tables_number   1
_chemical_formula_structural   Zn3H6C18O13
_chemical_formula_sum   'Zn12 H24 C72 O52'
_cell_volume   3779.19138672
_cell_formula_units_Z   4
loop_
 _symmetry_equiv_pos_site_id
 _symmetry_equiv_pos_as_xyz
  1  'x, y, z'
loop_
 _atom_site_type_symbol
 _atom_site_label
 _atom_site_symmetry_multiplicity
 _atom_site_fract_x
 _atom_site_fract_y
 _atom_site_fract_z
 _atom_site_occupancy
 _atom_site_charge
  Zn  Zn1  1  0.161400  0.298710  0.622950  1.0  1.0783
  Zn  Zn2  1  0.675760  0.538450  0.377050  1.0  1.0799
  Zn  Zn3  1  0.538450  0.161400  0.862690  1.0  1.0797
  Zn  Zn4  1  0.298710  0.675760  0.137310  1.0  1.0769
  Zn  Zn5  1  0.175760  0.798710  0.137310  1.0  1.0784
  Zn  Zn6  1  0.661400  0.038450  0.862690  1.0  1.0761
  Zn  Zn7  1  0.798710  0.661400  0.622950  1.0  1.0796
  Zn  Zn8  1  0.038450  0.175760  0.377050  1.0  1.0796
  Zn  Zn9  1  0.929660  0.115820  0.500000  1.0  1.0646
  Zn  Zn10  1  0.615820  0.429660  0.500000  1.0  1.064
  Zn  Zn11  1  0.429660  0.929660  0.813840  1.0  1.0644
  Zn  Zn12  1  0.115820  0.615820  0.186160  1.0  1.0617
  H  H13  1  0.940600  0.332900  0.965100  1.0  0.1153
  H  H14  1  0.857300  0.171500  0.699800  1.0  0.1231
  H  H15  1  0.122900  0.435800  0.857100  1.0  0.118
  H  H16  1  0.367800  0.975500  0.034900  1.0  0.114
  H  H17  1  0.471700  0.157500  0.300200  1.0  0.1224
  H  H18  1  0.578700  0.265800  0.142900  1.0  0.1203
  H  H19  1  0.975500  0.940600  0.607700  1.0  0.1142
  H  H20  1  0.157500  0.857300  0.685800  1.0  0.1229
  H  H21  1  0.265800  0.122900  0.687100  1.0  0.1185
  H  H22  1  0.332900  0.367800  0.392300  1.0  0.1156
  H  H23  1  0.171500  0.471700  0.314200  1.0  0.1226
  H  H24  1  0.435800  0.578700  0.312900  1.0  0.1186
  H  H25  1  0.867800  0.832900  0.392300  1.0  0.1137
  H  H26  1  0.971700  0.671500  0.314200  1.0  0.1233
  H  H27  1  0.078700  0.935800  0.312900  1.0  0.1189
  H  H28  1  0.440600  0.475500  0.607700  1.0  0.115
  H  H29  1  0.357300  0.657500  0.685800  1.0  0.123
  H  H30  1  0.622900  0.765800  0.687100  1.0  0.1185
  H  H31  1  0.832900  0.440600  0.965100  1.0  0.1151
  H  H32  1  0.671500  0.357300  0.699800  1.0  0.1224
  H  H33  1  0.935800  0.622900  0.857100  1.0  0.1189
  H  H34  1  0.475500  0.867800  0.034900  1.0  0.1158
  H  H35  1  0.657500  0.971700  0.300200  1.0  0.1226
  H  H36  1  0.765800  0.078700  0.142900  1.0  0.1196
  C  C37  1  0.042100  0.399900  0.924200  1.0  -0.1649
  C  C38  1  0.953900  0.325500  0.915200  1.0  0.0216
  C  C39  1  0.884700  0.239000  0.830700  1.0  -0.14
  C  C40  1  0.903900  0.228000  0.756100  1.0  0.0355
  C  C41  1  0.993500  0.302100  0.765600  1.0  -0.1357
  C  C42  1  0.062800  0.387300  0.850300  1.0  0.0312
  C  C43  1  0.978800  0.993100  0.378100  1.0  0.7257
  C  C44  1  0.790800  0.155100  0.820100  1.0  0.7065
  C  C45  1  0.017500  0.284500  0.686000  1.0  0.731
  C  C46  1  0.475700  0.117900  0.075800  1.0  -0.1668
  C  C47  1  0.410300  0.038700  0.084800  1.0  0.0255
  C  C48  1  0.408300  0.054000  0.169300  1.0  -0.1393
  C  C49  1  0.471900  0.147800  0.243900  1.0  0.0346
  C  C50  1  0.536500  0.227900  0.234400  1.0  -0.1378
  C  C51  1  0.537000  0.212500  0.149700  1.0  0.0309
  C  C52  1  0.615000  0.600700  0.621900  1.0  0.7257
  C  C53  1  0.335000  0.970700  0.179900  1.0  0.7084
  C  C54  1  0.598500  0.331500  0.314000  1.0  0.7306
  C  C55  1  0.117900  0.042100  0.642200  1.0  -0.1564
  C  C56  1  0.038700  0.953900  0.628400  1.0  0.0195
  C  C57  1  0.054000  0.884700  0.645700  1.0  -0.1401
  C  C58  1  0.147800  0.903900  0.675900  1.0  0.0404
  C  C59  1  0.227900  0.993500  0.691400  1.0  -0.1388
  C  C60  1  0.212500  0.062800  0.675500  1.0  0.03
  C  C61  1  0.600700  0.978800  0.985700  1.0  0.725
  C  C62  1  0.970700  0.790800  0.635700  1.0  0.7128
  C  C63  1  0.331500  0.017500  0.733000  1.0  0.7288
  C  C64  1  0.399900  0.475700  0.357800  1.0  -0.1563
  C  C65  1  0.325500  0.410300  0.371600  1.0  0.0296
  C  C66  1  0.239000  0.408300  0.354300  1.0  -0.1408
  C  C67  1  0.228000  0.471900  0.324100  1.0  0.0369
  C  C68  1  0.302100  0.536500  0.308600  1.0  -0.1398
  C  C69  1  0.387300  0.537000  0.324500  1.0  0.0352
  C  C70  1  0.993100  0.615000  0.014300  1.0  0.7226
  C  C71  1  0.155100  0.335000  0.364300  1.0  0.711
  C  C72  1  0.284500  0.598500  0.267000  1.0  0.7389
  C  C73  1  0.975700  0.899900  0.357800  1.0  -0.158
  C  C74  1  0.910300  0.825500  0.371600  1.0  0.0286
  C  C75  1  0.908300  0.739000  0.354300  1.0  -0.1409
  C  C76  1  0.971900  0.728000  0.324100  1.0  0.0413
  C  C77  1  0.036500  0.802100  0.308600  1.0  -0.1391
  C  C78  1  0.037000  0.887300  0.324500  1.0  0.0359
  C  C79  1  0.115000  0.493100  0.014300  1.0  0.723
  C  C80  1  0.835000  0.655100  0.364300  1.0  0.7099
  C  C81  1  0.098500  0.784500  0.267000  1.0  0.7398
  C  C82  1  0.542100  0.617900  0.642200  1.0  -0.1583
  C  C83  1  0.453900  0.538700  0.628400  1.0  0.0262
  C  C84  1  0.384700  0.554000  0.645700  1.0  -0.1405
  C  C85  1  0.403900  0.647800  0.675900  1.0  0.0374
  C  C86  1  0.493500  0.727900  0.691400  1.0  -0.1395
  C  C87  1  0.562800  0.712500  0.675500  1.0  0.0308
  C  C88  1  0.478800  0.100700  0.985700  1.0  0.7249
  C  C89  1  0.290800  0.470700  0.635700  1.0  0.7125
  C  C90  1  0.517500  0.831500  0.733000  1.0  0.7286
  C  C91  1  0.899900  0.542100  0.924200  1.0  -0.1638
  C  C92  1  0.825500  0.453900  0.915200  1.0  0.0212
  C  C93  1  0.739000  0.384700  0.830700  1.0  -0.1392
  C  C94  1  0.728000  0.403900  0.756100  1.0  0.0345
  C  C95  1  0.802100  0.493500  0.765600  1.0  -0.1358
  C  C96  1  0.887300  0.562800  0.850300  1.0  0.0301
  C  C97  1  0.493100  0.478800  0.378100  1.0  0.7252
  C  C98  1  0.655100  0.290800  0.820100  1.0  0.7082
  C  C99  1  0.784500  0.517500  0.686000  1.0  0.7316
  C  C100  1  0.617900  0.975700  0.075800  1.0  -0.1657
  C  C101  1  0.538700  0.910300  0.084800  1.0  0.0202
  C  C102  1  0.554000  0.908300  0.169300  1.0  -0.1401
  C  C103  1  0.647800  0.971900  0.243900  1.0  0.0351
  C  C104  1  0.727900  0.036500  0.234400  1.0  -0.1378
  C  C105  1  0.712500  0.037000  0.149700  1.0  0.0315
  C  C106  1  0.100700  0.115000  0.621900  1.0  0.7256
  C  C107  1  0.470700  0.835000  0.179900  1.0  0.7084
  C  C108  1  0.831500  0.098500  0.314000  1.0  0.7281
  O  O109  1  0.040400  0.058300  0.365700  1.0  -0.5669
  O  O110  1  0.918900  0.998600  0.403700  1.0  -0.6015
  O  O111  1  0.788100  0.153400  0.893900  1.0  -0.5888
  O  O112  1  0.723900  0.093300  0.743800  1.0  -0.4562
  O  O113  1  0.944300  0.225200  0.607900  1.0  -0.5947
  O  O114  1  0.109500  0.330400  0.706100  1.0  -0.5729
  O  O115  1  0.692600  0.674700  0.634300  1.0  -0.5656
  O  O116  1  0.594900  0.515200  0.596300  1.0  -0.601
  O  O117  1  0.259500  0.894200  0.106100  1.0  -0.5941
  O  O118  1  0.349500  0.980100  0.256200  1.0  -0.4539
  O  O119  1  0.617300  0.336400  0.392100  1.0  -0.5932
  O  O120  1  0.624300  0.403400  0.293900  1.0  -0.5722
  O  O121  1  0.674700  0.040400  0.982100  1.0  -0.5703
  O  O122  1  0.515200  0.918900  0.920300  1.0  -0.603
  O  O123  1  0.894200  0.788100  0.634700  1.0  -0.5919
  O  O124  1  0.980100  0.723900  0.630600  1.0  -0.4535
  O  O125  1  0.336400  0.944300  0.719100  1.0  -0.5895
  O  O126  1  0.403400  0.109500  0.779100  1.0  -0.5725
  O  O127  1  0.058300  0.692600  0.017900  1.0  -0.5706
  O  O128  1  0.998600  0.594900  0.079700  1.0  -0.6069
  O  O129  1  0.153400  0.259500  0.365300  1.0  -0.5926
  O  O130  1  0.093300  0.349500  0.369400  1.0  -0.4595
  O  O131  1  0.225200  0.617300  0.280900  1.0  -0.6015
  O  O132  1  0.330400  0.624300  0.220900  1.0  -0.5709
  O  O133  1  0.192600  0.558300  0.017900  1.0  -0.5699
  O  O134  1  0.094900  0.498600  0.079700  1.0  -0.6062
  O  O135  1  0.759500  0.653400  0.365300  1.0  -0.5913
  O  O136  1  0.849500  0.593300  0.369400  1.0  -0.4558
  O  O137  1  0.117300  0.725200  0.280900  1.0  -0.6004
  O  O138  1  0.124300  0.830400  0.220900  1.0  -0.573
  O  O139  1  0.540400  0.174700  0.982100  1.0  -0.5667
  O  O140  1  0.418900  0.015200  0.920300  1.0  -0.606
  O  O141  1  0.288100  0.394200  0.634700  1.0  -0.5925
  O  O142  1  0.223900  0.480100  0.630600  1.0  -0.4568
  O  O143  1  0.444300  0.836400  0.719100  1.0  -0.5913
  O  O144  1  0.609500  0.903400  0.779100  1.0  -0.5709
  O  O145  1  0.558300  0.540400  0.365700  1.0  -0.5665
  O  O146  1  0.498600  0.418900  0.403700  1.0  -0.6002
  O  O147  1  0.653400  0.288100  0.893900  1.0  -0.5899
  O  O148  1  0.593300  0.223900  0.743800  1.0  -0.4591
  O  O149  1  0.725200  0.444300  0.607900  1.0  -0.5918
  O  O150  1  0.830400  0.609500  0.706100  1.0  -0.5713
  O  O151  1  0.174700  0.192600  0.634300  1.0  -0.5654
  O  O152  1  0.015200  0.094900  0.596300  1.0  -0.602
  O  O153  1  0.394200  0.759500  0.106100  1.0  -0.5953
  O  O154  1  0.480100  0.849500  0.256200  1.0  -0.456
  O  O155  1  0.836400  0.117300  0.392100  1.0  -0.5936
  O  O156  1  0.903400  0.124300  0.293900  1.0  -0.5709
  O  O157  1  0.051090  0.231110  0.500000  1.0  -0.8036
  O  O158  1  0.731110  0.551090  0.500000  1.0  -0.8014
  O  O159  1  0.551090  0.051090  0.819980  1.0  -0.8019
  O  O160  1  0.231110  0.731110  0.180020  1.0  -0.8029
