# generated using pymatgen
data_Tb2P2H25C43O16
_symmetry_space_group_name_H-M   'P 1'
_cell_length_a   10.55730000
_cell_length_b   14.47940000
_cell_length_c   23.31600000
_cell_angle_alpha   107.31600000
_cell_angle_beta   90.00000000
_cell_angle_gamma   90.00000000
_symmetry_Int_Tables_number   1
_chemical_formula_structural   Tb2P2H25C43O16
_chemical_formula_sum   'Tb4 P4 H50 C86 O32'
_cell_volume   3402.62636154
_cell_formula_units_Z   2
loop_
 _symmetry_equiv_pos_site_id
 _symmetry_equiv_pos_as_xyz
  1  'x, y, z'
loop_
 _atom_site_type_symbol
 _atom_site_label
 _atom_site_symmetry_multiplicity
 _atom_site_fract_x
 _atom_site_fract_y
 _atom_site_fract_z
 _atom_site_occupancy
 _atom_site_charge
  Tb  Tb1  1  0.048050  0.425910  0.769970  1.0  2.2543
  Tb  Tb2  1  0.048050  0.074090  0.730030  1.0  2.2471
  Tb  Tb3  1  0.951950  0.574090  0.230030  1.0  2.2479
  Tb  Tb4  1  0.951950  0.925910  0.269970  1.0  2.2491
  P  P5  1  0.839730  0.598470  0.877980  1.0  1.0903
  P  P6  1  0.839730  0.901530  0.622020  1.0  1.0909
  P  P7  1  0.160270  0.401530  0.122020  1.0  1.09
  P  P8  1  0.160270  0.098470  0.377980  1.0  1.0896
  H  H9  1  0.703200  0.750000  0.846200  1.0  0.093
  H  H10  1  0.715600  0.462700  0.784900  1.0  0.0978
  H  H11  1  0.860700  0.782200  0.967800  1.0  0.1031
  H  H12  1  0.882000  0.833300  0.070200  1.0  0.1135
  H  H13  1  0.850500  0.508100  0.970500  1.0  0.1093
  H  H14  1  0.510500  0.421700  0.757300  1.0  0.1168
  H  H15  1  0.387800  0.620500  0.905900  1.0  0.1121
  H  H16  1  0.595000  0.662800  0.933100  1.0  0.0958
  H  H17  1  0.067000  0.679400  0.851800  1.0  0.102
  H  H18  1  0.124900  0.809900  0.822400  1.0  0.1272
  H  H19  1  0.760800  0.881200  0.815100  1.0  0.1206
  H  H20  1  0.876100  0.560300  0.073500  1.0  0.098
  H  H21  1  0.703200  0.750000  0.653800  1.0  0.093
  H  H22  1  0.715600  0.037300  0.715100  1.0  0.0975
  H  H23  1  0.860700  0.717800  0.532200  1.0  0.1032
  H  H24  1  0.882000  0.666667  0.429800  1.0  0.1147
  H  H25  1  0.850500  0.991900  0.529500  1.0  0.1091
  H  H26  1  0.510500  0.078300  0.742700  1.0  0.117
  H  H27  1  0.387800  0.879500  0.594100  1.0  0.112
  H  H28  1  0.595000  0.837200  0.566900  1.0  0.0951
  H  H29  1  0.067000  0.820600  0.648200  1.0  0.1017
  H  H30  1  0.124900  0.690100  0.677600  1.0  0.1274
  H  H31  1  0.760800  0.618800  0.684900  1.0  0.1199
  H  H32  1  0.876100  0.939700  0.426500  1.0  0.098
  H  H33  1  0.296800  0.250000  0.153800  1.0  0.0949
  H  H34  1  0.284400  0.537300  0.215100  1.0  0.097
  H  H35  1  0.139300  0.217800  0.032200  1.0  0.1031
  H  H36  1  0.118000  0.166700  0.929800  1.0  0.1138
  H  H37  1  0.149500  0.491900  0.029500  1.0  0.1092
  H  H38  1  0.489500  0.578300  0.242700  1.0  0.1168
  H  H39  1  0.612200  0.379500  0.094100  1.0  0.1121
  H  H40  1  0.405000  0.337200  0.066900  1.0  0.0955
  H  H41  1  0.933000  0.320600  0.148200  1.0  0.1014
  H  H42  1  0.875100  0.190100  0.177600  1.0  0.1289
  H  H43  1  0.239200  0.118800  0.184900  1.0  0.1205
  H  H44  1  0.123900  0.439700  0.926500  1.0  0.0982
  H  H45  1  0.296800  0.250000  0.346200  1.0  0.0949
  H  H46  1  0.284400  0.962700  0.284900  1.0  0.0975
  H  H47  1  0.139300  0.282200  0.467800  1.0  0.1031
  H  H48  1  0.118000  0.333333  0.570200  1.0  0.1145
  H  H49  1  0.149500  0.008100  0.470500  1.0  0.1094
  H  H50  1  0.489500  0.921700  0.257300  1.0  0.1166
  H  H51  1  0.612200  0.120500  0.405900  1.0  0.1122
  H  H52  1  0.405000  0.162800  0.433100  1.0  0.0952
  H  H53  1  0.933000  0.179400  0.351800  1.0  0.1017
  H  H54  1  0.875100  0.309900  0.322400  1.0  0.1283
  H  H55  1  0.239200  0.381200  0.315100  1.0  0.1208
  H  H56  1  0.123900  0.060300  0.573500  1.0  0.0983
  H  H57  1  0.732100  0.250000  0.750000  1.0  0.0102
  H  H58  1  0.267900  0.750000  0.250000  1.0  0.0089
  C  C59  1  0.878400  0.700100  0.852100  1.0  -0.2361
  C  C60  1  0.788400  0.761500  0.841000  1.0  -0.0111
  C  C61  1  0.678000  0.567900  0.861600  1.0  -0.2863
  C  C62  1  0.649900  0.495100  0.809300  1.0  -0.0599
  C  C63  1  0.855500  0.639700  0.958200  1.0  -0.2245
  C  C64  1  0.864000  0.736900  0.988800  1.0  -0.0308
  C  C65  1  0.877200  0.767400  0.050200  1.0  -0.0314
  C  C66  1  0.858500  0.573900  0.990300  1.0  -0.0351
  C  C67  1  0.527100  0.470200  0.792900  1.0  -0.0553
  C  C68  1  0.426100  0.516700  0.829100  1.0  -0.1058
  C  C69  1  0.453400  0.588600  0.881300  1.0  -0.0485
  C  C70  1  0.578100  0.614200  0.897700  1.0  -0.0302
  C  C71  1  0.293400  0.486700  0.809100  1.0  0.659
  C  C72  1  0.004800  0.719900  0.844400  1.0  -0.0216
  C  C73  1  0.039600  0.797200  0.826300  1.0  -0.0767
  C  C74  1  0.948800  0.856900  0.813700  1.0  -0.113
  C  C75  1  0.822600  0.840100  0.822100  1.0  -0.0707
  C  C76  1  0.984700  0.939500  0.789900  1.0  0.683
  C  C77  1  0.873200  0.605200  0.052200  1.0  -0.0309
  C  C78  1  0.883500  0.702500  0.082500  1.0  -0.1362
  C  C79  1  0.900400  0.738100  0.149500  1.0  0.7577
  C  C80  1  0.878400  0.799900  0.647900  1.0  -0.2372
  C  C81  1  0.788400  0.738500  0.659000  1.0  -0.0101
  C  C82  1  0.678000  0.932100  0.638400  1.0  -0.2868
  C  C83  1  0.649900  0.004900  0.690700  1.0  -0.0598
  C  C84  1  0.855500  0.860300  0.541800  1.0  -0.2235
  C  C85  1  0.864000  0.763100  0.511200  1.0  -0.0301
  C  C86  1  0.877200  0.732600  0.449800  1.0  -0.031
  C  C87  1  0.858500  0.926100  0.509700  1.0  -0.0362
  C  C88  1  0.527100  0.029800  0.707100  1.0  -0.056
  C  C89  1  0.426100  0.983300  0.670900  1.0  -0.1061
  C  C90  1  0.453400  0.911400  0.618700  1.0  -0.0482
  C  C91  1  0.578100  0.885800  0.602300  1.0  -0.0288
  C  C92  1  0.293400  0.013300  0.690900  1.0  0.6595
  C  C93  1  0.004800  0.780100  0.655600  1.0  -0.0223
  C  C94  1  0.039600  0.702800  0.673700  1.0  -0.0772
  C  C95  1  0.948800  0.643100  0.686300  1.0  -0.1136
  C  C96  1  0.822600  0.659900  0.677900  1.0  -0.0706
  C  C97  1  0.984700  0.560500  0.710100  1.0  0.6804
  C  C98  1  0.873200  0.894800  0.447800  1.0  -0.0311
  C  C99  1  0.883500  0.797500  0.417500  1.0  -0.1369
  C  C100  1  0.900400  0.761900  0.350500  1.0  0.7544
  C  C101  1  0.121600  0.299900  0.147900  1.0  -0.237
  C  C102  1  0.211600  0.238500  0.159000  1.0  -0.0137
  C  C103  1  0.322000  0.432100  0.138400  1.0  -0.286
  C  C104  1  0.350100  0.504900  0.190700  1.0  -0.0596
  C  C105  1  0.144500  0.360300  0.041800  1.0  -0.224
  C  C106  1  0.136000  0.263100  0.011200  1.0  -0.0303
  C  C107  1  0.122800  0.232600  0.949800  1.0  -0.0317
  C  C108  1  0.141500  0.426100  0.009700  1.0  -0.0359
  C  C109  1  0.472900  0.529800  0.207100  1.0  -0.0553
  C  C110  1  0.573900  0.483300  0.170900  1.0  -0.1076
  C  C111  1  0.546600  0.411400  0.118700  1.0  -0.0492
  C  C112  1  0.421900  0.385800  0.102300  1.0  -0.0275
  C  C113  1  0.706600  0.513300  0.190900  1.0  0.6585
  C  C114  1  0.995200  0.280100  0.155600  1.0  -0.0226
  C  C115  1  0.960400  0.202800  0.173700  1.0  -0.0777
  C  C116  1  0.051200  0.143100  0.186300  1.0  -0.1138
  C  C117  1  0.177400  0.159900  0.177900  1.0  -0.0716
  C  C118  1  0.015300  0.060500  0.210100  1.0  0.6809
  C  C119  1  0.126800  0.394800  0.947800  1.0  -0.0317
  C  C120  1  0.116500  0.297500  0.917500  1.0  -0.1379
  C  C121  1  0.099600  0.261900  0.850500  1.0  0.754
  C  C122  1  0.121600  0.200100  0.352100  1.0  -0.2362
  C  C123  1  0.211600  0.261500  0.341000  1.0  -0.0132
  C  C124  1  0.322000  0.067900  0.361600  1.0  -0.2859
  C  C125  1  0.350100  0.995100  0.309300  1.0  -0.06
  C  C126  1  0.144500  0.139700  0.458200  1.0  -0.2253
  C  C127  1  0.136000  0.236900  0.488800  1.0  -0.0313
  C  C128  1  0.122800  0.267400  0.550200  1.0  -0.0309
  C  C129  1  0.141500  0.073900  0.490300  1.0  -0.0351
  C  C130  1  0.472900  0.970200  0.292900  1.0  -0.0556
  C  C131  1  0.573900  0.016700  0.329100  1.0  -0.1075
  C  C132  1  0.546600  0.088600  0.381300  1.0  -0.0483
  C  C133  1  0.421900  0.114200  0.397700  1.0  -0.0284
  C  C134  1  0.706600  0.986700  0.309100  1.0  0.658
  C  C135  1  0.995200  0.219900  0.344400  1.0  -0.0215
  C  C136  1  0.960400  0.297200  0.326300  1.0  -0.0769
  C  C137  1  0.051200  0.356900  0.313700  1.0  -0.1133
  C  C138  1  0.177400  0.340100  0.322100  1.0  -0.0706
  C  C139  1  0.015300  0.439500  0.289900  1.0  0.6826
  C  C140  1  0.126800  0.105200  0.552200  1.0  -0.0318
  C  C141  1  0.116500  0.202500  0.582500  1.0  -0.1366
  C  C142  1  0.099600  0.238100  0.649500  1.0  0.7577
  C  C143  1  0.820200  0.250000  0.750000  1.0  0.7206
  C  C144  1  0.179800  0.750000  0.250000  1.0  0.7178
  O  O145  1  0.924800  0.513900  0.850510  1.0  -0.8769
  O  O146  1  0.202700  0.530000  0.841340  1.0  -0.6564
  O  O147  1  0.275300  0.419400  0.761720  1.0  -0.5757
  O  O148  1  0.099300  0.949600  0.778010  1.0  -0.6713
  O  O149  1  0.901700  0.993700  0.779380  1.0  -0.6699
  O  O150  1  0.901000  0.677900  0.177390  1.0  -0.6949
  O  O151  1  0.910800  0.827000  0.172870  1.0  -0.6891
  O  O152  1  0.867200  0.326700  0.751830  1.0  -0.6503
  O  O153  1  0.924800  0.986100  0.649490  1.0  -0.8786
  O  O154  1  0.202700  0.970000  0.658660  1.0  -0.656
  O  O155  1  0.275300  0.080600  0.738280  1.0  -0.5726
  O  O156  1  0.099300  0.550400  0.721990  1.0  -0.6716
  O  O157  1  0.901700  0.506300  0.720620  1.0  -0.6716
  O  O158  1  0.901000  0.822100  0.322610  1.0  -0.6942
  O  O159  1  0.910800  0.673000  0.327130  1.0  -0.6869
  O  O160  1  0.867200  0.173300  0.748170  1.0  -0.6502
  O  O161  1  0.075200  0.486100  0.149490  1.0  -0.8789
  O  O162  1  0.797300  0.470000  0.158660  1.0  -0.6562
  O  O163  1  0.724700  0.580600  0.238280  1.0  -0.5752
  O  O164  1  0.900700  0.050400  0.221990  1.0  -0.6713
  O  O165  1  0.098300  0.006300  0.220620  1.0  -0.6714
  O  O166  1  0.099000  0.322100  0.822610  1.0  -0.6938
  O  O167  1  0.089200  0.173000  0.827130  1.0  -0.6868
  O  O168  1  0.132800  0.673300  0.248170  1.0  -0.6489
  O  O169  1  0.075200  0.013900  0.350510  1.0  -0.8768
  O  O170  1  0.797300  0.030000  0.341340  1.0  -0.6566
  O  O171  1  0.724700  0.919400  0.261720  1.0  -0.5761
  O  O172  1  0.900700  0.449600  0.278010  1.0  -0.671
  O  O173  1  0.098300  0.493700  0.279380  1.0  -0.6715
  O  O174  1  0.099000  0.177900  0.677390  1.0  -0.6947
  O  O175  1  0.089200  0.327000  0.672870  1.0  -0.6876
  O  O176  1  0.132800  0.826700  0.251830  1.0  -0.6497
