# generated using pymatgen
data_CdH36C32I2(N3O)4
_symmetry_space_group_name_H-M   'P 1'
_cell_length_a   9.84630000
_cell_length_b   16.85120000
_cell_length_c   17.25430000
_cell_angle_alpha   101.21900000
_cell_angle_beta   106.57900000
_cell_angle_gamma   90.00000000
_symmetry_Int_Tables_number   1
_chemical_formula_structural   CdH36C32I2(N3O)4
_chemical_formula_sum   'Cd2 H72 C64 I4 N24 O8'
_cell_volume   2686.72032140
_cell_formula_units_Z   2
loop_
 _symmetry_equiv_pos_site_id
 _symmetry_equiv_pos_as_xyz
  1  'x, y, z'
loop_
 _atom_site_type_symbol
 _atom_site_label
 _atom_site_symmetry_multiplicity
 _atom_site_fract_x
 _atom_site_fract_y
 _atom_site_fract_z
 _atom_site_occupancy
 _atom_site_charge
  Cd  Cd1  1  0.000000  0.500000  0.000000  1.0  0.8252
  Cd  Cd2  1  0.000000  0.000000  0.000000  1.0  0.8252
  H  H3  1  0.286200  0.877000  0.233800  1.0  0.2773
  H  H4  1  0.660000  0.908200  0.273200  1.0  0.2566
  H  H5  1  0.426000  0.041600  0.373800  1.0  0.076
  H  H6  1  0.386800  0.980600  0.288800  1.0  0.0628
  H  H7  1  0.523600  0.914100  0.425000  1.0  0.057
  H  H8  1  0.541100  0.892600  0.335800  1.0  0.0758
  H  H9  1  0.144900  0.997700  0.430000  1.0  0.075
  H  H10  1  0.284700  0.052900  0.453800  1.0  0.0769
  H  H11  1  0.752200  0.089200  0.491000  1.0  0.0655
  H  H12  1  0.599200  0.064300  0.491800  1.0  0.0612
  H  H13  1  0.929500  0.635000  0.154000  1.0  0.0492
  H  H14  1  0.015600  0.750300  0.247400  1.0  0.1109
  H  H15  1  0.266700  0.785200  0.115800  1.0  0.1032
  H  H16  1  0.163400  0.669700  0.024800  1.0  0.0521
  H  H17  1  0.071800  0.021300  0.191800  1.0  0.055
  H  H18  1  0.979100  0.014600  0.298400  1.0  0.1043
  H  H19  1  0.642500  0.886000  0.132000  1.0  0.1276
  H  H20  1  0.744700  0.897900  0.032200  1.0  0.0653
  H  H21  1  0.052400  0.623000  0.766200  1.0  0.2784
  H  H22  1  0.386800  0.591800  0.726800  1.0  0.2574
  H  H23  1  0.052200  0.458400  0.626200  1.0  0.0745
  H  H24  1  0.098000  0.519400  0.711200  1.0  0.0618
  H  H25  1  0.098600  0.585900  0.575000  1.0  0.0595
  H  H26  1  0.205300  0.607400  0.664200  1.0  0.0748
  H  H27  1  0.714900  0.502300  0.570000  1.0  0.0737
  H  H28  1  0.830900  0.447100  0.546200  1.0  0.0769
  H  H29  1  0.261200  0.410800  0.509000  1.0  0.0649
  H  H30  1  0.107400  0.435700  0.508200  1.0  0.0602
  H  H31  1  0.775500  0.865000  0.846000  1.0  0.0485
  H  H32  1  0.768200  0.749700  0.752600  1.0  0.1095
  H  H33  1  0.150900  0.714800  0.884200  1.0  0.104
  H  H34  1  0.138600  0.830300  0.975200  1.0  0.0512
  H  H35  1  0.880000  0.478700  0.808200  1.0  0.0548
  H  H36  1  0.680700  0.485400  0.701600  1.0  0.1049
  H  H37  1  0.510500  0.614000  0.868000  1.0  0.1268
  H  H38  1  0.712500  0.602100  0.967800  1.0  0.0651
  H  H39  1  0.713800  0.123000  0.766200  1.0  0.2772
  H  H40  1  0.340000  0.091800  0.726800  1.0  0.2581
  H  H41  1  0.574000  0.958400  0.626200  1.0  0.075
  H  H42  1  0.613200  0.019400  0.711200  1.0  0.0625
  H  H43  1  0.476400  0.085900  0.575000  1.0  0.0583
  H  H44  1  0.458900  0.107400  0.664200  1.0  0.0743
  H  H45  1  0.855100  0.002300  0.570000  1.0  0.0737
  H  H46  1  0.715300  0.947100  0.546200  1.0  0.0753
  H  H47  1  0.247800  0.910800  0.509000  1.0  0.0643
  H  H48  1  0.400800  0.935700  0.508200  1.0  0.0605
  H  H49  1  0.070500  0.365000  0.846000  1.0  0.0499
  H  H50  1  0.984400  0.249700  0.752600  1.0  0.1112
  H  H51  1  0.733300  0.214800  0.884200  1.0  0.103
  H  H52  1  0.836600  0.330300  0.975200  1.0  0.0521
  H  H53  1  0.928200  0.978700  0.808200  1.0  0.0544
  H  H54  1  0.020900  0.985400  0.701600  1.0  0.1042
  H  H55  1  0.357500  0.114000  0.868000  1.0  0.1274
  H  H56  1  0.255300  0.102100  0.967800  1.0  0.0658
  H  H57  1  0.947600  0.377000  0.233800  1.0  0.2773
  H  H58  1  0.613200  0.408200  0.273200  1.0  0.2564
  H  H59  1  0.947800  0.541600  0.373800  1.0  0.0759
  H  H60  1  0.902000  0.480600  0.288800  1.0  0.0629
  H  H61  1  0.901400  0.414100  0.425000  1.0  0.0584
  H  H62  1  0.794700  0.392600  0.335800  1.0  0.0752
  H  H63  1  0.285100  0.497700  0.430000  1.0  0.0732
  H  H64  1  0.169100  0.552900  0.453800  1.0  0.0768
  H  H65  1  0.738800  0.589200  0.491000  1.0  0.0657
  H  H66  1  0.892600  0.564300  0.491800  1.0  0.0586
  H  H67  1  0.224500  0.135000  0.154000  1.0  0.0494
  H  H68  1  0.231800  0.250300  0.247400  1.0  0.1108
  H  H69  1  0.849100  0.285200  0.115800  1.0  0.1036
  H  H70  1  0.861400  0.169700  0.024800  1.0  0.0505
  H  H71  1  0.120000  0.521300  0.191800  1.0  0.0544
  H  H72  1  0.319300  0.514600  0.298400  1.0  0.1048
  H  H73  1  0.489500  0.386000  0.132000  1.0  0.1256
  H  H74  1  0.287500  0.397900  0.032200  1.0  0.065
  C  C75  1  0.404750  0.984900  0.347700  1.0  -0.0689
  C  C76  1  0.535260  0.937000  0.379720  1.0  -0.0154
  C  C77  1  0.246880  0.997100  0.439560  1.0  -0.0229
  C  C78  1  0.689510  0.043600  0.488020  1.0  -0.0084
  C  C79  1  0.196120  0.887700  0.320840  1.0  0.4537
  C  C80  1  0.002300  0.664900  0.146400  1.0  0.1665
  C  C81  1  0.053100  0.734800  0.203400  1.0  -0.2661
  C  C82  1  0.158020  0.781200  0.195040  1.0  0.3654
  C  C83  1  0.197700  0.755400  0.127000  1.0  -0.2549
  C  C84  1  0.135900  0.683800  0.072800  1.0  0.1869
  C  C85  1  0.760080  0.994700  0.363960  1.0  0.4488
  C  C86  1  0.983760  0.994100  0.179720  1.0  0.1724
  C  C87  1  0.928790  0.990600  0.244580  1.0  -0.2696
  C  C88  1  0.797370  0.950800  0.227540  1.0  0.2529
  C  C89  1  0.729670  0.914700  0.145940  1.0  -0.2796
  C  C90  1  0.792600  0.921800  0.086600  1.0  0.1485
  C  C91  1  0.057050  0.515100  0.652300  1.0  -0.0701
  C  C92  1  0.155540  0.563000  0.620280  1.0  -0.0167
  C  C93  1  0.807320  0.502900  0.560440  1.0  -0.0282
  C  C94  1  0.201490  0.456400  0.511980  1.0  -0.002
  C  C95  1  0.875280  0.612300  0.679160  1.0  0.4533
  C  C96  1  0.855900  0.835100  0.853600  1.0  0.1657
  C  C97  1  0.849700  0.765200  0.796600  1.0  -0.2655
  C  C98  1  0.962980  0.718800  0.804960  1.0  0.3669
  C  C99  1  0.070700  0.744600  0.873000  1.0  -0.2546
  C  C100  1  0.063100  0.816200  0.927200  1.0  0.1887
  C  C101  1  0.396120  0.505300  0.636040  1.0  0.4508
  C  C102  1  0.804040  0.505900  0.820280  1.0  0.1719
  C  C103  1  0.684210  0.509400  0.755420  1.0  -0.268
  C  C104  1  0.569830  0.549200  0.772460  1.0  0.2521
  C  C105  1  0.583730  0.585300  0.854060  1.0  -0.2808
  C  C106  1  0.706000  0.578200  0.913400  1.0  0.1472
  C  C107  1  0.595250  0.015100  0.652300  1.0  -0.0707
  C  C108  1  0.464740  0.063000  0.620280  1.0  -0.0145
  C  C109  1  0.753120  0.002900  0.560440  1.0  -0.0239
  C  C110  1  0.310490  0.956400  0.511980  1.0  -0.0085
  C  C111  1  0.803880  0.112300  0.679160  1.0  0.457
  C  C112  1  0.997700  0.335100  0.853600  1.0  0.1647
  C  C113  1  0.946900  0.265200  0.796600  1.0  -0.2674
  C  C114  1  0.841980  0.218800  0.804960  1.0  0.364
  C  C115  1  0.802300  0.244600  0.873000  1.0  -0.2569
  C  C116  1  0.864100  0.316200  0.927200  1.0  0.1863
  C  C117  1  0.239920  0.005300  0.636040  1.0  0.4483
  C  C118  1  0.016240  0.005900  0.820280  1.0  0.1728
  C  C119  1  0.071210  0.009400  0.755420  1.0  -0.2665
  C  C120  1  0.202630  0.049200  0.772460  1.0  0.2525
  C  C121  1  0.270330  0.085300  0.854060  1.0  -0.2776
  C  C122  1  0.207400  0.078200  0.913400  1.0  0.1477
  C  C123  1  0.942950  0.484900  0.347700  1.0  -0.0683
  C  C124  1  0.844460  0.437000  0.379720  1.0  -0.0159
  C  C125  1  0.192680  0.497100  0.439560  1.0  -0.0266
  C  C126  1  0.798510  0.543600  0.488020  1.0  -0.0038
  C  C127  1  0.124720  0.387700  0.320840  1.0  0.4547
  C  C128  1  0.144100  0.164900  0.146400  1.0  0.1651
  C  C129  1  0.150300  0.234800  0.203400  1.0  -0.2674
  C  C130  1  0.037020  0.281200  0.195040  1.0  0.3669
  C  C131  1  0.929300  0.255400  0.127000  1.0  -0.256
  C  C132  1  0.936900  0.183800  0.072800  1.0  0.1877
  C  C133  1  0.603880  0.494700  0.363960  1.0  0.449
  C  C134  1  0.195960  0.494100  0.179720  1.0  0.1723
  C  C135  1  0.315790  0.490600  0.244580  1.0  -0.2695
  C  C136  1  0.430170  0.450800  0.227540  1.0  0.2523
  C  C137  1  0.416270  0.414700  0.145940  1.0  -0.2782
  C  C138  1  0.294000  0.421800  0.086600  1.0  0.1465
  I  I139  1  0.212230  0.530310  0.906380  1.0  -0.4145
  I  I140  1  0.305850  0.969690  0.093620  1.0  -0.4162
  I  I141  1  0.787770  0.469690  0.093620  1.0  -0.4157
  I  I142  1  0.694150  0.030310  0.906380  1.0  -0.4178
  N  N143  1  0.275830  0.956800  0.363260  1.0  -0.156
  N  N144  1  0.667540  0.987800  0.408080  1.0  -0.1732
  N  N145  1  0.223200  0.852500  0.247800  1.0  -0.3373
  N  N146  1  0.045960  0.636200  0.082520  1.0  -0.3037
  N  N147  1  0.727690  0.945000  0.286180  1.0  -0.3701
  N  N148  1  0.918320  0.960900  0.101040  1.0  -0.3588
  N  N149  1  0.912570  0.543200  0.636740  1.0  -0.1563
  N  N150  1  0.259460  0.512200  0.591920  1.0  -0.1735
  N  N151  1  0.975400  0.647500  0.752200  1.0  -0.3377
  N  N152  1  0.963440  0.863800  0.917480  1.0  -0.3048
  N  N153  1  0.441510  0.555000  0.713820  1.0  -0.3688
  N  N154  1  0.817280  0.539100  0.898960  1.0  -0.3514
  N  N155  1  0.724170  0.043200  0.636740  1.0  -0.1567
  N  N156  1  0.332460  0.012200  0.591920  1.0  -0.1733
  N  N157  1  0.776800  0.147500  0.752200  1.0  -0.3378
  N  N158  1  0.954040  0.363800  0.917480  1.0  -0.3032
  N  N159  1  0.272310  0.055000  0.713820  1.0  -0.3687
  N  N160  1  0.081680  0.039100  0.898960  1.0  -0.3551
  N  N161  1  0.087430  0.456800  0.363260  1.0  -0.1544
  N  N162  1  0.740540  0.487800  0.408080  1.0  -0.1732
  N  N163  1  0.024600  0.352500  0.247800  1.0  -0.3375
  N  N164  1  0.036560  0.136200  0.082520  1.0  -0.305
  N  N165  1  0.558490  0.445000  0.286180  1.0  -0.3707
  N  N166  1  0.182720  0.460900  0.101040  1.0  -0.3536
  O  O167  1  0.106470  0.859200  0.344940  1.0  -0.5112
  O  O168  1  0.863430  0.042200  0.391260  1.0  -0.5464
  O  O169  1  0.761530  0.640800  0.655060  1.0  -0.5109
  O  O170  1  0.472170  0.457800  0.608740  1.0  -0.5473
  O  O171  1  0.893530  0.140800  0.655060  1.0  -0.5134
  O  O172  1  0.136570  0.957800  0.608740  1.0  -0.546
  O  O173  1  0.238470  0.359200  0.344940  1.0  -0.5091
  O  O174  1  0.527830  0.542200  0.391260  1.0  -0.5478
