# generated using pymatgen
data_CdH36C32Br2(N3O)4
_symmetry_space_group_name_H-M   'P 1'
_cell_length_a   9.98170000
_cell_length_b   16.63820000
_cell_length_c   17.06750000
_cell_angle_alpha   100.54400000
_cell_angle_beta   107.00300000
_cell_angle_gamma   90.00000000
_symmetry_Int_Tables_number   1
_chemical_formula_structural   CdH36C32Br2(N3O)4
_chemical_formula_sum   'Cd2 H72 C64 Br4 N24 O8'
_cell_volume   2660.53940375
_cell_formula_units_Z   2
loop_
 _symmetry_equiv_pos_site_id
 _symmetry_equiv_pos_as_xyz
  1  'x, y, z'
loop_
 _atom_site_type_symbol
 _atom_site_label
 _atom_site_symmetry_multiplicity
 _atom_site_fract_x
 _atom_site_fract_y
 _atom_site_fract_z
 _atom_site_occupancy
 _atom_site_charge
  Cd  Cd1  1  0.000000  0.000000  0.000000  1.0  0.8286
  Cd  Cd2  1  0.000000  0.500000  0.000000  1.0  0.8286
  H  H3  1  0.151800  0.833000  0.973800  1.0  0.0557
  H  H4  1  0.780800  0.865700  0.848000  1.0  0.0658
  H  H5  1  0.775000  0.750600  0.751400  1.0  0.1048
  H  H6  1  0.156100  0.714400  0.885800  1.0  0.1034
  H  H7  1  0.052400  0.455800  0.627400  1.0  0.0788
  H  H8  1  0.098300  0.516400  0.713600  1.0  0.0663
  H  H9  1  0.094500  0.586300  0.576200  1.0  0.0736
  H  H10  1  0.201000  0.607200  0.666000  1.0  0.0887
  H  H11  1  0.894700  0.563900  0.491800  1.0  0.071
  H  H12  1  0.742500  0.588700  0.490200  1.0  0.0659
  H  H13  1  0.719400  0.499900  0.570400  1.0  0.0758
  H  H14  1  0.834300  0.444500  0.547200  1.0  0.0829
  H  H15  1  0.672400  0.490400  0.701600  1.0  0.1076
  H  H16  1  0.504100  0.609100  0.874400  1.0  0.1273
  H  H17  1  0.708200  0.594800  0.973000  1.0  0.0666
  H  H18  1  0.874500  0.486200  0.808200  1.0  0.059
  H  H19  1  0.052400  0.620100  0.768800  1.0  0.2808
  H  H20  1  0.381000  0.591800  0.728800  1.0  0.2674
  H  H21  1  0.178000  0.667000  0.026200  1.0  0.0558
  H  H22  1  0.932800  0.634300  0.152000  1.0  0.066
  H  H23  1  0.023600  0.749400  0.248600  1.0  0.1063
  H  H24  1  0.270300  0.785600  0.114200  1.0  0.1023
  H  H25  1  0.425000  0.044200  0.372600  1.0  0.0801
  H  H26  1  0.384700  0.983600  0.286400  1.0  0.0663
  H  H27  1  0.518300  0.913700  0.423800  1.0  0.0727
  H  H28  1  0.535000  0.892800  0.334000  1.0  0.0892
  H  H29  1  0.402900  0.936100  0.508200  1.0  0.0731
  H  H30  1  0.252300  0.911300  0.509800  1.0  0.065
  H  H31  1  0.149000  0.000100  0.429600  1.0  0.0768
  H  H32  1  0.287100  0.055500  0.452800  1.0  0.0846
  H  H33  1  0.970800  0.009600  0.298400  1.0  0.107
  H  H34  1  0.629700  0.890900  0.125600  1.0  0.1284
  H  H35  1  0.735200  0.905200  0.027000  1.0  0.0685
  H  H36  1  0.066300  0.013800  0.191800  1.0  0.0591
  H  H37  1  0.283600  0.879900  0.231200  1.0  0.2812
  H  H38  1  0.652200  0.908200  0.271200  1.0  0.2679
  H  H39  1  0.848200  0.167000  0.026200  1.0  0.0552
  H  H40  1  0.219200  0.134300  0.152000  1.0  0.0663
  H  H41  1  0.225000  0.249400  0.248600  1.0  0.1061
  H  H42  1  0.843900  0.285600  0.114200  1.0  0.1027
  H  H43  1  0.947600  0.544200  0.372600  1.0  0.0806
  H  H44  1  0.901700  0.483600  0.286400  1.0  0.065
  H  H45  1  0.905500  0.413700  0.423800  1.0  0.0743
  H  H46  1  0.799000  0.392800  0.334000  1.0  0.0895
  H  H47  1  0.105300  0.436100  0.508200  1.0  0.0722
  H  H48  1  0.257500  0.411300  0.509800  1.0  0.065
  H  H49  1  0.280600  0.500100  0.429600  1.0  0.0772
  H  H50  1  0.165700  0.555500  0.452800  1.0  0.0845
  H  H51  1  0.327600  0.509600  0.298400  1.0  0.1073
  H  H52  1  0.495900  0.390900  0.125600  1.0  0.1267
  H  H53  1  0.291800  0.405200  0.027000  1.0  0.0675
  H  H54  1  0.125500  0.513800  0.191800  1.0  0.0594
  H  H55  1  0.947600  0.379900  0.231200  1.0  0.2811
  H  H56  1  0.619000  0.408200  0.271200  1.0  0.2672
  H  H57  1  0.822000  0.333000  0.973800  1.0  0.0562
  H  H58  1  0.067200  0.365700  0.848000  1.0  0.0662
  H  H59  1  0.976400  0.250600  0.751400  1.0  0.1066
  H  H60  1  0.729700  0.214400  0.885800  1.0  0.1023
  H  H61  1  0.575000  0.955800  0.627400  1.0  0.0793
  H  H62  1  0.615300  0.016400  0.713600  1.0  0.0673
  H  H63  1  0.481700  0.086300  0.576200  1.0  0.0729
  H  H64  1  0.465000  0.107200  0.666000  1.0  0.088
  H  H65  1  0.597100  0.063900  0.491800  1.0  0.0734
  H  H66  1  0.747700  0.088700  0.490200  1.0  0.0661
  H  H67  1  0.851000  0.999900  0.570400  1.0  0.0771
  H  H68  1  0.712900  0.944500  0.547200  1.0  0.0819
  H  H69  1  0.029200  0.990400  0.701600  1.0  0.1068
  H  H70  1  0.370300  0.109100  0.874400  1.0  0.128
  H  H71  1  0.264800  0.094800  0.973000  1.0  0.0676
  H  H72  1  0.933700  0.986200  0.808200  1.0  0.0595
  H  H73  1  0.716400  0.120100  0.768800  1.0  0.2806
  H  H74  1  0.347800  0.091800  0.728800  1.0  0.2693
  C  C75  1  0.073500  0.816900  0.927800  1.0  0.1749
  C  C76  1  0.861000  0.836000  0.855000  1.0  0.1693
  C  C77  1  0.854800  0.765500  0.797000  1.0  -0.2587
  C  C78  1  0.077000  0.745000  0.874800  1.0  -0.2565
  C  C79  1  0.967370  0.718200  0.807340  1.0  0.2862
  C  C80  1  0.878830  0.611200  0.680460  1.0  0.4709
  C  C81  1  0.056710  0.512900  0.654020  1.0  -0.0525
  C  C82  1  0.152040  0.562600  0.621680  1.0  -0.011
  C  C83  1  0.801770  0.542700  0.487540  1.0  -0.0077
  C  C84  1  0.810840  0.500800  0.561280  1.0  -0.027
  C  C85  1  0.391100  0.506700  0.637000  1.0  0.447
  C  C86  1  0.676750  0.512800  0.756500  1.0  -0.3012
  C  C87  1  0.563240  0.549300  0.775080  1.0  0.2497
  C  C88  1  0.577000  0.582400  0.859000  1.0  -0.265
  C  C89  1  0.701000  0.574300  0.917400  1.0  0.159
  C  C90  1  0.797890  0.510200  0.821580  1.0  0.176
  C  C91  1  0.145700  0.683100  0.072200  1.0  0.1734
  C  C92  1  0.006000  0.664000  0.145000  1.0  0.1707
  C  C93  1  0.057800  0.734500  0.203000  1.0  -0.2586
  C  C94  1  0.202200  0.755000  0.125200  1.0  -0.2562
  C  C95  1  0.160030  0.781800  0.192660  1.0  0.285
  C  C96  1  0.198370  0.888800  0.319540  1.0  0.4741
  C  C97  1  0.402690  0.987100  0.345980  1.0  -0.0505
  C  C98  1  0.530360  0.937400  0.378320  1.0  -0.0086
  C  C99  1  0.314230  0.957300  0.512460  1.0  -0.0115
  C  C100  1  0.249560  0.999200  0.438720  1.0  -0.0201
  C  C101  1  0.754100  0.993300  0.363000  1.0  0.445
  C  C102  1  0.920250  0.987200  0.243500  1.0  -0.3012
  C  C103  1  0.788160  0.950700  0.224920  1.0  0.2505
  C  C104  1  0.718000  0.917600  0.141000  1.0  -0.2621
  C  C105  1  0.783600  0.925700  0.082600  1.0  0.1588
  C  C106  1  0.976310  0.989800  0.178420  1.0  0.1757
  C  C107  1  0.926500  0.183100  0.072200  1.0  0.1756
  C  C108  1  0.139000  0.164000  0.145000  1.0  0.1693
  C  C109  1  0.145200  0.234500  0.203000  1.0  -0.2595
  C  C110  1  0.923000  0.255000  0.125200  1.0  -0.2591
  C  C111  1  0.032630  0.281800  0.192660  1.0  0.2863
  C  C112  1  0.121170  0.388800  0.319540  1.0  0.4705
  C  C113  1  0.943290  0.487100  0.345980  1.0  -0.05
  C  C114  1  0.847960  0.437400  0.378320  1.0  -0.0097
  C  C115  1  0.198230  0.457300  0.512460  1.0  -0.0054
  C  C116  1  0.189160  0.499200  0.438720  1.0  -0.0247
  C  C117  1  0.608900  0.493300  0.363000  1.0  0.4487
  C  C118  1  0.323250  0.487200  0.243500  1.0  -0.3002
  C  C119  1  0.436760  0.450700  0.224920  1.0  0.2495
  C  C120  1  0.423000  0.417600  0.141000  1.0  -0.2641
  C  C121  1  0.299000  0.425700  0.082600  1.0  0.1586
  C  C122  1  0.202110  0.489800  0.178420  1.0  0.1761
  C  C123  1  0.854300  0.316900  0.927800  1.0  0.1734
  C  C124  1  0.994000  0.336000  0.855000  1.0  0.1693
  C  C125  1  0.942200  0.265500  0.797000  1.0  -0.2593
  C  C126  1  0.797800  0.245000  0.874800  1.0  -0.2595
  C  C127  1  0.839970  0.218200  0.807340  1.0  0.2851
  C  C128  1  0.801630  0.111200  0.680460  1.0  0.4738
  C  C129  1  0.597310  0.012900  0.654020  1.0  -0.0533
  C  C130  1  0.469640  0.062600  0.621680  1.0  -0.0079
  C  C131  1  0.685770  0.042700  0.487540  1.0  -0.0124
  C  C132  1  0.750440  0.000800  0.561280  1.0  -0.0217
  C  C133  1  0.245900  0.006700  0.637000  1.0  0.4464
  C  C134  1  0.079750  0.012800  0.756500  1.0  -0.3001
  C  C135  1  0.211840  0.049300  0.775080  1.0  0.25
  C  C136  1  0.282000  0.082400  0.859000  1.0  -0.2635
  C  C137  1  0.216400  0.074300  0.917400  1.0  0.1589
  C  C138  1  0.023690  0.010200  0.821580  1.0  0.1764
  Br  Br139  1  0.280280  0.971590  0.096440  1.0  -0.4182
  Br  Br140  1  0.183840  0.528410  0.903560  1.0  -0.4193
  Br  Br141  1  0.719720  0.028410  0.903560  1.0  -0.4104
  Br  Br142  1  0.816160  0.471590  0.096440  1.0  -0.4092
  N  N143  1  0.968910  0.864800  0.918620  1.0  -0.3294
  N  N144  1  0.914350  0.540600  0.638700  1.0  -0.1663
  N  N145  1  0.977140  0.645800  0.754080  1.0  -0.3431
  N  N146  1  0.811670  0.539300  0.900740  1.0  -0.3378
  N  N147  1  0.254670  0.512800  0.592740  1.0  -0.1857
  N  N148  1  0.435710  0.555300  0.715620  1.0  -0.3701
  N  N149  1  0.050290  0.635200  0.081380  1.0  -0.3275
  N  N150  1  0.275650  0.959400  0.361300  1.0  -0.1664
  N  N151  1  0.223060  0.854200  0.245920  1.0  -0.3418
  N  N152  1  0.910930  0.960700  0.099260  1.0  -0.3377
  N  N153  1  0.661930  0.987200  0.407260  1.0  -0.1862
  N  N154  1  0.720090  0.944700  0.284380  1.0  -0.3704
  N  N155  1  0.031090  0.135200  0.081380  1.0  -0.328
  N  N156  1  0.085650  0.459400  0.361300  1.0  -0.1655
  N  N157  1  0.022860  0.354200  0.245920  1.0  -0.3428
  N  N158  1  0.188330  0.460700  0.099260  1.0  -0.3354
  N  N159  1  0.745330  0.487200  0.407260  1.0  -0.1862
  N  N160  1  0.564290  0.444700  0.284380  1.0  -0.3731
  N  N161  1  0.949710  0.364800  0.918620  1.0  -0.3285
  N  N162  1  0.724350  0.040600  0.638700  1.0  -0.1661
  N  N163  1  0.776940  0.145800  0.754080  1.0  -0.342
  N  N164  1  0.089070  0.039300  0.900740  1.0  -0.3382
  N  N165  1  0.338070  0.012800  0.592740  1.0  -0.1868
  N  N166  1  0.279910  0.055300  0.715620  1.0  -0.3697
  O  O167  1  0.767350  0.641500  0.654700  1.0  -0.5214
  O  O168  1  0.467340  0.460000  0.609480  1.0  -0.5525
  O  O169  1  0.112650  0.858500  0.345300  1.0  -0.5232
  O  O170  1  0.857860  0.040000  0.390520  1.0  -0.5532
  O  O171  1  0.232650  0.358500  0.345300  1.0  -0.5202
  O  O172  1  0.532660  0.540000  0.390520  1.0  -0.5538
  O  O173  1  0.887350  0.141500  0.654700  1.0  -0.5234
  O  O174  1  0.142140  0.960000  0.609480  1.0  -0.552
