# generated using pymatgen
data_MnH19C26N5O4
_symmetry_space_group_name_H-M   'P 1'
_cell_length_a   17.65600000
_cell_length_b   19.40840000
_cell_length_c   20.50400000
_cell_angle_alpha   106.26100000
_cell_angle_beta   90.00000000
_cell_angle_gamma   117.05500000
_symmetry_Int_Tables_number   1
_chemical_formula_structural   MnH19C26N5O4
_chemical_formula_sum   'Mn10 H190 C260 N50 O40'
_cell_volume   5939.97990821
_cell_formula_units_Z   10
loop_
 _symmetry_equiv_pos_site_id
 _symmetry_equiv_pos_as_xyz
  1  'x, y, z'
loop_
 _atom_site_type_symbol
 _atom_site_label
 _atom_site_symmetry_multiplicity
 _atom_site_fract_x
 _atom_site_fract_y
 _atom_site_fract_z
 _atom_site_occupancy
 _atom_site_charge
  Mn  Mn1  1  0.546670  0.885300  0.976260  1.0  0.9608
  Mn  Mn2  1  0.338630  0.885300  0.476260  1.0  0.9614
  Mn  Mn3  1  0.983300  0.168380  0.922950  1.0  1.0423
  Mn  Mn4  1  0.185080  0.168380  0.422950  1.0  1.0421
  Mn  Mn5  1  0.718320  0.231580  0.750220  1.0  1.0259
  Mn  Mn6  1  0.513260  0.231580  0.250220  1.0  1.0265
  Mn  Mn7  1  0.009660  0.814420  0.647890  1.0  1.0214
  Mn  Mn8  1  0.804760  0.814420  0.147890  1.0  1.0212
  Mn  Mn9  1  0.347290  0.510920  0.193960  1.0  1.0358
  Mn  Mn10  1  0.163630  0.510920  0.693960  1.0  1.0364
  H  H11  1  0.516400  0.002200  0.809600  1.0  0.1097
  H  H12  1  0.369600  0.755800  0.749400  1.0  0.1148
  H  H13  1  0.347000  0.758000  0.639600  1.0  0.0965
  H  H14  1  0.464200  0.688000  0.882800  1.0  0.1196
  H  H15  1  0.707200  0.867800  0.902300  1.0  0.1279
  H  H16  1  0.711400  0.739400  0.854300  1.0  0.127
  H  H17  1  0.663900  0.601600  0.813400  1.0  0.1141
  H  H18  1  0.609300  0.466400  0.746600  1.0  0.1184
  H  H19  1  0.368600  0.436800  0.753000  1.0  0.1276
  H  H20  1  0.423600  0.572600  0.817900  1.0  0.1107
  H  H21  1  0.547100  0.326000  0.722200  1.0  0.1121
  H  H22  1  0.481300  0.192200  0.647900  1.0  0.1161
  H  H23  1  0.266300  0.207200  0.610200  1.0  0.109
  H  H24  1  0.339200  0.342000  0.667600  1.0  0.1122
  H  H25  1  0.434300  0.086200  0.549200  1.0  0.1046
  H  H26  1  0.200200  0.062800  0.572100  1.0  0.1057
  H  H27  1  0.180400  0.930800  0.508900  1.0  0.1231
  H  H28  1  0.534000  0.070400  0.735400  1.0  0.341
  H  H29  1  0.499400  0.032400  0.660700  1.0  0.349
  H  H30  1  0.485800  0.002200  0.309600  1.0  0.1099
  H  H31  1  0.386200  0.755800  0.249400  1.0  0.1149
  H  H32  1  0.411000  0.758000  0.139600  1.0  0.0963
  H  H33  1  0.223800  0.688000  0.382800  1.0  0.12
  H  H34  1  0.160600  0.867800  0.402300  1.0  0.1278
  H  H35  1  0.028000  0.739400  0.354300  1.0  0.1256
  H  H36  1  0.937700  0.601600  0.313400  1.0  0.1144
  H  H37  1  0.857100  0.466400  0.246600  1.0  0.1185
  H  H38  1  0.068200  0.436800  0.253000  1.0  0.1278
  H  H39  1  0.149000  0.572600  0.317900  1.0  0.1117
  H  H40  1  0.778900  0.326000  0.222200  1.0  0.1119
  H  H41  1  0.710900  0.192200  0.147900  1.0  0.1162
  H  H42  1  0.940900  0.207200  0.110200  1.0  0.1097
  H  H43  1  0.002800  0.342000  0.167600  1.0  0.1126
  H  H44  1  0.651900  0.086200  0.049200  1.0  0.104
  H  H45  1  0.862600  0.062800  0.072100  1.0  0.1057
  H  H46  1  0.750400  0.930800  0.008900  1.0  0.1231
  H  H47  1  0.536400  0.070400  0.235400  1.0  0.3409
  H  H48  1  0.533000  0.032400  0.160700  1.0  0.3485
  H  H49  1  0.104100  0.279000  0.753900  1.0  0.1092
  H  H50  1  0.009400  0.036000  0.688500  1.0  0.1102
  H  H51  1  0.038600  0.039800  0.578600  1.0  0.1048
  H  H52  1  0.872500  0.969600  0.829000  1.0  0.1366
  H  H53  1  0.773100  0.118800  0.921700  1.0  0.1441
  H  H54  1  0.651500  0.976800  0.865400  1.0  0.1201
  H  H55  1  0.586400  0.839400  0.816800  1.0  0.1063
  H  H56  1  0.521000  0.705600  0.776100  1.0  0.1155
  H  H57  1  0.734300  0.704600  0.709900  1.0  0.1147
  H  H58  1  0.804500  0.842000  0.758900  1.0  0.1021
  H  H59  1  0.446900  0.614400  0.691900  1.0  0.127
  H  H60  1  0.362800  0.491800  0.607400  1.0  0.1125
  H  H61  1  0.562800  0.447400  0.586000  1.0  0.1031
  H  H62  1  0.648600  0.569400  0.671100  1.0  0.1299
  H  H63  1  0.290500  0.363600  0.534300  1.0  0.129
  H  H64  1  0.506100  0.353800  0.482000  1.0  0.1131
  H  H65  1  0.381000  0.234200  0.397200  1.0  0.1524
  H  H66  1  0.167900  0.354000  0.682900  1.0  0.2533
  H  H67  1  0.165700  0.317200  0.608200  1.0  0.2796
  H  H68  1  0.174900  0.279000  0.253900  1.0  0.1096
  H  H69  1  0.026600  0.036000  0.188500  1.0  0.1101
  H  H70  1  0.001200  0.039800  0.078600  1.0  0.1048
  H  H71  1  0.097100  0.969600  0.329000  1.0  0.1364
  H  H72  1  0.345700  0.118800  0.421700  1.0  0.1437
  H  H73  1  0.325300  0.976800  0.365400  1.0  0.1191
  H  H74  1  0.253000  0.839400  0.316800  1.0  0.1072
  H  H75  1  0.184600  0.705600  0.276100  1.0  0.1172
  H  H76  1  0.970300  0.704600  0.209900  1.0  0.1145
  H  H77  1  0.037500  0.842000  0.258900  1.0  0.1022
  H  H78  1  0.167500  0.614400  0.191900  1.0  0.1274
  H  H79  1  0.129000  0.491800  0.107400  1.0  0.1128
  H  H80  1  0.884600  0.447400  0.086000  1.0  0.102
  H  H81  1  0.920800  0.569400  0.171100  1.0  0.1303
  H  H82  1  0.073100  0.363600  0.034300  1.0  0.1285
  H  H83  1  0.847700  0.353800  0.982000  1.0  0.1138
  H  H84  1  0.853200  0.234200  0.897200  1.0  0.153
  H  H85  1  0.186100  0.354000  0.182900  1.0  0.2523
  H  H86  1  0.151500  0.317200  0.108200  1.0  0.2803
  H  H87  1  0.697200  0.353800  0.587000  1.0  0.1319
  H  H88  1  0.561300  0.110600  0.522700  1.0  0.11
  H  H89  1  0.529400  0.110200  0.412900  1.0  0.1183
  H  H90  1  0.645700  0.046000  0.619100  1.0  0.119
  H  H91  1  0.848500  0.150800  0.770900  1.0  0.1063
  H  H92  1  0.826500  0.013800  0.711200  1.0  0.1201
  H  H93  1  0.576500  0.907000  0.561100  1.0  0.111
  H  H94  1  0.519300  0.774200  0.487900  1.0  0.1156
  H  H95  1  0.726200  0.761200  0.551700  1.0  0.1161
  H  H96  1  0.783400  0.894000  0.624900  1.0  0.1176
  H  H97  1  0.471200  0.646600  0.482500  1.0  0.0915
  H  H98  1  0.400600  0.516400  0.403600  1.0  0.1162
  H  H99  1  0.631000  0.529400  0.374500  1.0  0.1077
  H  H100  1  0.701100  0.663400  0.445300  1.0  0.1239
  H  H101  1  0.562400  0.395400  0.331300  1.0  0.1695
  H  H102  1  0.334100  0.389600  0.301900  1.0  0.1228
  H  H103  1  0.316900  0.254400  0.237200  1.0  0.1165
  H  H104  1  0.677600  0.391600  0.444400  1.0  0.3159
  H  H105  1  0.717400  0.427800  0.520600  1.0  0.2975
  H  H106  1  0.656600  0.353800  0.087000  1.0  0.1322
  H  H107  1  0.549300  0.110600  0.022700  1.0  0.1098
  H  H108  1  0.580800  0.110200  0.912900  1.0  0.1185
  H  H109  1  0.400300  0.046000  0.119100  1.0  0.119
  H  H110  1  0.302300  0.150800  0.270900  1.0  0.1069
  H  H111  1  0.187300  0.013800  0.211200  1.0  0.1198
  H  H112  1  0.330500  0.907000  0.061100  1.0  0.1114
  H  H113  1  0.254900  0.774200  0.987900  1.0  0.1158
  H  H114  1  0.035000  0.761200  0.051700  1.0  0.116
  H  H115  1  0.110600  0.894000  0.124900  1.0  0.1171
  H  H116  1  0.175400  0.646600  0.982500  1.0  0.0915
  H  H117  1  0.115800  0.516400  0.903600  1.0  0.1171
  H  H118  1  0.898400  0.529400  0.874500  1.0  0.1083
  H  H119  1  0.962300  0.663400  0.945300  1.0  0.1242
  H  H120  1  0.833000  0.395400  0.831300  1.0  0.1689
  H  H121  1  0.055500  0.389600  0.801900  1.0  0.1229
  H  H122  1  0.937500  0.254400  0.737200  1.0  0.1159
  H  H123  1  0.714000  0.391600  0.944400  1.0  0.3157
  H  H124  1  0.710400  0.427800  0.020600  1.0  0.2976
  H  H125  1  0.986000  0.918600  0.479000  1.0  0.1148
  H  H126  1  0.844300  0.676800  0.411100  1.0  0.1079
  H  H127  1  0.817100  0.680000  0.301700  1.0  0.1107
  H  H128  1  0.914100  0.606200  0.578600  1.0  0.1253
  H  H129  1  0.154900  0.772800  0.568900  1.0  0.1168
  H  H130  1  0.131900  0.633400  0.500100  1.0  0.1676
  H  H131  1  0.085300  0.503000  0.465800  1.0  0.1066
  H  H132  1  0.028000  0.366400  0.406300  1.0  0.1103
  H  H133  1  0.790100  0.335600  0.430800  1.0  0.1165
  H  H134  1  0.847700  0.473400  0.490000  1.0  0.1094
  H  H135  1  0.973700  0.233000  0.384600  1.0  0.1249
  H  H136  1  0.910800  0.096800  0.319600  1.0  0.1124
  H  H137  1  0.688600  0.095800  0.281500  1.0  0.1096
  H  H138  1  0.749900  0.232200  0.343300  1.0  0.1099
  H  H139  1  0.856300  0.980800  0.236700  1.0  0.1357
  H  H140  1  0.615900  0.953400  0.255900  1.0  0.144
  H  H141  1  0.603000  0.819000  0.182000  1.0  0.115
  H  H142  1  0.963800  0.955400  0.329300  1.0  0.2872
  H  H143  1  0.006500  0.992000  0.402100  1.0  0.2639
  H  H144  1  0.932600  0.918600  0.979000  1.0  0.115
  H  H145  1  0.832500  0.676800  0.911100  1.0  0.1078
  H  H146  1  0.862900  0.680000  0.801700  1.0  0.1107
  H  H147  1  0.692100  0.606200  0.078600  1.0  0.1245
  H  H148  1  0.617900  0.772800  0.068900  1.0  0.1175
  H  H149  1  0.501500  0.633400  0.000100  1.0  0.1677
  H  H150  1  0.417700  0.503000  0.965800  1.0  0.1074
  H  H151  1  0.338400  0.366400  0.906300  1.0  0.1104
  H  H152  1  0.545500  0.335600  0.930800  1.0  0.1167
  H  H153  1  0.625700  0.473400  0.990000  1.0  0.1094
  H  H154  1  0.259300  0.233000  0.884600  1.0  0.1241
  H  H155  1  0.186000  0.096800  0.819600  1.0  0.1118
  H  H156  1  0.407200  0.095800  0.781500  1.0  0.1094
  H  H157  1  0.482300  0.232200  0.843300  1.0  0.1099
  H  H158  1  0.124500  0.980800  0.736700  1.0  0.1362
  H  H159  1  0.337500  0.953400  0.755900  1.0  0.1438
  H  H160  1  0.216000  0.819000  0.682000  1.0  0.1152
  H  H161  1  0.991600  0.955400  0.829300  1.0  0.2871
  H  H162  1  0.985500  0.992000  0.902100  1.0  0.2635
  H  H163  1  0.338900  0.638400  0.032200  1.0  0.1167
  H  H164  1  0.195000  0.397000  0.973800  1.0  0.1088
  H  H165  1  0.178300  0.393800  0.860400  1.0  0.1154
  H  H166  1  0.271500  0.331200  0.072400  1.0  0.1174
  H  H167  1  0.495700  0.448800  0.202500  1.0  0.1124
  H  H168  1  0.485000  0.317600  0.121100  1.0  0.1182
  H  H169  1  0.444500  0.223000  0.005900  1.0  0.1232
  H  H170  1  0.388100  0.094200  0.933800  1.0  0.1106
  H  H171  1  0.148400  0.045000  0.975700  1.0  0.1249
  H  H172  1  0.205200  0.179400  0.044800  1.0  0.0947
  H  H173  1  0.344700  0.975200  0.886200  1.0  0.1196
  H  H174  1  0.292500  0.840400  0.817300  1.0  0.1121
  H  H175  1  0.051000  0.803400  0.828200  1.0  0.114
  H  H176  1  0.101900  0.936400  0.897800  1.0  0.1133
  H  H177  1  0.236600  0.702200  0.784800  1.0  0.1258
  H  H178  1  0.009500  0.694400  0.734900  1.0  0.1606
  H  H179  1  0.003700  0.561800  0.660800  1.0  0.1438
  H  H180  1  0.368000  0.707000  0.956500  1.0  0.3171
  H  H181  1  0.332700  0.669400  0.882000  1.0  0.3072
  H  H182  1  0.299500  0.638400  0.532200  1.0  0.1167
  H  H183  1  0.202000  0.397000  0.473800  1.0  0.1086
  H  H184  1  0.215500  0.393800  0.360400  1.0  0.1156
  H  H185  1  0.059700  0.331200  0.572400  1.0  0.1178
  H  H186  1  0.953100  0.448800  0.702500  1.0  0.1125
  H  H187  1  0.832600  0.317600  0.621100  1.0  0.1186
  H  H188  1  0.778500  0.223000  0.505900  1.0  0.1236
  H  H189  1  0.706100  0.094200  0.433800  1.0  0.1101
  H  H190  1  0.896600  0.045000  0.475700  1.0  0.1254
  H  H191  1  0.974200  0.179400  0.544800  1.0  0.0952
  H  H192  1  0.630500  0.975200  0.386200  1.0  0.1188
  H  H193  1  0.547900  0.840400  0.317300  1.0  0.1103
  H  H194  1  0.752400  0.803400  0.328200  1.0  0.115
  H  H195  1  0.834500  0.936400  0.397800  1.0  0.1142
  H  H196  1  0.465600  0.702200  0.284800  1.0  0.1264
  H  H197  1  0.684900  0.694400  0.234900  1.0  0.1594
  H  H198  1  0.558100  0.561800  0.160800  1.0  0.1433
  H  H199  1  0.339000  0.707000  0.456500  1.0  0.3169
  H  H200  1  0.336700  0.669400  0.382000  1.0  0.3066
  C  C201  1  0.416700  0.877200  0.657680  1.0  -0.1003
  C  C202  1  0.468950  0.952100  0.708800  1.0  0.2566
  C  C203  1  0.483120  0.952840  0.775400  1.0  -0.1864
  C  C204  1  0.447670  0.879540  0.792100  1.0  -0.1138
  C  C205  1  0.394670  0.804740  0.739600  1.0  -0.1551
  C  C206  1  0.381500  0.806800  0.674100  1.0  -0.0601
  C  C207  1  0.391080  0.876360  0.587000  1.0  0.6706
  C  C208  1  0.471940  0.880280  0.861620  1.0  0.6477
  C  C209  1  0.523050  0.716100  0.882500  1.0  0.0915
  C  C210  1  0.660120  0.816240  0.893300  1.0  0.0029
  C  C211  1  0.663230  0.745260  0.865600  1.0  -0.0836
  C  C212  1  0.549440  0.600480  0.823000  1.0  0.2022
  C  C213  1  0.604740  0.568480  0.801200  1.0  -0.18
  C  C214  1  0.572150  0.487500  0.761400  1.0  -0.1002
  C  C215  1  0.483560  0.437920  0.743800  1.0  -0.0194
  C  C216  1  0.427750  0.469900  0.765000  1.0  -0.1112
  C  C217  1  0.460650  0.551100  0.804200  1.0  -0.1894
  C  C218  1  0.449750  0.350700  0.705100  1.0  0.0506
  C  C219  1  0.492390  0.303580  0.697900  1.0  -0.0845
  C  C220  1  0.452700  0.223200  0.654100  1.0  -0.1425
  C  C221  1  0.370110  0.190020  0.620000  1.0  0.1918
  C  C222  1  0.323860  0.231920  0.629000  1.0  -0.182
  C  C223  1  0.366700  0.310800  0.666667  1.0  -0.0963
  C  C224  1  0.374840  0.064680  0.545800  1.0  0.1337
  C  C225  1  0.244360  0.050720  0.559300  1.0  0.0074
  C  C226  1  0.233100  0.978000  0.523100  1.0  0.0157
  C  C227  1  0.460500  0.877200  0.157680  1.0  -0.0998
  C  C228  1  0.483150  0.952100  0.208800  1.0  0.2564
  C  C229  1  0.469720  0.952840  0.275400  1.0  -0.1853
  C  C230  1  0.431870  0.879540  0.292100  1.0  -0.1122
  C  C231  1  0.410070  0.804740  0.239600  1.0  -0.1549
  C  C232  1  0.425300  0.806800  0.174100  1.0  -0.0587
  C  C233  1  0.485280  0.876360  0.087000  1.0  0.6694
  C  C234  1  0.408340  0.880280  0.361620  1.0  0.6466
  C  C235  1  0.193050  0.716100  0.382500  1.0  0.092
  C  C236  1  0.156120  0.816240  0.393300  1.0  0.0024
  C  C237  1  0.082030  0.745260  0.365600  1.0  -0.085
  C  C238  1  0.051040  0.600480  0.323000  1.0  0.2022
  C  C239  1  0.963740  0.568480  0.301200  1.0  -0.1844
  C  C240  1  0.915350  0.487500  0.261400  1.0  -0.1012
  C  C241  1  0.954360  0.437920  0.243800  1.0  -0.0208
  C  C242  1  0.042150  0.469900  0.265000  1.0  -0.1119
  C  C243  1  0.090450  0.551100  0.304200  1.0  -0.1911
  C  C244  1  0.900950  0.350700  0.205100  1.0  0.0512
  C  C245  1  0.811190  0.303580  0.197900  1.0  -0.0846
  C  C246  1  0.770500  0.223200  0.154100  1.0  -0.1422
  C  C247  1  0.819910  0.190020  0.120000  1.0  0.1921
  C  C248  1  0.908060  0.231920  0.129000  1.0  -0.1813
  C  C249  1  0.944100  0.310800  0.166700  1.0  -0.0965
  C  C250  1  0.689840  0.064680  0.045800  1.0  0.1339
  C  C251  1  0.806360  0.050720  0.059300  1.0  0.0073
  C  C252  1  0.744900  0.978000  0.023100  1.0  0.0143
  C  C253  1  0.090370  0.161940  0.600200  1.0  -0.031
  C  C254  1  0.108630  0.234460  0.654100  1.0  0.2134
  C  C255  1  0.090910  0.231020  0.718800  1.0  -0.1356
  C  C256  1  0.053830  0.157660  0.733030  1.0  -0.1474
  C  C257  1  0.034460  0.085720  0.679740  1.0  -0.0156
  C  C258  1  0.052210  0.087820  0.613610  1.0  -0.0874
  C  C259  1  0.114770  0.162540  0.533500  1.0  0.6082
  C  C260  1  0.036340  0.154080  0.803100  1.0  0.643
  C  C261  1  0.834000  0.989000  0.843800  1.0  0.1372
  C  C262  1  0.778520  0.073840  0.896300  1.0  -0.0063
  C  C263  1  0.709680  0.992760  0.864780  1.0  -0.0584
  C  C264  1  0.703260  0.857920  0.792500  1.0  0.159
  C  C265  1  0.616800  0.813000  0.795700  1.0  -0.0604
  C  C266  1  0.577720  0.733640  0.769100  1.0  -0.0796
  C  C267  1  0.614480  0.686560  0.730400  1.0  0.019
  C  C268  1  0.704010  0.731420  0.730300  1.0  -0.1436
  C  C269  1  0.745870  0.813740  0.760000  1.0  -0.1059
  C  C270  1  0.556860  0.604320  0.689000  1.0  0.0536
  C  C271  1  0.470330  0.581060  0.670500  1.0  -0.2352
  C  C272  1  0.420450  0.507900  0.619900  1.0  -0.1167
  C  C273  1  0.454570  0.458140  0.587600  1.0  0.1303
  C  C274  1  0.539890  0.481180  0.607100  1.0  -0.1908
  C  C275  1  0.591390  0.554180  0.658000  1.0  -0.1776
  C  C276  1  0.327320  0.346640  0.511100  1.0  0.2017
  C  C277  1  0.448860  0.341920  0.481770  1.0  0.0088
  C  C278  1  0.378380  0.273360  0.434300  1.0  0.0104
  C  C279  1  0.071570  0.161940  0.100200  1.0  -0.0309
  C  C280  1  0.125830  0.234460  0.154100  1.0  0.2137
  C  C281  1  0.140110  0.231020  0.218800  1.0  -0.1339
  C  C282  1  0.103830  0.157660  0.233030  1.0  -0.1472
  C  C283  1  0.051260  0.085720  0.179740  1.0  -0.0162
  C  C284  1  0.035610  0.087820  0.113610  1.0  -0.0878
  C  C285  1  0.047770  0.162540  0.033500  1.0  0.6082
  C  C286  1  0.117740  0.154080  0.303100  1.0  0.6428
  C  C287  1  0.155000  0.989000  0.343800  1.0  0.1371
  C  C288  1  0.295320  0.073840  0.396300  1.0  -0.0062
  C  C289  1  0.283080  0.992760  0.364780  1.0  -0.0559
  C  C290  1  0.154660  0.857920  0.292500  1.0  0.1585
  C  C291  1  0.196200  0.813000  0.295700  1.0  -0.0624
  C  C292  1  0.155920  0.733640  0.269100  1.0  -0.0806
  C  C293  1  0.072080  0.686560  0.230400  1.0  0.0198
  C  C294  1  0.027410  0.731420  0.230300  1.0  -0.1418
  C  C295  1  0.067870  0.813740  0.260000  1.0  -0.1032
  C  C296  1  0.047460  0.604320  0.189000  1.0  0.0524
  C  C297  1  0.110730  0.581060  0.170500  1.0  -0.2371
  C  C298  1  0.087450  0.507900  0.119900  1.0  -0.1157
  C  C299  1  0.003570  0.458140  0.087600  1.0  0.1298
  C  C300  1  0.941290  0.481180  0.107100  1.0  -0.1888
  C  C301  1  0.962790  0.554180  0.158000  1.0  -0.1787
  C  C302  1  0.019320  0.346640  0.011100  1.0  0.2016
  C  C303  1  0.893060  0.341920  0.981770  1.0  0.0073
  C  C304  1  0.894980  0.273360  0.934300  1.0  0.0101
  C  C305  1  0.598730  0.234260  0.434000  1.0  -0.1127
  C  C306  1  0.648190  0.305180  0.484830  1.0  0.229
  C  C307  1  0.663100  0.305200  0.552400  1.0  -0.1735
  C  C308  1  0.626990  0.232980  0.566500  1.0  -0.1189
  C  C309  1  0.580710  0.159620  0.513500  1.0  -0.0907
  C  C310  1  0.563390  0.158980  0.447500  1.0  -0.0864
  C  C311  1  0.573960  0.233920  0.363100  1.0  0.6542
  C  C312  1  0.646100  0.229400  0.636400  1.0  0.5805
  C  C313  1  0.691430  0.055060  0.648800  1.0  0.165
  C  C314  1  0.805570  0.112940  0.734200  1.0  0.0109
  C  C315  1  0.794300  0.037200  0.700700  1.0  -0.0873
  C  C316  1  0.685660  0.913720  0.600300  1.0  0.0211
  C  C317  1  0.606510  0.877820  0.559200  1.0  -0.0557
  C  C318  1  0.572230  0.798260  0.515300  1.0  -0.0951
  C  C319  1  0.617090  0.754580  0.512500  1.0  -0.0009
  C  C320  1  0.696230  0.790460  0.553600  1.0  -0.1429
  C  C321  1  0.730520  0.870040  0.597400  1.0  -0.0705
  C  C322  1  0.589940  0.669480  0.469700  1.0  0.0004
  C  C323  1  0.503530  0.624060  0.458600  1.0  -0.1562
  C  C324  1  0.460230  0.545060  0.413100  1.0  -0.1907
  C  C325  1  0.511810  0.511220  0.382600  1.0  0.1655
  C  C326  1  0.599020  0.554240  0.395200  1.0  -0.0792
  C  C327  1  0.641340  0.633880  0.437700  1.0  -0.1829
  C  C328  1  0.504870  0.377740  0.316500  1.0  0.1627
  C  C329  1  0.377060  0.374320  0.300400  1.0  -0.02
  C  C330  1  0.367510  0.298420  0.263280  1.0  -0.0234
  C  C331  1  0.635530  0.234260  0.934000  1.0  -0.113
  C  C332  1  0.656990  0.305180  0.984830  1.0  0.2288
  C  C333  1  0.642100  0.305200  0.052400  1.0  -0.1746
  C  C334  1  0.605990  0.232980  0.066500  1.0  -0.1186
  C  C335  1  0.578910  0.159620  0.013500  1.0  -0.0907
  C  C336  1  0.595590  0.158980  0.947500  1.0  -0.0858
  C  C337  1  0.659960  0.233920  0.863100  1.0  0.6542
  C  C338  1  0.583300  0.229400  0.136400  1.0  0.5803
  C  C339  1  0.363630  0.055060  0.148800  1.0  0.1648
  C  C340  1  0.307370  0.112940  0.234200  1.0  0.0104
  C  C341  1  0.242900  0.037200  0.200700  1.0  -0.0889
  C  C342  1  0.228060  0.913720  0.100300  1.0  0.0207
  C  C343  1  0.271310  0.877820  0.059200  1.0  -0.0568
  C  C344  1  0.226030  0.798260  0.015300  1.0  -0.0954
  C  C345  1  0.137490  0.754580  0.012500  1.0  -0.002
  C  C346  1  0.094230  0.790460  0.053600  1.0  -0.1406
  C  C347  1  0.139520  0.870040  0.097400  1.0  -0.0693
  C  C348  1  0.079540  0.669480  0.969700  1.0  -0.0004
  C  C349  1  0.120530  0.624060  0.958600  1.0  -0.1565
  C  C350  1  0.084830  0.545060  0.913100  1.0  -0.1912
  C  C351  1  0.999410  0.511220  0.882600  1.0  0.1657
  C  C352  1  0.955220  0.554240  0.895200  1.0  -0.0793
  C  C353  1  0.992540  0.633880  0.937700  1.0  -0.1819
  C  C354  1  0.872870  0.377740  0.816500  1.0  0.1637
  C  C355  1  0.997260  0.374320  0.800400  1.0  -0.0192
  C  C356  1  0.930910  0.298420  0.763280  1.0  -0.0238
  C  C357  1  0.887620  0.803040  0.322700  1.0  0.0857
  C  C358  1  0.939650  0.873300  0.375060  1.0  0.2001
  C  C359  1  0.953190  0.870580  0.443400  1.0  -0.1555
  C  C360  1  0.917530  0.797260  0.455700  1.0  -0.1242
  C  C361  1  0.867680  0.726560  0.402690  1.0  -0.0857
  C  C362  1  0.851630  0.728260  0.336600  1.0  -0.1253
  C  C363  1  0.870200  0.805800  0.256600  1.0  0.598
  C  C364  1  0.932390  0.796380  0.526830  1.0  0.643
  C  C365  1  0.969280  0.629360  0.567300  1.0  0.1949
  C  C366  1  0.105010  0.723820  0.562300  1.0  -0.0093
  C  C367  1  0.091900  0.645000  0.523500  1.0  -0.0171
  C  C368  1  0.972040  0.502280  0.483800  1.0  0.0786
  C  C369  1  0.026090  0.469580  0.458600  1.0  -0.1085
  C  C370  1  0.991680  0.387760  0.423200  1.0  -0.0812
  C  C371  1  0.903250  0.336700  0.412300  1.0  0.0243
  C  C372  1  0.849330  0.369260  0.437700  1.0  -0.1227
  C  C373  1  0.883940  0.451880  0.473200  1.0  -0.1387
  C  C374  1  0.867410  0.247820  0.372700  1.0  0.0223
  C  C375  1  0.916480  0.205960  0.364400  1.0  -0.1487
  C  C376  1  0.878270  0.124140  0.325800  1.0  -0.1358
  C  C377  1  0.794120  0.083040  0.296900  1.0  0.1108
  C  C378  1  0.745570  0.123540  0.302700  1.0  -0.1693
  C  C379  1  0.782360  0.205120  0.339900  1.0  -0.103
  C  C380  1  0.796710  0.957820  0.232200  1.0  0.1594
  C  C381  1  0.660820  0.942440  0.243080  1.0  -0.0897
  C  C382  1  0.654140  0.866680  0.201500  1.0  -0.0257
  C  C383  1  0.915420  0.803040  0.822700  1.0  0.0854
  C  C384  1  0.933650  0.873300  0.875060  1.0  0.1999
  C  C385  1  0.917390  0.870580  0.943400  1.0  -0.1561
  C  C386  1  0.879730  0.797260  0.955700  1.0  -0.1239
  C  C387  1  0.858880  0.726560  0.902690  1.0  -0.0858
  C  C388  1  0.876630  0.728260  0.836600  1.0  -0.1243
  C  C389  1  0.935600  0.805800  0.756600  1.0  0.5977
  C  C390  1  0.863990  0.796380  0.026830  1.0  0.6439
  C  C391  1  0.660080  0.629360  0.067300  1.0  0.1962
  C  C392  1  0.618810  0.723820  0.062300  1.0  -0.0099
  C  C393  1  0.553100  0.645000  0.023500  1.0  -0.0164
  C  C394  1  0.530240  0.502280  0.983800  1.0  0.079
  C  C395  1  0.443490  0.469580  0.958600  1.0  -0.1074
  C  C396  1  0.396080  0.387760  0.923200  1.0  -0.0794
  C  C397  1  0.433450  0.336700  0.912300  1.0  0.0243
  C  C398  1  0.519930  0.369260  0.937700  1.0  -0.1224
  C  C399  1  0.567940  0.451880  0.973200  1.0  -0.1398
  C  C400  1  0.380410  0.247820  0.872700  1.0  0.0213
  C  C401  1  0.289480  0.205960  0.864400  1.0  -0.149
  C  C402  1  0.245870  0.124140  0.825800  1.0  -0.136
  C  C403  1  0.288920  0.083040  0.796900  1.0  0.1086
  C  C404  1  0.377970  0.123540  0.802700  1.0  -0.17
  C  C405  1  0.422760  0.205120  0.839900  1.0  -0.1043
  C  C406  1  0.161110  0.957820  0.732200  1.0  0.1568
  C  C407  1  0.281620  0.942440  0.743080  1.0  -0.0902
  C  C408  1  0.212540  0.866680  0.701500  1.0  -0.0256
  C  C409  1  0.245230  0.514660  0.879700  1.0  -0.0568
  C  C410  1  0.294810  0.590620  0.931000  1.0  0.2575
  C  C411  1  0.305820  0.589640  0.997300  1.0  -0.1882
  C  C412  1  0.268560  0.517520  0.012400  1.0  -0.0707
  C  C413  1  0.220440  0.445080  0.962600  1.0  -0.1331
  C  C414  1  0.209600  0.443200  0.895000  1.0  -0.0488
  C  C415  1  0.230700  0.516200  0.807800  1.0  0.6878
  C  C416  1  0.283550  0.517700  0.083500  1.0  0.6216
  C  C417  1  0.323680  0.342960  0.095020  1.0  0.1898
  C  C418  1  0.450270  0.409940  0.167900  1.0  -0.005
  C  C419  1  0.443860  0.335120  0.122100  1.0  -0.0344
  C  C420  1  0.329010  0.213020  0.035400  1.0  0.1162
  C  C421  1  0.385850  0.187700  0.999800  1.0  -0.2067
  C  C422  1  0.351700  0.111400  0.957500  1.0  -0.0993
  C  C423  1  0.262450  0.054900  0.946600  1.0  0.0141
  C  C424  1  0.206860  0.080520  0.981100  1.0  -0.1492
  C  C425  1  0.241800  0.160600  0.023600  1.0  -0.1128
  C  C426  1  0.228630  0.969660  0.899570  1.0  -0.001
  C  C427  1  0.285720  0.940640  0.874900  1.0  -0.1038
  C  C428  1  0.254450  0.859900  0.833300  1.0  -0.124
  C  C429  1  0.166340  0.808680  0.815700  1.0  0.1147
  C  C430  1  0.109940  0.837680  0.840000  1.0  -0.1745
  C  C431  1  0.140460  0.917520  0.881700  1.0  -0.139
  C  C432  1  0.181260  0.684120  0.764000  1.0  0.1665
  C  C433  1  0.052990  0.679980  0.735000  1.0  -0.0681
  C  C434  1  0.048870  0.603940  0.694000  1.0  0.0494
  C  C435  1  0.269430  0.514660  0.379700  1.0  -0.0567
  C  C436  1  0.295810  0.590620  0.431000  1.0  0.2572
  C  C437  1  0.283820  0.589640  0.497300  1.0  -0.1893
  C  C438  1  0.248960  0.517520  0.512400  1.0  -0.0702
  C  C439  1  0.224640  0.445080  0.462600  1.0  -0.1329
  C  C440  1  0.233600  0.443200  0.395000  1.0  -0.0481
  C  C441  1  0.285500  0.516200  0.307800  1.0  0.6879
  C  C442  1  0.234150  0.517700  0.583500  1.0  0.6214
  C  C443  1  0.019280  0.342960  0.595020  1.0  0.1896
  C  C444  1  0.959670  0.409940  0.667900  1.0  0.0013
  C  C445  1  0.891260  0.335120  0.622100  1.0  -0.0377
  C  C446  1  0.884010  0.213020  0.535400  1.0  0.1162
  C  C447  1  0.801850  0.187700  0.499800  1.0  -0.2066
  C  C448  1  0.759700  0.111400  0.457500  1.0  -0.0976
  C  C449  1  0.792450  0.054900  0.446600  1.0  0.0139
  C  C450  1  0.873660  0.080520  0.481100  1.0  -0.1495
  C  C451  1  0.918800  0.160600  0.523600  1.0  -0.114
  C  C452  1  0.741030  0.969660  0.399570  1.0  -0.001
  C  C453  1  0.654920  0.940640  0.374900  1.0  -0.1076
  C  C454  1  0.605450  0.859900  0.333333  1.0  -0.124
  C  C455  1  0.642340  0.808680  0.315700  1.0  0.1115
  C  C456  1  0.727740  0.837680  0.340000  1.0  -0.177
  C  C457  1  0.777060  0.917520  0.381700  1.0  -0.1394
  C  C458  1  0.502860  0.684120  0.264000  1.0  0.1645
  C  C459  1  0.626990  0.679980  0.235000  1.0  -0.0673
  C  C460  1  0.555070  0.603940  0.194000  1.0  0.049
  N  N461  1  0.505340  0.027680  0.700600  1.0  -0.5825
  N  N462  1  0.574840  0.801680  0.906900  1.0  -0.3762
  N  N463  1  0.575970  0.680540  0.857500  1.0  -0.1865
  N  N464  1  0.333100  0.107800  0.575900  1.0  -0.0991
  N  N465  1  0.315010  0.983220  0.509200  1.0  -0.4501
  N  N466  1  0.522340  0.027680  0.200600  1.0  -0.5815
  N  N467  1  0.226840  0.801680  0.406900  1.0  -0.3733
  N  N468  1  0.104570  0.680540  0.357500  1.0  -0.1884
  N  N469  1  0.774700  0.107800  0.075900  1.0  -0.0991
  N  N470  1  0.668210  0.983220  0.009200  1.0  -0.4496
  N  N471  1  0.152990  0.311640  0.647570  1.0  -0.5923
  N  N472  1  0.855990  0.072380  0.881350  1.0  -0.4122
  N  N473  1  0.743380  0.942560  0.833600  1.0  -0.1311
  N  N474  1  0.419050  0.388100  0.527550  1.0  -0.1758
  N  N475  1  0.302180  0.277160  0.455390  1.0  -0.3667
  N  N476  1  0.158650  0.311640  0.147570  1.0  -0.592
  N  N477  1  0.216390  0.072380  0.381350  1.0  -0.413
  N  N478  1  0.199180  0.942560  0.333600  1.0  -0.1312
  N  N479  1  0.969050  0.388100  0.027550  1.0  -0.1759
  N  N480  1  0.974980  0.277160  0.955390  1.0  -0.3664
  N  N481  1  0.685330  0.383460  0.484380  1.0  -0.5795
  N  N482  1  0.739930  0.126260  0.704210  1.0  -0.4453
  N  N483  1  0.723600  0.999700  0.645760  1.0  -0.1733
  N  N484  1  0.461080  0.424560  0.335080  1.0  -0.2582
  N  N485  1  0.446220  0.299240  0.271550  1.0  -0.3985
  N  N486  1  0.698130  0.383460  0.984380  1.0  -0.5796
  N  N487  1  0.386330  0.126260  0.204210  1.0  -0.4447
  N  N488  1  0.276100  0.999700  0.145760  1.0  -0.1727
  N  N489  1  0.963480  0.424560  0.835080  1.0  -0.2578
  N  N490  1  0.853020  0.299240  0.771550  1.0  -0.3987
  N  N491  1  0.974330  0.949800  0.367930  1.0  -0.5692
  N  N492  1  0.028510  0.713620  0.588750  1.0  -0.371
  N  N493  1  0.006770  0.586540  0.526630  1.0  -0.1708
  N  N494  1  0.749580  0.996960  0.260460  1.0  -0.1447
  N  N495  1  0.736220  0.875800  0.195130  1.0  -0.3724
  N  N496  1  0.975470  0.949800  0.867930  1.0  -0.5685
  N  N497  1  0.685110  0.713620  0.088750  1.0  -0.3691
  N  N498  1  0.579770  0.586540  0.026630  1.0  -0.1696
  N  N499  1  0.247380  0.996960  0.760460  1.0  -0.1451
  N  N500  1  0.139580  0.875800  0.695130  1.0  -0.3731
  N  N501  1  0.336930  0.664660  0.922100  1.0  -0.6174
  N  N502  1  0.375220  0.413040  0.150410  1.0  -0.3685
  N  N503  1  0.364130  0.293860  0.079530  1.0  -0.1123
  N  N504  1  0.135480  0.728160  0.775300  1.0  -0.1101
  N  N505  1  0.127870  0.606340  0.714600  1.0  -0.3769
  N  N506  1  0.327730  0.664660  0.422100  1.0  -0.6178
  N  N507  1  0.037820  0.413040  0.650410  1.0  -0.3676
  N  N508  1  0.929730  0.293860  0.579530  1.0  -0.1121
  N  N509  1  0.592680  0.728160  0.275300  1.0  -0.11
  N  N510  1  0.478470  0.606340  0.214600  1.0  -0.3777
  O  O511  1  0.327400  0.816760  0.548650  1.0  -0.5659
  O  O512  1  0.439850  0.939680  0.573180  1.0  -0.5919
  O  O513  1  0.528940  0.942180  0.902230  1.0  -0.6092
  O  O514  1  0.436920  0.818440  0.881050  1.0  -0.6203
  O  O515  1  0.489360  0.816760  0.048650  1.0  -0.5663
  O  O516  1  0.499830  0.939680  0.073180  1.0  -0.5927
  O  O517  1  0.413240  0.942180  0.402230  1.0  -0.6093
  O  O518  1  0.381520  0.818440  0.381050  1.0  -0.6207
  O  O519  1  0.104530  0.099140  0.489130  1.0  -0.6183
  O  O520  1  0.143670  0.224860  0.517110  1.0  -0.5972
  O  O521  1  0.040540  0.217340  0.842520  1.0  -0.5807
  O  O522  1  0.023520  0.098860  0.826020  1.0  -0.5975
  O  O523  1  0.994610  0.099140  0.989130  1.0  -0.6188
  O  O524  1  0.081190  0.224860  0.017110  1.0  -0.5973
  O  O525  1  0.176800  0.217340  0.342520  1.0  -0.581
  O  O526  1  0.075340  0.098860  0.326020  1.0  -0.5974
  O  O527  1  0.515120  0.170920  0.319420  1.0  -0.5861
  O  O528  1  0.615700  0.296260  0.349060  1.0  -0.5818
  O  O529  1  0.703370  0.294020  0.676420  1.0  -0.6009
  O  O530  1  0.615110  0.171200  0.660390  1.0  -0.5968
  O  O531  1  0.655800  0.170920  0.819420  1.0  -0.5859
  O  O532  1  0.680560  0.296260  0.849060  1.0  -0.5821
  O  O533  1  0.590650  0.294020  0.176420  1.0  -0.6013
  O  O534  1  0.556090  0.171200  0.160390  1.0  -0.5969
  O  O535  1  0.814980  0.741640  0.210650  1.0  -0.6468
  O  O536  1  0.903740  0.867420  0.238350  1.0  -0.6036
  O  O537  1  0.992880  0.860100  0.566470  1.0  -0.6162
  O  O538  1  0.891490  0.739660  0.549280  1.0  -0.5912
  O  O539  1  0.926660  0.741640  0.710650  1.0  -0.6468
  O  O540  1  0.963680  0.867420  0.738350  1.0  -0.6037
  O  O541  1  0.867220  0.860100  0.066470  1.0  -0.6149
  O  O542  1  0.848170  0.739660  0.049280  1.0  -0.5918
  O  O543  1  0.179870  0.452900  0.764860  1.0  -0.6147
  O  O544  1  0.272480  0.578840  0.790360  1.0  -0.627
  O  O545  1  0.341070  0.584180  0.124190  1.0  -0.6181
  O  O546  1  0.248400  0.461200  0.107510  1.0  -0.5901
  O  O547  1  0.273030  0.452900  0.264860  1.0  -0.6144
  O  O548  1  0.306360  0.578840  0.290360  1.0  -0.626
  O  O549  1  0.243110  0.584180  0.624190  1.0  -0.618
  O  O550  1  0.212800  0.461200  0.607510  1.0  -0.5908
