# generated using pymatgen
data_Cd3H40C52O19
_symmetry_space_group_name_H-M   'P 1'
_cell_length_a   11.36700000
_cell_length_b   24.37300000
_cell_length_c   36.59600000
_cell_angle_alpha   97.68500000
_cell_angle_beta   90.00000000
_cell_angle_gamma   90.00000000
_symmetry_Int_Tables_number   1
_chemical_formula_structural   Cd3H40C52O19
_chemical_formula_sum   'Cd12 H160 C208 O76'
_cell_volume   10047.77998300
_cell_formula_units_Z   4
loop_
 _symmetry_equiv_pos_site_id
 _symmetry_equiv_pos_as_xyz
  1  'x, y, z'
loop_
 _atom_site_type_symbol
 _atom_site_label
 _atom_site_symmetry_multiplicity
 _atom_site_fract_x
 _atom_site_fract_y
 _atom_site_fract_z
 _atom_site_occupancy
 _atom_site_charge
  Cd  Cd1  1  0.356860  0.672450  0.842080  1.0  1.0479
  Cd  Cd2  1  0.632710  0.716300  0.881370  1.0  1.0952
  Cd  Cd3  1  0.082090  0.298940  0.091420  1.0  0.9519
  Cd  Cd4  1  0.856860  0.327550  0.657920  1.0  1.0491
  Cd  Cd5  1  0.132710  0.283700  0.618630  1.0  1.0955
  Cd  Cd6  1  0.582090  0.701060  0.408580  1.0  0.9536
  Cd  Cd7  1  0.643140  0.327550  0.157920  1.0  1.0466
  Cd  Cd8  1  0.367290  0.283700  0.118630  1.0  1.0954
  Cd  Cd9  1  0.917910  0.701060  0.908580  1.0  0.9569
  Cd  Cd10  1  0.143140  0.672450  0.342080  1.0  1.0462
  Cd  Cd11  1  0.867290  0.716300  0.381370  1.0  1.0952
  Cd  Cd12  1  0.417910  0.298940  0.591420  1.0  0.956
  H  H13  1  0.374700  0.754500  0.134200  1.0  0.0679
  H  H14  1  0.417700  0.745400  0.173800  1.0  0.0748
  H  H15  1  0.586200  0.721800  0.089200  1.0  0.0698
  H  H16  1  0.565200  0.657400  0.082000  1.0  0.071
  H  H17  1  0.393400  0.647000  0.163000  1.0  0.0735
  H  H18  1  0.342100  0.651100  0.123500  1.0  0.0685
  H  H19  1  0.654200  0.651000  0.141700  1.0  0.0719
  H  H20  1  0.667100  0.715700  0.151700  1.0  0.0619
  H  H21  1  0.428800  0.844900  0.178700  1.0  0.0691
  H  H22  1  0.431400  0.853100  0.136800  1.0  0.0793
  H  H23  1  0.729900  0.904000  0.136200  1.0  0.0754
  H  H24  1  0.704300  0.839900  0.130600  1.0  0.0626
  H  H25  1  0.487300  0.948500  0.146600  1.0  0.0694
  H  H26  1  0.473500  0.947500  0.189300  1.0  0.0788
  H  H27  1  0.680700  0.837600  0.196500  1.0  0.0753
  H  H28  1  0.710000  0.901200  0.204500  1.0  0.0774
  H  H29  1  0.249800  0.717200  0.036800  1.0  0.1218
  H  H30  1  0.222900  0.705800  0.973700  1.0  0.1064
  H  H31  1  0.561700  0.665000  0.959400  1.0  0.095
  H  H32  1  0.587500  0.673900  0.022200  1.0  0.1184
  H  H33  1  0.247700  0.581500  0.145700  1.0  0.1192
  H  H34  1  0.144600  0.499200  0.141500  1.0  0.1053
  H  H35  1  0.432800  0.415800  0.103000  1.0  0.1032
  H  H36  1  0.533700  0.497900  0.105500  1.0  0.1201
  H  H37  1  0.815700  0.687700  0.184000  1.0  0.13
  H  H38  1  0.952700  0.682000  0.230000  1.0  0.1075
  H  H39  1  0.697300  0.650100  0.298700  1.0  0.0996
  H  H40  1  0.558800  0.659900  0.254500  1.0  0.1358
  H  H41  1  0.483200  0.862300  0.042800  1.0  0.1302
  H  H42  1  0.530000  0.814200  0.986600  1.0  0.1027
  H  H43  1  0.855500  0.790100  0.021100  1.0  0.1087
  H  H44  1  0.806100  0.837500  0.080100  1.0  0.1286
  H  H45  1  0.769600  0.056000  0.176300  1.0  0.1298
  H  H46  1  0.749000  0.146200  0.166900  1.0  0.1094
  H  H47  1  0.402000  0.124900  0.157600  1.0  0.1029
  H  H48  1  0.422400  0.035200  0.168900  1.0  0.1303
  H  H49  1  0.402100  0.845900  0.266000  1.0  0.1328
  H  H50  1  0.413700  0.792700  0.313900  1.0  0.1015
  H  H51  1  0.765400  0.793500  0.308400  1.0  0.1005
  H  H52  1  0.754500  0.843600  0.258300  1.0  0.1115
  H  H53  1  0.874700  0.245500  0.365800  1.0  0.0673
  H  H54  1  0.917700  0.254600  0.326200  1.0  0.0759
  H  H55  1  0.086200  0.278200  0.410800  1.0  0.0698
  H  H56  1  0.065200  0.342600  0.418000  1.0  0.0708
  H  H57  1  0.893400  0.353000  0.337000  1.0  0.0736
  H  H58  1  0.842100  0.348900  0.376500  1.0  0.0683
  H  H59  1  0.154200  0.349000  0.358300  1.0  0.0718
  H  H60  1  0.167100  0.284300  0.348300  1.0  0.0623
  H  H61  1  0.928800  0.155100  0.321300  1.0  0.0693
  H  H62  1  0.931400  0.146900  0.363200  1.0  0.0788
  H  H63  1  0.229900  0.096000  0.363800  1.0  0.0741
  H  H64  1  0.204300  0.160100  0.369400  1.0  0.0621
  H  H65  1  0.987300  0.051500  0.353400  1.0  0.0705
  H  H66  1  0.973500  0.052500  0.310700  1.0  0.0781
  H  H67  1  0.180700  0.162400  0.303500  1.0  0.0779
  H  H68  1  0.210000  0.098800  0.295500  1.0  0.0775
  H  H69  1  0.749800  0.282800  0.463200  1.0  0.122
  H  H70  1  0.722900  0.294200  0.526300  1.0  0.1061
  H  H71  1  0.061700  0.335000  0.540600  1.0  0.0953
  H  H72  1  0.087500  0.326100  0.477800  1.0  0.1195
  H  H73  1  0.747700  0.418500  0.354300  1.0  0.1184
  H  H74  1  0.644600  0.500800  0.358500  1.0  0.1059
  H  H75  1  0.932800  0.584200  0.397000  1.0  0.1026
  H  H76  1  0.033700  0.502100  0.394500  1.0  0.1205
  H  H77  1  0.315700  0.312300  0.316000  1.0  0.1298
  H  H78  1  0.452700  0.318000  0.270000  1.0  0.1075
  H  H79  1  0.197300  0.349900  0.201300  1.0  0.0998
  H  H80  1  0.058800  0.340100  0.245500  1.0  0.1359
  H  H81  1  0.983200  0.137700  0.457200  1.0  0.1311
  H  H82  1  0.030000  0.185800  0.513400  1.0  0.1025
  H  H83  1  0.355500  0.209900  0.478900  1.0  0.1086
  H  H84  1  0.306100  0.162500  0.419900  1.0  0.1279
  H  H85  1  0.269600  0.944000  0.323700  1.0  0.1301
  H  H86  1  0.249000  0.853800  0.333100  1.0  0.1099
  H  H87  1  0.902000  0.875100  0.342400  1.0  0.1032
  H  H88  1  0.922400  0.964800  0.331100  1.0  0.1304
  H  H89  1  0.902100  0.154100  0.234000  1.0  0.1327
  H  H90  1  0.913700  0.207300  0.186100  1.0  0.1008
  H  H91  1  0.265400  0.206500  0.191600  1.0  0.1008
  H  H92  1  0.254500  0.156400  0.241700  1.0  0.1111
  H  H93  1  0.625300  0.245500  0.865800  1.0  0.067
  H  H94  1  0.582300  0.254600  0.826200  1.0  0.0755
  H  H95  1  0.413800  0.278200  0.910800  1.0  0.0702
  H  H96  1  0.434800  0.342600  0.918000  1.0  0.0716
  H  H97  1  0.606600  0.353000  0.837000  1.0  0.0748
  H  H98  1  0.657900  0.348900  0.876500  1.0  0.0682
  H  H99  1  0.345800  0.349000  0.858300  1.0  0.072
  H  H100  1  0.332900  0.284300  0.848300  1.0  0.0626
  H  H101  1  0.571200  0.155100  0.821300  1.0  0.069
  H  H102  1  0.568600  0.146900  0.863200  1.0  0.0782
  H  H103  1  0.270100  0.096000  0.863800  1.0  0.0754
  H  H104  1  0.295700  0.160100  0.869400  1.0  0.062
  H  H105  1  0.512700  0.051500  0.853400  1.0  0.0701
  H  H106  1  0.526500  0.052500  0.810700  1.0  0.0779
  H  H107  1  0.319300  0.162400  0.803500  1.0  0.079
  H  H108  1  0.290000  0.098800  0.795500  1.0  0.0787
  H  H109  1  0.750200  0.282800  0.963200  1.0  0.1221
  H  H110  1  0.777100  0.294200  0.026300  1.0  0.1059
  H  H111  1  0.438300  0.335000  0.040600  1.0  0.0953
  H  H112  1  0.412500  0.326100  0.977800  1.0  0.1192
  H  H113  1  0.752300  0.418500  0.854300  1.0  0.118
  H  H114  1  0.855400  0.500800  0.858500  1.0  0.1068
  H  H115  1  0.567200  0.584200  0.897000  1.0  0.1029
  H  H116  1  0.466300  0.502100  0.894500  1.0  0.1219
  H  H117  1  0.184300  0.312300  0.816000  1.0  0.13
  H  H118  1  0.047300  0.318000  0.770000  1.0  0.1069
  H  H119  1  0.302700  0.349900  0.701300  1.0  0.0997
  H  H120  1  0.441200  0.340100  0.745500  1.0  0.1358
  H  H121  1  0.516800  0.137700  0.957200  1.0  0.1306
  H  H122  1  0.470000  0.185800  0.013400  1.0  0.1031
  H  H123  1  0.144500  0.209900  0.978900  1.0  0.1085
  H  H124  1  0.193900  0.162500  0.919900  1.0  0.1284
  H  H125  1  0.230400  0.944000  0.823700  1.0  0.1298
  H  H126  1  0.251000  0.853800  0.833100  1.0  0.1098
  H  H127  1  0.598000  0.875100  0.842400  1.0  0.1025
  H  H128  1  0.577600  0.964800  0.831100  1.0  0.1314
  H  H129  1  0.597900  0.154100  0.734000  1.0  0.133
  H  H130  1  0.586300  0.207300  0.686100  1.0  0.1002
  H  H131  1  0.234600  0.206500  0.691600  1.0  0.1004
  H  H132  1  0.245500  0.156400  0.741700  1.0  0.1111
  H  H133  1  0.125300  0.754500  0.634200  1.0  0.0684
  H  H134  1  0.082300  0.745400  0.673800  1.0  0.0733
  H  H135  1  0.913800  0.721800  0.589200  1.0  0.071
  H  H136  1  0.934800  0.657400  0.582000  1.0  0.0716
  H  H137  1  0.106600  0.647000  0.663000  1.0  0.0728
  H  H138  1  0.157900  0.651100  0.623500  1.0  0.069
  H  H139  1  0.845800  0.651000  0.641700  1.0  0.0723
  H  H140  1  0.832900  0.715700  0.651700  1.0  0.0629
  H  H141  1  0.071200  0.844900  0.678700  1.0  0.0688
  H  H142  1  0.068600  0.853100  0.636800  1.0  0.0799
  H  H143  1  0.770100  0.904000  0.636200  1.0  0.0767
  H  H144  1  0.795700  0.839900  0.630600  1.0  0.0622
  H  H145  1  0.012700  0.948500  0.646600  1.0  0.07
  H  H146  1  0.026500  0.947500  0.689300  1.0  0.0785
  H  H147  1  0.819300  0.837600  0.696500  1.0  0.076
  H  H148  1  0.790000  0.901200  0.704500  1.0  0.0787
  H  H149  1  0.250200  0.717200  0.536800  1.0  0.122
  H  H150  1  0.277100  0.705800  0.473700  1.0  0.1062
  H  H151  1  0.938300  0.665000  0.459400  1.0  0.0951
  H  H152  1  0.912500  0.673900  0.522200  1.0  0.1184
  H  H153  1  0.252300  0.581500  0.645700  1.0  0.1185
  H  H154  1  0.355400  0.499200  0.641500  1.0  0.1059
  H  H155  1  0.067200  0.415800  0.603000  1.0  0.1031
  H  H156  1  0.966300  0.497900  0.605500  1.0  0.1212
  H  H157  1  0.684300  0.687700  0.684000  1.0  0.1295
  H  H158  1  0.547300  0.682000  0.730000  1.0  0.1073
  H  H159  1  0.802700  0.650100  0.798700  1.0  0.0994
  H  H160  1  0.941200  0.659900  0.754500  1.0  0.1359
  H  H161  1  0.016800  0.862300  0.542800  1.0  0.1309
  H  H162  1  0.970000  0.814200  0.486600  1.0  0.1021
  H  H163  1  0.644500  0.790100  0.521100  1.0  0.1084
  H  H164  1  0.693900  0.837500  0.580100  1.0  0.128
  H  H165  1  0.730400  0.056000  0.676300  1.0  0.1302
  H  H166  1  0.751000  0.146200  0.666900  1.0  0.1095
  H  H167  1  0.098000  0.124900  0.657600  1.0  0.1027
  H  H168  1  0.077600  0.035200  0.668900  1.0  0.1318
  H  H169  1  0.097900  0.845900  0.766000  1.0  0.1331
  H  H170  1  0.086300  0.792700  0.813900  1.0  0.1006
  H  H171  1  0.734600  0.793500  0.808400  1.0  0.1001
  H  H172  1  0.745500  0.843600  0.758300  1.0  0.1111
  C  C173  1  0.443100  0.747300  0.148700  1.0  0.0643
  C  C174  1  0.500000  0.692700  0.132610  1.0  -0.0282
  C  C175  1  0.530500  0.692600  0.092040  1.0  0.0756
  C  C176  1  0.413600  0.646100  0.137200  1.0  0.0726
  C  C177  1  0.614800  0.684500  0.152800  1.0  0.08
  C  C178  1  0.478600  0.843500  0.157100  1.0  0.0788
  C  C179  1  0.580900  0.884100  0.164700  1.0  -0.0224
  C  C180  1  0.668300  0.876300  0.132500  1.0  0.0923
  C  C181  1  0.528800  0.942700  0.168900  1.0  0.0674
  C  C182  1  0.646900  0.874400  0.199500  1.0  0.0891
  C  C183  1  0.419800  0.694700  0.035900  1.0  0.3017
  C  C184  1  0.312300  0.705600  0.021200  1.0  -0.1963
  C  C185  1  0.296700  0.699400  0.983300  1.0  -0.0423
  C  C186  1  0.388800  0.683900  0.959450  1.0  -0.1191
  C  C187  1  0.498000  0.674900  0.974890  1.0  -0.0441
  C  C188  1  0.513800  0.680100  0.012500  1.0  -0.2542
  C  C189  1  0.371100  0.678600  0.919000  1.0  0.7193
  C  C190  1  0.398800  0.548800  0.124300  1.0  0.3246
  C  C191  1  0.284200  0.548500  0.136300  1.0  -0.2614
  C  C192  1  0.223100  0.498800  0.134200  1.0  -0.0284
  C  C193  1  0.276800  0.448300  0.121500  1.0  -0.1398
  C  C194  1  0.394600  0.448900  0.111100  1.0  -0.0513
  C  C195  1  0.455000  0.498200  0.112500  1.0  -0.2128
  C  C196  1  0.209700  0.396400  0.118000  1.0  0.69
  C  C197  1  0.673300  0.675700  0.215020  1.0  0.2744
  C  C198  1  0.791500  0.681200  0.207320  1.0  -0.2706
  C  C199  1  0.873400  0.676900  0.234700  1.0  -0.0192
  C  C200  1  0.839300  0.665200  0.269000  1.0  -0.1581
  C  C201  1  0.721100  0.658500  0.275780  1.0  -0.0225
  C  C202  1  0.638200  0.664000  0.249360  1.0  -0.2492
  C  C203  1  0.929200  0.662700  0.298630  1.0  0.7145
  C  C204  1  0.640100  0.853700  0.067200  1.0  0.3066
  C  C205  1  0.558200  0.847400  0.038800  1.0  -0.1409
  C  C206  1  0.587100  0.819200  0.005000  1.0  -0.0202
  C  C207  1  0.698000  0.798000  0.997400  1.0  -0.158
  C  C208  1  0.780200  0.804400  0.025400  1.0  -0.0312
  C  C209  1  0.750500  0.833100  0.061300  1.0  -0.2332
  C  C210  1  0.727300  0.766900  0.960400  1.0  0.7786
  C  C211  1  0.599200  0.036400  0.171700  1.0  0.3107
  C  C212  1  0.695200  0.070000  0.172200  1.0  -0.2168
  C  C213  1  0.682600  0.123900  0.166700  1.0  -0.0346
  C  C214  1  0.572800  0.146200  0.161000  1.0  -0.1311
  C  C215  1  0.476700  0.111300  0.161500  1.0  -0.0084
  C  C216  1  0.488500  0.057400  0.167600  1.0  -0.2868
  C  C217  1  0.556200  0.204800  0.153700  1.0  0.7297
  C  C218  1  0.579400  0.849100  0.257400  1.0  0.2597
  C  C219  1  0.474700  0.834700  0.274100  1.0  -0.2453
  C  C220  1  0.482300  0.803400  0.302900  1.0  -0.0182
  C  C221  1  0.589100  0.787800  0.315580  1.0  -0.1328
  C  C222  1  0.692800  0.803200  0.299500  1.0  -0.0311
  C  C223  1  0.686000  0.833800  0.269700  1.0  -0.2188
  C  C224  1  0.595300  0.754400  0.347720  1.0  0.7232
  C  C225  1  0.943100  0.252700  0.351300  1.0  0.0641
  C  C226  1  0.000000  0.307300  0.367390  1.0  -0.0289
  C  C227  1  0.030500  0.307400  0.407960  1.0  0.0757
  C  C228  1  0.913600  0.353900  0.362800  1.0  0.0731
  C  C229  1  0.114800  0.315500  0.347200  1.0  0.0822
  C  C230  1  0.978600  0.156500  0.342900  1.0  0.0789
  C  C231  1  0.080900  0.115900  0.335300  1.0  -0.0222
  C  C232  1  0.168300  0.123700  0.367500  1.0  0.091
  C  C233  1  0.028800  0.057300  0.331100  1.0  0.0675
  C  C234  1  0.146900  0.125600  0.300500  1.0  0.0897
  C  C235  1  0.919800  0.305300  0.464100  1.0  0.3011
  C  C236  1  0.812300  0.294400  0.478800  1.0  -0.1957
  C  C237  1  0.796700  0.300600  0.516700  1.0  -0.0415
  C  C238  1  0.888800  0.316100  0.540550  1.0  -0.1192
  C  C239  1  0.998000  0.325100  0.525110  1.0  -0.0445
  C  C240  1  0.013800  0.319900  0.487500  1.0  -0.2543
  C  C241  1  0.871100  0.321400  0.581000  1.0  0.7177
  C  C242  1  0.898800  0.451200  0.375700  1.0  0.325
  C  C243  1  0.784200  0.451500  0.363700  1.0  -0.2618
  C  C244  1  0.723100  0.501200  0.365800  1.0  -0.0277
  C  C245  1  0.776800  0.551700  0.378500  1.0  -0.1398
  C  C246  1  0.894600  0.551100  0.388900  1.0  -0.0528
  C  C247  1  0.955000  0.501800  0.387500  1.0  -0.2124
  C  C248  1  0.709700  0.603600  0.382000  1.0  0.6907
  C  C249  1  0.173300  0.324300  0.284980  1.0  0.2732
  C  C250  1  0.291500  0.318800  0.292680  1.0  -0.2696
  C  C251  1  0.373400  0.323100  0.265300  1.0  -0.0182
  C  C252  1  0.339300  0.334800  0.231000  1.0  -0.1574
  C  C253  1  0.221100  0.341500  0.224220  1.0  -0.0224
  C  C254  1  0.138200  0.336000  0.250640  1.0  -0.2471
  C  C255  1  0.429200  0.337300  0.201370  1.0  0.7135
  C  C256  1  0.140100  0.146300  0.432800  1.0  0.3051
  C  C257  1  0.058200  0.152600  0.461200  1.0  -0.1436
  C  C258  1  0.087100  0.180800  0.495000  1.0  -0.0213
  C  C259  1  0.198000  0.202000  0.502600  1.0  -0.1607
  C  C260  1  0.280200  0.195600  0.474600  1.0  -0.0316
  C  C261  1  0.250500  0.166900  0.438700  1.0  -0.23
  C  C262  1  0.227300  0.233100  0.539600  1.0  0.7806
  C  C263  1  0.099200  0.963600  0.328300  1.0  0.3115
  C  C264  1  0.195200  0.930000  0.327800  1.0  -0.215
  C  C265  1  0.182600  0.876100  0.333333  1.0  -0.0295
  C  C266  1  0.072800  0.853800  0.339000  1.0  -0.1327
  C  C267  1  0.976700  0.888700  0.338500  1.0  -0.0072
  C  C268  1  0.988500  0.942600  0.332400  1.0  -0.2861
  C  C269  1  0.056200  0.795200  0.346300  1.0  0.7296
  C  C270  1  0.079400  0.150900  0.242600  1.0  0.2585
  C  C271  1  0.974700  0.165300  0.225900  1.0  -0.2442
  C  C272  1  0.982300  0.196600  0.197100  1.0  -0.0175
  C  C273  1  0.089100  0.212200  0.184420  1.0  -0.1333
  C  C274  1  0.192800  0.196800  0.200500  1.0  -0.0313
  C  C275  1  0.186000  0.166200  0.230300  1.0  -0.2184
  C  C276  1  0.095300  0.245600  0.152280  1.0  0.7235
  C  C277  1  0.556900  0.252700  0.851300  1.0  0.0637
  C  C278  1  0.500000  0.307300  0.867390  1.0  -0.0283
  C  C279  1  0.469500  0.307400  0.907960  1.0  0.0765
  C  C280  1  0.586400  0.353900  0.862800  1.0  0.0743
  C  C281  1  0.385200  0.315500  0.847200  1.0  0.0803
  C  C282  1  0.521400  0.156500  0.842900  1.0  0.0779
  C  C283  1  0.419100  0.115900  0.835300  1.0  -0.0222
  C  C284  1  0.331700  0.123700  0.867500  1.0  0.0897
  C  C285  1  0.471200  0.057300  0.831100  1.0  0.0677
  C  C286  1  0.353100  0.125600  0.800500  1.0  0.0903
  C  C287  1  0.580200  0.305300  0.964100  1.0  0.2992
  C  C288  1  0.687700  0.294400  0.978800  1.0  -0.1997
  C  C289  1  0.703300  0.300600  0.016700  1.0  -0.0407
  C  C290  1  0.611200  0.316100  0.040550  1.0  -0.1218
  C  C291  1  0.502000  0.325100  0.025110  1.0  -0.0445
  C  C292  1  0.486200  0.319900  0.987500  1.0  -0.2551
  C  C293  1  0.628900  0.321400  0.081000  1.0  0.7187
  C  C294  1  0.601200  0.451200  0.875700  1.0  0.3249
  C  C295  1  0.715800  0.451500  0.863700  1.0  -0.2613
  C  C296  1  0.776900  0.501200  0.865800  1.0  -0.0291
  C  C297  1  0.723200  0.551700  0.878500  1.0  -0.1399
  C  C298  1  0.605400  0.551100  0.888900  1.0  -0.0524
  C  C299  1  0.545000  0.501800  0.887500  1.0  -0.2119
  C  C300  1  0.790300  0.603600  0.882000  1.0  0.6912
  C  C301  1  0.326700  0.324300  0.784980  1.0  0.272
  C  C302  1  0.208500  0.318800  0.792680  1.0  -0.2715
  C  C303  1  0.126600  0.323100  0.765300  1.0  -0.0214
  C  C304  1  0.160700  0.334800  0.731000  1.0  -0.1588
  C  C305  1  0.278900  0.341500  0.724220  1.0  -0.0226
  C  C306  1  0.361800  0.336000  0.750640  1.0  -0.2467
  C  C307  1  0.070800  0.337300  0.701370  1.0  0.7133
  C  C308  1  0.359900  0.146300  0.932800  1.0  0.3047
  C  C309  1  0.441800  0.152600  0.961200  1.0  -0.1425
  C  C310  1  0.412900  0.180800  0.995000  1.0  -0.0229
  C  C311  1  0.302000  0.202000  0.002600  1.0  -0.1575
  C  C312  1  0.219800  0.195600  0.974600  1.0  -0.031
  C  C313  1  0.249500  0.166900  0.938700  1.0  -0.2361
  C  C314  1  0.272700  0.233100  0.039600  1.0  0.7822
  C  C315  1  0.400800  0.963600  0.828300  1.0  0.3104
  C  C316  1  0.304800  0.930000  0.827800  1.0  -0.2168
  C  C317  1  0.317400  0.876100  0.833300  1.0  -0.0342
  C  C318  1  0.427200  0.853800  0.839000  1.0  -0.1338
  C  C319  1  0.523300  0.888700  0.838500  1.0  -0.0077
  C  C320  1  0.511500  0.942600  0.832400  1.0  -0.2853
  C  C321  1  0.443800  0.795200  0.846300  1.0  0.7289
  C  C322  1  0.420600  0.150900  0.742600  1.0  0.2588
  C  C323  1  0.525300  0.165300  0.725900  1.0  -0.2429
  C  C324  1  0.517700  0.196600  0.697100  1.0  -0.0164
  C  C325  1  0.410900  0.212200  0.684420  1.0  -0.1328
  C  C326  1  0.307200  0.196800  0.700500  1.0  -0.0291
  C  C327  1  0.314000  0.166200  0.730300  1.0  -0.2199
  C  C328  1  0.404700  0.245600  0.652280  1.0  0.7228
  C  C329  1  0.056900  0.747300  0.648700  1.0  0.0638
  C  C330  1  0.000000  0.692700  0.632610  1.0  -0.0273
  C  C331  1  0.969500  0.692600  0.592040  1.0  0.0774
  C  C332  1  0.086400  0.646100  0.637200  1.0  0.0734
  C  C333  1  0.885200  0.684500  0.652800  1.0  0.0802
  C  C334  1  0.021400  0.843500  0.657100  1.0  0.0767
  C  C335  1  0.919100  0.884100  0.664700  1.0  -0.0224
  C  C336  1  0.831700  0.876300  0.632500  1.0  0.09
  C  C337  1  0.971200  0.942700  0.668900  1.0  0.0691
  C  C338  1  0.853100  0.874400  0.699500  1.0  0.0883
  C  C339  1  0.080200  0.694700  0.535900  1.0  0.2998
  C  C340  1  0.187700  0.705600  0.521200  1.0  -0.1969
  C  C341  1  0.203300  0.699400  0.483300  1.0  -0.0416
  C  C342  1  0.111200  0.683900  0.459450  1.0  -0.1192
  C  C343  1  0.002000  0.674900  0.474890  1.0  -0.044
  C  C344  1  0.986200  0.680100  0.512500  1.0  -0.2544
  C  C345  1  0.128900  0.678600  0.419000  1.0  0.7184
  C  C346  1  0.101200  0.548800  0.624300  1.0  0.3245
  C  C347  1  0.215800  0.548500  0.636300  1.0  -0.2612
  C  C348  1  0.276900  0.498800  0.634200  1.0  -0.029
  C  C349  1  0.223200  0.448300  0.621500  1.0  -0.14
  C  C350  1  0.105400  0.448900  0.611100  1.0  -0.0511
  C  C351  1  0.045000  0.498200  0.612500  1.0  -0.2121
  C  C352  1  0.290300  0.396400  0.618000  1.0  0.6908
  C  C353  1  0.826700  0.675700  0.715020  1.0  0.2732
  C  C354  1  0.708500  0.681200  0.707320  1.0  -0.2737
  C  C355  1  0.626600  0.676900  0.734700  1.0  -0.0209
  C  C356  1  0.660700  0.665200  0.769000  1.0  -0.1584
  C  C357  1  0.778900  0.658500  0.775780  1.0  -0.0231
  C  C358  1  0.861800  0.664000  0.749360  1.0  -0.2461
  C  C359  1  0.570800  0.662700  0.798630  1.0  0.7125
  C  C360  1  0.859900  0.853700  0.567200  1.0  0.3071
  C  C361  1  0.941800  0.847400  0.538800  1.0  -0.14
  C  C362  1  0.912900  0.819200  0.505000  1.0  -0.0204
  C  C363  1  0.802000  0.798000  0.497400  1.0  -0.1583
  C  C364  1  0.719800  0.804400  0.525400  1.0  -0.032
  C  C365  1  0.749500  0.833100  0.561300  1.0  -0.2322
  C  C366  1  0.772700  0.766900  0.460400  1.0  0.7817
  C  C367  1  0.900800  0.036400  0.671700  1.0  0.3117
  C  C368  1  0.804800  0.070000  0.672200  1.0  -0.2138
  C  C369  1  0.817400  0.123900  0.666667  1.0  -0.0298
  C  C370  1  0.927200  0.146200  0.661000  1.0  -0.1351
  C  C371  1  0.023300  0.111300  0.661500  1.0  -0.0073
  C  C372  1  0.011500  0.057400  0.667600  1.0  -0.2861
  C  C373  1  0.943800  0.204800  0.653700  1.0  0.7293
  C  C374  1  0.920600  0.849100  0.757400  1.0  0.2593
  C  C375  1  0.025300  0.834700  0.774100  1.0  -0.2443
  C  C376  1  0.017700  0.803400  0.802900  1.0  -0.0167
  C  C377  1  0.910900  0.787800  0.815580  1.0  -0.1322
  C  C378  1  0.807200  0.803200  0.799500  1.0  -0.0293
  C  C379  1  0.814000  0.833800  0.769700  1.0  -0.2198
  C  C380  1  0.904700  0.754400  0.847720  1.0  0.7234
  O  O381  1  0.525900  0.789900  0.148110  1.0  -0.3047
  O  O382  1  0.423700  0.701300  0.073560  1.0  -0.2701
  O  O383  1  0.465900  0.594680  0.123800  1.0  -0.2762
  O  O384  1  0.584200  0.680100  0.190040  1.0  -0.2683
  O  O385  1  0.603800  0.881800  0.099590  1.0  -0.2638
  O  O386  1  0.622600  0.981600  0.175700  1.0  -0.276
  O  O387  1  0.564000  0.880400  0.229090  1.0  -0.2718
  O  O388  1  0.270300  0.676900  0.905700  1.0  -0.6177
  O  O389  1  0.459500  0.676100  0.897930  1.0  -0.6671
  O  O390  1  0.252400  0.352900  0.098760  1.0  -0.7058
  O  O391  1  0.107000  0.397000  0.130700  1.0  -0.6366
  O  O392  1  0.035800  0.666300  0.290130  1.0  -0.5947
  O  O393  1  0.893800  0.655400  0.330320  1.0  -0.6762
  O  O394  1  0.653400  0.767000  0.935730  1.0  -0.6487
  O  O395  1  0.826000  0.743900  0.957370  1.0  -0.6598
  O  O396  1  0.454100  0.219700  0.147050  1.0  -0.6633
  O  O397  1  0.647400  0.234700  0.154370  1.0  -0.6166
  O  O398  1  0.688900  0.752300  0.364220  1.0  -0.7065
  O  O399  1  0.503000  0.732500  0.357270  1.0  -0.5958
  O  O400  1  0.025900  0.210100  0.351890  1.0  -0.3046
  O  O401  1  0.923700  0.298700  0.426440  1.0  -0.2709
  O  O402  1  0.965900  0.405320  0.376200  1.0  -0.2769
  O  O403  1  0.084200  0.319900  0.309960  1.0  -0.2673
  O  O404  1  0.103800  0.118200  0.400410  1.0  -0.2661
  O  O405  1  0.122600  0.018400  0.324300  1.0  -0.2767
  O  O406  1  0.064000  0.119600  0.270910  1.0  -0.271
  O  O407  1  0.770300  0.323100  0.594300  1.0  -0.6184
  O  O408  1  0.959500  0.323900  0.602070  1.0  -0.6675
  O  O409  1  0.752400  0.647100  0.401240  1.0  -0.7059
  O  O410  1  0.607000  0.603000  0.369300  1.0  -0.6362
  O  O411  1  0.535800  0.333700  0.209870  1.0  -0.5935
  O  O412  1  0.393800  0.344600  0.169680  1.0  -0.6766
  O  O413  1  0.153400  0.233000  0.564270  1.0  -0.6516
  O  O414  1  0.326000  0.256100  0.542630  1.0  -0.6601
  O  O415  1  0.954100  0.780300  0.352950  1.0  -0.6638
  O  O416  1  0.147400  0.765300  0.345630  1.0  -0.6162
  O  O417  1  0.188900  0.247700  0.135780  1.0  -0.7071
  O  O418  1  0.003000  0.267500  0.142730  1.0  -0.5985
  O  O419  1  0.474100  0.210100  0.851890  1.0  -0.3056
  O  O420  1  0.576300  0.298700  0.926440  1.0  -0.2692
  O  O421  1  0.534100  0.405320  0.876200  1.0  -0.2765
  O  O422  1  0.415800  0.319900  0.809960  1.0  -0.2676
  O  O423  1  0.396200  0.118200  0.900410  1.0  -0.2661
  O  O424  1  0.377400  0.018400  0.824300  1.0  -0.2769
  O  O425  1  0.436000  0.119600  0.770910  1.0  -0.2706
  O  O426  1  0.729700  0.323100  0.094300  1.0  -0.6184
  O  O427  1  0.540500  0.323900  0.102070  1.0  -0.668
  O  O428  1  0.747600  0.647100  0.901240  1.0  -0.7049
  O  O429  1  0.893000  0.603000  0.869300  1.0  -0.6365
  O  O430  1  0.964200  0.333700  0.709870  1.0  -0.593
  O  O431  1  0.106200  0.344600  0.669680  1.0  -0.6784
  O  O432  1  0.346600  0.233000  0.064270  1.0  -0.6521
  O  O433  1  0.174000  0.256100  0.042630  1.0  -0.6633
  O  O434  1  0.545900  0.780300  0.852950  1.0  -0.664
  O  O435  1  0.352600  0.765300  0.845630  1.0  -0.6154
  O  O436  1  0.311100  0.247700  0.635780  1.0  -0.7074
  O  O437  1  0.497000  0.267500  0.642730  1.0  -0.5961
  O  O438  1  0.974100  0.789900  0.648110  1.0  -0.3056
  O  O439  1  0.076300  0.701300  0.573560  1.0  -0.2689
  O  O440  1  0.034100  0.594680  0.623800  1.0  -0.2766
  O  O441  1  0.915800  0.680100  0.690040  1.0  -0.2678
  O  O442  1  0.896200  0.881800  0.599590  1.0  -0.2644
  O  O443  1  0.877400  0.981600  0.675700  1.0  -0.276
  O  O444  1  0.936000  0.880400  0.729090  1.0  -0.271
  O  O445  1  0.229700  0.676900  0.405700  1.0  -0.6182
  O  O446  1  0.040500  0.676100  0.397930  1.0  -0.6676
  O  O447  1  0.247600  0.352900  0.598760  1.0  -0.7051
  O  O448  1  0.393000  0.397000  0.630700  1.0  -0.6369
  O  O449  1  0.464200  0.666300  0.790130  1.0  -0.593
  O  O450  1  0.606200  0.655400  0.830320  1.0  -0.6772
  O  O451  1  0.846600  0.767000  0.435730  1.0  -0.6494
  O  O452  1  0.674000  0.743900  0.457370  1.0  -0.6643
  O  O453  1  0.045900  0.219700  0.647050  1.0  -0.6635
  O  O454  1  0.852600  0.234700  0.654370  1.0  -0.6158
  O  O455  1  0.811100  0.752300  0.864220  1.0  -0.7061
  O  O456  1  0.997000  0.732500  0.857270  1.0  -0.5937
