# generated using pymatgen
data_ZnH19C22N5O4
_symmetry_space_group_name_H-M   'P 1'
_cell_length_a   11.56700000
_cell_length_b   11.83930000
_cell_length_c   14.22700000
_cell_angle_alpha   112.49700000
_cell_angle_beta   90.00000000
_cell_angle_gamma   119.24200000
_symmetry_Int_Tables_number   1
_chemical_formula_structural   ZnH19C22N5O4
_chemical_formula_sum   'Zn2 H38 C44 N10 O8'
_cell_volume   1527.85830835
_cell_formula_units_Z   2
loop_
 _symmetry_equiv_pos_site_id
 _symmetry_equiv_pos_as_xyz
  1  'x, y, z'
loop_
 _atom_site_type_symbol
 _atom_site_label
 _atom_site_symmetry_multiplicity
 _atom_site_fract_x
 _atom_site_fract_y
 _atom_site_fract_z
 _atom_site_occupancy
 _atom_site_charge
  Zn  Zn1  1  0.345140  0.716260  0.756240  1.0  0.8774
  Zn  Zn2  1  0.371120  0.716260  0.256240  1.0  0.877
  H  H3  1  0.530800  0.421800  0.146100  1.0  0.1039
  H  H4  1  0.160800  0.186400  0.968300  1.0  0.0841
  H  H5  1  0.189700  0.006800  0.870100  1.0  0.1188
  H  H6  1  0.418500  0.553800  0.547700  1.0  0.1148
  H  H7  1  0.550000  0.973800  0.708300  1.0  0.1199
  H  H8  1  0.656700  0.941600  0.553500  1.0  0.1155
  H  H9  1  0.613500  0.703200  0.381500  1.0  0.1155
  H  H10  1  0.536900  0.557400  0.390800  1.0  0.1128
  H  H11  1  0.665900  0.528600  0.519300  1.0  0.1103
  H  H12  1  0.878800  0.580200  0.583800  1.0  0.0933
  H  H13  1  0.055900  0.905200  0.501200  1.0  0.1151
  H  H14  1  0.843000  0.853600  0.436700  1.0  0.1072
  H  H15  1  0.135900  0.763000  0.646600  1.0  0.1172
  H  H16  1  0.195500  0.896600  0.620400  1.0  0.1138
  H  H17  1  0.315000  0.885800  0.462200  1.0  0.1253
  H  H18  1  0.174800  0.456600  0.317800  1.0  0.1338
  H  H19  1  0.071200  0.497400  0.473600  1.0  0.1385
  H  H20  1  0.639700  0.209400  0.996000  1.0  0.3324
  H  H21  1  0.678700  0.342600  0.092300  1.0  0.3343
  H  H22  1  0.891000  0.421800  0.646100  1.0  0.1038
  H  H23  1  0.025600  0.186400  0.468300  1.0  0.0847
  H  H24  1  0.817100  0.006800  0.370100  1.0  0.1194
  H  H25  1  0.135300  0.553800  0.047700  1.0  0.1149
  H  H26  1  0.423800  0.973800  0.208300  1.0  0.1201
  H  H27  1  0.284900  0.941600  0.053500  1.0  0.1162
  H  H28  1  0.089700  0.703200  0.881500  1.0  0.115
  H  H29  1  0.020500  0.557400  0.890800  1.0  0.1131
  H  H30  1  0.862700  0.528600  0.019300  1.0  0.111
  H  H31  1  0.701400  0.580200  0.083800  1.0  0.0928
  H  H32  1  0.849300  0.905200  0.001200  1.0  0.1147
  H  H33  1  0.010600  0.853600  0.936700  1.0  0.1065
  H  H34  1  0.627100  0.763000  0.146600  1.0  0.1164
  H  H35  1  0.701100  0.896600  0.120400  1.0  0.1136
  H  H36  1  0.570800  0.885800  0.962200  1.0  0.1254
  H  H37  1  0.281800  0.456600  0.817800  1.0  0.1334
  H  H38  1  0.426200  0.497400  0.973600  1.0  0.1389
  H  H39  1  0.569700  0.209400  0.496000  1.0  0.333
  H  H40  1  0.663900  0.342600  0.592300  1.0  0.3353
  C  C41  1  0.404100  0.983400  0.882000  1.0  0.6466
  C  C42  1  0.389600  0.110000  0.946000  1.0  -0.3168
  C  C43  1  0.496200  0.232800  0.027900  1.0  0.3482
  C  C44  1  0.464300  0.339000  0.089100  1.0  -0.2026
  C  C45  1  0.339800  0.323000  0.067000  1.0  -0.0783
  C  C46  1  0.244900  0.197800  0.984200  1.0  -0.1247
  C  C47  1  0.260300  0.090400  0.924000  1.0  -0.064
  C  C48  1  0.304900  0.431600  0.129800  1.0  0.6433
  C  C49  1  0.460400  0.651600  0.566300  1.0  0.1292
  C  C50  1  0.534800  0.887200  0.657100  1.0  0.0111
  C  C51  1  0.594700  0.868800  0.570200  1.0  -0.1209
  C  C52  1  0.601100  0.660200  0.429600  1.0  -0.0715
  C  C53  1  0.733400  0.686000  0.471600  1.0  0.0332
  C  C54  1  0.744100  0.604000  0.515600  1.0  -0.1172
  C  C55  1  0.871700  0.635000  0.554300  1.0  -0.0916
  C  C56  1  0.988500  0.747800  0.548900  1.0  0.0221
  C  C57  1  0.977800  0.829800  0.504800  1.0  -0.1126
  C  C58  1  0.850200  0.798800  0.466200  1.0  -0.1222
  C  C59  1  0.133600  0.793200  0.592500  1.0  -0.0693
  C  C60  1  0.265500  0.787400  0.443400  1.0  0.1112
  C  C61  1  0.186900  0.544400  0.363900  1.0  0.0234
  C  C62  1  0.126400  0.566000  0.451100  1.0  -0.0897
  C  C63  1  0.579300  0.983400  0.382000  1.0  0.6467
  C  C64  1  0.720400  0.110000  0.446000  1.0  -0.3153
  C  C65  1  0.736600  0.232800  0.527900  1.0  0.3492
  C  C66  1  0.874700  0.339000  0.589100  1.0  -0.2074
  C  C67  1  0.983200  0.323000  0.567000  1.0  -0.078
  C  C68  1  0.952900  0.197800  0.484200  1.0  -0.1199
  C  C69  1  0.830100  0.090400  0.424000  1.0  -0.0651
  C  C70  1  0.126700  0.431600  0.629800  1.0  0.6431
  C  C71  1  0.191200  0.651600  0.066300  1.0  0.1295
  C  C72  1  0.352400  0.887200  0.157100  1.0  0.0118
  C  C73  1  0.274100  0.868800  0.070200  1.0  -0.1216
  C  C74  1  0.059100  0.660200  0.929600  1.0  -0.0712
  C  C75  1  0.952600  0.686000  0.971600  1.0  0.0336
  C  C76  1  0.859900  0.604000  0.015600  1.0  -0.1176
  C  C77  1  0.763300  0.635000  0.054300  1.0  -0.0918
  C  C78  1  0.759300  0.747800  0.048900  1.0  0.0206
  C  C79  1  0.852000  0.829800  0.004800  1.0  -0.1109
  C  C80  1  0.948600  0.798800  0.966200  1.0  -0.1221
  C  C81  1  0.659600  0.793200  0.092500  1.0  -0.0697
  C  C82  1  0.521900  0.787400  0.943400  1.0  0.1109
  C  C83  1  0.357500  0.544400  0.863900  1.0  0.0229
  C  C84  1  0.439600  0.566000  0.951100  1.0  -0.0902
  N  N85  1  0.448200  0.749800  0.651200  1.0  -0.3904
  N  N86  1  0.544200  0.722000  0.514000  1.0  0.0149
  N  N87  1  0.270100  0.679600  0.357900  1.0  -0.3871
  N  N88  1  0.167500  0.714600  0.497400  1.0  -0.0249
  N  N89  1  0.617600  0.265000  0.040000  1.0  -0.6508
  N  N90  1  0.301600  0.749800  0.151200  1.0  -0.3901
  N  N91  1  0.177800  0.722000  0.014000  1.0  0.0152
  N  N92  1  0.409500  0.679600  0.857900  1.0  -0.3874
  N  N93  1  0.547100  0.714600  0.997400  1.0  -0.025
  N  N94  1  0.647400  0.265000  0.540000  1.0  -0.6488
  O  O95  1  0.525400  0.011400  0.896100  1.0  -0.6229
  O  O96  1  0.302000  0.866200  0.822000  1.0  -0.5795
  O  O97  1  0.406700  0.548000  0.190700  1.0  -0.5957
  O  O98  1  0.188000  0.417600  0.120600  1.0  -0.6362
  O  O99  1  0.486000  0.011400  0.396100  1.0  -0.6219
  O  O100  1  0.564200  0.866200  0.322000  1.0  -0.5808
  O  O101  1  0.141300  0.548000  0.690700  1.0  -0.5951
  O  O102  1  0.229600  0.417600  0.620600  1.0  -0.6366
