# generated using pymatgen
data_Zn3H48C70(N2O3)4
_symmetry_space_group_name_H-M   'P 1'
_cell_length_a   21.71900000
_cell_length_b   19.46900000
_cell_length_c   20.83500000
_cell_angle_alpha   90.00000000
_cell_angle_beta   108.85600000
_cell_angle_gamma   90.00000000
_symmetry_Int_Tables_number   1
_chemical_formula_structural   Zn3H48C70(N2O3)4
_chemical_formula_sum   'Zn12 H192 C280 N32 O48'
_cell_volume   8337.22152694
_cell_formula_units_Z   4
loop_
 _symmetry_equiv_pos_site_id
 _symmetry_equiv_pos_as_xyz
  1  'x, y, z'
loop_
 _atom_site_type_symbol
 _atom_site_label
 _atom_site_symmetry_multiplicity
 _atom_site_fract_x
 _atom_site_fract_y
 _atom_site_fract_z
 _atom_site_occupancy
 _atom_site_charge
  Zn  Zn1  1  0.737160  0.726010  0.710300  1.0  0.8154
  Zn  Zn2  1  0.727870  0.227570  0.934650  1.0  0.8691
  Zn  Zn3  1  0.258090  0.803370  0.624820  1.0  0.8811
  Zn  Zn4  1  0.237160  0.226010  0.710300  1.0  0.8154
  Zn  Zn5  1  0.227870  0.727570  0.934650  1.0  0.8691
  Zn  Zn6  1  0.758090  0.303370  0.624820  1.0  0.8811
  Zn  Zn7  1  0.262840  0.726010  0.289700  1.0  0.8152
  Zn  Zn8  1  0.272130  0.227570  0.065350  1.0  0.8706
  Zn  Zn9  1  0.741910  0.803370  0.375180  1.0  0.8814
  Zn  Zn10  1  0.762840  0.226010  0.289700  1.0  0.8152
  Zn  Zn11  1  0.772130  0.727570  0.065350  1.0  0.8706
  Zn  Zn12  1  0.241910  0.303370  0.375180  1.0  0.8814
  H  H13  1  0.810900  0.140600  0.164200  1.0  0.1114
  H  H14  1  0.850300  0.087300  0.135200  1.0  0.1086
  H  H15  1  0.950800  0.831500  0.593100  1.0  0.1045
  H  H16  1  0.876400  0.529800  0.862800  1.0  0.1046
  H  H17  1  0.650400  0.029100  0.777900  1.0  0.1268
  H  H18  1  0.733700  0.144300  0.063900  1.0  0.1048
  H  H19  1  0.900800  0.692100  0.748900  1.0  0.1026
  H  H20  1  0.969200  0.325900  0.086700  1.0  0.1022
  H  H21  1  0.857700  0.077800  0.003100  1.0  0.1123
  H  H22  1  0.649200  0.983300  0.675200  1.0  0.1209
  H  H23  1  0.870600  0.422200  0.905400  1.0  0.099
  H  H24  1  0.680700  0.044000  0.014200  1.0  0.1122
  H  H25  1  0.678000  0.415600  0.806100  1.0  0.1225
  H  H26  1  0.663300  0.888600  0.613000  1.0  0.1037
  H  H27  1  0.843000  0.991300  0.765200  1.0  0.1267
  H  H28  1  0.945300  0.177300  0.207800  1.0  0.1039
  H  H29  1  0.006600  0.707900  0.753500  1.0  0.1004
  H  H30  1  0.854300  0.901100  0.701500  1.0  0.0924
  H  H31  1  0.728200  0.805500  0.581500  1.0  0.0959
  H  H32  1  0.686300  0.523500  0.757800  1.0  0.1017
  H  H33  1  0.808200  0.806800  0.534200  1.0  0.0883
  H  H34  1  0.827700  0.878600  0.570700  1.0  0.0817
  H  H35  1  0.820200  0.107300  0.777200  1.0  0.1282
  H  H36  1  0.607600  0.732600  0.509000  1.0  0.0785
  H  H37  1  0.471300  0.722400  0.595200  1.0  0.0927
  H  H38  1  0.239700  0.068600  0.619700  1.0  0.0823
  H  H39  1  0.869000  0.305400  0.010800  1.0  0.1152
  H  H40  1  0.271100  0.954200  0.477600  1.0  0.1006
  H  H41  1  0.229700  0.165800  0.553600  1.0  0.1174
  H  H42  1  0.263400  0.047700  0.411600  1.0  0.0895
  H  H43  1  0.043800  0.880400  0.632900  1.0  0.112
  H  H44  1  0.145400  0.891100  0.619800  1.0  0.0947
  H  H45  1  0.194700  0.704300  0.702400  1.0  0.0855
  H  H46  1  0.093100  0.693600  0.715600  1.0  0.1088
  H  H47  1  0.114700  0.248100  0.368900  1.0  0.0995
  H  H48  1  0.172700  0.339100  0.225000  1.0  0.0902
  H  H49  1  0.070300  0.321500  0.146600  1.0  0.1106
  H  H50  1  0.012300  0.230400  0.290400  1.0  0.1026
  H  H51  1  0.849200  0.981900  0.936900  1.0  0.1092
  H  H52  1  0.673200  0.944300  0.949300  1.0  0.1023
  H  H53  1  0.649200  0.812600  0.764900  1.0  0.0704
  H  H54  1  0.835000  0.781800  0.836900  1.0  0.0761
  H  H55  1  0.644800  0.117000  0.850000  1.0  0.0739
  H  H56  1  0.655900  0.897800  0.843600  1.0  0.1221
  H  H57  1  0.845500  0.861400  0.917800  1.0  0.1128
  H  H58  1  0.811900  0.185500  0.853900  1.0  0.0602
  H  H59  1  0.465400  0.213700  0.885500  1.0  0.0839
  H  H60  1  0.609400  0.204100  0.058900  1.0  0.106
  H  H61  1  0.310900  0.640600  0.164200  1.0  0.1114
  H  H62  1  0.350300  0.587300  0.135200  1.0  0.1086
  H  H63  1  0.450800  0.331500  0.593100  1.0  0.1045
  H  H64  1  0.376400  0.029800  0.862800  1.0  0.1046
  H  H65  1  0.150400  0.529100  0.777900  1.0  0.1268
  H  H66  1  0.233700  0.644300  0.063900  1.0  0.1048
  H  H67  1  0.400800  0.192100  0.748900  1.0  0.1026
  H  H68  1  0.469200  0.825900  0.086700  1.0  0.1022
  H  H69  1  0.357700  0.577800  0.003100  1.0  0.1123
  H  H70  1  0.149200  0.483300  0.675200  1.0  0.1209
  H  H71  1  0.370600  0.922200  0.905400  1.0  0.099
  H  H72  1  0.180700  0.544000  0.014200  1.0  0.1122
  H  H73  1  0.178000  0.915600  0.806100  1.0  0.1225
  H  H74  1  0.163300  0.388600  0.613000  1.0  0.1037
  H  H75  1  0.343000  0.491300  0.765200  1.0  0.1267
  H  H76  1  0.445300  0.677300  0.207800  1.0  0.1039
  H  H77  1  0.506600  0.207900  0.753500  1.0  0.1004
  H  H78  1  0.354300  0.401100  0.701500  1.0  0.0924
  H  H79  1  0.228200  0.305500  0.581500  1.0  0.0959
  H  H80  1  0.186300  0.023500  0.757800  1.0  0.1017
  H  H81  1  0.308200  0.306800  0.534200  1.0  0.0883
  H  H82  1  0.327700  0.378600  0.570700  1.0  0.0817
  H  H83  1  0.320200  0.607300  0.777200  1.0  0.1282
  H  H84  1  0.107600  0.232600  0.509000  1.0  0.0785
  H  H85  1  0.971300  0.222400  0.595200  1.0  0.0927
  H  H86  1  0.739700  0.568600  0.619700  1.0  0.0823
  H  H87  1  0.369000  0.805400  0.010800  1.0  0.1152
  H  H88  1  0.771100  0.454200  0.477600  1.0  0.1006
  H  H89  1  0.729700  0.665800  0.553600  1.0  0.1174
  H  H90  1  0.763400  0.547700  0.411600  1.0  0.0893
  H  H91  1  0.543800  0.380400  0.632900  1.0  0.112
  H  H92  1  0.645400  0.391100  0.619800  1.0  0.0947
  H  H93  1  0.694700  0.204300  0.702400  1.0  0.0855
  H  H94  1  0.593100  0.193600  0.715600  1.0  0.1088
  H  H95  1  0.614700  0.748100  0.368900  1.0  0.0995
  H  H96  1  0.672700  0.839100  0.225000  1.0  0.0902
  H  H97  1  0.570300  0.821500  0.146600  1.0  0.1106
  H  H98  1  0.512300  0.730400  0.290400  1.0  0.1026
  H  H99  1  0.349200  0.481900  0.936900  1.0  0.1092
  H  H100  1  0.173200  0.444300  0.949300  1.0  0.1023
  H  H101  1  0.149200  0.312600  0.764900  1.0  0.0704
  H  H102  1  0.335000  0.281800  0.836900  1.0  0.0761
  H  H103  1  0.144800  0.617000  0.850000  1.0  0.0739
  H  H104  1  0.155900  0.397800  0.843600  1.0  0.1221
  H  H105  1  0.345500  0.361400  0.917800  1.0  0.1128
  H  H106  1  0.311900  0.685500  0.853900  1.0  0.0602
  H  H107  1  0.965400  0.713700  0.885500  1.0  0.0839
  H  H108  1  0.109400  0.704100  0.058900  1.0  0.106
  H  H109  1  0.189100  0.140600  0.835800  1.0  0.1108
  H  H110  1  0.149700  0.087300  0.864800  1.0  0.1079
  H  H111  1  0.049200  0.831500  0.406900  1.0  0.104
  H  H112  1  0.123600  0.529800  0.137200  1.0  0.1037
  H  H113  1  0.349600  0.029100  0.222100  1.0  0.1269
  H  H114  1  0.266300  0.144300  0.936100  1.0  0.1054
  H  H115  1  0.099200  0.692100  0.251100  1.0  0.1031
  H  H116  1  0.030800  0.325900  0.913300  1.0  0.1026
  H  H117  1  0.142300  0.077800  0.996900  1.0  0.112
  H  H118  1  0.350800  0.983300  0.324800  1.0  0.1213
  H  H119  1  0.129400  0.422200  0.094600  1.0  0.0992
  H  H120  1  0.319300  0.044000  0.985800  1.0  0.1118
  H  H121  1  0.322000  0.415600  0.193900  1.0  0.1226
  H  H122  1  0.336700  0.888600  0.387000  1.0  0.1037
  H  H123  1  0.157000  0.991300  0.234800  1.0  0.1264
  H  H124  1  0.054700  0.177300  0.792200  1.0  0.1044
  H  H125  1  0.993400  0.707900  0.246500  1.0  0.1007
  H  H126  1  0.145700  0.901100  0.298500  1.0  0.0917
  H  H127  1  0.271800  0.805500  0.418500  1.0  0.0957
  H  H128  1  0.313700  0.523500  0.242200  1.0  0.1018
  H  H129  1  0.191800  0.806800  0.465800  1.0  0.0892
  H  H130  1  0.172300  0.878600  0.429300  1.0  0.0825
  H  H131  1  0.179800  0.107300  0.222800  1.0  0.1282
  H  H132  1  0.392400  0.732600  0.491000  1.0  0.0784
  H  H133  1  0.528700  0.722400  0.404800  1.0  0.0933
  H  H134  1  0.760300  0.068600  0.380300  1.0  0.0823
  H  H135  1  0.131000  0.305400  0.989200  1.0  0.1149
  H  H136  1  0.728900  0.954200  0.522400  1.0  0.1
  H  H137  1  0.770300  0.165800  0.446400  1.0  0.1175
  H  H138  1  0.736600  0.047700  0.588400  1.0  0.0894
  H  H139  1  0.956200  0.880400  0.367100  1.0  0.1116
  H  H140  1  0.854600  0.891100  0.380200  1.0  0.0948
  H  H141  1  0.805300  0.704300  0.297600  1.0  0.0861
  H  H142  1  0.906900  0.693600  0.284400  1.0  0.1099
  H  H143  1  0.885300  0.248100  0.631100  1.0  0.0996
  H  H144  1  0.827300  0.339100  0.775000  1.0  0.091
  H  H145  1  0.929700  0.321500  0.853400  1.0  0.1104
  H  H146  1  0.987700  0.230400  0.709600  1.0  0.1021
  H  H147  1  0.150800  0.981900  0.063100  1.0  0.1091
  H  H148  1  0.326800  0.944300  0.050700  1.0  0.1026
  H  H149  1  0.350800  0.812600  0.235100  1.0  0.0704
  H  H150  1  0.165000  0.781800  0.163100  1.0  0.0766
  H  H151  1  0.355200  0.117000  0.150000  1.0  0.0744
  H  H152  1  0.344100  0.897800  0.156400  1.0  0.1225
  H  H153  1  0.154500  0.861400  0.082200  1.0  0.1132
  H  H154  1  0.188100  0.185500  0.146100  1.0  0.0598
  H  H155  1  0.534600  0.213700  0.114500  1.0  0.0843
  H  H156  1  0.390600  0.204100  0.941100  1.0  0.1069
  H  H157  1  0.689100  0.640600  0.835800  1.0  0.1108
  H  H158  1  0.649700  0.587300  0.864800  1.0  0.1079
  H  H159  1  0.549200  0.331500  0.406900  1.0  0.104
  H  H160  1  0.623600  0.029800  0.137200  1.0  0.1037
  H  H161  1  0.849600  0.529100  0.222100  1.0  0.1269
  H  H162  1  0.766300  0.644300  0.936100  1.0  0.1054
  H  H163  1  0.599200  0.192100  0.251100  1.0  0.1031
  H  H164  1  0.530800  0.825900  0.913300  1.0  0.1026
  H  H165  1  0.642300  0.577800  0.996900  1.0  0.112
  H  H166  1  0.850800  0.483300  0.324800  1.0  0.1213
  H  H167  1  0.629400  0.922200  0.094600  1.0  0.0992
  H  H168  1  0.819300  0.544000  0.985800  1.0  0.1118
  H  H169  1  0.822000  0.915600  0.193900  1.0  0.1226
  H  H170  1  0.836700  0.388600  0.387000  1.0  0.1037
  H  H171  1  0.657000  0.491300  0.234800  1.0  0.1264
  H  H172  1  0.554700  0.677300  0.792200  1.0  0.1044
  H  H173  1  0.493400  0.207900  0.246500  1.0  0.1007
  H  H174  1  0.645700  0.401100  0.298500  1.0  0.0917
  H  H175  1  0.771800  0.305500  0.418500  1.0  0.0957
  H  H176  1  0.813700  0.023500  0.242200  1.0  0.1018
  H  H177  1  0.691800  0.306800  0.465800  1.0  0.0892
  H  H178  1  0.672300  0.378600  0.429300  1.0  0.0825
  H  H179  1  0.679800  0.607300  0.222800  1.0  0.1282
  H  H180  1  0.892400  0.232600  0.491000  1.0  0.0784
  H  H181  1  0.028700  0.222400  0.404800  1.0  0.0933
  H  H182  1  0.260300  0.568600  0.380300  1.0  0.0823
  H  H183  1  0.631000  0.805400  0.989200  1.0  0.1149
  H  H184  1  0.228900  0.454200  0.522400  1.0  0.1
  H  H185  1  0.270300  0.665800  0.446400  1.0  0.1175
  H  H186  1  0.236600  0.547700  0.588400  1.0  0.0894
  H  H187  1  0.456200  0.380400  0.367100  1.0  0.1116
  H  H188  1  0.354600  0.391100  0.380200  1.0  0.0948
  H  H189  1  0.305300  0.204300  0.297600  1.0  0.0861
  H  H190  1  0.406900  0.193600  0.284400  1.0  0.1099
  H  H191  1  0.385300  0.748100  0.631100  1.0  0.0996
  H  H192  1  0.327300  0.839100  0.775000  1.0  0.091
  H  H193  1  0.429700  0.821500  0.853400  1.0  0.1104
  H  H194  1  0.487700  0.730400  0.709600  1.0  0.1021
  H  H195  1  0.650800  0.481900  0.063100  1.0  0.1091
  H  H196  1  0.826800  0.444300  0.050700  1.0  0.1026
  H  H197  1  0.850800  0.312600  0.235100  1.0  0.0704
  H  H198  1  0.665000  0.281800  0.163100  1.0  0.0766
  H  H199  1  0.855200  0.617000  0.150000  1.0  0.0744
  H  H200  1  0.844100  0.397800  0.156400  1.0  0.1225
  H  H201  1  0.654500  0.361400  0.082200  1.0  0.1132
  H  H202  1  0.688100  0.685500  0.146100  1.0  0.0598
  H  H203  1  0.034600  0.713700  0.114500  1.0  0.0843
  H  H204  1  0.890600  0.704100  0.941100  1.0  0.1069
  C  C205  1  0.770900  0.337600  0.888100  1.0  0.6829
  C  C206  1  0.848200  0.220500  0.061400  1.0  0.3343
  C  C207  1  0.600100  0.730900  0.632200  1.0  0.7122
  C  C208  1  0.737200  0.056500  0.770800  1.0  0.0759
  C  C209  1  0.549000  0.729500  0.563500  1.0  -0.1276
  C  C210  1  0.770600  0.070500  0.015300  1.0  0.0292
  C  C211  1  0.786700  0.609500  0.781200  1.0  0.6303
  C  C212  1  0.828700  0.131700  0.127900  1.0  -0.1216
  C  C213  1  0.744400  0.997000  0.727600  1.0  0.0367
  C  C214  1  0.781400  0.537400  0.806300  1.0  -0.1555
  C  C215  1  0.941800  0.805100  0.626200  1.0  0.0183
  C  C216  1  0.836800  0.506700  0.850600  1.0  -0.046
  C  C217  1  0.684100  0.060800  0.792400  1.0  -0.2081
  C  C218  1  0.760300  0.884000  0.651700  1.0  0.068
  C  C219  1  0.860000  0.758200  0.672100  1.0  0.2586
  C  C220  1  0.775800  0.136000  0.057300  1.0  0.0202
  C  C221  1  0.910200  0.722200  0.718700  1.0  -0.0813
  C  C222  1  0.943400  0.291600  0.095900  1.0  -0.1067
  C  C223  1  0.820000  0.051400  0.992100  1.0  -0.1697
  C  C224  1  0.690700  0.966300  0.681300  1.0  -0.1108
  C  C225  1  0.774000  0.407500  0.859500  1.0  -0.0924
  C  C226  1  0.833200  0.442600  0.876400  1.0  -0.0657
  C  C227  1  0.715000  0.031300  0.999100  1.0  -0.1055
  C  C228  1  0.717900  0.437800  0.816400  1.0  -0.0725
  C  C229  1  0.699400  0.909400  0.643700  1.0  -0.1096
  C  C230  1  0.806400  0.971200  0.734600  1.0  -0.1541
  C  C231  1  0.930600  0.203100  0.168200  1.0  0.0133
  C  C232  1  0.973500  0.730800  0.720600  1.0  -0.1364
  C  C233  1  0.812700  0.917000  0.696800  1.0  -0.1683
  C  C234  1  0.967200  0.255600  0.158200  1.0  0.0645
  C  C235  1  0.769800  0.820100  0.614000  1.0  0.0204
  C  C236  1  0.989700  0.774300  0.672800  1.0  0.0433
  C  C237  1  0.722900  0.503400  0.788500  1.0  -0.0295
  C  C238  1  0.820800  0.830200  0.577600  1.0  -0.0563
  C  C239  1  0.784700  0.106400  0.792800  1.0  -0.2417
  C  C240  1  0.564200  0.730000  0.506500  1.0  -0.0439
  C  C241  1  0.483600  0.726700  0.556600  1.0  -0.0771
  C  C242  1  0.257500  0.004100  0.556100  1.0  -0.1503
  C  C243  1  0.256600  0.938800  0.598900  1.0  0.7041
  C  C244  1  0.245000  0.065100  0.577300  1.0  -0.0232
  C  C245  1  0.885000  0.278300  0.049400  1.0  -0.1379
  C  C246  1  0.263800  0.997200  0.493300  1.0  -0.1008
  C  C247  1  0.249500  0.117900  0.476500  1.0  -0.1261
  C  C248  1  0.239700  0.123600  0.538400  1.0  -0.1145
  C  C249  1  0.259500  0.052700  0.454500  1.0  -0.0366
  C  C250  1  0.074000  0.845100  0.646900  1.0  -0.1793
  C  C251  1  0.134900  0.851500  0.639000  1.0  0.1461
  C  C252  1  0.164500  0.739600  0.688500  1.0  0.1738
  C  C253  1  0.103600  0.733200  0.696400  1.0  -0.0975
  C  C254  1  0.058400  0.785900  0.675600  1.0  -0.0119
  C  C255  1  0.105800  0.262800  0.324300  1.0  0.148
  C  C256  1  0.140600  0.317400  0.238100  1.0  0.1652
  C  C257  1  0.079200  0.306800  0.191100  1.0  -0.0977
  C  C258  1  0.031190  0.274200  0.210700  1.0  -0.0013
  C  C259  1  0.044500  0.252200  0.277300  1.0  -0.1426
  C  C260  1  0.759400  0.952100  0.935000  1.0  0.0328
  C  C261  1  0.753400  0.892900  0.888100  1.0  0.0899
  C  C262  1  0.814900  0.993600  0.952400  1.0  -0.1181
  C  C263  1  0.710500  0.971300  0.959300  1.0  -0.0966
  C  C264  1  0.689900  0.823800  0.795200  1.0  0.1859
  C  C265  1  0.798100  0.805600  0.837700  1.0  0.1761
  C  C266  1  0.681600  0.113700  0.836500  1.0  0.1705
  C  C267  1  0.693400  0.875400  0.842600  1.0  -0.2041
  C  C268  1  0.804800  0.854200  0.885700  1.0  -0.2179
  C  C269  1  0.778200  0.154000  0.837700  1.0  0.1755
  C  C270  1  0.545200  0.208200  0.965800  1.0  -0.1546
  C  C271  1  0.594300  0.209100  0.926800  1.0  0.7207
  C  C272  1  0.479900  0.210100  0.932600  1.0  -0.0341
  C  C273  1  0.565300  0.207000  0.034400  1.0  -0.1264
  C  C274  1  0.254100  0.681500  0.574300  1.0  0.6816
  C  C275  1  0.270900  0.837600  0.888100  1.0  0.6829
  C  C276  1  0.348200  0.720500  0.061400  1.0  0.3343
  C  C277  1  0.100100  0.230900  0.632200  1.0  0.7122
  C  C278  1  0.237200  0.556500  0.770800  1.0  0.0759
  C  C279  1  0.049000  0.229500  0.563500  1.0  -0.1276
  C  C280  1  0.270600  0.570500  0.015300  1.0  0.0292
  C  C281  1  0.286700  0.109500  0.781200  1.0  0.6303
  C  C282  1  0.328700  0.631700  0.127900  1.0  -0.1216
  C  C283  1  0.244400  0.497000  0.727600  1.0  0.0367
  C  C284  1  0.281400  0.037400  0.806300  1.0  -0.1555
  C  C285  1  0.441800  0.305100  0.626200  1.0  0.0183
  C  C286  1  0.336800  0.006700  0.850600  1.0  -0.046
  C  C287  1  0.184100  0.560800  0.792400  1.0  -0.2081
  C  C288  1  0.260300  0.384000  0.651700  1.0  0.068
  C  C289  1  0.360000  0.258200  0.672100  1.0  0.2586
  C  C290  1  0.275800  0.636000  0.057300  1.0  0.0202
  C  C291  1  0.410200  0.222200  0.718700  1.0  -0.0813
  C  C292  1  0.443400  0.791600  0.095900  1.0  -0.1067
  C  C293  1  0.320000  0.551400  0.992100  1.0  -0.1697
  C  C294  1  0.190700  0.466300  0.681300  1.0  -0.1108
  C  C295  1  0.274000  0.907500  0.859500  1.0  -0.0924
  C  C296  1  0.333200  0.942600  0.876400  1.0  -0.0657
  C  C297  1  0.215000  0.531300  0.999100  1.0  -0.1055
  C  C298  1  0.217900  0.937800  0.816400  1.0  -0.0725
  C  C299  1  0.199400  0.409400  0.643700  1.0  -0.1096
  C  C300  1  0.306400  0.471200  0.734600  1.0  -0.1541
  C  C301  1  0.430600  0.703100  0.168200  1.0  0.0133
  C  C302  1  0.473500  0.230800  0.720600  1.0  -0.1364
  C  C303  1  0.312700  0.417000  0.696800  1.0  -0.1683
  C  C304  1  0.467200  0.755600  0.158200  1.0  0.0645
  C  C305  1  0.269800  0.320100  0.614000  1.0  0.0204
  C  C306  1  0.489700  0.274300  0.672800  1.0  0.0433
  C  C307  1  0.222900  0.003400  0.788500  1.0  -0.0295
  C  C308  1  0.320800  0.330200  0.577600  1.0  -0.0563
  C  C309  1  0.284700  0.606400  0.792800  1.0  -0.2417
  C  C310  1  0.064200  0.230000  0.506500  1.0  -0.0439
  C  C311  1  0.983600  0.226700  0.556600  1.0  -0.0771
  C  C312  1  0.757500  0.504100  0.556100  1.0  -0.1503
  C  C313  1  0.756600  0.438800  0.598900  1.0  0.7041
  C  C314  1  0.745000  0.565100  0.577300  1.0  -0.0232
  C  C315  1  0.385000  0.778300  0.049400  1.0  -0.1379
  C  C316  1  0.763800  0.497200  0.493300  1.0  -0.1008
  C  C317  1  0.749500  0.617900  0.476500  1.0  -0.1261
  C  C318  1  0.739700  0.623600  0.538400  1.0  -0.1145
  C  C319  1  0.759500  0.552700  0.454500  1.0  -0.0366
  C  C320  1  0.574000  0.345100  0.646900  1.0  -0.1793
  C  C321  1  0.634900  0.351500  0.639000  1.0  0.1461
  C  C322  1  0.664500  0.239600  0.688500  1.0  0.1738
  C  C323  1  0.603600  0.233200  0.696400  1.0  -0.0975
  C  C324  1  0.558400  0.285900  0.675600  1.0  -0.0119
  C  C325  1  0.605800  0.762800  0.324300  1.0  0.148
  C  C326  1  0.640600  0.817400  0.238100  1.0  0.1652
  C  C327  1  0.579200  0.806800  0.191100  1.0  -0.0977
  C  C328  1  0.531190  0.774200  0.210700  1.0  -0.0013
  C  C329  1  0.544500  0.752200  0.277300  1.0  -0.1426
  C  C330  1  0.259400  0.452100  0.935000  1.0  0.0328
  C  C331  1  0.253400  0.392900  0.888100  1.0  0.0899
  C  C332  1  0.314900  0.493600  0.952400  1.0  -0.1181
  C  C333  1  0.210500  0.471300  0.959300  1.0  -0.0966
  C  C334  1  0.189900  0.323800  0.795200  1.0  0.1859
  C  C335  1  0.298100  0.305600  0.837700  1.0  0.1761
  C  C336  1  0.181600  0.613700  0.836500  1.0  0.1705
  C  C337  1  0.193400  0.375400  0.842600  1.0  -0.2041
  C  C338  1  0.304800  0.354200  0.885700  1.0  -0.2179
  C  C339  1  0.278200  0.654000  0.837700  1.0  0.1755
  C  C340  1  0.045200  0.708200  0.965800  1.0  -0.1546
  C  C341  1  0.094300  0.709100  0.926800  1.0  0.7207
  C  C342  1  0.979900  0.710100  0.932600  1.0  -0.0341
  C  C343  1  0.065300  0.707000  0.034400  1.0  -0.1264
  C  C344  1  0.754100  0.181500  0.574300  1.0  0.6816
  C  C345  1  0.229100  0.337600  0.111900  1.0  0.6834
  C  C346  1  0.151800  0.220500  0.938600  1.0  0.3352
  C  C347  1  0.399900  0.730900  0.367800  1.0  0.715
  C  C348  1  0.262800  0.056500  0.229200  1.0  0.0763
  C  C349  1  0.451000  0.729500  0.436500  1.0  -0.1291
  C  C350  1  0.229400  0.070500  0.984700  1.0  0.0292
  C  C351  1  0.213300  0.609500  0.218800  1.0  0.6295
  C  C352  1  0.171300  0.131700  0.872100  1.0  -0.1214
  C  C353  1  0.255600  0.997000  0.272400  1.0  0.0378
  C  C354  1  0.218600  0.537400  0.193700  1.0  -0.1538
  C  C355  1  0.058200  0.805100  0.373800  1.0  0.0173
  C  C356  1  0.163200  0.506700  0.149400  1.0  -0.0447
  C  C357  1  0.315900  0.060800  0.207600  1.0  -0.2091
  C  C358  1  0.239700  0.884000  0.348300  1.0  0.0681
  C  C359  1  0.140000  0.758200  0.327900  1.0  0.2577
  C  C360  1  0.224200  0.136000  0.942700  1.0  0.0194
  C  C361  1  0.089800  0.722200  0.281300  1.0  -0.0826
  C  C362  1  0.056600  0.291600  0.904100  1.0  -0.105
  C  C363  1  0.180000  0.051400  0.007900  1.0  -0.1684
  C  C364  1  0.309300  0.966300  0.318700  1.0  -0.1102
  C  C365  1  0.226000  0.407500  0.140500  1.0  -0.092
  C  C366  1  0.166800  0.442600  0.123600  1.0  -0.0645
  C  C367  1  0.285000  0.031300  0.000900  1.0  -0.1078
  C  C368  1  0.282100  0.437800  0.183600  1.0  -0.0722
  C  C369  1  0.300600  0.909400  0.356300  1.0  -0.1092
  C  C370  1  0.193600  0.971200  0.265400  1.0  -0.1557
  C  C371  1  0.069400  0.203100  0.831800  1.0  0.0137
  C  C372  1  0.026500  0.730800  0.279400  1.0  -0.1367
  C  C373  1  0.187300  0.917000  0.303200  1.0  -0.1687
  C  C374  1  0.032800  0.255600  0.841800  1.0  0.0647
  C  C375  1  0.230200  0.820100  0.386000  1.0  0.0197
  C  C376  1  0.010300  0.774300  0.327200  1.0  0.0415
  C  C377  1  0.277100  0.503400  0.211500  1.0  -0.0281
  C  C378  1  0.179200  0.830200  0.422400  1.0  -0.056
  C  C379  1  0.215300  0.106400  0.207200  1.0  -0.2418
  C  C380  1  0.435800  0.730000  0.493500  1.0  -0.0449
  C  C381  1  0.516400  0.726700  0.443400  1.0  -0.0766
  C  C382  1  0.742500  0.004100  0.443900  1.0  -0.1507
  C  C383  1  0.743400  0.938800  0.401100  1.0  0.7048
  C  C384  1  0.755000  0.065100  0.422700  1.0  -0.0255
  C  C385  1  0.115000  0.278300  0.950600  1.0  -0.1375
  C  C386  1  0.736200  0.997200  0.506700  1.0  -0.1011
  C  C387  1  0.750500  0.117900  0.523500  1.0  -0.125
  C  C388  1  0.760300  0.123600  0.461600  1.0  -0.1175
  C  C389  1  0.740500  0.052700  0.545500  1.0  -0.0366
  C  C390  1  0.926000  0.845100  0.353100  1.0  -0.1795
  C  C391  1  0.865100  0.851500  0.361000  1.0  0.1473
  C  C392  1  0.835500  0.739600  0.311500  1.0  0.175
  C  C393  1  0.896400  0.733200  0.303600  1.0  -0.0977
  C  C394  1  0.941600  0.785900  0.324400  1.0  -0.0124
  C  C395  1  0.894200  0.262800  0.675700  1.0  0.1467
  C  C396  1  0.859400  0.317400  0.761900  1.0  0.1653
  C  C397  1  0.920800  0.306800  0.808900  1.0  -0.0979
  C  C398  1  0.968810  0.274200  0.789300  1.0  -0.0013
  C  C399  1  0.955500  0.252200  0.722700  1.0  -0.1415
  C  C400  1  0.240600  0.952100  0.065000  1.0  0.0336
  C  C401  1  0.246600  0.892900  0.111900  1.0  0.0902
  C  C402  1  0.185100  0.993600  0.047600  1.0  -0.1163
  C  C403  1  0.289500  0.971300  0.040700  1.0  -0.0967
  C  C404  1  0.310100  0.823800  0.204800  1.0  0.1854
  C  C405  1  0.201900  0.805600  0.162300  1.0  0.1763
  C  C406  1  0.318400  0.113700  0.163500  1.0  0.1698
  C  C407  1  0.306600  0.875400  0.157400  1.0  -0.2051
  C  C408  1  0.195200  0.854200  0.114300  1.0  -0.2165
  C  C409  1  0.221800  0.154000  0.162300  1.0  0.1762
  C  C410  1  0.454800  0.208200  0.034200  1.0  -0.1561
  C  C411  1  0.405700  0.209100  0.073200  1.0  0.7221
  C  C412  1  0.520100  0.210100  0.067400  1.0  -0.0325
  C  C413  1  0.434700  0.207000  0.965600  1.0  -0.124
  C  C414  1  0.745900  0.681500  0.425700  1.0  0.6822
  C  C415  1  0.729100  0.837600  0.111900  1.0  0.6834
  C  C416  1  0.651800  0.720500  0.938600  1.0  0.3352
  C  C417  1  0.899900  0.230900  0.367800  1.0  0.715
  C  C418  1  0.762800  0.556500  0.229200  1.0  0.0763
  C  C419  1  0.951000  0.229500  0.436500  1.0  -0.1291
  C  C420  1  0.729400  0.570500  0.984700  1.0  0.0292
  C  C421  1  0.713300  0.109500  0.218800  1.0  0.6295
  C  C422  1  0.671300  0.631700  0.872100  1.0  -0.1214
  C  C423  1  0.755600  0.497000  0.272400  1.0  0.0378
  C  C424  1  0.718600  0.037400  0.193700  1.0  -0.1538
  C  C425  1  0.558200  0.305100  0.373800  1.0  0.0173
  C  C426  1  0.663200  0.006700  0.149400  1.0  -0.0447
  C  C427  1  0.815900  0.560800  0.207600  1.0  -0.2091
  C  C428  1  0.739700  0.384000  0.348300  1.0  0.0681
  C  C429  1  0.640000  0.258200  0.327900  1.0  0.2577
  C  C430  1  0.724200  0.636000  0.942700  1.0  0.0194
  C  C431  1  0.589800  0.222200  0.281300  1.0  -0.0826
  C  C432  1  0.556600  0.791600  0.904100  1.0  -0.105
  C  C433  1  0.680000  0.551400  0.007900  1.0  -0.1684
  C  C434  1  0.809300  0.466300  0.318700  1.0  -0.1102
  C  C435  1  0.726000  0.907500  0.140500  1.0  -0.092
  C  C436  1  0.666800  0.942600  0.123600  1.0  -0.0645
  C  C437  1  0.785000  0.531300  0.000900  1.0  -0.1078
  C  C438  1  0.782100  0.937800  0.183600  1.0  -0.0722
  C  C439  1  0.800600  0.409400  0.356300  1.0  -0.1092
  C  C440  1  0.693600  0.471200  0.265400  1.0  -0.1557
  C  C441  1  0.569400  0.703100  0.831800  1.0  0.0137
  C  C442  1  0.526500  0.230800  0.279400  1.0  -0.1367
  C  C443  1  0.687300  0.417000  0.303200  1.0  -0.1687
  C  C444  1  0.532800  0.755600  0.841800  1.0  0.0647
  C  C445  1  0.730200  0.320100  0.386000  1.0  0.0197
  C  C446  1  0.510300  0.274300  0.327200  1.0  0.0415
  C  C447  1  0.777100  0.003400  0.211500  1.0  -0.0281
  C  C448  1  0.679200  0.330200  0.422400  1.0  -0.056
  C  C449  1  0.715300  0.606400  0.207200  1.0  -0.2418
  C  C450  1  0.935800  0.230000  0.493500  1.0  -0.0449
  C  C451  1  0.016400  0.226700  0.443400  1.0  -0.0766
  C  C452  1  0.242500  0.504100  0.443900  1.0  -0.1507
  C  C453  1  0.243400  0.438800  0.401100  1.0  0.7048
  C  C454  1  0.255000  0.565100  0.422700  1.0  -0.0255
  C  C455  1  0.615000  0.778300  0.950600  1.0  -0.1375
  C  C456  1  0.236200  0.497200  0.506700  1.0  -0.1011
  C  C457  1  0.250500  0.617900  0.523500  1.0  -0.125
  C  C458  1  0.260300  0.623600  0.461600  1.0  -0.1175
  C  C459  1  0.240500  0.552700  0.545500  1.0  -0.0366
  C  C460  1  0.426000  0.345100  0.353100  1.0  -0.1795
  C  C461  1  0.365100  0.351500  0.361000  1.0  0.1473
  C  C462  1  0.335500  0.239600  0.311500  1.0  0.175
  C  C463  1  0.396400  0.233200  0.303600  1.0  -0.0977
  C  C464  1  0.441600  0.285900  0.324400  1.0  -0.0124
  C  C465  1  0.394200  0.762800  0.675700  1.0  0.1467
  C  C466  1  0.359400  0.817400  0.761900  1.0  0.1653
  C  C467  1  0.420800  0.806800  0.808900  1.0  -0.0979
  C  C468  1  0.468810  0.774200  0.789300  1.0  -0.0013
  C  C469  1  0.455500  0.752200  0.722700  1.0  -0.1415
  C  C470  1  0.740600  0.452100  0.065000  1.0  0.0336
  C  C471  1  0.746600  0.392900  0.111900  1.0  0.0902
  C  C472  1  0.685100  0.493600  0.047600  1.0  -0.1163
  C  C473  1  0.789500  0.471300  0.040700  1.0  -0.0967
  C  C474  1  0.810100  0.323800  0.204800  1.0  0.1854
  C  C475  1  0.701900  0.305600  0.162300  1.0  0.1763
  C  C476  1  0.818400  0.613700  0.163500  1.0  0.1698
  C  C477  1  0.806600  0.375400  0.157400  1.0  -0.2051
  C  C478  1  0.695200  0.354200  0.114300  1.0  -0.2165
  C  C479  1  0.721800  0.654000  0.162300  1.0  0.1762
  C  C480  1  0.954800  0.708200  0.034200  1.0  -0.1561
  C  C481  1  0.905700  0.709100  0.073200  1.0  0.7221
  C  C482  1  0.020100  0.710100  0.067400  1.0  -0.0325
  C  C483  1  0.934700  0.707000  0.965600  1.0  -0.124
  C  C484  1  0.245900  0.181500  0.425700  1.0  0.6822
  N  N485  1  0.792400  0.197500  0.023000  1.0  -0.3941
  N  N486  1  0.797700  0.764100  0.663900  1.0  -0.4084
  N  N487  1  0.873300  0.187700  0.121700  1.0  -0.0885
  N  N488  1  0.878700  0.798900  0.625800  1.0  -0.2217
  N  N489  1  0.180160  0.798700  0.659800  1.0  -0.3669
  N  N490  1  0.153830  0.295400  0.304700  1.0  -0.3438
  N  N491  1  0.740600  0.790100  0.790800  1.0  -0.3359
  N  N492  1  0.728500  0.159300  0.860300  1.0  -0.3404
  N  N493  1  0.292400  0.697500  0.023000  1.0  -0.3941
  N  N494  1  0.297700  0.264100  0.663900  1.0  -0.4084
  N  N495  1  0.373300  0.687700  0.121700  1.0  -0.0885
  N  N496  1  0.378700  0.298900  0.625800  1.0  -0.2217
  N  N497  1  0.680160  0.298700  0.659800  1.0  -0.3669
  N  N498  1  0.653830  0.795400  0.304700  1.0  -0.3438
  N  N499  1  0.240600  0.290100  0.790800  1.0  -0.3359
  N  N500  1  0.228500  0.659300  0.860300  1.0  -0.3404
  N  N501  1  0.207600  0.197500  0.977000  1.0  -0.3946
  N  N502  1  0.202300  0.764100  0.336100  1.0  -0.4063
  N  N503  1  0.126700  0.187700  0.878300  1.0  -0.0884
  N  N504  1  0.121300  0.798900  0.374200  1.0  -0.2216
  N  N505  1  0.819840  0.798700  0.340200  1.0  -0.3661
  N  N506  1  0.846170  0.295400  0.695300  1.0  -0.342
  N  N507  1  0.259400  0.790100  0.209200  1.0  -0.3337
  N  N508  1  0.271500  0.159300  0.139700  1.0  -0.3416
  N  N509  1  0.707600  0.697500  0.977000  1.0  -0.3946
  N  N510  1  0.702300  0.264100  0.336100  1.0  -0.4063
  N  N511  1  0.626700  0.687700  0.878300  1.0  -0.0884
  N  N512  1  0.621300  0.298900  0.374200  1.0  -0.2216
  N  N513  1  0.319840  0.298700  0.340200  1.0  -0.3661
  N  N514  1  0.346170  0.795400  0.695300  1.0  -0.342
  N  N515  1  0.759400  0.290100  0.209200  1.0  -0.3337
  N  N516  1  0.771500  0.659300  0.139700  1.0  -0.3416
  O  O517  1  0.657760  0.739000  0.632700  1.0  -0.5914
  O  O518  1  0.734400  0.630400  0.734800  1.0  -0.6165
  O  O519  1  0.818700  0.300300  0.898700  1.0  -0.5598
  O  O520  1  0.585300  0.717300  0.682300  1.0  -0.5659
  O  O521  1  0.835000  0.645000  0.806400  1.0  -0.5666
  O  O522  1  0.720200  0.321900  0.898300  1.0  -0.5804
  O  O523  1  0.251300  0.886000  0.571100  1.0  -0.5815
  O  O524  1  0.265300  0.945800  0.660300  1.0  -0.4856
  O  O525  1  0.652100  0.211900  0.963100  1.0  -0.605
  O  O526  1  0.575700  0.212000  0.866800  1.0  -0.5429
  O  O527  1  0.257800  0.735400  0.551400  1.0  -0.5686
  O  O528  1  0.261900  0.664200  0.634300  1.0  -0.5902
  O  O529  1  0.157760  0.239000  0.632700  1.0  -0.5914
  O  O530  1  0.234400  0.130400  0.734800  1.0  -0.6158
  O  O531  1  0.318700  0.800300  0.898700  1.0  -0.5598
  O  O532  1  0.085300  0.217300  0.682300  1.0  -0.5659
  O  O533  1  0.335000  0.145000  0.806400  1.0  -0.5666
  O  O534  1  0.220200  0.821900  0.898300  1.0  -0.5804
  O  O535  1  0.751300  0.386000  0.571100  1.0  -0.5815
  O  O536  1  0.765300  0.445800  0.660300  1.0  -0.4856
  O  O537  1  0.152100  0.711900  0.963100  1.0  -0.605
  O  O538  1  0.075700  0.712000  0.866800  1.0  -0.5429
  O  O539  1  0.757800  0.235400  0.551400  1.0  -0.5687
  O  O540  1  0.761900  0.164200  0.634300  1.0  -0.5902
  O  O541  1  0.342240  0.739000  0.367300  1.0  -0.5908
  O  O542  1  0.265600  0.630400  0.265200  1.0  -0.6162
  O  O543  1  0.181300  0.300300  0.101300  1.0  -0.5606
  O  O544  1  0.414700  0.717300  0.317700  1.0  -0.5652
  O  O545  1  0.165000  0.645000  0.193600  1.0  -0.5658
  O  O546  1  0.279800  0.321900  0.101700  1.0  -0.5798
  O  O547  1  0.748700  0.886000  0.428900  1.0  -0.5816
  O  O548  1  0.734700  0.945800  0.339700  1.0  -0.4864
  O  O549  1  0.347900  0.211900  0.036900  1.0  -0.6046
  O  O550  1  0.424300  0.212000  0.133200  1.0  -0.5451
  O  O551  1  0.742200  0.735400  0.448600  1.0  -0.568
  O  O552  1  0.738100  0.664200  0.365700  1.0  -0.5898
  O  O553  1  0.842240  0.239000  0.367300  1.0  -0.5908
  O  O554  1  0.765600  0.130400  0.265200  1.0  -0.6156
  O  O555  1  0.681300  0.800300  0.101300  1.0  -0.5606
  O  O556  1  0.914700  0.217300  0.317700  1.0  -0.5652
  O  O557  1  0.665000  0.145000  0.193600  1.0  -0.5658
  O  O558  1  0.779800  0.821900  0.101700  1.0  -0.5798
  O  O559  1  0.248700  0.386000  0.428900  1.0  -0.5816
  O  O560  1  0.234700  0.445800  0.339700  1.0  -0.4864
  O  O561  1  0.847900  0.711900  0.036900  1.0  -0.6046
  O  O562  1  0.924300  0.712000  0.133200  1.0  -0.5451
  O  O563  1  0.242200  0.235400  0.448600  1.0  -0.5682
  O  O564  1  0.238100  0.164200  0.365700  1.0  -0.5898
