# generated using pymatgen
data_ZnCd3H12C24O13
_symmetry_space_group_name_H-M   'P 1'
_cell_length_a   17.88920000
_cell_length_b   17.88920000
_cell_length_c   52.10120000
_cell_angle_alpha   90.00000000
_cell_angle_beta   90.00000000
_cell_angle_gamma   120.00000000
_symmetry_Int_Tables_number   1
_chemical_formula_structural   ZnCd3H12C24O13
_chemical_formula_sum   'Zn6 Cd18 H72 C144 O78'
_cell_volume   14439.76737425
_cell_formula_units_Z   6
loop_
 _symmetry_equiv_pos_site_id
 _symmetry_equiv_pos_as_xyz
  1  'x, y, z'
loop_
 _atom_site_type_symbol
 _atom_site_label
 _atom_site_symmetry_multiplicity
 _atom_site_fract_x
 _atom_site_fract_y
 _atom_site_fract_z
 _atom_site_occupancy
 _atom_site_charge
  Zn  Zn1  1  0.000000  0.000000  0.290100  1.0  0.9889
  Zn  Zn2  1  0.666667  0.333333  0.623430  1.0  0.9893
  Zn  Zn3  1  0.333333  0.666667  0.956770  1.0  0.9889
  Zn  Zn4  1  0.000000  0.000000  0.709900  1.0  0.9888
  Zn  Zn5  1  0.666667  0.333333  0.043230  1.0  0.9889
  Zn  Zn6  1  0.333333  0.666667  0.376570  1.0  0.989
  Cd  Cd7  1  0.200800  0.600400  0.905000  1.0  0.841
  Cd  Cd8  1  0.867470  0.933730  0.238330  1.0  0.844
  Cd  Cd9  1  0.534130  0.267070  0.571670  1.0  0.841
  Cd  Cd10  1  0.399600  0.600400  0.905000  1.0  0.8294
  Cd  Cd11  1  0.066270  0.933730  0.238330  1.0  0.8294
  Cd  Cd12  1  0.732930  0.267070  0.571670  1.0  0.8293
  Cd  Cd13  1  0.399600  0.799200  0.905000  1.0  0.8425
  Cd  Cd14  1  0.066270  0.132530  0.238330  1.0  0.8452
  Cd  Cd15  1  0.732930  0.465870  0.571670  1.0  0.8425
  Cd  Cd16  1  0.600400  0.200800  0.095000  1.0  0.8429
  Cd  Cd17  1  0.267070  0.534130  0.428330  1.0  0.8429
  Cd  Cd18  1  0.933730  0.867470  0.761670  1.0  0.8457
  Cd  Cd19  1  0.600400  0.399600  0.095000  1.0  0.83
  Cd  Cd20  1  0.267070  0.732930  0.428330  1.0  0.8298
  Cd  Cd21  1  0.933730  0.066270  0.761670  1.0  0.83
  Cd  Cd22  1  0.799200  0.399600  0.095000  1.0  0.841
  Cd  Cd23  1  0.465870  0.732930  0.428330  1.0  0.841
  Cd  Cd24  1  0.132530  0.066270  0.761670  1.0  0.8437
  H  H25  1  0.057400  0.408900  0.483000  1.0  0.149
  H  H26  1  0.724070  0.742230  0.816330  1.0  0.1492
  H  H27  1  0.390730  0.075570  0.149670  1.0  0.1468
  H  H28  1  0.591100  0.648500  0.483000  1.0  0.1501
  H  H29  1  0.257770  0.981830  0.816330  1.0  0.1494
  H  H30  1  0.924430  0.315170  0.149670  1.0  0.1497
  H  H31  1  0.351500  0.942600  0.483000  1.0  0.1459
  H  H32  1  0.018170  0.275930  0.816330  1.0  0.1444
  H  H33  1  0.684830  0.609270  0.149670  1.0  0.1459
  H  H34  1  0.408900  0.057400  0.517000  1.0  0.1464
  H  H35  1  0.075570  0.390730  0.850330  1.0  0.1445
  H  H36  1  0.742230  0.724070  0.183670  1.0  0.1468
  H  H37  1  0.648500  0.591100  0.517000  1.0  0.1487
  H  H38  1  0.315170  0.924430  0.850330  1.0  0.1482
  H  H39  1  0.981830  0.257770  0.183670  1.0  0.1478
  H  H40  1  0.942600  0.351500  0.517000  1.0  0.1487
  H  H41  1  0.609270  0.684830  0.850330  1.0  0.1487
  H  H42  1  0.275930  0.018170  0.183670  1.0  0.147
  H  H43  1  0.942600  0.591100  0.517000  1.0  0.1479
  H  H44  1  0.609270  0.924430  0.850330  1.0  0.1456
  H  H45  1  0.275930  0.257770  0.183670  1.0  0.1481
  H  H46  1  0.408900  0.351500  0.517000  1.0  0.1491
  H  H47  1  0.075570  0.684830  0.850330  1.0  0.1487
  H  H48  1  0.742230  0.018170  0.183670  1.0  0.1478
  H  H49  1  0.648500  0.057400  0.517000  1.0  0.1466
  H  H50  1  0.315170  0.390730  0.850330  1.0  0.1466
  H  H51  1  0.981830  0.724070  0.183670  1.0  0.1452
  H  H52  1  0.591100  0.942600  0.483000  1.0  0.1476
  H  H53  1  0.257770  0.275930  0.816330  1.0  0.148
  H  H54  1  0.924430  0.609270  0.149670  1.0  0.1454
  H  H55  1  0.351500  0.408900  0.483000  1.0  0.1474
  H  H56  1  0.018170  0.742230  0.816330  1.0  0.1463
  H  H57  1  0.684830  0.075570  0.149670  1.0  0.1475
  H  H58  1  0.057400  0.648500  0.483000  1.0  0.1488
  H  H59  1  0.724070  0.981830  0.816330  1.0  0.1471
  H  H60  1  0.390730  0.315170  0.149670  1.0  0.1488
  H  H61  1  0.090300  0.909700  0.347800  1.0  0.149
  H  H62  1  0.756970  0.243030  0.681130  1.0  0.1489
  H  H63  1  0.423630  0.576370  0.014470  1.0  0.1491
  H  H64  1  0.090300  0.180600  0.347800  1.0  0.1513
  H  H65  1  0.756970  0.513930  0.681130  1.0  0.1494
  H  H66  1  0.423630  0.847270  0.014470  1.0  0.1513
  H  H67  1  0.819400  0.909700  0.347800  1.0  0.1491
  H  H68  1  0.486070  0.243030  0.681130  1.0  0.1488
  H  H69  1  0.152730  0.576370  0.014470  1.0  0.1491
  H  H70  1  0.909700  0.090300  0.652200  1.0  0.1484
  H  H71  1  0.576370  0.423630  0.985530  1.0  0.1484
  H  H72  1  0.243030  0.756970  0.318870  1.0  0.1486
  H  H73  1  0.180600  0.090300  0.652200  1.0  0.148
  H  H74  1  0.847270  0.423630  0.985530  1.0  0.148
  H  H75  1  0.513930  0.756970  0.318870  1.0  0.1474
  H  H76  1  0.909700  0.819400  0.652200  1.0  0.1527
  H  H77  1  0.576370  0.152730  0.985530  1.0  0.1527
  H  H78  1  0.243030  0.486070  0.318870  1.0  0.1503
  H  H79  1  0.699300  0.849650  0.380000  1.0  0.1473
  H  H80  1  0.365970  0.182980  0.713330  1.0  0.1458
  H  H81  1  0.032630  0.516320  0.046670  1.0  0.1473
  H  H82  1  0.150350  0.849650  0.380000  1.0  0.1448
  H  H83  1  0.817020  0.182980  0.713330  1.0  0.1461
  H  H84  1  0.483680  0.516320  0.046670  1.0  0.1448
  H  H85  1  0.150350  0.300700  0.380000  1.0  0.1473
  H  H86  1  0.817020  0.634030  0.713330  1.0  0.1454
  H  H87  1  0.483680  0.967370  0.046670  1.0  0.1473
  H  H88  1  0.849650  0.699300  0.620000  1.0  0.1476
  H  H89  1  0.516320  0.032630  0.953330  1.0  0.1476
  H  H90  1  0.182980  0.365970  0.286670  1.0  0.1453
  H  H91  1  0.849650  0.150350  0.620000  1.0  0.1447
  H  H92  1  0.516320  0.483680  0.953330  1.0  0.1447
  H  H93  1  0.182980  0.817020  0.286670  1.0  0.1459
  H  H94  1  0.300700  0.150350  0.620000  1.0  0.1456
  H  H95  1  0.967370  0.483680  0.953330  1.0  0.1456
  H  H96  1  0.634030  0.817020  0.286670  1.0  0.1451
  C  C97  1  0.885200  0.250300  0.157200  1.0  -0.0675
  C  C98  1  0.551870  0.583630  0.490530  1.0  -0.0701
  C  C99  1  0.218530  0.916970  0.823870  1.0  -0.0666
  C  C100  1  0.749700  0.634900  0.157200  1.0  -0.0658
  C  C101  1  0.416370  0.968230  0.490530  1.0  -0.0637
  C  C102  1  0.083030  0.301570  0.823870  1.0  -0.0639
  C  C103  1  0.365100  0.114800  0.157200  1.0  -0.0648
  C  C104  1  0.031770  0.448130  0.490530  1.0  -0.0653
  C  C105  1  0.698430  0.781470  0.823870  1.0  -0.0648
  C  C106  1  0.250300  0.885200  0.842800  1.0  -0.0667
  C  C107  1  0.916970  0.218530  0.176130  1.0  -0.0657
  C  C108  1  0.583630  0.551870  0.509470  1.0  -0.0693
  C  C109  1  0.634900  0.749700  0.842800  1.0  -0.0701
  C  C110  1  0.301570  0.083030  0.176130  1.0  -0.068
  C  C111  1  0.968230  0.416370  0.509470  1.0  -0.0686
  C  C112  1  0.114800  0.365100  0.842800  1.0  -0.0632
  C  C113  1  0.781470  0.698430  0.176130  1.0  -0.0632
  C  C114  1  0.448130  0.031770  0.509470  1.0  -0.0624
  C  C115  1  0.114800  0.749700  0.842800  1.0  -0.0665
  C  C116  1  0.781470  0.083030  0.176130  1.0  -0.066
  C  C117  1  0.448130  0.416370  0.509470  1.0  -0.0681
  C  C118  1  0.250300  0.365100  0.842800  1.0  -0.0662
  C  C119  1  0.916970  0.698430  0.176130  1.0  -0.065
  C  C120  1  0.583630  0.031770  0.509470  1.0  -0.0655
  C  C121  1  0.634900  0.885200  0.842800  1.0  -0.0662
  C  C122  1  0.301570  0.218530  0.176130  1.0  -0.0667
  C  C123  1  0.968230  0.551870  0.509470  1.0  -0.0659
  C  C124  1  0.749700  0.114800  0.157200  1.0  -0.0662
  C  C125  1  0.416370  0.448130  0.490530  1.0  -0.0675
  C  C126  1  0.083030  0.781470  0.823870  1.0  -0.0654
  C  C127  1  0.365100  0.250300  0.157200  1.0  -0.0707
  C  C128  1  0.031770  0.583630  0.490530  1.0  -0.0682
  C  C129  1  0.698430  0.916970  0.823870  1.0  -0.0689
  C  C130  1  0.885200  0.634900  0.157200  1.0  -0.063
  C  C131  1  0.551870  0.968230  0.490530  1.0  -0.0627
  C  C132  1  0.218530  0.301570  0.823870  1.0  -0.0626
  C  C133  1  0.569500  0.430500  0.037400  1.0  0.6609
  C  C134  1  0.766600  0.233400  0.127600  1.0  0.6603
  C  C135  1  0.542900  0.457100  0.991700  1.0  -0.064
  C  C136  1  0.490500  0.509500  0.026200  1.0  -0.0689
  C  C137  1  0.533600  0.466400  0.018000  1.0  -0.0769
  C  C138  1  0.801400  0.198600  0.147700  1.0  -0.0854
  C  C139  1  0.236170  0.763830  0.370730  1.0  0.6608
  C  C140  1  0.433270  0.566730  0.460930  1.0  0.6603
  C  C141  1  0.209570  0.790430  0.325030  1.0  -0.0615
  C  C142  1  0.157170  0.842830  0.359530  1.0  -0.0689
  C  C143  1  0.200270  0.799730  0.351330  1.0  -0.0772
  C  C144  1  0.468070  0.531930  0.481030  1.0  -0.083
  C  C145  1  0.902830  0.097170  0.704070  1.0  0.6608
  C  C146  1  0.099930  0.900070  0.794270  1.0  0.6603
  C  C147  1  0.876230  0.123770  0.658370  1.0  -0.064
  C  C148  1  0.823830  0.176170  0.692870  1.0  -0.0688
  C  C149  1  0.866930  0.133070  0.684670  1.0  -0.0769
  C  C150  1  0.134730  0.865270  0.814370  1.0  -0.0845
  C  C151  1  0.569500  0.139000  0.037400  1.0  0.6614
  C  C152  1  0.766600  0.533200  0.127600  1.0  0.6599
  C  C153  1  0.542900  0.085800  0.991700  1.0  -0.0598
  C  C154  1  0.490500  0.981000  0.026200  1.0  -0.0675
  C  C155  1  0.533600  0.067200  0.018000  1.0  -0.0756
  C  C156  1  0.801400  0.602800  0.147700  1.0  -0.0813
  C  C157  1  0.236170  0.472330  0.370730  1.0  0.6613
  C  C158  1  0.433270  0.866530  0.460930  1.0  0.6599
  C  C159  1  0.209570  0.419130  0.325030  1.0  -0.0653
  C  C160  1  0.157170  0.314330  0.359530  1.0  -0.0675
  C  C161  1  0.200270  0.400530  0.351330  1.0  -0.077
  C  C162  1  0.468070  0.936130  0.481030  1.0  -0.0816
  C  C163  1  0.902830  0.805670  0.704070  1.0  0.6614
  C  C164  1  0.099930  0.199870  0.794270  1.0  0.6597
  C  C165  1  0.876230  0.752470  0.658370  1.0  -0.0598
  C  C166  1  0.823830  0.647670  0.692870  1.0  -0.0672
  C  C167  1  0.866930  0.733870  0.684670  1.0  -0.0756
  C  C168  1  0.134730  0.269470  0.814370  1.0  -0.081
  C  C169  1  0.861000  0.430500  0.037400  1.0  0.6613
  C  C170  1  0.466800  0.233400  0.127600  1.0  0.6603
  C  C171  1  0.914200  0.457100  0.991700  1.0  -0.0582
  C  C172  1  0.019000  0.509500  0.026200  1.0  -0.067
  C  C173  1  0.932800  0.466400  0.018000  1.0  -0.0756
  C  C174  1  0.397200  0.198600  0.147700  1.0  -0.082
  C  C175  1  0.527670  0.763830  0.370730  1.0  0.6613
  C  C176  1  0.133470  0.566730  0.460930  1.0  0.6603
  C  C177  1  0.580870  0.790430  0.325030  1.0  -0.0623
  C  C178  1  0.685670  0.842830  0.359530  1.0  -0.067
  C  C179  1  0.599470  0.799730  0.351330  1.0  -0.077
  C  C180  1  0.063870  0.531930  0.481030  1.0  -0.0823
  C  C181  1  0.194330  0.097170  0.704070  1.0  0.6613
  C  C182  1  0.800130  0.900070  0.794270  1.0  0.6603
  C  C183  1  0.247530  0.123770  0.658370  1.0  -0.0582
  C  C184  1  0.352330  0.176170  0.692870  1.0  -0.0665
  C  C185  1  0.266130  0.133070  0.684670  1.0  -0.0756
  C  C186  1  0.730530  0.865270  0.814370  1.0  -0.0816
  C  C187  1  0.430500  0.569500  0.962600  1.0  0.6608
  C  C188  1  0.233400  0.766600  0.872400  1.0  0.6593
  C  C189  1  0.457100  0.542900  0.008300  1.0  -0.0632
  C  C190  1  0.509500  0.490500  0.973800  1.0  -0.069
  C  C191  1  0.466400  0.533600  0.982000  1.0  -0.0777
  C  C192  1  0.198600  0.801400  0.852300  1.0  -0.0856
  C  C193  1  0.097170  0.902830  0.295930  1.0  0.6608
  C  C194  1  0.900070  0.099930  0.205730  1.0  0.6594
  C  C195  1  0.123770  0.876230  0.341630  1.0  -0.0632
  C  C196  1  0.176170  0.823830  0.307130  1.0  -0.0682
  C  C197  1  0.133070  0.866930  0.315330  1.0  -0.0777
  C  C198  1  0.865270  0.134730  0.185630  1.0  -0.0849
  C  C199  1  0.763830  0.236170  0.629270  1.0  0.6608
  C  C200  1  0.566730  0.433270  0.539070  1.0  0.6593
  C  C201  1  0.790430  0.209570  0.674970  1.0  -0.0609
  C  C202  1  0.842830  0.157170  0.640470  1.0  -0.069
  C  C203  1  0.799730  0.200270  0.648670  1.0  -0.0781
  C  C204  1  0.531930  0.468070  0.518970  1.0  -0.0833
  C  C205  1  0.139000  0.569500  0.962600  1.0  0.6602
  C  C206  1  0.533200  0.766600  0.872400  1.0  0.6593
  C  C207  1  0.085800  0.542900  0.008300  1.0  -0.0593
  C  C208  1  0.981000  0.490500  0.973800  1.0  -0.0674
  C  C209  1  0.067200  0.533600  0.982000  1.0  -0.076
  C  C210  1  0.602800  0.801400  0.852300  1.0  -0.0827
  C  C211  1  0.805670  0.902830  0.295930  1.0  0.6602
  C  C212  1  0.199870  0.099930  0.205730  1.0  0.6593
  C  C213  1  0.752470  0.876230  0.341630  1.0  -0.0593
  C  C214  1  0.647670  0.823830  0.307130  1.0  -0.0674
  C  C215  1  0.733870  0.866930  0.315330  1.0  -0.0761
  C  C216  1  0.269470  0.134730  0.185630  1.0  -0.0824
  C  C217  1  0.472330  0.236170  0.629270  1.0  0.6602
  C  C218  1  0.866530  0.433270  0.539070  1.0  0.6593
  C  C219  1  0.419130  0.209570  0.674970  1.0  -0.0641
  C  C220  1  0.314330  0.157170  0.640470  1.0  -0.0674
  C  C221  1  0.400530  0.200270  0.648670  1.0  -0.0775
  C  C222  1  0.936130  0.468070  0.518970  1.0  -0.083
  C  C223  1  0.430500  0.861000  0.962600  1.0  0.66
  C  C224  1  0.233400  0.466800  0.872400  1.0  0.6593
  C  C225  1  0.457100  0.914200  0.008300  1.0  -0.0599
  C  C226  1  0.509500  0.019000  0.973800  1.0  -0.0682
  C  C227  1  0.466400  0.932800  0.982000  1.0  -0.0757
  C  C228  1  0.198600  0.397200  0.852300  1.0  -0.0819
  C  C229  1  0.097170  0.194330  0.295930  1.0  0.66
  C  C230  1  0.900070  0.800130  0.205730  1.0  0.6593
  C  C231  1  0.123770  0.247530  0.341630  1.0  -0.0599
  C  C232  1  0.176170  0.352330  0.307130  1.0  -0.0683
  C  C233  1  0.133070  0.266130  0.315330  1.0  -0.0757
  C  C234  1  0.865270  0.730530  0.185630  1.0  -0.0816
  C  C235  1  0.763830  0.527670  0.629270  1.0  0.66
  C  C236  1  0.566730  0.133470  0.539070  1.0  0.6593
  C  C237  1  0.790430  0.580870  0.674970  1.0  -0.0646
  C  C238  1  0.842830  0.685670  0.640470  1.0  -0.0682
  C  C239  1  0.799730  0.599470  0.648670  1.0  -0.0771
  C  C240  1  0.531930  0.063870  0.518970  1.0  -0.0822
  O  O241  1  0.493400  0.310000  0.119900  1.0  -0.5996
  O  O242  1  0.160070  0.643330  0.453230  1.0  -0.5996
  O  O243  1  0.826730  0.976670  0.786570  1.0  -0.5995
  O  O244  1  0.690000  0.183400  0.119900  1.0  -0.5983
  O  O245  1  0.356670  0.516730  0.453230  1.0  -0.5983
  O  O246  1  0.023330  0.850070  0.786570  1.0  -0.5983
  O  O247  1  0.816600  0.506600  0.119900  1.0  -0.5975
  O  O248  1  0.483270  0.839930  0.453230  1.0  -0.5975
  O  O249  1  0.149930  0.173270  0.786570  1.0  -0.5981
  O  O250  1  0.310000  0.493400  0.880100  1.0  -0.5983
  O  O251  1  0.976670  0.826730  0.213430  1.0  -0.5982
  O  O252  1  0.643330  0.160070  0.546770  1.0  -0.5983
  O  O253  1  0.183400  0.690000  0.880100  1.0  -0.5986
  O  O254  1  0.850070  0.023330  0.213430  1.0  -0.5982
  O  O255  1  0.516730  0.356670  0.546770  1.0  -0.5986
  O  O256  1  0.506600  0.816600  0.880100  1.0  -0.5972
  O  O257  1  0.173270  0.149930  0.213430  1.0  -0.597
  O  O258  1  0.839930  0.483270  0.546770  1.0  -0.5972
  O  O259  1  0.506600  0.690000  0.880100  1.0  -0.598
  O  O260  1  0.173270  0.023330  0.213430  1.0  -0.598
  O  O261  1  0.839930  0.356670  0.546770  1.0  -0.598
  O  O262  1  0.310000  0.816600  0.880100  1.0  -0.5968
  O  O263  1  0.976670  0.149930  0.213430  1.0  -0.5964
  O  O264  1  0.643330  0.483270  0.546770  1.0  -0.5968
  O  O265  1  0.183400  0.493400  0.880100  1.0  -0.5981
  O  O266  1  0.850070  0.826730  0.213430  1.0  -0.598
  O  O267  1  0.516730  0.160070  0.546770  1.0  -0.5981
  O  O268  1  0.690000  0.506600  0.119900  1.0  -0.5986
  O  O269  1  0.356670  0.839930  0.453230  1.0  -0.5986
  O  O270  1  0.023330  0.173270  0.786570  1.0  -0.5985
  O  O271  1  0.816600  0.310000  0.119900  1.0  -0.5982
  O  O272  1  0.483270  0.643330  0.453230  1.0  -0.5982
  O  O273  1  0.149930  0.976670  0.786570  1.0  -0.5981
  O  O274  1  0.493400  0.183400  0.119900  1.0  -0.5971
  O  O275  1  0.160070  0.516730  0.453230  1.0  -0.5971
  O  O276  1  0.826730  0.850070  0.786570  1.0  -0.5973
  O  O277  1  0.558700  0.441300  0.060900  1.0  -0.5929
  O  O278  1  0.607800  0.392200  0.028700  1.0  -0.587
  O  O279  1  0.225370  0.774630  0.394230  1.0  -0.5929
  O  O280  1  0.274470  0.725530  0.362030  1.0  -0.5853
  O  O281  1  0.892030  0.107970  0.727570  1.0  -0.5929
  O  O282  1  0.941130  0.058870  0.695370  1.0  -0.587
  O  O283  1  0.558700  0.117400  0.060900  1.0  -0.5906
  O  O284  1  0.607800  0.215600  0.028700  1.0  -0.5838
  O  O285  1  0.225370  0.450730  0.394230  1.0  -0.5906
  O  O286  1  0.274470  0.548930  0.362030  1.0  -0.5854
  O  O287  1  0.892030  0.784070  0.727570  1.0  -0.5906
  O  O288  1  0.941130  0.882270  0.695370  1.0  -0.5838
  O  O289  1  0.882600  0.441300  0.060900  1.0  -0.5919
  O  O290  1  0.784400  0.392200  0.028700  1.0  -0.5844
  O  O291  1  0.549270  0.774630  0.394230  1.0  -0.5919
  O  O292  1  0.451070  0.725530  0.362030  1.0  -0.5855
  O  O293  1  0.215930  0.107970  0.727570  1.0  -0.5919
  O  O294  1  0.117730  0.058870  0.695370  1.0  -0.5844
  O  O295  1  0.441300  0.558700  0.939100  1.0  -0.5933
  O  O296  1  0.392200  0.607800  0.971300  1.0  -0.5852
  O  O297  1  0.107970  0.892030  0.272430  1.0  -0.5933
  O  O298  1  0.058870  0.941130  0.304630  1.0  -0.5852
  O  O299  1  0.774630  0.225370  0.605770  1.0  -0.5933
  O  O300  1  0.725530  0.274470  0.637970  1.0  -0.5837
  O  O301  1  0.117400  0.558700  0.939100  1.0  -0.5936
  O  O302  1  0.215600  0.607800  0.971300  1.0  -0.5846
  O  O303  1  0.784070  0.892030  0.272430  1.0  -0.5936
  O  O304  1  0.882270  0.941130  0.304630  1.0  -0.5846
  O  O305  1  0.450730  0.225370  0.605770  1.0  -0.5936
  O  O306  1  0.548930  0.274470  0.637970  1.0  -0.5864
  O  O307  1  0.441300  0.882600  0.939100  1.0  -0.5917
  O  O308  1  0.392200  0.784400  0.971300  1.0  -0.5824
  O  O309  1  0.107970  0.215930  0.272430  1.0  -0.5917
  O  O310  1  0.058870  0.117730  0.304630  1.0  -0.5824
  O  O311  1  0.774630  0.549270  0.605770  1.0  -0.5917
  O  O312  1  0.725530  0.451070  0.637970  1.0  -0.5843
  O  O313  1  0.333333  0.666667  0.919600  1.0  -0.8539
  O  O314  1  0.000000  0.000000  0.252930  1.0  -0.854
  O  O315  1  0.666667  0.333333  0.586270  1.0  -0.854
  O  O316  1  0.666667  0.333333  0.080400  1.0  -0.8546
  O  O317  1  0.333333  0.666667  0.413730  1.0  -0.8547
  O  O318  1  0.000000  0.000000  0.747070  1.0  -0.8547
