# generated using pymatgen
data_NiH16C18(NO2)2
_symmetry_space_group_name_H-M   'P 1'
_cell_length_a   35.42470000
_cell_length_b   13.94020000
_cell_length_c   9.45160000
_cell_angle_alpha   90.00000000
_cell_angle_beta   101.69300000
_cell_angle_gamma   90.00000000
_symmetry_Int_Tables_number   1
_chemical_formula_structural   NiH16C18(NO2)2
_chemical_formula_sum   'Ni8 H128 C144 N16 O32'
_cell_volume   4570.59800322
_cell_formula_units_Z   8
loop_
 _symmetry_equiv_pos_site_id
 _symmetry_equiv_pos_as_xyz
  1  'x, y, z'
loop_
 _atom_site_type_symbol
 _atom_site_label
 _atom_site_symmetry_multiplicity
 _atom_site_fract_x
 _atom_site_fract_y
 _atom_site_fract_z
 _atom_site_occupancy
 _atom_site_charge
  Ni  Ni1  1  0.863930  0.294250  0.161840  1.0  0.5769
  Ni  Ni2  1  0.363930  0.794250  0.161840  1.0  0.5769
  Ni  Ni3  1  0.136070  0.294250  0.338160  1.0  0.5781
  Ni  Ni4  1  0.636070  0.794250  0.338160  1.0  0.5781
  Ni  Ni5  1  0.136070  0.705750  0.838160  1.0  0.5792
  Ni  Ni6  1  0.636070  0.205750  0.838160  1.0  0.5792
  Ni  Ni7  1  0.863930  0.705750  0.661840  1.0  0.5751
  Ni  Ni8  1  0.363930  0.205750  0.661840  1.0  0.5751
  H  H9  1  0.748600  0.224900  0.773500  1.0  0.1342
  H  H10  1  0.789300  0.527500  0.417000  1.0  0.1134
  H  H11  1  0.776200  0.080900  0.160700  1.0  0.0988
  H  H12  1  0.784500  0.242700  0.003400  1.0  0.0899
  H  H13  1  0.813400  0.022000  0.429900  1.0  0.1049
  H  H14  1  0.753800  0.453200  0.156200  1.0  0.1011
  H  H15  1  0.874100  0.322500  0.855400  1.0  0.0899
  H  H16  1  0.841100  0.311100  0.622700  1.0  0.1425
  H  H17  1  0.949200  0.298900  0.145800  1.0  0.0927
  H  H18  1  0.874200  0.094600  0.059200  1.0  0.0822
  H  H19  1  0.917300  0.997200  0.983100  1.0  0.1319
  H  H20  1  0.768700  0.329600  0.476800  1.0  0.073
  H  H21  1  0.782700  0.225000  0.460300  1.0  0.0779
  H  H22  1  0.995600  0.204300  0.079400  1.0  0.1427
  H  H23  1  0.977100  0.994200  0.862300  1.0  0.0868
  H  H24  1  0.008900  0.073000  0.912100  1.0  0.0875
  H  H25  1  0.248600  0.724900  0.773500  1.0  0.1342
  H  H26  1  0.289300  0.027500  0.417000  1.0  0.1134
  H  H27  1  0.276200  0.580900  0.160700  1.0  0.0988
  H  H28  1  0.284500  0.742700  0.003400  1.0  0.0899
  H  H29  1  0.313400  0.522000  0.429900  1.0  0.1049
  H  H30  1  0.253800  0.953200  0.156200  1.0  0.1011
  H  H31  1  0.374100  0.822500  0.855400  1.0  0.0899
  H  H32  1  0.341100  0.811100  0.622700  1.0  0.1425
  H  H33  1  0.449200  0.798900  0.145800  1.0  0.0927
  H  H34  1  0.374200  0.594600  0.059200  1.0  0.0822
  H  H35  1  0.417300  0.497200  0.983100  1.0  0.1319
  H  H36  1  0.268700  0.829600  0.476800  1.0  0.073
  H  H37  1  0.282700  0.725000  0.460300  1.0  0.0779
  H  H38  1  0.495600  0.704300  0.079400  1.0  0.1427
  H  H39  1  0.477100  0.494200  0.862300  1.0  0.0868
  H  H40  1  0.508900  0.573000  0.912100  1.0  0.0875
  H  H41  1  0.251400  0.224900  0.726500  1.0  0.1344
  H  H42  1  0.210700  0.527500  0.083000  1.0  0.1136
  H  H43  1  0.223800  0.080900  0.339300  1.0  0.0985
  H  H44  1  0.215500  0.242700  0.496600  1.0  0.09
  H  H45  1  0.186600  0.022000  0.070100  1.0  0.1052
  H  H46  1  0.246200  0.453200  0.343800  1.0  0.1005
  H  H47  1  0.125900  0.322500  0.644600  1.0  0.091
  H  H48  1  0.158900  0.311100  0.877300  1.0  0.143
  H  H49  1  0.050800  0.298900  0.354200  1.0  0.0936
  H  H50  1  0.125800  0.094600  0.440800  1.0  0.083
  H  H51  1  0.082700  0.997200  0.516900  1.0  0.132
  H  H52  1  0.231300  0.329600  0.023200  1.0  0.0725
  H  H53  1  0.217300  0.225000  0.039700  1.0  0.0777
  H  H54  1  0.004400  0.204300  0.420600  1.0  0.1432
  H  H55  1  0.022900  0.994200  0.637700  1.0  0.087
  H  H56  1  0.991100  0.073000  0.587900  1.0  0.0871
  H  H57  1  0.751400  0.724900  0.726500  1.0  0.1344
  H  H58  1  0.710700  0.027500  0.083000  1.0  0.1136
  H  H59  1  0.723800  0.580900  0.339300  1.0  0.0985
  H  H60  1  0.715500  0.742700  0.496600  1.0  0.09
  H  H61  1  0.686600  0.522000  0.070100  1.0  0.1052
  H  H62  1  0.746200  0.953200  0.343800  1.0  0.1005
  H  H63  1  0.625900  0.822500  0.644600  1.0  0.091
  H  H64  1  0.658900  0.811100  0.877300  1.0  0.143
  H  H65  1  0.550800  0.798900  0.354200  1.0  0.0936
  H  H66  1  0.625800  0.594600  0.440800  1.0  0.083
  H  H67  1  0.582700  0.497200  0.516900  1.0  0.132
  H  H68  1  0.731300  0.829600  0.023200  1.0  0.0725
  H  H69  1  0.717300  0.725000  0.039700  1.0  0.0777
  H  H70  1  0.504400  0.704300  0.420600  1.0  0.1432
  H  H71  1  0.522900  0.494200  0.637700  1.0  0.087
  H  H72  1  0.491100  0.573000  0.587900  1.0  0.0871
  H  H73  1  0.251400  0.775100  0.226500  1.0  0.1348
  H  H74  1  0.210700  0.472500  0.583000  1.0  0.1133
  H  H75  1  0.223800  0.919100  0.839300  1.0  0.0982
  H  H76  1  0.215500  0.757300  0.996600  1.0  0.0902
  H  H77  1  0.186600  0.978000  0.570100  1.0  0.1053
  H  H78  1  0.246200  0.546800  0.843800  1.0  0.1005
  H  H79  1  0.125900  0.677500  0.144600  1.0  0.0911
  H  H80  1  0.158900  0.688900  0.377300  1.0  0.1431
  H  H81  1  0.050800  0.701100  0.854200  1.0  0.0944
  H  H82  1  0.125800  0.905400  0.940800  1.0  0.083
  H  H83  1  0.082700  0.002800  0.016900  1.0  0.1317
  H  H84  1  0.231300  0.670400  0.523200  1.0  0.0702
  H  H85  1  0.217300  0.775000  0.539700  1.0  0.0778
  H  H86  1  0.004400  0.795700  0.920600  1.0  0.1435
  H  H87  1  0.022900  0.005800  0.137700  1.0  0.0866
  H  H88  1  0.991100  0.927000  0.087900  1.0  0.088
  H  H89  1  0.751400  0.275100  0.226500  1.0  0.1348
  H  H90  1  0.710700  0.972500  0.583000  1.0  0.1133
  H  H91  1  0.723800  0.419100  0.839300  1.0  0.0982
  H  H92  1  0.715500  0.257300  0.996600  1.0  0.0902
  H  H93  1  0.686600  0.478000  0.570100  1.0  0.1053
  H  H94  1  0.746200  0.046800  0.843800  1.0  0.1005
  H  H95  1  0.625900  0.177500  0.144600  1.0  0.0911
  H  H96  1  0.658900  0.188900  0.377300  1.0  0.1431
  H  H97  1  0.550800  0.201100  0.854200  1.0  0.0944
  H  H98  1  0.625800  0.405400  0.940800  1.0  0.083
  H  H99  1  0.582700  0.502800  0.016900  1.0  0.1317
  H  H100  1  0.731300  0.170400  0.523200  1.0  0.0702
  H  H101  1  0.717300  0.275000  0.539700  1.0  0.0778
  H  H102  1  0.504400  0.295700  0.920600  1.0  0.1435
  H  H103  1  0.522900  0.505800  0.137700  1.0  0.0866
  H  H104  1  0.491100  0.427000  0.087900  1.0  0.088
  H  H105  1  0.748600  0.775100  0.273500  1.0  0.1348
  H  H106  1  0.789300  0.472500  0.917000  1.0  0.1124
  H  H107  1  0.776200  0.919100  0.660700  1.0  0.0987
  H  H108  1  0.784500  0.757300  0.503400  1.0  0.0899
  H  H109  1  0.813400  0.978000  0.929900  1.0  0.1048
  H  H110  1  0.753800  0.546800  0.656200  1.0  0.1009
  H  H111  1  0.874100  0.677500  0.355400  1.0  0.0896
  H  H112  1  0.841100  0.688900  0.122700  1.0  0.1424
  H  H113  1  0.949200  0.701100  0.645800  1.0  0.0944
  H  H114  1  0.874200  0.905400  0.559200  1.0  0.0825
  H  H115  1  0.917300  0.002800  0.483100  1.0  0.1318
  H  H116  1  0.768700  0.670400  0.976800  1.0  0.0717
  H  H117  1  0.782700  0.775000  0.960300  1.0  0.0793
  H  H118  1  0.995600  0.795700  0.579400  1.0  0.1424
  H  H119  1  0.977100  0.005800  0.362300  1.0  0.087
  H  H120  1  0.008900  0.927000  0.412100  1.0  0.0874
  H  H121  1  0.248600  0.275100  0.273500  1.0  0.1348
  H  H122  1  0.289300  0.972500  0.917000  1.0  0.1124
  H  H123  1  0.276200  0.419100  0.660700  1.0  0.0987
  H  H124  1  0.284500  0.257300  0.503400  1.0  0.0899
  H  H125  1  0.313400  0.478000  0.929900  1.0  0.1048
  H  H126  1  0.253800  0.046800  0.656200  1.0  0.1009
  H  H127  1  0.374100  0.177500  0.355400  1.0  0.0896
  H  H128  1  0.341100  0.188900  0.122700  1.0  0.1424
  H  H129  1  0.449200  0.201100  0.645800  1.0  0.0944
  H  H130  1  0.374200  0.405400  0.559200  1.0  0.0825
  H  H131  1  0.417300  0.502800  0.483100  1.0  0.1318
  H  H132  1  0.268700  0.170400  0.976800  1.0  0.0717
  H  H133  1  0.282700  0.275000  0.960300  1.0  0.0793
  H  H134  1  0.495600  0.295700  0.579400  1.0  0.1424
  H  H135  1  0.477100  0.505800  0.362300  1.0  0.087
  H  H136  1  0.508900  0.427000  0.412100  1.0  0.0874
  C  C137  1  0.774030  0.245700  0.787700  1.0  -0.2234
  C  C138  1  0.787960  0.490100  0.334700  1.0  -0.1739
  C  C139  1  0.790920  0.267200  0.670000  1.0  0.119
  C  C140  1  0.777560  0.048700  0.247800  1.0  -0.0738
  C  C141  1  0.795930  0.255800  0.925300  1.0  0.1776
  C  C142  1  0.809730  0.059900  0.347300  1.0  -0.1809
  C  C143  1  0.755600  0.491200  0.238100  1.0  -0.0815
  C  C144  1  0.840000  0.130600  0.331400  1.0  0.7145
  C  C145  1  0.848420  0.303100  0.838200  1.0  0.1763
  C  C146  1  0.822830  0.432900  0.321800  1.0  0.7181
  C  C147  1  0.828900  0.296300  0.698200  1.0  -0.1935
  C  C148  1  0.942640  0.237300  0.111900  1.0  0.1632
  C  C149  1  0.898830  0.118000  0.060100  1.0  0.1899
  C  C150  1  0.924500  0.059100  0.013700  1.0  -0.216
  C  C151  1  0.768400  0.265100  0.514900  1.0  -0.1652
  C  C152  1  0.970520  0.181500  0.069500  1.0  -0.2086
  C  C153  1  0.960900  0.091400  0.012200  1.0  0.1265
  C  C154  1  0.990500  0.031100  0.944300  1.0  -0.1576
  C  C155  1  0.274030  0.745700  0.787700  1.0  -0.2234
  C  C156  1  0.287960  0.990100  0.334700  1.0  -0.1739
  C  C157  1  0.290920  0.767200  0.670000  1.0  0.119
  C  C158  1  0.277560  0.548700  0.247800  1.0  -0.0738
  C  C159  1  0.295930  0.755800  0.925300  1.0  0.1776
  C  C160  1  0.309730  0.559900  0.347300  1.0  -0.1809
  C  C161  1  0.255600  0.991200  0.238100  1.0  -0.0815
  C  C162  1  0.340000  0.630600  0.331400  1.0  0.7145
  C  C163  1  0.348420  0.803100  0.838200  1.0  0.1763
  C  C164  1  0.322830  0.932900  0.321800  1.0  0.7181
  C  C165  1  0.328900  0.796300  0.698200  1.0  -0.1935
  C  C166  1  0.442640  0.737300  0.111900  1.0  0.1632
  C  C167  1  0.398830  0.618000  0.060100  1.0  0.1899
  C  C168  1  0.424500  0.559100  0.013700  1.0  -0.216
  C  C169  1  0.268400  0.765100  0.514900  1.0  -0.1652
  C  C170  1  0.470520  0.681500  0.069500  1.0  -0.2086
  C  C171  1  0.460900  0.591400  0.012200  1.0  0.1265
  C  C172  1  0.490500  0.531100  0.944300  1.0  -0.1576
  C  C173  1  0.225970  0.245700  0.712300  1.0  -0.2235
  C  C174  1  0.212040  0.490100  0.165300  1.0  -0.1724
  C  C175  1  0.209080  0.267200  0.830000  1.0  0.1185
  C  C176  1  0.222440  0.048700  0.252200  1.0  -0.0737
  C  C177  1  0.204070  0.255800  0.574700  1.0  0.1772
  C  C178  1  0.190270  0.059900  0.152700  1.0  -0.1813
  C  C179  1  0.244400  0.491200  0.261900  1.0  -0.0809
  C  C180  1  0.160000  0.130600  0.168600  1.0  0.7151
  C  C181  1  0.151580  0.303100  0.661800  1.0  0.1765
  C  C182  1  0.177170  0.432900  0.178200  1.0  0.7151
  C  C183  1  0.171100  0.296300  0.801800  1.0  -0.1954
  C  C184  1  0.057360  0.237300  0.388100  1.0  0.1626
  C  C185  1  0.101170  0.118000  0.439900  1.0  0.1904
  C  C186  1  0.075500  0.059100  0.486300  1.0  -0.2156
  C  C187  1  0.231600  0.265100  0.985100  1.0  -0.165
  C  C188  1  0.029480  0.181500  0.430500  1.0  -0.2088
  C  C189  1  0.039100  0.091400  0.487800  1.0  0.1263
  C  C190  1  0.009500  0.031100  0.555700  1.0  -0.159
  C  C191  1  0.725970  0.745700  0.712300  1.0  -0.2235
  C  C192  1  0.712040  0.990100  0.165300  1.0  -0.1724
  C  C193  1  0.709080  0.767200  0.830000  1.0  0.1185
  C  C194  1  0.722440  0.548700  0.252200  1.0  -0.0737
  C  C195  1  0.704070  0.755800  0.574700  1.0  0.1772
  C  C196  1  0.690270  0.559900  0.152700  1.0  -0.1813
  C  C197  1  0.744400  0.991200  0.261900  1.0  -0.0809
  C  C198  1  0.660000  0.630600  0.168600  1.0  0.7151
  C  C199  1  0.651580  0.803100  0.661800  1.0  0.1765
  C  C200  1  0.677170  0.932900  0.178200  1.0  0.7151
  C  C201  1  0.671100  0.796300  0.801800  1.0  -0.1954
  C  C202  1  0.557360  0.737300  0.388100  1.0  0.1626
  C  C203  1  0.601170  0.618000  0.439900  1.0  0.1904
  C  C204  1  0.575500  0.559100  0.486300  1.0  -0.2156
  C  C205  1  0.731600  0.765100  0.985100  1.0  -0.165
  C  C206  1  0.529480  0.681500  0.430500  1.0  -0.2088
  C  C207  1  0.539100  0.591400  0.487800  1.0  0.1263
  C  C208  1  0.509500  0.531100  0.555700  1.0  -0.159
  C  C209  1  0.225970  0.754300  0.212300  1.0  -0.2234
  C  C210  1  0.212040  0.509900  0.665300  1.0  -0.1734
  C  C211  1  0.209080  0.732800  0.330000  1.0  0.1184
  C  C212  1  0.222440  0.951300  0.752200  1.0  -0.0746
  C  C213  1  0.204070  0.744200  0.074700  1.0  0.1775
  C  C214  1  0.190270  0.940100  0.652700  1.0  -0.182
  C  C215  1  0.244400  0.508800  0.761900  1.0  -0.0821
  C  C216  1  0.160000  0.869400  0.668600  1.0  0.7152
  C  C217  1  0.151580  0.696900  0.161800  1.0  0.1767
  C  C218  1  0.177170  0.567100  0.678200  1.0  0.7154
  C  C219  1  0.171100  0.703700  0.301800  1.0  -0.1955
  C  C220  1  0.057360  0.762700  0.888100  1.0  0.1624
  C  C221  1  0.101170  0.882000  0.939900  1.0  0.1905
  C  C222  1  0.075500  0.940900  0.986300  1.0  -0.2155
  C  C223  1  0.231600  0.734900  0.485100  1.0  -0.1656
  C  C224  1  0.029480  0.818500  0.930500  1.0  -0.2081
  C  C225  1  0.039100  0.908600  0.987800  1.0  0.1269
  C  C226  1  0.009500  0.968900  0.055700  1.0  -0.159
  C  C227  1  0.725970  0.254300  0.212300  1.0  -0.2234
  C  C228  1  0.712040  0.009900  0.665300  1.0  -0.1734
  C  C229  1  0.709080  0.232800  0.330000  1.0  0.1184
  C  C230  1  0.722440  0.451300  0.752200  1.0  -0.0746
  C  C231  1  0.704070  0.244200  0.074700  1.0  0.1775
  C  C232  1  0.690270  0.440100  0.652700  1.0  -0.182
  C  C233  1  0.744400  0.008800  0.761900  1.0  -0.0821
  C  C234  1  0.660000  0.369400  0.668600  1.0  0.7152
  C  C235  1  0.651580  0.196900  0.161800  1.0  0.1767
  C  C236  1  0.677170  0.067100  0.678200  1.0  0.7154
  C  C237  1  0.671100  0.203700  0.301800  1.0  -0.1955
  C  C238  1  0.557360  0.262700  0.888100  1.0  0.1624
  C  C239  1  0.601170  0.382000  0.939900  1.0  0.1905
  C  C240  1  0.575500  0.440900  0.986300  1.0  -0.2155
  C  C241  1  0.731600  0.234900  0.485100  1.0  -0.1656
  C  C242  1  0.529480  0.318500  0.930500  1.0  -0.2081
  C  C243  1  0.539100  0.408600  0.987800  1.0  0.1269
  C  C244  1  0.509500  0.468900  0.055700  1.0  -0.159
  C  C245  1  0.774030  0.754300  0.287700  1.0  -0.2238
  C  C246  1  0.787960  0.509900  0.834700  1.0  -0.1729
  C  C247  1  0.790920  0.732800  0.170000  1.0  0.1188
  C  C248  1  0.777560  0.951300  0.747800  1.0  -0.0737
  C  C249  1  0.795930  0.744200  0.425300  1.0  0.1772
  C  C250  1  0.809730  0.940100  0.847300  1.0  -0.1792
  C  C251  1  0.755600  0.508800  0.738100  1.0  -0.0804
  C  C252  1  0.840000  0.869400  0.831400  1.0  0.7146
  C  C253  1  0.848420  0.696900  0.338200  1.0  0.1765
  C  C254  1  0.822830  0.567100  0.821800  1.0  0.7182
  C  C255  1  0.828900  0.703700  0.198200  1.0  -0.1936
  C  C256  1  0.942640  0.762700  0.611900  1.0  0.1624
  C  C257  1  0.898830  0.882000  0.560100  1.0  0.1897
  C  C258  1  0.924500  0.940900  0.513700  1.0  -0.2153
  C  C259  1  0.768400  0.734900  0.014900  1.0  -0.1656
  C  C260  1  0.970520  0.818500  0.569500  1.0  -0.2108
  C  C261  1  0.960900  0.908600  0.512200  1.0  0.1265
  C  C262  1  0.990500  0.968900  0.444300  1.0  -0.1569
  C  C263  1  0.274030  0.254300  0.287700  1.0  -0.2238
  C  C264  1  0.287960  0.009900  0.834700  1.0  -0.1729
  C  C265  1  0.290920  0.232800  0.170000  1.0  0.1188
  C  C266  1  0.277560  0.451300  0.747800  1.0  -0.0737
  C  C267  1  0.295930  0.244200  0.425300  1.0  0.1772
  C  C268  1  0.309730  0.440100  0.847300  1.0  -0.1792
  C  C269  1  0.255600  0.008800  0.738100  1.0  -0.0804
  C  C270  1  0.340000  0.369400  0.831400  1.0  0.7146
  C  C271  1  0.348420  0.196900  0.338200  1.0  0.1765
  C  C272  1  0.322830  0.067100  0.821800  1.0  0.7182
  C  C273  1  0.328900  0.203700  0.198200  1.0  -0.1936
  C  C274  1  0.442640  0.262700  0.611900  1.0  0.1624
  C  C275  1  0.398830  0.382000  0.560100  1.0  0.1897
  C  C276  1  0.424500  0.440900  0.513700  1.0  -0.2153
  C  C277  1  0.268400  0.234900  0.014900  1.0  -0.1656
  C  C278  1  0.470520  0.318500  0.569500  1.0  -0.2108
  C  C279  1  0.460900  0.408600  0.512200  1.0  0.1265
  C  C280  1  0.490500  0.468900  0.444300  1.0  -0.1569
  N  N281  1  0.832610  0.283300  0.951700  1.0  -0.3031
  N  N282  1  0.907000  0.207000  0.106500  1.0  -0.309
  N  N283  1  0.332610  0.783300  0.951700  1.0  -0.3031
  N  N284  1  0.407000  0.707000  0.106500  1.0  -0.309
  N  N285  1  0.167390  0.283300  0.548300  1.0  -0.3064
  N  N286  1  0.093000  0.207000  0.393500  1.0  -0.3094
  N  N287  1  0.667390  0.783300  0.548300  1.0  -0.3064
  N  N288  1  0.593000  0.707000  0.393500  1.0  -0.3094
  N  N289  1  0.167390  0.716700  0.048300  1.0  -0.3066
  N  N290  1  0.093000  0.793000  0.893500  1.0  -0.3116
  N  N291  1  0.667390  0.216700  0.048300  1.0  -0.3066
  N  N292  1  0.593000  0.293000  0.893500  1.0  -0.3116
  N  N293  1  0.832610  0.716700  0.451700  1.0  -0.3026
  N  N294  1  0.907000  0.793000  0.606500  1.0  -0.311
  N  N295  1  0.332610  0.216700  0.451700  1.0  -0.3026
  N  N296  1  0.407000  0.293000  0.606500  1.0  -0.311
  O  O297  1  0.835040  0.177000  0.215900  1.0  -0.5822
  O  O298  1  0.820370  0.378200  0.214700  1.0  -0.5811
  O  O299  1  0.852150  0.443000  0.420400  1.0  -0.563
  O  O300  1  0.868000  0.140600  0.434800  1.0  -0.5977
  O  O301  1  0.335040  0.677000  0.215900  1.0  -0.5822
  O  O302  1  0.320370  0.878200  0.214700  1.0  -0.5811
  O  O303  1  0.352150  0.943000  0.420400  1.0  -0.563
  O  O304  1  0.368000  0.640600  0.434800  1.0  -0.5977
  O  O305  1  0.164960  0.177000  0.284100  1.0  -0.5804
  O  O306  1  0.179630  0.378200  0.285300  1.0  -0.5811
  O  O307  1  0.147850  0.443000  0.079600  1.0  -0.562
  O  O308  1  0.132000  0.140600  0.065200  1.0  -0.5954
  O  O309  1  0.664960  0.677000  0.284100  1.0  -0.5804
  O  O310  1  0.679630  0.878200  0.285300  1.0  -0.5811
  O  O311  1  0.647850  0.943000  0.079600  1.0  -0.562
  O  O312  1  0.632000  0.640600  0.065200  1.0  -0.5954
  O  O313  1  0.164960  0.823000  0.784100  1.0  -0.5804
  O  O314  1  0.179630  0.621800  0.785300  1.0  -0.5808
  O  O315  1  0.147850  0.557000  0.579600  1.0  -0.5621
  O  O316  1  0.132000  0.859400  0.565200  1.0  -0.595
  O  O317  1  0.664960  0.323000  0.784100  1.0  -0.5804
  O  O318  1  0.679630  0.121800  0.785300  1.0  -0.5808
  O  O319  1  0.647850  0.057000  0.579600  1.0  -0.5621
  O  O320  1  0.632000  0.359400  0.565200  1.0  -0.595
  O  O321  1  0.835040  0.823000  0.715900  1.0  -0.582
  O  O322  1  0.820370  0.621800  0.714700  1.0  -0.5806
  O  O323  1  0.852150  0.557000  0.920400  1.0  -0.5629
  O  O324  1  0.868000  0.859400  0.934800  1.0  -0.5981
  O  O325  1  0.335040  0.323000  0.715900  1.0  -0.582
  O  O326  1  0.320370  0.121800  0.714700  1.0  -0.5806
  O  O327  1  0.352150  0.057000  0.920400  1.0  -0.5629
  O  O328  1  0.368000  0.359400  0.934800  1.0  -0.5981
