# generated using pymatgen
data_GaH4C8O5
_symmetry_space_group_name_H-M   'P 1'
_cell_length_a   15.16750000
_cell_length_b   15.16750000
_cell_length_c   11.91970000
_cell_angle_alpha   90.00000000
_cell_angle_beta   90.00000000
_cell_angle_gamma   90.00000000
_symmetry_Int_Tables_number   1
_chemical_formula_structural   GaH4C8O5
_chemical_formula_sum   'Ga8 H32 C64 O40'
_cell_volume   2742.16341458
_cell_formula_units_Z   8
loop_
 _symmetry_equiv_pos_site_id
 _symmetry_equiv_pos_as_xyz
  1  'x, y, z'
loop_
 _atom_site_type_symbol
 _atom_site_label
 _atom_site_symmetry_multiplicity
 _atom_site_fract_x
 _atom_site_fract_y
 _atom_site_fract_z
 _atom_site_occupancy
 _atom_site_charge
  Ga  Ga1  1  0.194300  0.194300  0.000000  1.0  1.6196
  Ga  Ga2  1  0.694300  0.694300  0.500000  1.0  1.6196
  Ga  Ga3  1  0.305700  0.305700  0.500000  1.0  1.6131
  Ga  Ga4  1  0.805700  0.694300  0.250000  1.0  1.6132
  Ga  Ga5  1  0.694300  0.805700  0.750000  1.0  1.6198
  Ga  Ga6  1  0.305700  0.194300  0.750000  1.0  1.6132
  Ga  Ga7  1  0.194300  0.305700  0.250000  1.0  1.6198
  Ga  Ga8  1  0.805700  0.805700  0.000000  1.0  1.6131
  H  H9  1  0.064200  0.384400  0.832200  1.0  0.1101
  H  H10  1  0.564200  0.884400  0.332200  1.0  0.1101
  H  H11  1  0.435800  0.115600  0.332200  1.0  0.1106
  H  H12  1  0.935800  0.615600  0.832200  1.0  0.1106
  H  H13  1  0.615600  0.564200  0.082200  1.0  0.1104
  H  H14  1  0.115600  0.064200  0.582200  1.0  0.1104
  H  H15  1  0.884400  0.935800  0.582200  1.0  0.1103
  H  H16  1  0.384400  0.435800  0.082200  1.0  0.1103
  H  H17  1  0.435800  0.384400  0.917800  1.0  0.111
  H  H18  1  0.935800  0.884400  0.417800  1.0  0.111
  H  H19  1  0.064200  0.115600  0.417800  1.0  0.1107
  H  H20  1  0.564200  0.615600  0.917800  1.0  0.1107
  H  H21  1  0.884400  0.564200  0.667800  1.0  0.1106
  H  H22  1  0.384400  0.064200  0.167800  1.0  0.1106
  H  H23  1  0.615600  0.935800  0.167800  1.0  0.1107
  H  H24  1  0.115600  0.435800  0.667800  1.0  0.1107
  H  H25  1  0.308300  0.250000  0.125000  1.0  0.4646
  H  H26  1  0.808300  0.750000  0.625000  1.0  0.4646
  H  H27  1  0.191700  0.250000  0.625000  1.0  0.4647
  H  H28  1  0.691700  0.750000  0.125000  1.0  0.4647
  H  H29  1  0.750000  0.808300  0.375000  1.0  0.4678
  H  H30  1  0.250000  0.308300  0.875000  1.0  0.4678
  H  H31  1  0.750000  0.691700  0.875000  1.0  0.4675
  H  H32  1  0.250000  0.191700  0.375000  1.0  0.4675
  H  H33  1  0.000000  0.500000  0.126000  1.0  0.1141
  H  H34  1  0.500000  0.000000  0.626000  1.0  0.1141
  H  H35  1  0.500000  0.500000  0.376000  1.0  0.1141
  H  H36  1  0.000000  0.000000  0.876000  1.0  0.1141
  H  H37  1  0.500000  0.500000  0.624000  1.0  0.1143
  H  H38  1  0.000000  0.000000  0.124000  1.0  0.1143
  H  H39  1  0.000000  0.500000  0.374000  1.0  0.1143
  H  H40  1  0.500000  0.000000  0.874000  1.0  0.1143
  C  C41  1  0.092100  0.360000  0.048800  1.0  0.729
  C  C42  1  0.040800  0.431000  0.990100  1.0  -0.1376
  C  C43  1  0.039000  0.431000  0.871500  1.0  -0.0807
  C  C44  1  0.592100  0.860000  0.548800  1.0  0.729
  C  C45  1  0.540800  0.931000  0.490100  1.0  -0.1376
  C  C46  1  0.539000  0.931000  0.371500  1.0  -0.0807
  C  C47  1  0.407900  0.140000  0.548800  1.0  0.7293
  C  C48  1  0.459200  0.069000  0.490100  1.0  -0.1379
  C  C49  1  0.461000  0.069000  0.371500  1.0  -0.0803
  C  C50  1  0.907900  0.640000  0.048800  1.0  0.7293
  C  C51  1  0.959200  0.569000  0.990100  1.0  -0.1379
  C  C52  1  0.961000  0.569000  0.871500  1.0  -0.0803
  C  C53  1  0.640000  0.592100  0.298800  1.0  0.7282
  C  C54  1  0.569000  0.540800  0.240100  1.0  -0.1366
  C  C55  1  0.569000  0.539000  0.121500  1.0  -0.0814
  C  C56  1  0.140000  0.092100  0.798800  1.0  0.7282
  C  C57  1  0.069000  0.040800  0.740100  1.0  -0.1366
  C  C58  1  0.069000  0.039000  0.621500  1.0  -0.0814
  C  C59  1  0.860000  0.907900  0.798800  1.0  0.7276
  C  C60  1  0.931000  0.959200  0.740100  1.0  -0.1368
  C  C61  1  0.931000  0.961000  0.621500  1.0  -0.0813
  C  C62  1  0.360000  0.407900  0.298800  1.0  0.7276
  C  C63  1  0.431000  0.459200  0.240100  1.0  -0.1368
  C  C64  1  0.431000  0.461000  0.121500  1.0  -0.0813
  C  C65  1  0.407900  0.360000  0.701200  1.0  0.7287
  C  C66  1  0.459200  0.431000  0.759900  1.0  -0.1375
  C  C67  1  0.461000  0.431000  0.878500  1.0  -0.0817
  C  C68  1  0.907900  0.860000  0.201200  1.0  0.7287
  C  C69  1  0.959200  0.931000  0.259900  1.0  -0.1375
  C  C70  1  0.961000  0.931000  0.378500  1.0  -0.0817
  C  C71  1  0.092100  0.140000  0.201200  1.0  0.7297
  C  C72  1  0.040800  0.069000  0.259900  1.0  -0.1372
  C  C73  1  0.039000  0.069000  0.378500  1.0  -0.0808
  C  C74  1  0.592100  0.640000  0.701200  1.0  0.7297
  C  C75  1  0.540800  0.569000  0.759900  1.0  -0.1372
  C  C76  1  0.539000  0.569000  0.878500  1.0  -0.0808
  C  C77  1  0.860000  0.592100  0.451200  1.0  0.7278
  C  C78  1  0.931000  0.540800  0.509900  1.0  -0.1366
  C  C79  1  0.931000  0.539000  0.628500  1.0  -0.0825
  C  C80  1  0.360000  0.092100  0.951200  1.0  0.7278
  C  C81  1  0.431000  0.040800  0.009900  1.0  -0.1366
  C  C82  1  0.431000  0.039000  0.128500  1.0  -0.0825
  C  C83  1  0.640000  0.907900  0.951200  1.0  0.728
  C  C84  1  0.569000  0.959200  0.009900  1.0  -0.1364
  C  C85  1  0.569000  0.961000  0.128500  1.0  -0.0814
  C  C86  1  0.140000  0.407900  0.451200  1.0  0.728
  C  C87  1  0.069000  0.459200  0.509900  1.0  -0.1364
  C  C88  1  0.069000  0.461000  0.628500  1.0  -0.0814
  C  C89  1  0.000000  0.500000  0.048000  1.0  0.0017
  C  C90  1  0.000000  0.500000  0.813200  1.0  -0.0084
  C  C91  1  0.500000  0.000000  0.548000  1.0  0.0017
  C  C92  1  0.500000  0.000000  0.313200  1.0  -0.0084
  C  C93  1  0.500000  0.500000  0.298000  1.0  0.0017
  C  C94  1  0.500000  0.500000  0.063200  1.0  -0.0084
  C  C95  1  0.000000  0.000000  0.798000  1.0  0.0017
  C  C96  1  0.000000  0.000000  0.563200  1.0  -0.0084
  C  C97  1  0.500000  0.500000  0.702000  1.0  0.0018
  C  C98  1  0.500000  0.500000  0.936800  1.0  -0.0089
  C  C99  1  0.000000  0.000000  0.202000  1.0  0.0018
  C  C100  1  0.000000  0.000000  0.436800  1.0  -0.0089
  C  C101  1  0.000000  0.500000  0.452000  1.0  0.0018
  C  C102  1  0.000000  0.500000  0.686800  1.0  -0.0089
  C  C103  1  0.500000  0.000000  0.952000  1.0  0.0018
  C  C104  1  0.500000  0.000000  0.186800  1.0  -0.0089
  O  O105  1  0.099900  0.286700  0.998500  1.0  -0.5952
  O  O106  1  0.125200  0.119900  0.106800  1.0  -0.586
  O  O107  1  0.599900  0.786700  0.498500  1.0  -0.5952
  O  O108  1  0.625200  0.619900  0.606800  1.0  -0.586
  O  O109  1  0.400100  0.213300  0.498500  1.0  -0.5934
  O  O110  1  0.374800  0.380100  0.606800  1.0  -0.5869
  O  O111  1  0.900100  0.713300  0.998500  1.0  -0.5934
  O  O112  1  0.874800  0.880100  0.106800  1.0  -0.5869
  O  O113  1  0.713300  0.599900  0.248500  1.0  -0.5905
  O  O114  1  0.880100  0.625200  0.356800  1.0  -0.5852
  O  O115  1  0.213300  0.099900  0.748500  1.0  -0.5905
  O  O116  1  0.380100  0.125200  0.856800  1.0  -0.5852
  O  O117  1  0.786700  0.900100  0.748500  1.0  -0.5926
  O  O118  1  0.619900  0.874800  0.856800  1.0  -0.585
  O  O119  1  0.286700  0.400100  0.248500  1.0  -0.5926
  O  O120  1  0.119900  0.374800  0.356800  1.0  -0.585
  O  O121  1  0.400100  0.286700  0.751500  1.0  -0.5939
  O  O122  1  0.374800  0.119900  0.643200  1.0  -0.5862
  O  O123  1  0.900100  0.786700  0.251500  1.0  -0.5939
  O  O124  1  0.874800  0.619900  0.143200  1.0  -0.5862
  O  O125  1  0.099900  0.213300  0.251500  1.0  -0.5945
  O  O126  1  0.125200  0.380100  0.143200  1.0  -0.5856
  O  O127  1  0.599900  0.713300  0.751500  1.0  -0.5945
  O  O128  1  0.625200  0.880100  0.643200  1.0  -0.5856
  O  O129  1  0.786700  0.599900  0.501500  1.0  -0.5916
  O  O130  1  0.619900  0.625200  0.393200  1.0  -0.5846
  O  O131  1  0.286700  0.099900  0.001500  1.0  -0.5916
  O  O132  1  0.119900  0.125200  0.893200  1.0  -0.5846
  O  O133  1  0.713300  0.900100  0.001500  1.0  -0.5915
  O  O134  1  0.880100  0.874800  0.893200  1.0  -0.5849
  O  O135  1  0.213300  0.400100  0.501500  1.0  -0.5915
  O  O136  1  0.380100  0.374800  0.393200  1.0  -0.5849
  O  O137  1  0.252700  0.250000  0.125000  1.0  -1.0749
  O  O138  1  0.752700  0.750000  0.625000  1.0  -1.0749
  O  O139  1  0.247300  0.250000  0.625000  1.0  -1.0727
  O  O140  1  0.747300  0.750000  0.125000  1.0  -1.0727
  O  O141  1  0.750000  0.752700  0.375000  1.0  -1.0745
  O  O142  1  0.250000  0.252700  0.875000  1.0  -1.0745
  O  O143  1  0.750000  0.747300  0.875000  1.0  -1.0755
  O  O144  1  0.250000  0.247300  0.375000  1.0  -1.0755
