# generated using pymatgen
data_Zn3C20(N4O)2
_symmetry_space_group_name_H-M   'P 1'
_cell_length_a   18.54740000
_cell_length_b   18.54740000
_cell_length_c   18.54740000
_cell_angle_alpha   90.00000000
_cell_angle_beta   90.00000000
_cell_angle_gamma   90.00000000
_symmetry_Int_Tables_number   1
_chemical_formula_structural   Zn3C20(N4O)2
_chemical_formula_sum   'Zn18 C120 N48 O12'
_cell_volume   6380.41775168
_cell_formula_units_Z   6
loop_
 _symmetry_equiv_pos_site_id
 _symmetry_equiv_pos_as_xyz
  1  'x, y, z'
loop_
 _atom_site_type_symbol
 _atom_site_label
 _atom_site_symmetry_multiplicity
 _atom_site_fract_x
 _atom_site_fract_y
 _atom_site_fract_z
 _atom_site_occupancy
 _atom_site_charge
  Zn  Zn1  1  0.500000  0.000000  0.420000  1.0  1.0275
  Zn  Zn2  1  0.500000  0.000000  0.580000  1.0  1.0284
  Zn  Zn3  1  0.420000  0.500000  0.000000  1.0  1.0278
  Zn  Zn4  1  0.580000  0.500000  0.000000  1.0  1.0276
  Zn  Zn5  1  0.000000  0.420000  0.500000  1.0  1.0284
  Zn  Zn6  1  0.000000  0.580000  0.500000  1.0  1.0282
  Zn  Zn7  1  0.500000  0.000000  0.920000  1.0  1.0275
  Zn  Zn8  1  0.500000  0.000000  0.080000  1.0  1.0284
  Zn  Zn9  1  0.000000  0.920000  0.500000  1.0  1.0284
  Zn  Zn10  1  0.000000  0.080000  0.500000  1.0  1.0282
  Zn  Zn11  1  0.920000  0.500000  0.000000  1.0  1.0278
  Zn  Zn12  1  0.080000  0.500000  0.000000  1.0  1.0276
  Zn  Zn13  1  0.000000  0.250000  0.500000  1.0  0.7687
  Zn  Zn14  1  0.000000  0.750000  0.500000  1.0  0.7687
  Zn  Zn15  1  0.500000  0.000000  0.250000  1.0  0.7687
  Zn  Zn16  1  0.500000  0.000000  0.750000  1.0  0.7687
  Zn  Zn17  1  0.250000  0.500000  0.000000  1.0  0.7687
  Zn  Zn18  1  0.750000  0.500000  0.000000  1.0  0.7687
  C  C19  1  0.320300  0.349400  0.247100  1.0  0.0603
  C  C20  1  0.294000  0.264700  0.367500  1.0  -0.0313
  C  C21  1  0.390700  0.181600  0.331000  1.0  0.0967
  C  C22  1  0.402300  0.148000  0.395200  1.0  -0.0562
  C  C23  1  0.357200  0.075500  0.778800  1.0  -0.0514
  C  C24  1  0.679700  0.650600  0.247100  1.0  0.0594
  C  C25  1  0.706000  0.735300  0.367500  1.0  -0.0315
  C  C26  1  0.609300  0.818400  0.331000  1.0  0.0966
  C  C27  1  0.597700  0.852000  0.395200  1.0  -0.0526
  C  C28  1  0.642800  0.924500  0.778800  1.0  -0.0504
  C  C29  1  0.679700  0.349400  0.752900  1.0  0.0601
  C  C30  1  0.706000  0.264700  0.632500  1.0  -0.0309
  C  C31  1  0.609300  0.181600  0.669000  1.0  0.0971
  C  C32  1  0.597700  0.148000  0.604800  1.0  -0.0547
  C  C33  1  0.642800  0.075500  0.221200  1.0  -0.0513
  C  C34  1  0.320300  0.650600  0.752900  1.0  0.0602
  C  C35  1  0.294000  0.735300  0.632500  1.0  -0.0326
  C  C36  1  0.390700  0.818400  0.669000  1.0  0.0965
  C  C37  1  0.402300  0.852000  0.604800  1.0  -0.0558
  C  C38  1  0.357200  0.924500  0.221200  1.0  -0.0521
  C  C39  1  0.247100  0.320300  0.349400  1.0  0.0596
  C  C40  1  0.367500  0.294000  0.264700  1.0  -0.0311
  C  C41  1  0.331000  0.390700  0.181600  1.0  0.0972
  C  C42  1  0.395200  0.402300  0.148000  1.0  -0.0576
  C  C43  1  0.778800  0.357200  0.075500  1.0  -0.0516
  C  C44  1  0.247100  0.679700  0.650600  1.0  0.0593
  C  C45  1  0.367500  0.706000  0.735300  1.0  -0.0322
  C  C46  1  0.331000  0.609300  0.818400  1.0  0.0964
  C  C47  1  0.395200  0.597700  0.852000  1.0  -0.0579
  C  C48  1  0.778800  0.642800  0.924500  1.0  -0.0512
  C  C49  1  0.752900  0.679700  0.349400  1.0  0.06
  C  C50  1  0.632500  0.706000  0.264700  1.0  -0.0281
  C  C51  1  0.669000  0.609300  0.181600  1.0  0.0972
  C  C52  1  0.604800  0.597700  0.148000  1.0  -0.0591
  C  C53  1  0.221200  0.642800  0.075500  1.0  -0.05
  C  C54  1  0.752900  0.320300  0.650600  1.0  0.0595
  C  C55  1  0.632500  0.294000  0.735300  1.0  -0.0299
  C  C56  1  0.669000  0.390700  0.818400  1.0  0.0957
  C  C57  1  0.604800  0.402300  0.852000  1.0  -0.059
  C  C58  1  0.221200  0.357200  0.924500  1.0  -0.0491
  C  C59  1  0.349400  0.247100  0.320300  1.0  0.0615
  C  C60  1  0.264700  0.367500  0.294000  1.0  -0.0277
  C  C61  1  0.181600  0.331000  0.390700  1.0  0.0974
  C  C62  1  0.148000  0.395200  0.402300  1.0  -0.0587
  C  C63  1  0.075500  0.778800  0.357200  1.0  -0.0532
  C  C64  1  0.650600  0.247100  0.679700  1.0  0.0609
  C  C65  1  0.735300  0.367500  0.706000  1.0  -0.0275
  C  C66  1  0.818400  0.331000  0.609300  1.0  0.0967
  C  C67  1  0.852000  0.395200  0.597700  1.0  -0.0609
  C  C68  1  0.924500  0.778800  0.642800  1.0  -0.0538
  C  C69  1  0.349400  0.752900  0.679700  1.0  0.0617
  C  C70  1  0.264700  0.632500  0.706000  1.0  -0.0278
  C  C71  1  0.181600  0.669000  0.609300  1.0  0.0978
  C  C72  1  0.148000  0.604800  0.597700  1.0  -0.0606
  C  C73  1  0.075500  0.221200  0.642800  1.0  -0.0533
  C  C74  1  0.650600  0.752900  0.320300  1.0  0.0614
  C  C75  1  0.735300  0.632500  0.294000  1.0  -0.0276
  C  C76  1  0.818400  0.669000  0.390700  1.0  0.0963
  C  C77  1  0.852000  0.604800  0.402300  1.0  -0.0625
  C  C78  1  0.924500  0.221200  0.357200  1.0  -0.0536
  C  C79  1  0.849400  0.820300  0.747100  1.0  0.0595
  C  C80  1  0.764700  0.794000  0.867500  1.0  -0.0306
  C  C81  1  0.681600  0.890700  0.831000  1.0  0.0971
  C  C82  1  0.648000  0.902300  0.895200  1.0  -0.0554
  C  C83  1  0.575500  0.857200  0.278800  1.0  -0.0487
  C  C84  1  0.150600  0.179700  0.747100  1.0  0.0592
  C  C85  1  0.235300  0.206000  0.867500  1.0  -0.0299
  C  C86  1  0.318400  0.109300  0.831000  1.0  0.0965
  C  C87  1  0.352000  0.097700  0.895200  1.0  -0.058
  C  C88  1  0.424500  0.142800  0.278800  1.0  -0.0495
  C  C89  1  0.849400  0.179700  0.252900  1.0  0.0598
  C  C90  1  0.764700  0.206000  0.132500  1.0  -0.0299
  C  C91  1  0.681600  0.109300  0.169000  1.0  0.0977
  C  C92  1  0.648000  0.097700  0.104800  1.0  -0.0574
  C  C93  1  0.575500  0.142800  0.721200  1.0  -0.0498
  C  C94  1  0.150600  0.820300  0.252900  1.0  0.0594
  C  C95  1  0.235300  0.794000  0.132500  1.0  -0.0312
  C  C96  1  0.318400  0.890700  0.169000  1.0  0.0967
  C  C97  1  0.352000  0.902300  0.104800  1.0  -0.0582
  C  C98  1  0.424500  0.857200  0.721200  1.0  -0.0502
  C  C99  1  0.820300  0.747100  0.849400  1.0  0.0619
  C  C100  1  0.794000  0.867500  0.764700  1.0  -0.0287
  C  C101  1  0.890700  0.831000  0.681600  1.0  0.0979
  C  C102  1  0.902300  0.895200  0.648000  1.0  -0.0594
  C  C103  1  0.857200  0.278800  0.575500  1.0  -0.0548
  C  C104  1  0.179700  0.747100  0.150600  1.0  0.0608
  C  C105  1  0.206000  0.867500  0.235300  1.0  -0.0302
  C  C106  1  0.109300  0.831000  0.318400  1.0  0.0972
  C  C107  1  0.097700  0.895200  0.352000  1.0  -0.0579
  C  C108  1  0.142800  0.278800  0.424500  1.0  -0.0538
  C  C109  1  0.179700  0.252900  0.849400  1.0  0.0619
  C  C110  1  0.206000  0.132500  0.764700  1.0  -0.0281
  C  C111  1  0.109300  0.169000  0.681600  1.0  0.0983
  C  C112  1  0.097700  0.104800  0.648000  1.0  -0.0601
  C  C113  1  0.142800  0.721200  0.575500  1.0  -0.0536
  C  C114  1  0.820300  0.252900  0.150600  1.0  0.0619
  C  C115  1  0.794000  0.132500  0.235300  1.0  -0.0301
  C  C116  1  0.890700  0.169000  0.318400  1.0  0.0969
  C  C117  1  0.902300  0.104800  0.352000  1.0  -0.0614
  C  C118  1  0.857200  0.721200  0.424500  1.0  -0.0551
  C  C119  1  0.747100  0.849400  0.820300  1.0  0.0619
  C  C120  1  0.867500  0.764700  0.794000  1.0  -0.0308
  C  C121  1  0.831000  0.681600  0.890700  1.0  0.096
  C  C122  1  0.895200  0.648000  0.902300  1.0  -0.0577
  C  C123  1  0.278800  0.575500  0.857200  1.0  -0.0507
  C  C124  1  0.747100  0.150600  0.179700  1.0  0.0615
  C  C125  1  0.867500  0.235300  0.206000  1.0  -0.0314
  C  C126  1  0.831000  0.318400  0.109300  1.0  0.096
  C  C127  1  0.895200  0.352000  0.097700  1.0  -0.0574
  C  C128  1  0.278800  0.424500  0.142800  1.0  -0.0513
  C  C129  1  0.252900  0.849400  0.179700  1.0  0.0622
  C  C130  1  0.132500  0.764700  0.206000  1.0  -0.0291
  C  C131  1  0.169000  0.681600  0.109300  1.0  0.0959
  C  C132  1  0.104800  0.648000  0.097700  1.0  -0.0591
  C  C133  1  0.721200  0.575500  0.142800  1.0  -0.0489
  C  C134  1  0.252900  0.150600  0.820300  1.0  0.0619
  C  C135  1  0.132500  0.235300  0.794000  1.0  -0.0288
  C  C136  1  0.169000  0.318400  0.890700  1.0  0.0954
  C  C137  1  0.104800  0.352000  0.902300  1.0  -0.0583
  C  C138  1  0.721200  0.424500  0.857200  1.0  -0.0489
  N  N139  1  0.382600  0.443300  0.088600  1.0  -0.2491
  N  N140  1  0.042900  0.189400  0.585400  1.0  -0.1464
  N  N141  1  0.617400  0.556700  0.088600  1.0  -0.2489
  N  N142  1  0.957100  0.810600  0.585400  1.0  -0.1463
  N  N143  1  0.617400  0.443300  0.911400  1.0  -0.2488
  N  N144  1  0.957100  0.189400  0.414600  1.0  -0.1456
  N  N145  1  0.382600  0.556700  0.911400  1.0  -0.2501
  N  N146  1  0.042900  0.810600  0.414600  1.0  -0.1472
  N  N147  1  0.088600  0.382600  0.443300  1.0  -0.2498
  N  N148  1  0.585400  0.042900  0.189400  1.0  -0.1462
  N  N149  1  0.088600  0.617400  0.556700  1.0  -0.2506
  N  N150  1  0.585400  0.957100  0.810600  1.0  -0.1464
  N  N151  1  0.911400  0.617400  0.443300  1.0  -0.2496
  N  N152  1  0.414600  0.957100  0.189400  1.0  -0.1453
  N  N153  1  0.911400  0.382600  0.556700  1.0  -0.2491
  N  N154  1  0.414600  0.042900  0.810600  1.0  -0.1455
  N  N155  1  0.443300  0.088600  0.382600  1.0  -0.2479
  N  N156  1  0.189400  0.585400  0.042900  1.0  -0.1442
  N  N157  1  0.556700  0.088600  0.617400  1.0  -0.2505
  N  N158  1  0.810600  0.585400  0.957100  1.0  -0.1449
  N  N159  1  0.443300  0.911400  0.617400  1.0  -0.2498
  N  N160  1  0.189400  0.414600  0.957100  1.0  -0.144
  N  N161  1  0.556700  0.911400  0.382600  1.0  -0.2485
  N  N162  1  0.810600  0.414600  0.042900  1.0  -0.1453
  N  N163  1  0.943300  0.882600  0.588600  1.0  -0.2486
  N  N164  1  0.689400  0.542900  0.085400  1.0  -0.1449
  N  N165  1  0.056700  0.117400  0.588600  1.0  -0.249
  N  N166  1  0.310600  0.457100  0.085400  1.0  -0.1461
  N  N167  1  0.943300  0.117400  0.411400  1.0  -0.2496
  N  N168  1  0.689400  0.457100  0.914600  1.0  -0.1449
  N  N169  1  0.056700  0.882600  0.411400  1.0  -0.2491
  N  N170  1  0.310600  0.542900  0.914600  1.0  -0.1465
  N  N171  1  0.882600  0.588600  0.943300  1.0  -0.2499
  N  N172  1  0.542900  0.085400  0.689400  1.0  -0.1454
  N  N173  1  0.117400  0.588600  0.056700  1.0  -0.2489
  N  N174  1  0.457100  0.085400  0.310600  1.0  -0.1447
  N  N175  1  0.117400  0.411400  0.943300  1.0  -0.2484
  N  N176  1  0.457100  0.914600  0.689400  1.0  -0.1447
  N  N177  1  0.882600  0.411400  0.056700  1.0  -0.2495
  N  N178  1  0.542900  0.914600  0.310600  1.0  -0.1456
  N  N179  1  0.588600  0.943300  0.882600  1.0  -0.249
  N  N180  1  0.085400  0.689400  0.542900  1.0  -0.1464
  N  N181  1  0.588600  0.056700  0.117400  1.0  -0.2516
  N  N182  1  0.085400  0.310600  0.457100  1.0  -0.1466
  N  N183  1  0.411400  0.943300  0.117400  1.0  -0.2505
  N  N184  1  0.914600  0.689400  0.457100  1.0  -0.1452
  N  N185  1  0.411400  0.056700  0.882600  1.0  -0.2482
  N  N186  1  0.914600  0.310600  0.542900  1.0  -0.1463
  O  O187  1  0.570000  0.000000  0.500000  1.0  -0.6563
  O  O188  1  0.430000  0.000000  0.500000  1.0  -0.658
  O  O189  1  0.500000  0.570000  0.000000  1.0  -0.6567
  O  O190  1  0.500000  0.430000  0.000000  1.0  -0.6571
  O  O191  1  0.000000  0.500000  0.570000  1.0  -0.6602
  O  O192  1  0.000000  0.500000  0.430000  1.0  -0.661
  O  O193  1  0.500000  0.070000  0.000000  1.0  -0.6567
  O  O194  1  0.500000  0.930000  0.000000  1.0  -0.6571
  O  O195  1  0.070000  0.000000  0.500000  1.0  -0.6563
  O  O196  1  0.930000  0.000000  0.500000  1.0  -0.658
  O  O197  1  0.000000  0.500000  0.070000  1.0  -0.6602
  O  O198  1  0.000000  0.500000  0.930000  1.0  -0.661
