# generated using pymatgen
data_CeZr2H14(C3O2)8
_symmetry_space_group_name_H-M   'P 1'
_cell_length_a   14.82730000
_cell_length_b   14.82730000
_cell_length_c   20.91740000
_cell_angle_alpha   90.00000000
_cell_angle_beta   90.00000000
_cell_angle_gamma   90.00000000
_symmetry_Int_Tables_number   1
_chemical_formula_structural   CeZr2H14(C3O2)8
_chemical_formula_sum   'Ce4 Zr8 H56 C96 O64'
_cell_volume   4598.66581812
_cell_formula_units_Z   4
loop_
 _symmetry_equiv_pos_site_id
 _symmetry_equiv_pos_as_xyz
  1  'x, y, z'
loop_
 _atom_site_type_symbol
 _atom_site_label
 _atom_site_symmetry_multiplicity
 _atom_site_fract_x
 _atom_site_fract_y
 _atom_site_fract_z
 _atom_site_occupancy
 _atom_site_charge
  Ce  Ce1  1  0.000000  0.000000  0.875900  1.0  2.3479
  Ce  Ce2  1  0.500000  0.500000  0.375900  1.0  2.3479
  Ce  Ce3  1  0.000000  0.000000  0.124100  1.0  2.3472
  Ce  Ce4  1  0.500000  0.500000  0.624100  1.0  2.3472
  Zr  Zr5  1  0.380100  0.380100  0.500000  1.0  1.8773
  Zr  Zr6  1  0.880100  0.880100  0.000000  1.0  1.8773
  Zr  Zr7  1  0.619900  0.619900  0.500000  1.0  1.8715
  Zr  Zr8  1  0.119900  0.119900  0.000000  1.0  1.8715
  Zr  Zr9  1  0.380100  0.619900  0.500000  1.0  1.8747
  Zr  Zr10  1  0.880100  0.119900  0.000000  1.0  1.8747
  Zr  Zr11  1  0.619900  0.380100  0.500000  1.0  1.8735
  Zr  Zr12  1  0.119900  0.880100  0.000000  1.0  1.8735
  H  H13  1  0.084600  0.644100  0.492200  1.0  0.1267
  H  H14  1  0.860300  0.870700  0.725700  1.0  0.1261
  H  H15  1  0.279800  0.289800  0.136300  1.0  0.126
  H  H16  1  0.584600  0.144100  0.992200  1.0  0.1267
  H  H17  1  0.360300  0.370700  0.225700  1.0  0.1261
  H  H18  1  0.779800  0.789800  0.636300  1.0  0.126
  H  H19  1  0.915400  0.355900  0.492200  1.0  0.1263
  H  H20  1  0.139700  0.129300  0.725700  1.0  0.1256
  H  H21  1  0.720200  0.710200  0.136300  1.0  0.1255
  H  H22  1  0.415400  0.855900  0.992200  1.0  0.1263
  H  H23  1  0.639700  0.629300  0.225700  1.0  0.1256
  H  H24  1  0.220200  0.210200  0.636300  1.0  0.1255
  H  H25  1  0.644100  0.915400  0.507800  1.0  0.1247
  H  H26  1  0.870700  0.139700  0.274300  1.0  0.1267
  H  H27  1  0.289800  0.720200  0.863700  1.0  0.1267
  H  H28  1  0.144100  0.415400  0.007800  1.0  0.1247
  H  H29  1  0.370700  0.639700  0.774300  1.0  0.1267
  H  H30  1  0.789800  0.220200  0.363700  1.0  0.1267
  H  H31  1  0.355900  0.084600  0.507800  1.0  0.1246
  H  H32  1  0.129300  0.860300  0.274300  1.0  0.1269
  H  H33  1  0.710200  0.279800  0.863700  1.0  0.1266
  H  H34  1  0.855900  0.584600  0.007800  1.0  0.1246
  H  H35  1  0.629300  0.360300  0.774300  1.0  0.1269
  H  H36  1  0.210200  0.779800  0.363700  1.0  0.1266
  H  H37  1  0.084600  0.355900  0.492200  1.0  0.1261
  H  H38  1  0.860300  0.129300  0.725700  1.0  0.1261
  H  H39  1  0.279800  0.710200  0.136300  1.0  0.126
  H  H40  1  0.584600  0.855900  0.992200  1.0  0.1261
  H  H41  1  0.360300  0.629300  0.225700  1.0  0.1261
  H  H42  1  0.779800  0.210200  0.636300  1.0  0.126
  H  H43  1  0.915400  0.644100  0.492200  1.0  0.1272
  H  H44  1  0.139700  0.870700  0.725700  1.0  0.1257
  H  H45  1  0.720200  0.289800  0.136300  1.0  0.1256
  H  H46  1  0.415400  0.144100  0.992200  1.0  0.1272
  H  H47  1  0.639700  0.370700  0.225700  1.0  0.1257
  H  H48  1  0.220200  0.789800  0.636300  1.0  0.1256
  H  H49  1  0.644100  0.084600  0.507800  1.0  0.1248
  H  H50  1  0.870700  0.860300  0.274300  1.0  0.1271
  H  H51  1  0.289800  0.279800  0.863700  1.0  0.1268
  H  H52  1  0.144100  0.584600  0.007800  1.0  0.1248
  H  H53  1  0.370700  0.360300  0.774300  1.0  0.1271
  H  H54  1  0.789800  0.779800  0.363700  1.0  0.1268
  H  H55  1  0.355900  0.915400  0.507800  1.0  0.1245
  H  H56  1  0.129300  0.139700  0.274300  1.0  0.1268
  H  H57  1  0.710200  0.720200  0.863700  1.0  0.1269
  H  H58  1  0.855900  0.415400  0.007800  1.0  0.1245
  H  H59  1  0.629300  0.639700  0.774300  1.0  0.1268
  H  H60  1  0.210200  0.220200  0.363700  1.0  0.1269
  H  H61  1  0.000000  0.807600  0.909800  1.0  0.3729
  H  H62  1  0.500000  0.307600  0.409800  1.0  0.3729
  H  H63  1  0.000000  0.192400  0.909800  1.0  0.3706
  H  H64  1  0.500000  0.692400  0.409800  1.0  0.3706
  H  H65  1  0.807600  0.000000  0.090200  1.0  0.3682
  H  H66  1  0.307600  0.500000  0.590200  1.0  0.3682
  H  H67  1  0.192400  0.000000  0.090200  1.0  0.3697
  H  H68  1  0.692400  0.500000  0.590200  1.0  0.3697
  C  C69  1  0.846400  0.159700  0.150100  1.0  0.7005
  C  C70  1  0.289400  0.700900  0.298900  1.0  -0.0924
  C  C71  1  0.275500  0.734700  0.813800  1.0  -0.0727
  C  C72  1  0.418800  0.046900  0.507900  1.0  -0.0636
  C  C73  1  0.309400  0.319800  0.235300  1.0  -0.0831
  C  C74  1  0.346400  0.659700  0.650100  1.0  0.7005
  C  C75  1  0.789400  0.200900  0.798900  1.0  -0.0924
  C  C76  1  0.775500  0.234700  0.313800  1.0  -0.0727
  C  C77  1  0.918800  0.546900  0.007900  1.0  -0.0636
  C  C78  1  0.809400  0.819800  0.735300  1.0  -0.0846
  C  C79  1  0.153600  0.840300  0.150100  1.0  0.6998
  C  C80  1  0.710600  0.299100  0.298900  1.0  -0.0923
  C  C81  1  0.724500  0.265300  0.813800  1.0  -0.0732
  C  C82  1  0.581200  0.953100  0.507900  1.0  -0.0649
  C  C83  1  0.690600  0.680200  0.235300  1.0  -0.0816
  C  C84  1  0.653600  0.340300  0.650100  1.0  0.6998
  C  C85  1  0.210600  0.799100  0.798900  1.0  -0.0923
  C  C86  1  0.224500  0.765300  0.313800  1.0  -0.0732
  C  C87  1  0.081200  0.453100  0.007900  1.0  -0.0649
  C  C88  1  0.190600  0.180200  0.735300  1.0  -0.0832
  C  C89  1  0.159700  0.153600  0.849900  1.0  0.6998
  C  C90  1  0.700900  0.710600  0.701100  1.0  -0.0932
  C  C91  1  0.734700  0.724500  0.186200  1.0  -0.0734
  C  C92  1  0.046900  0.581200  0.492100  1.0  -0.0693
  C  C93  1  0.319800  0.690600  0.764700  1.0  -0.0812
  C  C94  1  0.659700  0.653600  0.349900  1.0  0.6998
  C  C95  1  0.200900  0.210600  0.201100  1.0  -0.0932
  C  C96  1  0.234700  0.224500  0.686200  1.0  -0.0734
  C  C97  1  0.546900  0.081200  0.992100  1.0  -0.0693
  C  C98  1  0.819800  0.190600  0.264700  1.0  -0.0828
  C  C99  1  0.840300  0.846400  0.849900  1.0  0.7011
  C  C100  1  0.299100  0.289400  0.701100  1.0  -0.0924
  C  C101  1  0.265300  0.275500  0.186200  1.0  -0.0734
  C  C102  1  0.953100  0.418800  0.492100  1.0  -0.0682
  C  C103  1  0.680200  0.309400  0.764700  1.0  -0.0825
  C  C104  1  0.340300  0.346400  0.349900  1.0  0.7011
  C  C105  1  0.799100  0.789400  0.201100  1.0  -0.0924
  C  C106  1  0.765300  0.775500  0.686200  1.0  -0.0734
  C  C107  1  0.453100  0.918800  0.992100  1.0  -0.0682
  C  C108  1  0.180200  0.809400  0.264700  1.0  -0.0843
  C  C109  1  0.846400  0.840300  0.150100  1.0  0.7001
  C  C110  1  0.289400  0.299100  0.298900  1.0  -0.0922
  C  C111  1  0.275500  0.265300  0.813800  1.0  -0.0727
  C  C112  1  0.418800  0.953100  0.507900  1.0  -0.0639
  C  C113  1  0.309400  0.680200  0.235300  1.0  -0.0837
  C  C114  1  0.346400  0.340300  0.650100  1.0  0.7001
  C  C115  1  0.789400  0.799100  0.798900  1.0  -0.0922
  C  C116  1  0.775500  0.765300  0.313800  1.0  -0.0727
  C  C117  1  0.918800  0.453100  0.007900  1.0  -0.0639
  C  C118  1  0.809400  0.180200  0.735300  1.0  -0.0839
  C  C119  1  0.153600  0.159700  0.150100  1.0  0.7001
  C  C120  1  0.710600  0.700900  0.298900  1.0  -0.0925
  C  C121  1  0.724500  0.734700  0.813800  1.0  -0.0732
  C  C122  1  0.581200  0.046900  0.507900  1.0  -0.0641
  C  C123  1  0.690600  0.319800  0.235300  1.0  -0.0853
  C  C124  1  0.653600  0.659700  0.650100  1.0  0.7001
  C  C125  1  0.210600  0.200900  0.798900  1.0  -0.0925
  C  C126  1  0.224500  0.234700  0.313800  1.0  -0.0732
  C  C127  1  0.081200  0.546900  0.007900  1.0  -0.0641
  C  C128  1  0.190600  0.819800  0.735300  1.0  -0.0852
  C  C129  1  0.159700  0.846400  0.849900  1.0  0.6994
  C  C130  1  0.700900  0.289400  0.701100  1.0  -0.0931
  C  C131  1  0.734700  0.275500  0.186200  1.0  -0.0735
  C  C132  1  0.046900  0.418800  0.492100  1.0  -0.0694
  C  C133  1  0.319800  0.309400  0.764700  1.0  -0.0851
  C  C134  1  0.659700  0.346400  0.349900  1.0  0.6994
  C  C135  1  0.200900  0.789400  0.201100  1.0  -0.0931
  C  C136  1  0.234700  0.775500  0.686200  1.0  -0.0735
  C  C137  1  0.546900  0.918800  0.992100  1.0  -0.0694
  C  C138  1  0.819800  0.809400  0.264700  1.0  -0.0849
  C  C139  1  0.840300  0.153600  0.849900  1.0  0.7018
  C  C140  1  0.299100  0.710600  0.701100  1.0  -0.0926
  C  C141  1  0.265300  0.724500  0.186200  1.0  -0.0733
  C  C142  1  0.953100  0.581200  0.492100  1.0  -0.069
  C  C143  1  0.680200  0.690600  0.764700  1.0  -0.0829
  C  C144  1  0.340300  0.653600  0.349900  1.0  0.7018
  C  C145  1  0.799100  0.210600  0.201100  1.0  -0.0926
  C  C146  1  0.765300  0.224500  0.686200  1.0  -0.0733
  C  C147  1  0.453100  0.081200  0.992100  1.0  -0.069
  C  C148  1  0.180200  0.190600  0.264700  1.0  -0.0831
  C  C149  1  0.500000  0.094500  0.507600  1.0  -0.0961
  C  C150  1  0.000000  0.594500  0.007600  1.0  -0.0961
  C  C151  1  0.500000  0.905500  0.507600  1.0  -0.0961
  C  C152  1  0.000000  0.405500  0.007600  1.0  -0.0961
  C  C153  1  0.094500  0.500000  0.492400  1.0  -0.0984
  C  C154  1  0.594500  0.000000  0.992400  1.0  -0.0984
  C  C155  1  0.905500  0.500000  0.492400  1.0  -0.0982
  C  C156  1  0.405500  0.000000  0.992400  1.0  -0.0982
  C  C157  1  0.195900  0.500000  0.494400  1.0  0.6896
  C  C158  1  0.695900  0.000000  0.994400  1.0  0.6896
  C  C159  1  0.804100  0.500000  0.494400  1.0  0.6881
  C  C160  1  0.304100  0.000000  0.994400  1.0  0.6881
  C  C161  1  0.500000  0.804100  0.505600  1.0  0.6917
  C  C162  1  0.000000  0.304100  0.005600  1.0  0.6917
  C  C163  1  0.500000  0.195900  0.505600  1.0  0.6911
  C  C164  1  0.000000  0.695900  0.005600  1.0  0.6911
  O  O165  1  0.402900  0.602300  0.669300  1.0  -0.6737
  O  O166  1  0.765000  0.424200  0.495900  1.0  -0.6082
  O  O167  1  0.672700  0.674700  0.592200  1.0  -0.6244
  O  O168  1  0.902900  0.102300  0.169300  1.0  -0.6737
  O  O169  1  0.265000  0.924200  0.995900  1.0  -0.6082
  O  O170  1  0.172700  0.174700  0.092200  1.0  -0.6244
  O  O171  1  0.597100  0.397700  0.669300  1.0  -0.6728
  O  O172  1  0.235000  0.575800  0.495900  1.0  -0.6092
  O  O173  1  0.327300  0.325300  0.592200  1.0  -0.6263
  O  O174  1  0.097100  0.897700  0.169300  1.0  -0.6728
  O  O175  1  0.735000  0.075800  0.995900  1.0  -0.6092
  O  O176  1  0.827300  0.825300  0.092200  1.0  -0.6263
  O  O177  1  0.602300  0.597100  0.330700  1.0  -0.6743
  O  O178  1  0.424200  0.235000  0.504100  1.0  -0.6054
  O  O179  1  0.674700  0.327300  0.407800  1.0  -0.6231
  O  O180  1  0.102300  0.097100  0.830700  1.0  -0.6743
  O  O181  1  0.924200  0.735000  0.004100  1.0  -0.6054
  O  O182  1  0.174700  0.827300  0.907800  1.0  -0.6231
  O  O183  1  0.397700  0.402900  0.330700  1.0  -0.6751
  O  O184  1  0.575800  0.765000  0.504100  1.0  -0.6071
  O  O185  1  0.325300  0.672700  0.407800  1.0  -0.6236
  O  O186  1  0.897700  0.902900  0.830700  1.0  -0.6751
  O  O187  1  0.075800  0.265000  0.004100  1.0  -0.6071
  O  O188  1  0.825300  0.172700  0.907800  1.0  -0.6236
  O  O189  1  0.402900  0.397700  0.669300  1.0  -0.6729
  O  O190  1  0.765000  0.575800  0.495900  1.0  -0.608
  O  O191  1  0.672700  0.325300  0.592200  1.0  -0.6255
  O  O192  1  0.902900  0.897700  0.169300  1.0  -0.6729
  O  O193  1  0.265000  0.075800  0.995900  1.0  -0.608
  O  O194  1  0.172700  0.825300  0.092200  1.0  -0.6255
  O  O195  1  0.597100  0.602300  0.669300  1.0  -0.6729
  O  O196  1  0.235000  0.424200  0.495900  1.0  -0.6085
  O  O197  1  0.327300  0.674700  0.592200  1.0  -0.6258
  O  O198  1  0.097100  0.102300  0.169300  1.0  -0.6729
  O  O199  1  0.735000  0.924200  0.995900  1.0  -0.6085
  O  O200  1  0.827300  0.174700  0.092200  1.0  -0.6258
  O  O201  1  0.602300  0.402900  0.330700  1.0  -0.6735
  O  O202  1  0.424200  0.765000  0.504100  1.0  -0.6068
  O  O203  1  0.674700  0.672700  0.407800  1.0  -0.6225
  O  O204  1  0.102300  0.902900  0.830700  1.0  -0.6735
  O  O205  1  0.924200  0.265000  0.004100  1.0  -0.6068
  O  O206  1  0.174700  0.172700  0.907800  1.0  -0.6225
  O  O207  1  0.397700  0.597100  0.330700  1.0  -0.6747
  O  O208  1  0.575800  0.235000  0.504100  1.0  -0.6064
  O  O209  1  0.325300  0.327300  0.407800  1.0  -0.6243
  O  O210  1  0.897700  0.097100  0.830700  1.0  -0.6747
  O  O211  1  0.075800  0.735000  0.004100  1.0  -0.6064
  O  O212  1  0.825300  0.827300  0.907800  1.0  -0.6243
  O  O213  1  0.399600  0.500000  0.451400  1.0  -0.7837
  O  O214  1  0.362500  0.500000  0.565500  1.0  -0.9412
  O  O215  1  0.899600  0.000000  0.951400  1.0  -0.7837
  O  O216  1  0.862500  0.000000  0.065500  1.0  -0.9412
  O  O217  1  0.600400  0.500000  0.451400  1.0  -0.7858
  O  O218  1  0.637500  0.500000  0.565500  1.0  -0.94
  O  O219  1  0.100400  0.000000  0.951400  1.0  -0.7858
  O  O220  1  0.137500  0.000000  0.065500  1.0  -0.94
  O  O221  1  0.500000  0.600400  0.548600  1.0  -0.7861
  O  O222  1  0.500000  0.637500  0.434500  1.0  -0.9375
  O  O223  1  0.000000  0.100400  0.048600  1.0  -0.7861
  O  O224  1  0.000000  0.137500  0.934500  1.0  -0.9375
  O  O225  1  0.500000  0.399600  0.548600  1.0  -0.7877
  O  O226  1  0.500000  0.362500  0.434500  1.0  -0.9393
  O  O227  1  0.000000  0.899600  0.048600  1.0  -0.7877
  O  O228  1  0.000000  0.862500  0.934500  1.0  -0.9393
