# generated using pymatgen
data_LiZnH6(C5O2)4
_symmetry_space_group_name_H-M   'P 1'
_cell_length_a   9.73730000
_cell_length_b   15.15420000
_cell_length_c   21.16950000
_cell_angle_alpha   90.00000000
_cell_angle_beta   98.75600000
_cell_angle_gamma   90.00000000
_symmetry_Int_Tables_number   1
_chemical_formula_structural   LiZnH6(C5O2)4
_chemical_formula_sum   'Li4 Zn4 H24 C80 O32'
_cell_volume   3087.38640769
_cell_formula_units_Z   4
loop_
 _symmetry_equiv_pos_site_id
 _symmetry_equiv_pos_as_xyz
  1  'x, y, z'
loop_
 _atom_site_type_symbol
 _atom_site_label
 _atom_site_symmetry_multiplicity
 _atom_site_fract_x
 _atom_site_fract_y
 _atom_site_fract_z
 _atom_site_occupancy
 _atom_site_charge
  Li  Li1  1  0.496200  0.150100  0.189100  1.0  0.9371
  Li  Li2  1  0.503800  0.650100  0.310900  1.0  0.942
  Li  Li3  1  0.503800  0.849900  0.810900  1.0  0.9408
  Li  Li4  1  0.496200  0.349900  0.689100  1.0  0.9369
  Zn  Zn5  1  0.269360  0.271020  0.261690  1.0  1.0629
  Zn  Zn6  1  0.730640  0.771020  0.238310  1.0  1.0634
  Zn  Zn7  1  0.730640  0.728980  0.738310  1.0  1.0638
  Zn  Zn8  1  0.269360  0.228980  0.761690  1.0  1.0634
  H  H9  1  0.451800  0.495700  0.205800  1.0  0.0996
  H  H10  1  0.540400  0.713300  0.061600  1.0  0.0977
  H  H11  1  0.446000  0.283200  0.045000  1.0  0.0962
  H  H12  1  0.999600  0.513800  0.289000  1.0  0.1138
  H  H13  1  0.239800  0.349200  0.457600  1.0  0.0956
  H  H14  1  0.758200  0.657100  0.434700  1.0  0.0904
  H  H15  1  0.548200  0.995700  0.294200  1.0  0.0997
  H  H16  1  0.459600  0.213300  0.438400  1.0  0.0983
  H  H17  1  0.554000  0.783200  0.455000  1.0  0.0962
  H  H18  1  0.000400  0.013800  0.211000  1.0  0.114
  H  H19  1  0.760200  0.849200  0.042400  1.0  0.0956
  H  H20  1  0.241800  0.157100  0.065300  1.0  0.0909
  H  H21  1  0.548200  0.504300  0.794200  1.0  0.0997
  H  H22  1  0.459600  0.286700  0.938400  1.0  0.0992
  H  H23  1  0.554000  0.716800  0.955000  1.0  0.0967
  H  H24  1  0.000400  0.486200  0.711000  1.0  0.1143
  H  H25  1  0.760200  0.650800  0.542400  1.0  0.0958
  H  H26  1  0.241800  0.342900  0.565300  1.0  0.0906
  H  H27  1  0.451800  0.004300  0.705800  1.0  0.0995
  H  H28  1  0.540400  0.786700  0.561600  1.0  0.0987
  H  H29  1  0.446000  0.216800  0.545000  1.0  0.0965
  H  H30  1  0.999600  0.986200  0.789000  1.0  0.1136
  H  H31  1  0.239800  0.150800  0.957600  1.0  0.0958
  H  H32  1  0.758200  0.842900  0.934700  1.0  0.09
  C  C33  1  0.421100  0.336200  0.163240  1.0  0.7179
  C  C34  1  0.454500  0.417500  0.128120  1.0  -0.1056
  C  C35  1  0.466000  0.496200  0.162420  1.0  -0.0296
  C  C36  1  0.497400  0.575000  0.135210  1.0  -0.0805
  C  C37  1  0.521000  0.653500  0.179220  1.0  0.6815
  C  C38  1  0.510500  0.578500  0.069640  1.0  0.0511
  C  C39  1  0.531900  0.659900  0.037890  1.0  -0.1225
  C  C40  1  0.459700  0.338200  0.025250  1.0  -0.1097
  C  C41  1  0.470900  0.416900  0.063170  1.0  0.0415
  C  C42  1  0.495400  0.498900  0.033720  1.0  0.038
  C  C43  1  0.183500  0.395700  0.336920  1.0  0.715
  C  C44  1  0.088200  0.452600  0.370320  1.0  -0.0753
  C  C45  1  0.999500  0.510700  0.333830  1.0  -0.0293
  C  C46  1  0.910000  0.564900  0.362000  1.0  -0.0736
  C  C47  1  0.808800  0.622600  0.319730  1.0  0.7017
  C  C48  1  0.090900  0.447100  0.436760  1.0  0.0394
  C  C49  1  0.180000  0.387000  0.476610  1.0  -0.1176
  C  C50  1  0.819200  0.617000  0.459510  1.0  -0.1328
  C  C51  1  0.909000  0.561700  0.428330  1.0  0.0221
  C  C52  1  0.999800  0.502400  0.466060  1.0  0.0058
  C  C53  1  0.578900  0.836200  0.336760  1.0  0.7168
  C  C54  1  0.545500  0.917500  0.371880  1.0  -0.1054
  C  C55  1  0.534000  0.996200  0.337580  1.0  -0.0292
  C  C56  1  0.502600  0.075000  0.364790  1.0  -0.0803
  C  C57  1  0.479000  0.153500  0.320780  1.0  0.6822
  C  C58  1  0.489500  0.078500  0.430360  1.0  0.0506
  C  C59  1  0.468100  0.159900  0.462110  1.0  -0.1216
  C  C60  1  0.540300  0.838200  0.474750  1.0  -0.1107
  C  C61  1  0.529100  0.916900  0.436830  1.0  0.0413
  C  C62  1  0.504600  0.998900  0.466280  1.0  0.0378
  C  C63  1  0.816500  0.895700  0.163080  1.0  0.7155
  C  C64  1  0.911800  0.952600  0.129680  1.0  -0.0749
  C  C65  1  0.000500  0.010700  0.166170  1.0  -0.0314
  C  C66  1  0.090000  0.064900  0.138000  1.0  -0.0726
  C  C67  1  0.191200  0.122600  0.180270  1.0  0.7022
  C  C68  1  0.909100  0.947100  0.063240  1.0  0.0396
  C  C69  1  0.820000  0.887000  0.023390  1.0  -0.1171
  C  C70  1  0.180800  0.117000  0.040490  1.0  -0.1323
  C  C71  1  0.091000  0.061700  0.071670  1.0  0.0222
  C  C72  1  0.000200  0.002400  0.033940  1.0  0.0055
  C  C73  1  0.578900  0.663800  0.836760  1.0  0.7171
  C  C74  1  0.545500  0.582500  0.871880  1.0  -0.1062
  C  C75  1  0.534000  0.503800  0.837580  1.0  -0.0292
  C  C76  1  0.502600  0.425000  0.864790  1.0  -0.0807
  C  C77  1  0.479000  0.346500  0.820780  1.0  0.6836
  C  C78  1  0.489500  0.421500  0.930360  1.0  0.0495
  C  C79  1  0.468100  0.340100  0.962110  1.0  -0.1208
  C  C80  1  0.540300  0.661800  0.974750  1.0  -0.1109
  C  C81  1  0.529100  0.583100  0.936830  1.0  0.0417
  C  C82  1  0.504600  0.501100  0.966280  1.0  0.0378
  C  C83  1  0.816500  0.604300  0.663080  1.0  0.7155
  C  C84  1  0.911800  0.547400  0.629680  1.0  -0.0747
  C  C85  1  0.000500  0.489300  0.666170  1.0  -0.0314
  C  C86  1  0.090000  0.435100  0.638000  1.0  -0.0721
  C  C87  1  0.191200  0.377400  0.680270  1.0  0.7022
  C  C88  1  0.909100  0.552900  0.563240  1.0  0.0393
  C  C89  1  0.820000  0.613000  0.523390  1.0  -0.1174
  C  C90  1  0.180800  0.383000  0.540490  1.0  -0.1325
  C  C91  1  0.091000  0.438300  0.571670  1.0  0.0222
  C  C92  1  0.000200  0.497600  0.533940  1.0  0.0055
  C  C93  1  0.421100  0.163800  0.663240  1.0  0.7181
  C  C94  1  0.454500  0.082500  0.628120  1.0  -0.106
  C  C95  1  0.466000  0.003800  0.662420  1.0  -0.0296
  C  C96  1  0.497400  0.925000  0.635210  1.0  -0.0807
  C  C97  1  0.521000  0.846500  0.679220  1.0  0.6833
  C  C98  1  0.510500  0.921500  0.569640  1.0  0.0499
  C  C99  1  0.531900  0.840100  0.537890  1.0  -0.1213
  C  C100  1  0.459700  0.161800  0.525250  1.0  -0.1106
  C  C101  1  0.470900  0.083100  0.563170  1.0  0.0419
  C  C102  1  0.495400  0.001100  0.533720  1.0  0.038
  C  C103  1  0.183500  0.104300  0.836920  1.0  0.7152
  C  C104  1  0.088200  0.047400  0.870320  1.0  -0.0754
  C  C105  1  0.999500  0.989300  0.833830  1.0  -0.0292
  C  C106  1  0.910000  0.935100  0.862000  1.0  -0.0736
  C  C107  1  0.808800  0.877400  0.819730  1.0  0.7015
  C  C108  1  0.090900  0.052900  0.936760  1.0  0.0392
  C  C109  1  0.180000  0.113000  0.976610  1.0  -0.118
  C  C110  1  0.819200  0.883000  0.959510  1.0  -0.132
  C  C111  1  0.909000  0.938300  0.928330  1.0  0.0221
  C  C112  1  0.999800  0.997600  0.966060  1.0  0.0058
  O  O113  1  0.474800  0.264560  0.153150  1.0  -0.5988
  O  O114  1  0.337800  0.350080  0.202980  1.0  -0.6187
  O  O115  1  0.444800  0.663480  0.220200  1.0  -0.6299
  O  O116  1  0.624900  0.701480  0.171840  1.0  -0.5858
  O  O117  1  0.124900  0.336510  0.299450  1.0  -0.5695
  O  O118  1  0.309500  0.409530  0.346390  1.0  -0.4979
  O  O119  1  0.684900  0.603140  0.313010  1.0  -0.6412
  O  O120  1  0.859900  0.687680  0.292860  1.0  -0.5929
  O  O121  1  0.525200  0.764560  0.346850  1.0  -0.6
  O  O122  1  0.662200  0.850080  0.297020  1.0  -0.6178
  O  O123  1  0.555200  0.163480  0.279800  1.0  -0.6263
  O  O124  1  0.375100  0.201480  0.328160  1.0  -0.5852
  O  O125  1  0.875100  0.836510  0.200550  1.0  -0.5705
  O  O126  1  0.690500  0.909530  0.153610  1.0  -0.5001
  O  O127  1  0.315100  0.103140  0.186990  1.0  -0.6436
  O  O128  1  0.140100  0.187680  0.207140  1.0  -0.5884
  O  O129  1  0.525200  0.735440  0.846850  1.0  -0.6008
  O  O130  1  0.662200  0.649920  0.797020  1.0  -0.6177
  O  O131  1  0.555200  0.336520  0.779800  1.0  -0.6267
  O  O132  1  0.375100  0.298520  0.828160  1.0  -0.5847
  O  O133  1  0.875100  0.663490  0.700550  1.0  -0.5709
  O  O134  1  0.690500  0.590470  0.653610  1.0  -0.4996
  O  O135  1  0.315100  0.396860  0.686990  1.0  -0.6458
  O  O136  1  0.140100  0.312320  0.707140  1.0  -0.5886
  O  O137  1  0.474800  0.235440  0.653150  1.0  -0.6002
  O  O138  1  0.337800  0.149920  0.702980  1.0  -0.6178
  O  O139  1  0.444800  0.836520  0.720200  1.0  -0.63
  O  O140  1  0.624900  0.798520  0.671840  1.0  -0.586
  O  O141  1  0.124900  0.163490  0.799450  1.0  -0.5699
  O  O142  1  0.309500  0.090470  0.846390  1.0  -0.4989
  O  O143  1  0.684900  0.896860  0.813010  1.0  -0.6442
  O  O144  1  0.859900  0.812320  0.792860  1.0  -0.5925
