# generated using pymatgen
data_Cu2H14C17(N5O2)2
_symmetry_space_group_name_H-M   'P 1'
_cell_length_a   28.61200000
_cell_length_b   9.38990000
_cell_length_c   9.27410000
_cell_angle_alpha   90.00000000
_cell_angle_beta   92.65700000
_cell_angle_gamma   90.00000000
_symmetry_Int_Tables_number   1
_chemical_formula_structural   Cu2H14C17(N5O2)2
_chemical_formula_sum   'Cu8 H56 C68 N40 O16'
_cell_volume   2488.93650274
_cell_formula_units_Z   4
loop_
 _symmetry_equiv_pos_site_id
 _symmetry_equiv_pos_as_xyz
  1  'x, y, z'
loop_
 _atom_site_type_symbol
 _atom_site_label
 _atom_site_symmetry_multiplicity
 _atom_site_fract_x
 _atom_site_fract_y
 _atom_site_fract_z
 _atom_site_occupancy
 _atom_site_charge
  Cu  Cu1  1  0.307540  0.669330  0.120040  1.0  0.6541
  Cu  Cu2  1  0.807540  0.169330  0.120040  1.0  0.6541
  Cu  Cu3  1  0.692460  0.669330  0.379960  1.0  0.6546
  Cu  Cu4  1  0.192460  0.169330  0.379960  1.0  0.6546
  Cu  Cu5  1  0.692460  0.330670  0.879960  1.0  0.655
  Cu  Cu6  1  0.192460  0.830670  0.879960  1.0  0.655
  Cu  Cu7  1  0.307540  0.330670  0.620040  1.0  0.6544
  Cu  Cu8  1  0.807540  0.830670  0.620040  1.0  0.6544
  H  H9  1  0.373000  0.077400  0.856900  1.0  0.1246
  H  H10  1  0.316800  0.948500  0.964400  1.0  0.0652
  H  H11  1  0.464900  0.763500  0.956600  1.0  0.1317
  H  H12  1  0.406000  0.646000  0.069300  1.0  0.0914
  H  H13  1  0.478700  0.082100  0.891700  1.0  0.0907
  H  H14  1  0.448000  0.080700  0.745600  1.0  0.0937
  H  H15  1  0.484800  0.870000  0.677600  1.0  0.0779
  H  H16  1  0.873000  0.577400  0.856900  1.0  0.1246
  H  H17  1  0.816800  0.448500  0.964400  1.0  0.0652
  H  H18  1  0.964900  0.263500  0.956600  1.0  0.1317
  H  H19  1  0.906000  0.146000  0.069300  1.0  0.0914
  H  H20  1  0.978700  0.582100  0.891700  1.0  0.0907
  H  H21  1  0.948000  0.580700  0.745600  1.0  0.0937
  H  H22  1  0.984800  0.370000  0.677600  1.0  0.0779
  H  H23  1  0.627000  0.077400  0.643100  1.0  0.1244
  H  H24  1  0.683200  0.948500  0.535600  1.0  0.0649
  H  H25  1  0.535100  0.763500  0.543400  1.0  0.1315
  H  H26  1  0.594000  0.646000  0.430700  1.0  0.0913
  H  H27  1  0.521300  0.082100  0.608300  1.0  0.0909
  H  H28  1  0.552000  0.080700  0.754400  1.0  0.0929
  H  H29  1  0.515200  0.870000  0.822400  1.0  0.0779
  H  H30  1  0.127000  0.577400  0.643100  1.0  0.1244
  H  H31  1  0.183200  0.448500  0.535600  1.0  0.0649
  H  H32  1  0.035100  0.263500  0.543400  1.0  0.1315
  H  H33  1  0.094000  0.146000  0.430700  1.0  0.0913
  H  H34  1  0.021300  0.582100  0.608300  1.0  0.0909
  H  H35  1  0.052000  0.580700  0.754400  1.0  0.0929
  H  H36  1  0.015200  0.370000  0.822400  1.0  0.0779
  H  H37  1  0.627000  0.922600  0.143100  1.0  0.124
  H  H38  1  0.683200  0.051500  0.035600  1.0  0.0652
  H  H39  1  0.535100  0.236500  0.043400  1.0  0.1314
  H  H40  1  0.594000  0.354000  0.930700  1.0  0.0925
  H  H41  1  0.521300  0.917900  0.108300  1.0  0.0909
  H  H42  1  0.552000  0.919300  0.254400  1.0  0.094
  H  H43  1  0.515200  0.130000  0.322400  1.0  0.0767
  H  H44  1  0.127000  0.422600  0.143100  1.0  0.124
  H  H45  1  0.183200  0.551500  0.035600  1.0  0.0652
  H  H46  1  0.035100  0.736500  0.043400  1.0  0.1314
  H  H47  1  0.094000  0.854000  0.930700  1.0  0.0925
  H  H48  1  0.021300  0.417900  0.108300  1.0  0.0909
  H  H49  1  0.052000  0.419300  0.254400  1.0  0.094
  H  H50  1  0.015200  0.630000  0.322400  1.0  0.0767
  H  H51  1  0.373000  0.922600  0.356900  1.0  0.124
  H  H52  1  0.316800  0.051500  0.464400  1.0  0.0652
  H  H53  1  0.464900  0.236500  0.456600  1.0  0.1319
  H  H54  1  0.406000  0.354000  0.569300  1.0  0.0919
  H  H55  1  0.478700  0.917900  0.391700  1.0  0.0928
  H  H56  1  0.448000  0.919300  0.245600  1.0  0.0925
  H  H57  1  0.484800  0.130000  0.177600  1.0  0.0787
  H  H58  1  0.873000  0.422600  0.356900  1.0  0.124
  H  H59  1  0.816800  0.551500  0.464400  1.0  0.0652
  H  H60  1  0.964900  0.736500  0.456600  1.0  0.1319
  H  H61  1  0.906000  0.854000  0.569300  1.0  0.0919
  H  H62  1  0.978700  0.417900  0.391700  1.0  0.0928
  H  H63  1  0.948000  0.419300  0.245600  1.0  0.0925
  H  H64  1  0.984800  0.630000  0.177600  1.0  0.0787
  C  C65  1  0.380600  0.988300  0.897800  1.0  -0.1997
  C  C66  1  0.347300  0.911100  0.963200  1.0  0.1694
  C  C67  1  0.434900  0.804000  0.957400  1.0  -0.233
  C  C68  1  0.426100  0.935100  0.891600  1.0  0.1604
  C  C69  1  0.399300  0.733500  0.023800  1.0  0.1666
  C  C70  1  0.463200  0.019700  0.819600  1.0  -0.1949
  C  C71  1  0.296800  0.498100  0.859600  1.0  0.1559
  C  C72  1  0.337800  0.405400  0.900800  1.0  0.6105
  C  C73  1  0.880600  0.488300  0.897800  1.0  -0.1997
  C  C74  1  0.847300  0.411100  0.963200  1.0  0.1694
  C  C75  1  0.934900  0.304000  0.957400  1.0  -0.233
  C  C76  1  0.926100  0.435100  0.891600  1.0  0.1604
  C  C77  1  0.899300  0.233500  0.023800  1.0  0.1666
  C  C78  1  0.963200  0.519700  0.819600  1.0  -0.1949
  C  C79  1  0.796800  0.998100  0.859600  1.0  0.1559
  C  C80  1  0.837800  0.905400  0.900800  1.0  0.6105
  C  C81  1  0.619400  0.988300  0.602200  1.0  -0.2009
  C  C82  1  0.652700  0.911100  0.536800  1.0  0.1681
  C  C83  1  0.565100  0.804000  0.542600  1.0  -0.2309
  C  C84  1  0.573900  0.935100  0.608400  1.0  0.1598
  C  C85  1  0.600700  0.733500  0.476200  1.0  0.1674
  C  C86  1  0.536800  0.019700  0.680400  1.0  -0.1961
  C  C87  1  0.703200  0.498100  0.640400  1.0  0.1553
  C  C88  1  0.662200  0.405400  0.599200  1.0  0.6074
  C  C89  1  0.119400  0.488300  0.602200  1.0  -0.2009
  C  C90  1  0.152700  0.411100  0.536800  1.0  0.1681
  C  C91  1  0.065100  0.304000  0.542600  1.0  -0.2309
  C  C92  1  0.073900  0.435100  0.608400  1.0  0.1598
  C  C93  1  0.100700  0.233500  0.476200  1.0  0.1674
  C  C94  1  0.036800  0.519700  0.680400  1.0  -0.1961
  C  C95  1  0.203200  0.998100  0.640400  1.0  0.1553
  C  C96  1  0.162200  0.905400  0.599200  1.0  0.6074
  C  C97  1  0.619400  0.011700  0.102200  1.0  -0.2004
  C  C98  1  0.652700  0.088900  0.036800  1.0  0.1679
  C  C99  1  0.565100  0.196000  0.042600  1.0  -0.2318
  C  C100  1  0.573900  0.064900  0.108400  1.0  0.16
  C  C101  1  0.600700  0.266500  0.976200  1.0  0.1672
  C  C102  1  0.536800  0.980300  0.180400  1.0  -0.1946
  C  C103  1  0.703200  0.501900  0.140400  1.0  0.1559
  C  C104  1  0.662200  0.594600  0.099200  1.0  0.6082
  C  C105  1  0.119400  0.511700  0.102200  1.0  -0.2004
  C  C106  1  0.152700  0.588900  0.036800  1.0  0.1679
  C  C107  1  0.065100  0.696000  0.042600  1.0  -0.2318
  C  C108  1  0.073900  0.564900  0.108400  1.0  0.16
  C  C109  1  0.100700  0.766500  0.976200  1.0  0.1672
  C  C110  1  0.036800  0.480300  0.180400  1.0  -0.1946
  C  C111  1  0.203200  0.001900  0.140400  1.0  0.1559
  C  C112  1  0.162200  0.094600  0.099200  1.0  0.6082
  C  C113  1  0.380600  0.011700  0.397800  1.0  -0.1999
  C  C114  1  0.347300  0.088900  0.463200  1.0  0.1693
  C  C115  1  0.434900  0.196000  0.457400  1.0  -0.2309
  C  C116  1  0.426100  0.064900  0.391600  1.0  0.1609
  C  C117  1  0.399300  0.266500  0.523800  1.0  0.1665
  C  C118  1  0.463200  0.980300  0.319600  1.0  -0.1939
  C  C119  1  0.296800  0.501900  0.359600  1.0  0.1565
  C  C120  1  0.337800  0.594600  0.400800  1.0  0.6102
  C  C121  1  0.880600  0.511700  0.397800  1.0  -0.1999
  C  C122  1  0.847300  0.588900  0.463200  1.0  0.1693
  C  C123  1  0.934900  0.696000  0.457400  1.0  -0.2309
  C  C124  1  0.926100  0.564900  0.391600  1.0  0.1609
  C  C125  1  0.899300  0.766500  0.523800  1.0  0.1665
  C  C126  1  0.963200  0.480300  0.319600  1.0  -0.1939
  C  C127  1  0.796800  0.001900  0.359600  1.0  0.1565
  C  C128  1  0.837800  0.094600  0.400800  1.0  0.6102
  C  C129  1  0.500000  0.930900  0.750000  1.0  -0.0968
  C  C130  1  0.000000  0.430900  0.750000  1.0  -0.0968
  C  C131  1  0.500000  0.069100  0.250000  1.0  -0.0969
  C  C132  1  0.000000  0.569100  0.250000  1.0  -0.0969
  N  N133  1  0.355730  0.784500  0.026000  1.0  -0.2908
  N  N134  1  0.278420  0.606100  0.927700  1.0  -0.1958
  N  N135  1  0.243770  0.655100  0.840800  1.0  -0.0253
  N  N136  1  0.241450  0.579500  0.720300  1.0  -0.0984
  N  N137  1  0.275030  0.479900  0.731000  1.0  -0.2004
  N  N138  1  0.855730  0.284500  0.026000  1.0  -0.2908
  N  N139  1  0.778420  0.106100  0.927700  1.0  -0.1958
  N  N140  1  0.743770  0.155100  0.840800  1.0  -0.0253
  N  N141  1  0.741450  0.079500  0.720300  1.0  -0.0984
  N  N142  1  0.775030  0.979900  0.731000  1.0  -0.2004
  N  N143  1  0.644270  0.784500  0.474000  1.0  -0.2918
  N  N144  1  0.721580  0.606100  0.572300  1.0  -0.1957
  N  N145  1  0.756230  0.655100  0.659200  1.0  -0.0269
  N  N146  1  0.758550  0.579500  0.779700  1.0  -0.0986
  N  N147  1  0.724970  0.479900  0.769000  1.0  -0.2009
  N  N148  1  0.144270  0.284500  0.474000  1.0  -0.2918
  N  N149  1  0.221580  0.106100  0.572300  1.0  -0.1957
  N  N150  1  0.256230  0.155100  0.659200  1.0  -0.0269
  N  N151  1  0.258550  0.079500  0.779700  1.0  -0.0986
  N  N152  1  0.224970  0.979900  0.769000  1.0  -0.2009
  N  N153  1  0.644270  0.215500  0.974000  1.0  -0.2926
  N  N154  1  0.721580  0.393900  0.072300  1.0  -0.1962
  N  N155  1  0.756230  0.344900  0.159200  1.0  -0.0268
  N  N156  1  0.758550  0.420500  0.279700  1.0  -0.0982
  N  N157  1  0.724970  0.520100  0.269000  1.0  -0.201
  N  N158  1  0.144270  0.715500  0.974000  1.0  -0.2926
  N  N159  1  0.221580  0.893900  0.072300  1.0  -0.1962
  N  N160  1  0.256230  0.844900  0.159200  1.0  -0.0268
  N  N161  1  0.258550  0.920500  0.279700  1.0  -0.0982
  N  N162  1  0.224970  0.020100  0.269000  1.0  -0.201
  N  N163  1  0.355730  0.215500  0.526000  1.0  -0.2908
  N  N164  1  0.278420  0.393900  0.427700  1.0  -0.1964
  N  N165  1  0.243770  0.344900  0.340800  1.0  -0.0262
  N  N166  1  0.241450  0.420500  0.220300  1.0  -0.0986
  N  N167  1  0.275030  0.520100  0.231000  1.0  -0.2006
  N  N168  1  0.855730  0.715500  0.526000  1.0  -0.2908
  N  N169  1  0.778420  0.893900  0.427700  1.0  -0.1964
  N  N170  1  0.743770  0.844900  0.340800  1.0  -0.0262
  N  N171  1  0.741450  0.920500  0.220300  1.0  -0.0986
  N  N172  1  0.775030  0.020100  0.231000  1.0  -0.2006
  O  O173  1  0.347300  0.318400  0.801700  1.0  -0.5435
  O  O174  1  0.357480  0.420300  0.020400  1.0  -0.5598
  O  O175  1  0.847300  0.818400  0.801700  1.0  -0.5435
  O  O176  1  0.857480  0.920300  0.020400  1.0  -0.5598
  O  O177  1  0.652700  0.318400  0.698300  1.0  -0.5428
  O  O178  1  0.642520  0.420300  0.479600  1.0  -0.5595
  O  O179  1  0.152700  0.818400  0.698300  1.0  -0.5428
  O  O180  1  0.142520  0.920300  0.479600  1.0  -0.5595
  O  O181  1  0.652700  0.681600  0.198300  1.0  -0.543
  O  O182  1  0.642520  0.579700  0.979600  1.0  -0.5587
  O  O183  1  0.152700  0.181600  0.198300  1.0  -0.543
  O  O184  1  0.142520  0.079700  0.979600  1.0  -0.5587
  O  O185  1  0.347300  0.681600  0.301700  1.0  -0.543
  O  O186  1  0.357480  0.579700  0.520400  1.0  -0.5593
  O  O187  1  0.847300  0.181600  0.301700  1.0  -0.543
  O  O188  1  0.857480  0.079700  0.520400  1.0  -0.5593
