# generated using pymatgen
data_CuH11C18N5O6
_symmetry_space_group_name_H-M   'P 1'
_cell_length_a   10.79610000
_cell_length_b   8.79500000
_cell_length_c   25.17480000
_cell_angle_alpha   90.00000000
_cell_angle_beta   98.81100000
_cell_angle_gamma   90.00000000
_symmetry_Int_Tables_number   1
_chemical_formula_structural   CuH11C18N5O6
_chemical_formula_sum   'Cu4 H44 C72 N20 O24'
_cell_volume   2362.18103268
_cell_formula_units_Z   4
loop_
 _symmetry_equiv_pos_site_id
 _symmetry_equiv_pos_as_xyz
  1  'x, y, z'
loop_
 _atom_site_type_symbol
 _atom_site_label
 _atom_site_symmetry_multiplicity
 _atom_site_fract_x
 _atom_site_fract_y
 _atom_site_fract_z
 _atom_site_occupancy
 _atom_site_charge
  Cu  Cu1  1  0.838610  0.219050  0.263360  1.0  0.8683
  Cu  Cu2  1  0.338610  0.280950  0.763360  1.0  0.8679
  Cu  Cu3  1  0.661390  0.719050  0.236640  1.0  0.8677
  Cu  Cu4  1  0.161390  0.780950  0.736640  1.0  0.8673
  H  H5  1  0.557300  0.315500  0.096000  1.0  0.1403
  H  H6  1  0.641300  0.335500  0.184500  1.0  0.0923
  H  H7  1  0.808200  0.991900  0.079600  1.0  0.1413
  H  H8  1  0.207400  0.210500  0.213300  1.0  0.0984
  H  H9  1  0.420900  0.220100  0.212100  1.0  0.1072
  H  H10  1  0.264700  0.952900  0.345300  1.0  0.1258
  H  H11  1  0.885400  0.016700  0.170100  1.0  0.0978
  H  H12  1  0.616600  0.062500  0.921300  1.0  0.1428
  H  H13  1  0.528900  0.085300  0.831900  1.0  0.0906
  H  H14  1  0.283700  0.378000  0.868100  1.0  0.0825
  H  H15  1  0.368300  0.370200  0.956900  1.0  0.1403
  H  H16  1  0.057300  0.184500  0.596000  1.0  0.1401
  H  H17  1  0.141300  0.164500  0.684500  1.0  0.0927
  H  H18  1  0.308200  0.508100  0.579600  1.0  0.1415
  H  H19  1  0.707400  0.289500  0.713300  1.0  0.0986
  H  H20  1  0.920900  0.279900  0.712100  1.0  0.1071
  H  H21  1  0.764700  0.547100  0.845300  1.0  0.1256
  H  H22  1  0.385400  0.483300  0.670100  1.0  0.0979
  H  H23  1  0.116600  0.437500  0.421300  1.0  0.143
  H  H24  1  0.028900  0.414700  0.331900  1.0  0.0909
  H  H25  1  0.783700  0.122000  0.368100  1.0  0.0822
  H  H26  1  0.868300  0.129800  0.456900  1.0  0.1406
  H  H27  1  0.942700  0.815500  0.404000  1.0  0.1403
  H  H28  1  0.858700  0.835500  0.315500  1.0  0.0929
  H  H29  1  0.691800  0.491900  0.420400  1.0  0.1418
  H  H30  1  0.292600  0.710500  0.286700  1.0  0.0988
  H  H31  1  0.079100  0.720100  0.287900  1.0  0.1067
  H  H32  1  0.235300  0.452900  0.154700  1.0  0.127
  H  H33  1  0.614600  0.516700  0.329900  1.0  0.0985
  H  H34  1  0.883400  0.562500  0.578700  1.0  0.1425
  H  H35  1  0.971100  0.585300  0.668100  1.0  0.0908
  H  H36  1  0.216300  0.878000  0.631900  1.0  0.0823
  H  H37  1  0.131700  0.870200  0.543100  1.0  0.1396
  H  H38  1  0.442700  0.684500  0.904000  1.0  0.1404
  H  H39  1  0.358700  0.664500  0.815500  1.0  0.093
  H  H40  1  0.191800  0.008100  0.920400  1.0  0.1412
  H  H41  1  0.792600  0.789500  0.786700  1.0  0.0991
  H  H42  1  0.579100  0.779900  0.787900  1.0  0.1069
  H  H43  1  0.735300  0.047100  0.654700  1.0  0.1267
  H  H44  1  0.114600  0.983300  0.829900  1.0  0.0985
  H  H45  1  0.383400  0.937500  0.078700  1.0  0.1432
  H  H46  1  0.471100  0.914700  0.168100  1.0  0.0902
  H  H47  1  0.716300  0.622000  0.131900  1.0  0.0824
  H  H48  1  0.631700  0.629800  0.043100  1.0  0.1397
  C  C49  1  0.421700  0.010400  0.316960  1.0  0.0513
  C  C50  1  0.212600  0.084500  0.280010  1.0  -0.1481
  C  C51  1  0.473700  0.089800  0.277750  1.0  -0.0252
  C  C52  1  0.624900  0.254900  0.110190  1.0  -0.1717
  C  C53  1  0.675600  0.265900  0.163020  1.0  0.1598
  C  C54  1  0.675300  0.152700  0.078330  1.0  0.1603
  C  C55  1  0.773400  0.062500  0.100510  1.0  -0.1197
  C  C56  1  0.501300  0.215900  0.948860  1.0  0.2209
  C  C57  1  0.261400  0.161000  0.240060  1.0  -0.0086
  C  C58  1  0.390400  0.165700  0.239030  1.0  -0.0699
  C  C59  1  0.295300  0.007200  0.318390  1.0  -0.103
  C  C60  1  0.074200  0.082600  0.283180  1.0  0.669
  C  C61  1  0.819800  0.078700  0.154720  1.0  0.1645
  C  C62  1  0.549900  0.128500  0.911050  1.0  -0.1478
  C  C63  1  0.496200  0.142300  0.857570  1.0  0.1826
  C  C64  1  0.352500  0.315600  0.878830  1.0  0.1653
  C  C65  1  0.401900  0.310300  0.932150  1.0  -0.2374
  C  C66  1  0.610900  0.090700  0.272780  1.0  0.6732
  C  C67  1  0.921700  0.489600  0.816960  1.0  0.0517
  C  C68  1  0.712600  0.415500  0.780010  1.0  -0.1488
  C  C69  1  0.973700  0.410200  0.777750  1.0  -0.0255
  C  C70  1  0.124900  0.245100  0.610190  1.0  -0.1709
  C  C71  1  0.175600  0.234100  0.663020  1.0  0.1604
  C  C72  1  0.175300  0.347300  0.578330  1.0  0.1602
  C  C73  1  0.273400  0.437500  0.600510  1.0  -0.1196
  C  C74  1  0.001300  0.284100  0.448860  1.0  0.2204
  C  C75  1  0.761400  0.339000  0.740060  1.0  -0.009
  C  C76  1  0.890400  0.334300  0.739030  1.0  -0.0704
  C  C77  1  0.795300  0.492800  0.818390  1.0  -0.103
  C  C78  1  0.574200  0.417400  0.783180  1.0  0.6697
  C  C79  1  0.319800  0.421300  0.654720  1.0  0.1649
  C  C80  1  0.049900  0.371500  0.411050  1.0  -0.1476
  C  C81  1  0.996200  0.357700  0.357570  1.0  0.1836
  C  C82  1  0.852500  0.184400  0.378830  1.0  0.1652
  C  C83  1  0.901900  0.189700  0.432150  1.0  -0.2366
  C  C84  1  0.110900  0.409300  0.772780  1.0  0.6735
  C  C85  1  0.078300  0.510400  0.183040  1.0  0.0479
  C  C86  1  0.287400  0.584500  0.219990  1.0  -0.1476
  C  C87  1  0.026300  0.589800  0.222250  1.0  -0.0253
  C  C88  1  0.875100  0.754900  0.389810  1.0  -0.1723
  C  C89  1  0.824400  0.765900  0.336980  1.0  0.1594
  C  C90  1  0.824700  0.652700  0.421670  1.0  0.1604
  C  C91  1  0.726600  0.562500  0.399490  1.0  -0.1188
  C  C92  1  0.998700  0.715900  0.551140  1.0  0.2234
  C  C93  1  0.238600  0.661000  0.259940  1.0  -0.0102
  C  C94  1  0.109600  0.665700  0.260970  1.0  -0.0699
  C  C95  1  0.204700  0.507200  0.181610  1.0  -0.1022
  C  C96  1  0.425800  0.582600  0.216820  1.0  0.6703
  C  C97  1  0.680200  0.578700  0.345280  1.0  0.1622
  C  C98  1  0.950100  0.628500  0.588950  1.0  -0.1488
  C  C99  1  0.003800  0.642300  0.642430  1.0  0.1825
  C  C100  1  0.147500  0.815600  0.621170  1.0  0.1642
  C  C101  1  0.098100  0.810300  0.567850  1.0  -0.2366
  C  C102  1  0.889100  0.590700  0.227220  1.0  0.6731
  C  C103  1  0.578300  0.989600  0.683040  1.0  0.0469
  C  C104  1  0.787400  0.915500  0.719990  1.0  -0.148
  C  C105  1  0.526300  0.910200  0.722250  1.0  -0.0259
  C  C106  1  0.375100  0.745100  0.889810  1.0  -0.1721
  C  C107  1  0.324400  0.734100  0.836980  1.0  0.1599
  C  C108  1  0.324700  0.847300  0.921670  1.0  0.1602
  C  C109  1  0.226600  0.937500  0.899490  1.0  -0.12
  C  C110  1  0.498700  0.784100  0.051140  1.0  0.2227
  C  C111  1  0.738600  0.839000  0.759940  1.0  -0.0106
  C  C112  1  0.609600  0.834300  0.760970  1.0  -0.0701
  C  C113  1  0.704700  0.992800  0.681610  1.0  -0.1022
  C  C114  1  0.925800  0.917400  0.716820  1.0  0.671
  C  C115  1  0.180200  0.921300  0.845280  1.0  0.1629
  C  C116  1  0.450100  0.871500  0.088950  1.0  -0.1493
  C  C117  1  0.503800  0.857700  0.142430  1.0  0.1827
  C  C118  1  0.647500  0.684400  0.121170  1.0  0.1642
  C  C119  1  0.598100  0.689700  0.067850  1.0  -0.2356
  C  C120  1  0.389100  0.909300  0.727220  1.0  0.6735
  N  N121  1  0.772800  0.180800  0.185470  1.0  -0.3233
  N  N122  1  0.502400  0.928100  0.359020  1.0  0.6079
  N  N123  1  0.399000  0.235000  0.841590  1.0  -0.3225
  N  N124  1  0.631400  0.135100  0.021220  1.0  -0.1175
  N  N125  1  0.549100  0.223900  0.004960  1.0  -0.1482
  N  N126  1  0.272800  0.319200  0.685470  1.0  -0.3234
  N  N127  1  0.002400  0.571900  0.859020  1.0  0.6079
  N  N128  1  0.899000  0.265000  0.341590  1.0  -0.3227
  N  N129  1  0.131400  0.364900  0.521220  1.0  -0.1173
  N  N130  1  0.049100  0.276100  0.504960  1.0  -0.1489
  N  N131  1  0.727200  0.680800  0.314530  1.0  -0.3247
  N  N132  1  0.997600  0.428100  0.140980  1.0  0.6068
  N  N133  1  0.101000  0.735000  0.658410  1.0  -0.3203
  N  N134  1  0.868600  0.635100  0.478780  1.0  -0.1171
  N  N135  1  0.950900  0.723900  0.495040  1.0  -0.148
  N  N136  1  0.227200  0.819200  0.814530  1.0  -0.325
  N  N137  1  0.497600  0.071900  0.640980  1.0  0.6059
  N  N138  1  0.601000  0.765000  0.158410  1.0  -0.3204
  N  N139  1  0.368600  0.864900  0.978780  1.0  -0.1171
  N  N140  1  0.450900  0.776100  0.995040  1.0  -0.1483
  O  O141  1  0.009500  0.177900  0.251960  1.0  -0.5888
  O  O142  1  0.034700  0.996600  0.314560  1.0  -0.546
  O  O143  1  0.608100  0.974000  0.373320  1.0  -0.4921
  O  O144  1  0.458500  0.813500  0.377450  1.0  -0.4037
  O  O145  1  0.659900  0.972800  0.260150  1.0  -0.626
  O  O146  1  0.664300  0.219000  0.279460  1.0  -0.5821
  O  O147  1  0.509500  0.322100  0.751960  1.0  -0.5892
  O  O148  1  0.534700  0.503400  0.814560  1.0  -0.5458
  O  O149  1  0.108100  0.526000  0.873320  1.0  -0.4922
  O  O150  1  0.958500  0.686500  0.877450  1.0  -0.4038
  O  O151  1  0.159900  0.527200  0.760150  1.0  -0.626
  O  O152  1  0.164300  0.281000  0.779460  1.0  -0.5801
  O  O153  1  0.490500  0.677900  0.248040  1.0  -0.5883
  O  O154  1  0.465300  0.496600  0.185440  1.0  -0.5472
  O  O155  1  0.891900  0.474000  0.126680  1.0  -0.4932
  O  O156  1  0.041500  0.313500  0.122550  1.0  -0.4034
  O  O157  1  0.840100  0.472800  0.239850  1.0  -0.625
  O  O158  1  0.835700  0.719000  0.220540  1.0  -0.5811
  O  O159  1  0.990500  0.822100  0.748040  1.0  -0.5883
  O  O160  1  0.965300  0.003400  0.685440  1.0  -0.5468
  O  O161  1  0.391900  0.026000  0.626680  1.0  -0.4935
  O  O162  1  0.541500  0.186500  0.622550  1.0  -0.4041
  O  O163  1  0.340100  0.027200  0.739850  1.0  -0.6252
  O  O164  1  0.335700  0.781000  0.720540  1.0  -0.5806
