# generated using pymatgen
data_LiZnH6(C5O2)4
_symmetry_space_group_name_H-M   'P 1'
_cell_length_a   25.01410000
_cell_length_b   21.23830000
_cell_length_c   10.03240000
_cell_angle_alpha   90.00000000
_cell_angle_beta   97.16600000
_cell_angle_gamma   90.00000000
_symmetry_Int_Tables_number   1
_chemical_formula_structural   LiZnH6(C5O2)4
_chemical_formula_sum   'Li8 Zn8 H48 C160 O64'
_cell_volume   5288.15086770
_cell_formula_units_Z   8
loop_
 _symmetry_equiv_pos_site_id
 _symmetry_equiv_pos_as_xyz
  1  'x, y, z'
loop_
 _atom_site_type_symbol
 _atom_site_label
 _atom_site_symmetry_multiplicity
 _atom_site_fract_x
 _atom_site_fract_y
 _atom_site_fract_z
 _atom_site_occupancy
 _atom_site_charge
  Li  Li1  1  0.288300  0.184900  0.385300  1.0  0.9086
  Li  Li2  1  0.788300  0.684900  0.385300  1.0  0.9086
  Li  Li3  1  0.711700  0.184900  0.614700  1.0  0.9069
  Li  Li4  1  0.211700  0.684900  0.614700  1.0  0.9069
  Li  Li5  1  0.711700  0.815100  0.614700  1.0  0.907
  Li  Li6  1  0.211700  0.315100  0.614700  1.0  0.907
  Li  Li7  1  0.288300  0.815100  0.385300  1.0  0.9079
  Li  Li8  1  0.788300  0.315100  0.385300  1.0  0.9079
  Zn  Zn9  1  0.354230  0.268960  0.236990  1.0  0.9787
  Zn  Zn10  1  0.854230  0.768960  0.236990  1.0  0.9787
  Zn  Zn11  1  0.645770  0.268960  0.763010  1.0  0.9799
  Zn  Zn12  1  0.145770  0.768960  0.763010  1.0  0.9799
  Zn  Zn13  1  0.645770  0.731040  0.763010  1.0  0.9803
  Zn  Zn14  1  0.145770  0.231040  0.763010  1.0  0.9803
  Zn  Zn15  1  0.354230  0.731040  0.236990  1.0  0.9791
  Zn  Zn16  1  0.854230  0.231040  0.236990  1.0  0.9791
  H  H17  1  0.259800  0.209760  0.854550  1.0  0.1112
  H  H18  1  0.211950  0.053430  0.532290  1.0  0.1142
  H  H19  1  0.294280  0.053660  0.180640  1.0  0.1081
  H  H20  1  0.377840  0.053790  0.335690  1.0  0.1037
  H  H21  1  0.466300  0.345330  0.066850  1.0  0.1171
  H  H22  1  0.759800  0.709760  0.854550  1.0  0.1112
  H  H23  1  0.711950  0.553430  0.532290  1.0  0.1142
  H  H24  1  0.794280  0.553660  0.180640  1.0  0.1081
  H  H25  1  0.877840  0.553790  0.335690  1.0  0.1037
  H  H26  1  0.966300  0.845330  0.066850  1.0  0.1171
  H  H27  1  0.740200  0.209760  0.145450  1.0  0.1113
  H  H28  1  0.788050  0.053430  0.467710  1.0  0.1133
  H  H29  1  0.705720  0.053660  0.819360  1.0  0.1082
  H  H30  1  0.622160  0.053790  0.664310  1.0  0.1036
  H  H31  1  0.533700  0.345330  0.933150  1.0  0.1176
  H  H32  1  0.240200  0.709760  0.145450  1.0  0.1113
  H  H33  1  0.288050  0.553430  0.467710  1.0  0.1133
  H  H34  1  0.205720  0.553660  0.819360  1.0  0.1082
  H  H35  1  0.122160  0.553790  0.664310  1.0  0.1036
  H  H36  1  0.033700  0.845330  0.933150  1.0  0.1176
  H  H37  1  0.740200  0.790240  0.145450  1.0  0.1116
  H  H38  1  0.788050  0.946570  0.467710  1.0  0.1137
  H  H39  1  0.705720  0.946330  0.819360  1.0  0.108
  H  H40  1  0.622160  0.946210  0.664310  1.0  0.1031
  H  H41  1  0.533700  0.654670  0.933150  1.0  0.118
  H  H42  1  0.240200  0.290240  0.145450  1.0  0.1116
  H  H43  1  0.288050  0.446570  0.467710  1.0  0.1137
  H  H44  1  0.205720  0.446330  0.819360  1.0  0.108
  H  H45  1  0.122160  0.446210  0.664310  1.0  0.1031
  H  H46  1  0.033700  0.154670  0.933150  1.0  0.118
  H  H47  1  0.259800  0.790240  0.854550  1.0  0.1112
  H  H48  1  0.211950  0.946570  0.532290  1.0  0.1145
  H  H49  1  0.294280  0.946330  0.180640  1.0  0.1077
  H  H50  1  0.377840  0.946210  0.335690  1.0  0.1028
  H  H51  1  0.466300  0.654670  0.066850  1.0  0.1175
  H  H52  1  0.759800  0.290240  0.854550  1.0  0.1112
  H  H53  1  0.711950  0.446570  0.532290  1.0  0.1145
  H  H54  1  0.794280  0.446330  0.180640  1.0  0.1077
  H  H55  1  0.877840  0.446210  0.335690  1.0  0.1028
  H  H56  1  0.966300  0.154670  0.066850  1.0  0.1175
  H  H57  1  0.500000  0.209700  0.500000  1.0  0.122
  H  H58  1  0.000000  0.709700  0.500000  1.0  0.122
  H  H59  1  0.500000  0.790300  0.500000  1.0  0.1227
  H  H60  1  0.000000  0.290300  0.500000  1.0  0.1227
  H  H61  1  0.378990  0.500000  0.289680  1.0  0.1003
  H  H62  1  0.878990  0.000000  0.289680  1.0  0.1003
  H  H63  1  0.621010  0.500000  0.710320  1.0  0.1004
  H  H64  1  0.121010  0.000000  0.710320  1.0  0.1004
  C  C65  1  0.288000  0.172200  0.098200  1.0  0.7335
  C  C66  1  0.271900  0.133400  0.975100  1.0  -0.0958
  C  C67  1  0.257900  0.165100  0.855400  1.0  -0.1092
  C  C68  1  0.241000  0.133500  0.736500  1.0  -0.0887
  C  C69  1  0.226300  0.173800  0.614600  1.0  0.7339
  C  C70  1  0.239900  0.067200  0.734000  1.0  0.0612
  C  C71  1  0.223200  0.031600  0.613600  1.0  -0.1181
  C  C72  1  0.284300  0.031900  0.098600  1.0  -0.0991
  C  C73  1  0.269900  0.067000  0.979500  1.0  0.0696
  C  C74  1  0.254300  0.033800  0.856300  1.0  0.0371
  C  C75  1  0.406200  0.172000  0.388100  1.0  0.737
  C  C76  1  0.454800  0.133200  0.442700  1.0  -0.0402
  C  C77  1  0.408500  0.031900  0.378100  1.0  -0.124
  C  C78  1  0.453800  0.067300  0.440800  1.0  -0.018
  C  C79  1  0.397100  0.384000  0.232100  1.0  0.7279
  C  C80  1  0.419900  0.442900  0.178500  1.0  -0.1057
  C  C81  1  0.480500  0.384300  0.040500  1.0  -0.0993
  C  C82  1  0.459900  0.441900  0.087400  1.0  0.0432
  C  C83  1  0.788000  0.672200  0.098200  1.0  0.7335
  C  C84  1  0.771900  0.633400  0.975100  1.0  -0.0958
  C  C85  1  0.757900  0.665100  0.855400  1.0  -0.1092
  C  C86  1  0.741000  0.633500  0.736500  1.0  -0.0887
  C  C87  1  0.726300  0.673800  0.614600  1.0  0.7339
  C  C88  1  0.739900  0.567200  0.734000  1.0  0.0612
  C  C89  1  0.723200  0.531600  0.613600  1.0  -0.1181
  C  C90  1  0.784300  0.531900  0.098600  1.0  -0.0991
  C  C91  1  0.769900  0.567000  0.979500  1.0  0.0696
  C  C92  1  0.754300  0.533800  0.856300  1.0  0.0371
  C  C93  1  0.906200  0.672000  0.388100  1.0  0.737
  C  C94  1  0.954800  0.633200  0.442700  1.0  -0.0402
  C  C95  1  0.908500  0.531900  0.378100  1.0  -0.124
  C  C96  1  0.953800  0.567300  0.440800  1.0  -0.018
  C  C97  1  0.897100  0.884000  0.232100  1.0  0.7279
  C  C98  1  0.919900  0.942900  0.178500  1.0  -0.1057
  C  C99  1  0.980500  0.884300  0.040500  1.0  -0.0993
  C  C100  1  0.959900  0.941900  0.087400  1.0  0.0432
  C  C101  1  0.712000  0.172200  0.901800  1.0  0.7339
  C  C102  1  0.728100  0.133400  0.024900  1.0  -0.0966
  C  C103  1  0.742100  0.165100  0.144600  1.0  -0.1118
  C  C104  1  0.759000  0.133500  0.263500  1.0  -0.0898
  C  C105  1  0.773700  0.173800  0.385400  1.0  0.7333
  C  C106  1  0.760100  0.067200  0.266000  1.0  0.0611
  C  C107  1  0.776800  0.031600  0.386400  1.0  -0.117
  C  C108  1  0.715700  0.031900  0.901400  1.0  -0.0996
  C  C109  1  0.730100  0.067000  0.020500  1.0  0.0692
  C  C110  1  0.745700  0.033800  0.143700  1.0  0.037
  C  C111  1  0.593800  0.172000  0.611900  1.0  0.7361
  C  C112  1  0.545200  0.133200  0.557300  1.0  -0.0393
  C  C113  1  0.591500  0.031900  0.621900  1.0  -0.1215
  C  C114  1  0.546200  0.067300  0.559200  1.0  -0.0176
  C  C115  1  0.602900  0.384000  0.767900  1.0  0.7274
  C  C116  1  0.580100  0.442900  0.821500  1.0  -0.1066
  C  C117  1  0.519500  0.384300  0.959500  1.0  -0.0998
  C  C118  1  0.540100  0.441900  0.912600  1.0  0.0443
  C  C119  1  0.212000  0.672200  0.901800  1.0  0.7339
  C  C120  1  0.228100  0.633400  0.024900  1.0  -0.0966
  C  C121  1  0.242100  0.665100  0.144600  1.0  -0.1118
  C  C122  1  0.259000  0.633500  0.263500  1.0  -0.0898
  C  C123  1  0.273700  0.673800  0.385400  1.0  0.7333
  C  C124  1  0.260100  0.567200  0.266000  1.0  0.0611
  C  C125  1  0.276800  0.531600  0.386400  1.0  -0.117
  C  C126  1  0.215700  0.531900  0.901400  1.0  -0.0996
  C  C127  1  0.230100  0.567000  0.020500  1.0  0.0692
  C  C128  1  0.245700  0.533800  0.143700  1.0  0.037
  C  C129  1  0.093800  0.672000  0.611900  1.0  0.7361
  C  C130  1  0.045200  0.633200  0.557300  1.0  -0.0393
  C  C131  1  0.091500  0.531900  0.621900  1.0  -0.1215
  C  C132  1  0.046200  0.567300  0.559200  1.0  -0.0176
  C  C133  1  0.102900  0.884000  0.767900  1.0  0.7274
  C  C134  1  0.080100  0.942900  0.821500  1.0  -0.1066
  C  C135  1  0.019500  0.884300  0.959500  1.0  -0.0998
  C  C136  1  0.040100  0.941900  0.912600  1.0  0.0443
  C  C137  1  0.712000  0.827800  0.901800  1.0  0.7337
  C  C138  1  0.728100  0.866600  0.024900  1.0  -0.0966
  C  C139  1  0.742100  0.834900  0.144600  1.0  -0.1112
  C  C140  1  0.759000  0.866500  0.263500  1.0  -0.0899
  C  C141  1  0.773700  0.826200  0.385400  1.0  0.7331
  C  C142  1  0.760100  0.932800  0.266000  1.0  0.0611
  C  C143  1  0.776800  0.968400  0.386400  1.0  -0.117
  C  C144  1  0.715700  0.968100  0.901400  1.0  -0.1024
  C  C145  1  0.730100  0.933000  0.020500  1.0  0.069
  C  C146  1  0.745700  0.966200  0.143700  1.0  0.037
  C  C147  1  0.593800  0.828000  0.611900  1.0  0.7363
  C  C148  1  0.545200  0.866800  0.557300  1.0  -0.0396
  C  C149  1  0.591500  0.968100  0.621900  1.0  -0.1214
  C  C150  1  0.546200  0.932700  0.559200  1.0  -0.018
  C  C151  1  0.602900  0.616000  0.767900  1.0  0.728
  C  C152  1  0.580100  0.557100  0.821500  1.0  -0.1063
  C  C153  1  0.519500  0.615700  0.959500  1.0  -0.0992
  C  C154  1  0.540100  0.558100  0.912600  1.0  0.0446
  C  C155  1  0.212000  0.327800  0.901800  1.0  0.7337
  C  C156  1  0.228100  0.366600  0.024900  1.0  -0.0966
  C  C157  1  0.242100  0.334900  0.144600  1.0  -0.1112
  C  C158  1  0.259000  0.366500  0.263500  1.0  -0.0899
  C  C159  1  0.273700  0.326200  0.385400  1.0  0.7331
  C  C160  1  0.260100  0.432800  0.266000  1.0  0.0611
  C  C161  1  0.276800  0.468400  0.386400  1.0  -0.117
  C  C162  1  0.215700  0.468100  0.901400  1.0  -0.1024
  C  C163  1  0.230100  0.433000  0.020500  1.0  0.069
  C  C164  1  0.245700  0.466200  0.143700  1.0  0.037
  C  C165  1  0.093800  0.328000  0.611900  1.0  0.7363
  C  C166  1  0.045200  0.366800  0.557300  1.0  -0.0396
  C  C167  1  0.091500  0.468100  0.621900  1.0  -0.1214
  C  C168  1  0.046200  0.432700  0.559200  1.0  -0.018
  C  C169  1  0.102900  0.116000  0.767900  1.0  0.728
  C  C170  1  0.080100  0.057100  0.821500  1.0  -0.1063
  C  C171  1  0.019500  0.115700  0.959500  1.0  -0.0992
  C  C172  1  0.040100  0.058100  0.912600  1.0  0.0446
  C  C173  1  0.288000  0.827800  0.098200  1.0  0.7333
  C  C174  1  0.271900  0.866600  0.975100  1.0  -0.0961
  C  C175  1  0.257900  0.834900  0.855400  1.0  -0.1086
  C  C176  1  0.241000  0.866500  0.736500  1.0  -0.0886
  C  C177  1  0.226300  0.826200  0.614600  1.0  0.734
  C  C178  1  0.239900  0.932800  0.734000  1.0  0.0611
  C  C179  1  0.223200  0.968400  0.613600  1.0  -0.1181
  C  C180  1  0.284300  0.968100  0.098600  1.0  -0.1024
  C  C181  1  0.269900  0.933000  0.979500  1.0  0.0695
  C  C182  1  0.254300  0.966200  0.856300  1.0  0.0372
  C  C183  1  0.406200  0.828000  0.388100  1.0  0.7374
  C  C184  1  0.454800  0.866800  0.442700  1.0  -0.041
  C  C185  1  0.408500  0.968100  0.378100  1.0  -0.1241
  C  C186  1  0.453800  0.932700  0.440800  1.0  -0.0182
  C  C187  1  0.397100  0.616000  0.232100  1.0  0.727
  C  C188  1  0.419900  0.557100  0.178500  1.0  -0.1056
  C  C189  1  0.480500  0.615700  0.040500  1.0  -0.1
  C  C190  1  0.459900  0.558100  0.087400  1.0  0.0431
  C  C191  1  0.788000  0.327800  0.098200  1.0  0.7333
  C  C192  1  0.771900  0.366600  0.975100  1.0  -0.0961
  C  C193  1  0.757900  0.334900  0.855400  1.0  -0.1086
  C  C194  1  0.741000  0.366500  0.736500  1.0  -0.0886
  C  C195  1  0.726300  0.326200  0.614600  1.0  0.734
  C  C196  1  0.739900  0.432800  0.734000  1.0  0.0611
  C  C197  1  0.723200  0.468400  0.613600  1.0  -0.1181
  C  C198  1  0.784300  0.468100  0.098600  1.0  -0.1024
  C  C199  1  0.769900  0.433000  0.979500  1.0  0.0695
  C  C200  1  0.754300  0.466200  0.856300  1.0  0.0372
  C  C201  1  0.906200  0.328000  0.388100  1.0  0.7374
  C  C202  1  0.954800  0.366800  0.442700  1.0  -0.041
  C  C203  1  0.908500  0.468100  0.378100  1.0  -0.1241
  C  C204  1  0.953800  0.432700  0.440800  1.0  -0.0182
  C  C205  1  0.897100  0.116000  0.232100  1.0  0.727
  C  C206  1  0.919900  0.057100  0.178500  1.0  -0.1056
  C  C207  1  0.980500  0.115700  0.040500  1.0  -0.1
  C  C208  1  0.959900  0.058100  0.087400  1.0  0.0431
  C  C209  1  0.500000  0.165000  0.500000  1.0  0.0095
  C  C210  1  0.500000  0.033700  0.500000  1.0  0.0311
  C  C211  1  0.000000  0.665000  0.500000  1.0  0.0095
  C  C212  1  0.000000  0.533700  0.500000  1.0  0.0311
  C  C213  1  0.500000  0.835000  0.500000  1.0  0.0093
  C  C214  1  0.500000  0.966300  0.500000  1.0  0.0311
  C  C215  1  0.000000  0.335000  0.500000  1.0  0.0093
  C  C216  1  0.000000  0.466300  0.500000  1.0  0.0311
  C  C217  1  0.403200  0.500000  0.223900  1.0  -0.0329
  C  C218  1  0.479500  0.500000  0.044500  1.0  0.0398
  C  C219  1  0.903200  0.000000  0.223900  1.0  -0.0329
  C  C220  1  0.979500  0.000000  0.044500  1.0  0.0398
  C  C221  1  0.596800  0.500000  0.776100  1.0  -0.0323
  C  C222  1  0.520500  0.500000  0.955500  1.0  0.04
  C  C223  1  0.096800  0.000000  0.776100  1.0  -0.0323
  C  C224  1  0.020500  0.000000  0.955500  1.0  0.04
  O  O225  1  0.322320  0.214960  0.087300  1.0  -0.5974
  O  O226  1  0.265800  0.161830  0.201900  1.0  -0.5807
  O  O227  1  0.198360  0.223320  0.630800  1.0  -0.6887
  O  O228  1  0.242470  0.160550  0.506700  1.0  -0.6462
  O  O229  1  0.416110  0.221170  0.323800  1.0  -0.5974
  O  O230  1  0.360920  0.155500  0.409800  1.0  -0.6008
  O  O231  1  0.380350  0.341610  0.146000  1.0  -0.596
  O  O232  1  0.394700  0.378900  0.353100  1.0  -0.5121
  O  O233  1  0.822320  0.714960  0.087300  1.0  -0.5974
  O  O234  1  0.765800  0.661830  0.201900  1.0  -0.5807
  O  O235  1  0.698360  0.723320  0.630800  1.0  -0.6887
  O  O236  1  0.742470  0.660550  0.506700  1.0  -0.6462
  O  O237  1  0.916110  0.721170  0.323800  1.0  -0.5974
  O  O238  1  0.860920  0.655500  0.409800  1.0  -0.6008
  O  O239  1  0.880350  0.841610  0.146000  1.0  -0.596
  O  O240  1  0.894700  0.878900  0.353100  1.0  -0.5121
  O  O241  1  0.677680  0.214960  0.912700  1.0  -0.5972
  O  O242  1  0.734200  0.161830  0.798100  1.0  -0.5813
  O  O243  1  0.801640  0.223320  0.369200  1.0  -0.688
  O  O244  1  0.757530  0.160550  0.493300  1.0  -0.6478
  O  O245  1  0.583890  0.221170  0.676200  1.0  -0.5989
  O  O246  1  0.639080  0.155500  0.590200  1.0  -0.6005
  O  O247  1  0.619650  0.341610  0.854000  1.0  -0.597
  O  O248  1  0.605300  0.378900  0.646900  1.0  -0.5085
  O  O249  1  0.177680  0.714960  0.912700  1.0  -0.5972
  O  O250  1  0.234200  0.661830  0.798100  1.0  -0.5813
  O  O251  1  0.301640  0.723320  0.369200  1.0  -0.688
  O  O252  1  0.257530  0.660550  0.493300  1.0  -0.6478
  O  O253  1  0.083890  0.721170  0.676200  1.0  -0.5989
  O  O254  1  0.139080  0.655500  0.590200  1.0  -0.6005
  O  O255  1  0.119650  0.841610  0.854000  1.0  -0.597
  O  O256  1  0.105300  0.878900  0.646900  1.0  -0.5085
  O  O257  1  0.677680  0.785040  0.912700  1.0  -0.5967
  O  O258  1  0.734200  0.838170  0.798100  1.0  -0.5818
  O  O259  1  0.801640  0.776680  0.369200  1.0  -0.6879
  O  O260  1  0.757530  0.839450  0.493300  1.0  -0.6474
  O  O261  1  0.583890  0.778830  0.676200  1.0  -0.5977
  O  O262  1  0.639080  0.844500  0.590200  1.0  -0.6001
  O  O263  1  0.619650  0.658390  0.854000  1.0  -0.5971
  O  O264  1  0.605300  0.621100  0.646900  1.0  -0.5081
  O  O265  1  0.177680  0.285040  0.912700  1.0  -0.5967
  O  O266  1  0.234200  0.338170  0.798100  1.0  -0.5818
  O  O267  1  0.301640  0.276680  0.369200  1.0  -0.6879
  O  O268  1  0.257530  0.339450  0.493300  1.0  -0.6474
  O  O269  1  0.083890  0.278830  0.676200  1.0  -0.5977
  O  O270  1  0.139080  0.344500  0.590200  1.0  -0.6001
  O  O271  1  0.119650  0.158390  0.854000  1.0  -0.5971
  O  O272  1  0.105300  0.121100  0.646900  1.0  -0.5081
  O  O273  1  0.322320  0.785040  0.087300  1.0  -0.5975
  O  O274  1  0.265800  0.838170  0.201900  1.0  -0.5813
  O  O275  1  0.198360  0.776680  0.630800  1.0  -0.6897
  O  O276  1  0.242470  0.839450  0.506700  1.0  -0.646
  O  O277  1  0.416110  0.778830  0.323800  1.0  -0.5967
  O  O278  1  0.360920  0.844500  0.409800  1.0  -0.6005
  O  O279  1  0.380350  0.658390  0.146000  1.0  -0.5959
  O  O280  1  0.394700  0.621100  0.353100  1.0  -0.5122
  O  O281  1  0.822320  0.285040  0.087300  1.0  -0.5975
  O  O282  1  0.765800  0.338170  0.201900  1.0  -0.5813
  O  O283  1  0.698360  0.276680  0.630800  1.0  -0.6897
  O  O284  1  0.742470  0.339450  0.506700  1.0  -0.646
  O  O285  1  0.916110  0.278830  0.323800  1.0  -0.5967
  O  O286  1  0.860920  0.344500  0.409800  1.0  -0.6005
  O  O287  1  0.880350  0.158390  0.146000  1.0  -0.5959
  O  O288  1  0.894700  0.121100  0.353100  1.0  -0.5122
