# generated using pymatgen
data_Fe3H9C24N3O13
_symmetry_space_group_name_H-M   'P 1'
_cell_length_a   21.95240000
_cell_length_b   21.95240000
_cell_length_c   21.95240000
_cell_angle_alpha   90.00000000
_cell_angle_beta   90.00000000
_cell_angle_gamma   90.00000000
_symmetry_Int_Tables_number   1
_chemical_formula_structural   Fe3H9C24N3O13
_chemical_formula_sum   'Fe24 H72 C192 N24 O104'
_cell_volume   10579.03423231
_cell_formula_units_Z   8
loop_
 _symmetry_equiv_pos_site_id
 _symmetry_equiv_pos_as_xyz
  1  'x, y, z'
loop_
 _atom_site_type_symbol
 _atom_site_label
 _atom_site_symmetry_multiplicity
 _atom_site_fract_x
 _atom_site_fract_y
 _atom_site_fract_z
 _atom_site_occupancy
 _atom_site_charge
  Fe  Fe1  1  0.760660  0.303440  0.179570  1.0  1.203
  Fe  Fe2  1  0.239340  0.696560  0.179570  1.0  1.2013
  Fe  Fe3  1  0.239340  0.303440  0.820430  1.0  1.2025
  Fe  Fe4  1  0.760660  0.696560  0.820430  1.0  1.201
  Fe  Fe5  1  0.179570  0.760660  0.303440  1.0  1.2005
  Fe  Fe6  1  0.179570  0.239340  0.696560  1.0  1.2025
  Fe  Fe7  1  0.820430  0.239340  0.303440  1.0  1.1992
  Fe  Fe8  1  0.820430  0.760660  0.696560  1.0  1.1989
  Fe  Fe9  1  0.303440  0.179570  0.760660  1.0  1.1993
  Fe  Fe10  1  0.696560  0.179570  0.239340  1.0  1.2022
  Fe  Fe11  1  0.303440  0.820430  0.239340  1.0  1.2024
  Fe  Fe12  1  0.696560  0.820430  0.760660  1.0  1.2044
  Fe  Fe13  1  0.803440  0.260660  0.679570  1.0  1.199
  Fe  Fe14  1  0.196560  0.739340  0.679570  1.0  1.2025
  Fe  Fe15  1  0.803440  0.739340  0.320430  1.0  1.1997
  Fe  Fe16  1  0.196560  0.260660  0.320430  1.0  1.2006
  Fe  Fe17  1  0.260660  0.679570  0.803440  1.0  1.2005
  Fe  Fe18  1  0.739340  0.679570  0.196560  1.0  1.2012
  Fe  Fe19  1  0.739340  0.320430  0.803440  1.0  1.2023
  Fe  Fe20  1  0.260660  0.320430  0.196560  1.0  1.203
  Fe  Fe21  1  0.679570  0.803440  0.260660  1.0  1.2046
  Fe  Fe22  1  0.679570  0.196560  0.739340  1.0  1.2025
  Fe  Fe23  1  0.320430  0.803440  0.739340  1.0  1.2023
  Fe  Fe24  1  0.320430  0.196560  0.260660  1.0  1.1996
  H  H25  1  0.723900  0.244400  0.991300  1.0  0.1313
  H  H26  1  0.691500  0.093800  0.892600  1.0  0.1487
  H  H27  1  0.701800  0.084200  0.075500  1.0  0.134
  H  H28  1  0.276100  0.755600  0.991300  1.0  0.1317
  H  H29  1  0.308500  0.906200  0.892600  1.0  0.148
  H  H30  1  0.298200  0.915800  0.075500  1.0  0.1347
  H  H31  1  0.276100  0.244400  0.008700  1.0  0.1315
  H  H32  1  0.308500  0.093800  0.107400  1.0  0.1482
  H  H33  1  0.298200  0.084200  0.924500  1.0  0.1341
  H  H34  1  0.723900  0.755600  0.008700  1.0  0.1316
  H  H35  1  0.691500  0.906200  0.107400  1.0  0.1483
  H  H36  1  0.701800  0.915800  0.924500  1.0  0.1336
  H  H37  1  0.991300  0.723900  0.244400  1.0  0.1309
  H  H38  1  0.892600  0.691500  0.093800  1.0  0.1473
  H  H39  1  0.075500  0.701800  0.084200  1.0  0.1336
  H  H40  1  0.991300  0.276100  0.755600  1.0  0.1307
  H  H41  1  0.892600  0.308500  0.906200  1.0  0.1473
  H  H42  1  0.075500  0.298200  0.915800  1.0  0.1344
  H  H43  1  0.008700  0.276100  0.244400  1.0  0.1308
  H  H44  1  0.107400  0.308500  0.093800  1.0  0.1469
  H  H45  1  0.924500  0.298200  0.084200  1.0  0.1332
  H  H46  1  0.008700  0.723900  0.755600  1.0  0.1307
  H  H47  1  0.107400  0.691500  0.906200  1.0  0.147
  H  H48  1  0.924500  0.701800  0.915800  1.0  0.1334
  H  H49  1  0.244400  0.991300  0.723900  1.0  0.1294
  H  H50  1  0.093800  0.892600  0.691500  1.0  0.1465
  H  H51  1  0.084200  0.075500  0.701800  1.0  0.1334
  H  H52  1  0.755600  0.991300  0.276100  1.0  0.1305
  H  H53  1  0.906200  0.892600  0.308500  1.0  0.1465
  H  H54  1  0.915800  0.075500  0.298200  1.0  0.1337
  H  H55  1  0.244400  0.008700  0.276100  1.0  0.13
  H  H56  1  0.093800  0.107400  0.308500  1.0  0.1471
  H  H57  1  0.084200  0.924500  0.298200  1.0  0.1335
  H  H58  1  0.755600  0.008700  0.723900  1.0  0.13
  H  H59  1  0.906200  0.107400  0.691500  1.0  0.1465
  H  H60  1  0.915800  0.924500  0.701800  1.0  0.1339
  H  H61  1  0.744400  0.223900  0.491300  1.0  0.1295
  H  H62  1  0.593800  0.191500  0.392600  1.0  0.1481
  H  H63  1  0.584200  0.201800  0.575500  1.0  0.1346
  H  H64  1  0.255600  0.776100  0.491300  1.0  0.13
  H  H65  1  0.406200  0.808500  0.392600  1.0  0.1477
  H  H66  1  0.415800  0.798200  0.575500  1.0  0.1349
  H  H67  1  0.744400  0.776100  0.508700  1.0  0.1297
  H  H68  1  0.593800  0.808500  0.607400  1.0  0.148
  H  H69  1  0.584200  0.798200  0.424500  1.0  0.1344
  H  H70  1  0.255600  0.223900  0.508700  1.0  0.1301
  H  H71  1  0.406200  0.191500  0.607400  1.0  0.1477
  H  H72  1  0.415800  0.201800  0.424500  1.0  0.1345
  H  H73  1  0.223900  0.491300  0.744400  1.0  0.1309
  H  H74  1  0.191500  0.392600  0.593800  1.0  0.1468
  H  H75  1  0.201800  0.575500  0.584200  1.0  0.1326
  H  H76  1  0.776100  0.491300  0.255600  1.0  0.1309
  H  H77  1  0.808500  0.392600  0.406200  1.0  0.1468
  H  H78  1  0.798200  0.575500  0.415800  1.0  0.134
  H  H79  1  0.776100  0.508700  0.744400  1.0  0.1311
  H  H80  1  0.808500  0.607400  0.593800  1.0  0.147
  H  H81  1  0.798200  0.424500  0.584200  1.0  0.1333
  H  H82  1  0.223900  0.508700  0.255600  1.0  0.1307
  H  H83  1  0.191500  0.607400  0.406200  1.0  0.147
  H  H84  1  0.201800  0.424500  0.415800  1.0  0.1335
  H  H85  1  0.491300  0.744400  0.223900  1.0  0.1313
  H  H86  1  0.392600  0.593800  0.191500  1.0  0.1474
  H  H87  1  0.575500  0.584200  0.201800  1.0  0.1337
  H  H88  1  0.491300  0.255600  0.776100  1.0  0.1317
  H  H89  1  0.392600  0.406200  0.808500  1.0  0.1476
  H  H90  1  0.575500  0.415800  0.798200  1.0  0.134
  H  H91  1  0.508700  0.744400  0.776100  1.0  0.1314
  H  H92  1  0.607400  0.593800  0.808500  1.0  0.1472
  H  H93  1  0.424500  0.584200  0.798200  1.0  0.1333
  H  H94  1  0.508700  0.255600  0.223900  1.0  0.1314
  H  H95  1  0.607400  0.406200  0.191500  1.0  0.147
  H  H96  1  0.424500  0.415800  0.201800  1.0  0.1334
  C  C97  1  0.721810  0.197300  0.104260  1.0  0.7452
  C  C98  1  0.706100  0.209000  0.874630  1.0  0.75
  C  C99  1  0.715900  0.202800  0.989460  1.0  0.0331
  C  C100  1  0.713500  0.168900  0.042740  1.0  -0.1428
  C  C101  1  0.706200  0.175000  0.933280  1.0  -0.147
  C  C102  1  0.697100  0.112800  0.930050  1.0  -0.0743
  C  C103  1  0.696400  0.079400  0.983700  1.0  0.1105
  C  C104  1  0.703600  0.107200  0.040000  1.0  -0.0238
  C  C105  1  0.278190  0.802700  0.104260  1.0  0.745
  C  C106  1  0.293900  0.791000  0.874630  1.0  0.7499
  C  C107  1  0.284100  0.797200  0.989460  1.0  0.0352
  C  C108  1  0.286500  0.831100  0.042740  1.0  -0.1421
  C  C109  1  0.293800  0.825000  0.933280  1.0  -0.1473
  C  C110  1  0.302900  0.887200  0.930050  1.0  -0.0744
  C  C111  1  0.303600  0.920600  0.983700  1.0  0.1108
  C  C112  1  0.296400  0.892800  0.040000  1.0  -0.0243
  C  C113  1  0.278190  0.197300  0.895740  1.0  0.7454
  C  C114  1  0.293900  0.209000  0.125370  1.0  0.7498
  C  C115  1  0.284100  0.202800  0.010540  1.0  0.0328
  C  C116  1  0.286500  0.168900  0.957260  1.0  -0.1425
  C  C117  1  0.293800  0.175000  0.066720  1.0  -0.147
  C  C118  1  0.302900  0.112800  0.069950  1.0  -0.0745
  C  C119  1  0.303600  0.079400  0.016300  1.0  0.1109
  C  C120  1  0.296400  0.107200  0.960000  1.0  -0.0236
  C  C121  1  0.721810  0.802700  0.895740  1.0  0.7452
  C  C122  1  0.706100  0.791000  0.125370  1.0  0.7491
  C  C123  1  0.715900  0.797200  0.010540  1.0  0.0355
  C  C124  1  0.713500  0.831100  0.957260  1.0  -0.1426
  C  C125  1  0.706200  0.825000  0.066720  1.0  -0.1468
  C  C126  1  0.697100  0.887200  0.069950  1.0  -0.0747
  C  C127  1  0.696400  0.920600  0.016300  1.0  0.1098
  C  C128  1  0.703600  0.892800  0.960000  1.0  -0.0231
  C  C129  1  0.104260  0.721810  0.197300  1.0  0.7454
  C  C130  1  0.874630  0.706100  0.209000  1.0  0.7507
  C  C131  1  0.989460  0.715900  0.202800  1.0  0.0365
  C  C132  1  0.042740  0.713500  0.168900  1.0  -0.1426
  C  C133  1  0.933280  0.706200  0.175000  1.0  -0.1475
  C  C134  1  0.930050  0.697100  0.112800  1.0  -0.0714
  C  C135  1  0.983700  0.696400  0.079400  1.0  0.1109
  C  C136  1  0.040000  0.703600  0.107200  1.0  -0.0246
  C  C137  1  0.104260  0.278190  0.802700  1.0  0.7449
  C  C138  1  0.874630  0.293900  0.791000  1.0  0.7507
  C  C139  1  0.989460  0.284100  0.797200  1.0  0.0364
  C  C140  1  0.042740  0.286500  0.831100  1.0  -0.1427
  C  C141  1  0.933280  0.293800  0.825000  1.0  -0.1476
  C  C142  1  0.930050  0.302900  0.887200  1.0  -0.0704
  C  C143  1  0.983700  0.303600  0.920600  1.0  0.1082
  C  C144  1  0.040000  0.296400  0.892800  1.0  -0.0251
  C  C145  1  0.895740  0.278190  0.197300  1.0  0.7457
  C  C146  1  0.125370  0.293900  0.209000  1.0  0.7495
  C  C147  1  0.010540  0.284100  0.202800  1.0  0.0369
  C  C148  1  0.957260  0.286500  0.168900  1.0  -0.142
  C  C149  1  0.066720  0.293800  0.175000  1.0  -0.1473
  C  C150  1  0.069950  0.302900  0.112800  1.0  -0.0691
  C  C151  1  0.016300  0.303600  0.079400  1.0  0.1113
  C  C152  1  0.960000  0.296400  0.107200  1.0  -0.0236
  C  C153  1  0.895740  0.721810  0.802700  1.0  0.7457
  C  C154  1  0.125370  0.706100  0.791000  1.0  0.7504
  C  C155  1  0.010540  0.715900  0.797200  1.0  0.0353
  C  C156  1  0.957260  0.713500  0.831100  1.0  -0.1423
  C  C157  1  0.066720  0.706200  0.825000  1.0  -0.1474
  C  C158  1  0.069950  0.697100  0.887200  1.0  -0.0678
  C  C159  1  0.016300  0.696400  0.920600  1.0  0.1083
  C  C160  1  0.960000  0.703600  0.892800  1.0  -0.0239
  C  C161  1  0.197300  0.104260  0.721810  1.0  0.746
  C  C162  1  0.209000  0.874630  0.706100  1.0  0.7505
  C  C163  1  0.202800  0.989460  0.715900  1.0  0.0337
  C  C164  1  0.168900  0.042740  0.713500  1.0  -0.1421
  C  C165  1  0.175000  0.933280  0.706200  1.0  -0.1461
  C  C166  1  0.112800  0.930050  0.697100  1.0  -0.0718
  C  C167  1  0.079400  0.983700  0.696400  1.0  0.1108
  C  C168  1  0.107200  0.040000  0.703600  1.0  -0.0231
  C  C169  1  0.802700  0.104260  0.278190  1.0  0.7464
  C  C170  1  0.791000  0.874630  0.293900  1.0  0.751
  C  C171  1  0.797200  0.989460  0.284100  1.0  0.0312
  C  C172  1  0.831100  0.042740  0.286500  1.0  -0.1415
  C  C173  1  0.825000  0.933280  0.293800  1.0  -0.1465
  C  C174  1  0.887200  0.930050  0.302900  1.0  -0.0711
  C  C175  1  0.920600  0.983700  0.303600  1.0  0.1112
  C  C176  1  0.892800  0.040000  0.296400  1.0  -0.0232
  C  C177  1  0.197300  0.895740  0.278190  1.0  0.7454
  C  C178  1  0.209000  0.125370  0.293900  1.0  0.7513
  C  C179  1  0.202800  0.010540  0.284100  1.0  0.0337
  C  C180  1  0.168900  0.957260  0.286500  1.0  -0.1415
  C  C181  1  0.175000  0.066720  0.293800  1.0  -0.1466
  C  C182  1  0.112800  0.069950  0.302900  1.0  -0.0715
  C  C183  1  0.079400  0.016300  0.303600  1.0  0.111
  C  C184  1  0.107200  0.960000  0.296400  1.0  -0.0234
  C  C185  1  0.802700  0.895740  0.721810  1.0  0.7459
  C  C186  1  0.791000  0.125370  0.706100  1.0  0.7514
  C  C187  1  0.797200  0.010540  0.715900  1.0  0.0311
  C  C188  1  0.831100  0.957260  0.713500  1.0  -0.1412
  C  C189  1  0.825000  0.066720  0.706200  1.0  -0.1467
  C  C190  1  0.887200  0.069950  0.697100  1.0  -0.071
  C  C191  1  0.920600  0.016300  0.696400  1.0  0.1111
  C  C192  1  0.892800  0.960000  0.703600  1.0  -0.0235
  C  C193  1  0.697300  0.221810  0.604260  1.0  0.7452
  C  C194  1  0.709000  0.206100  0.374630  1.0  0.751
  C  C195  1  0.702800  0.215900  0.489460  1.0  0.0332
  C  C196  1  0.668900  0.213500  0.542740  1.0  -0.1431
  C  C197  1  0.675000  0.206200  0.433280  1.0  -0.1474
  C  C198  1  0.612800  0.197100  0.430050  1.0  -0.0741
  C  C199  1  0.579400  0.196400  0.483700  1.0  0.1106
  C  C200  1  0.607200  0.203600  0.540000  1.0  -0.0259
  C  C201  1  0.302700  0.778190  0.604260  1.0  0.7454
  C  C202  1  0.291000  0.793900  0.374630  1.0  0.751
  C  C203  1  0.297200  0.784100  0.489460  1.0  0.031
  C  C204  1  0.331100  0.786500  0.542740  1.0  -0.1426
  C  C205  1  0.325000  0.793800  0.433280  1.0  -0.1474
  C  C206  1  0.387200  0.802900  0.430050  1.0  -0.0734
  C  C207  1  0.420600  0.803600  0.483700  1.0  0.111
  C  C208  1  0.392800  0.796400  0.540000  1.0  -0.0259
  C  C209  1  0.697300  0.778190  0.395740  1.0  0.745
  C  C210  1  0.709000  0.793900  0.625370  1.0  0.7504
  C  C211  1  0.702800  0.784100  0.510540  1.0  0.034
  C  C212  1  0.668900  0.786500  0.457260  1.0  -0.1429
  C  C213  1  0.675000  0.793800  0.566720  1.0  -0.147
  C  C214  1  0.612800  0.802900  0.569950  1.0  -0.075
  C  C215  1  0.579400  0.803600  0.516300  1.0  0.1109
  C  C216  1  0.607200  0.796400  0.460000  1.0  -0.0248
  C  C217  1  0.302700  0.221810  0.395740  1.0  0.7458
  C  C218  1  0.291000  0.206100  0.625370  1.0  0.7511
  C  C219  1  0.297200  0.215900  0.510540  1.0  0.0307
  C  C220  1  0.331100  0.213500  0.457260  1.0  -0.1425
  C  C221  1  0.325000  0.206200  0.566720  1.0  -0.1472
  C  C222  1  0.387200  0.197100  0.569950  1.0  -0.0733
  C  C223  1  0.420600  0.196400  0.516300  1.0  0.1107
  C  C224  1  0.392800  0.203600  0.460000  1.0  -0.0249
  C  C225  1  0.221810  0.604260  0.697300  1.0  0.7462
  C  C226  1  0.206100  0.374630  0.709000  1.0  0.7499
  C  C227  1  0.215900  0.489460  0.702800  1.0  0.0372
  C  C228  1  0.213500  0.542740  0.668900  1.0  -0.142
  C  C229  1  0.206200  0.433280  0.675000  1.0  -0.1469
  C  C230  1  0.197100  0.430050  0.612800  1.0  -0.0703
  C  C231  1  0.196400  0.483700  0.579400  1.0  0.1106
  C  C232  1  0.203600  0.540000  0.607200  1.0  -0.0238
  C  C233  1  0.778190  0.604260  0.302700  1.0  0.746
  C  C234  1  0.793900  0.374630  0.291000  1.0  0.7508
  C  C235  1  0.784100  0.489460  0.297200  1.0  0.0362
  C  C236  1  0.786500  0.542740  0.331100  1.0  -0.1418
  C  C237  1  0.793800  0.433280  0.325000  1.0  -0.1472
  C  C238  1  0.802900  0.430050  0.387200  1.0  -0.0698
  C  C239  1  0.803600  0.483700  0.420600  1.0  0.109
  C  C240  1  0.796400  0.540000  0.392800  1.0  -0.0243
  C  C241  1  0.778190  0.395740  0.697300  1.0  0.7456
  C  C242  1  0.793900  0.625370  0.709000  1.0  0.7511
  C  C243  1  0.784100  0.510540  0.702800  1.0  0.0366
  C  C244  1  0.786500  0.457260  0.668900  1.0  -0.1413
  C  C245  1  0.793800  0.566720  0.675000  1.0  -0.1475
  C  C246  1  0.802900  0.569950  0.612800  1.0  -0.071
  C  C247  1  0.803600  0.516300  0.579400  1.0  0.1115
  C  C248  1  0.796400  0.460000  0.607200  1.0  -0.0245
  C  C249  1  0.221810  0.395740  0.302700  1.0  0.7455
  C  C250  1  0.206100  0.625370  0.291000  1.0  0.7513
  C  C251  1  0.215900  0.510540  0.297200  1.0  0.0359
  C  C252  1  0.213500  0.457260  0.331100  1.0  -0.1418
  C  C253  1  0.206200  0.566720  0.325000  1.0  -0.1472
  C  C254  1  0.197100  0.569950  0.387200  1.0  -0.0692
  C  C255  1  0.196400  0.516300  0.420600  1.0  0.1078
  C  C256  1  0.203600  0.460000  0.392800  1.0  -0.0241
  C  C257  1  0.604260  0.697300  0.221810  1.0  0.7453
  C  C258  1  0.374630  0.709000  0.206100  1.0  0.7498
  C  C259  1  0.489460  0.702800  0.215900  1.0  0.0332
  C  C260  1  0.542740  0.668900  0.213500  1.0  -0.1425
  C  C261  1  0.433280  0.675000  0.206200  1.0  -0.1464
  C  C262  1  0.430050  0.612800  0.197100  1.0  -0.072
  C  C263  1  0.483700  0.579400  0.196400  1.0  0.1114
  C  C264  1  0.540000  0.607200  0.203600  1.0  -0.0227
  C  C265  1  0.604260  0.302700  0.778190  1.0  0.7449
  C  C266  1  0.374630  0.291000  0.793900  1.0  0.7495
  C  C267  1  0.489460  0.297200  0.784100  1.0  0.0357
  C  C268  1  0.542740  0.331100  0.786500  1.0  -0.1419
  C  C269  1  0.433280  0.325000  0.793800  1.0  -0.1466
  C  C270  1  0.430050  0.387200  0.802900  1.0  -0.0722
  C  C271  1  0.483700  0.420600  0.803600  1.0  0.1107
  C  C272  1  0.540000  0.392800  0.796400  1.0  -0.0223
  C  C273  1  0.395740  0.697300  0.778190  1.0  0.7457
  C  C274  1  0.625370  0.709000  0.793900  1.0  0.7492
  C  C275  1  0.510540  0.702800  0.784100  1.0  0.0329
  C  C276  1  0.457260  0.668900  0.786500  1.0  -0.1417
  C  C277  1  0.566720  0.675000  0.793800  1.0  -0.1466
  C  C278  1  0.569950  0.612800  0.802900  1.0  -0.0701
  C  C279  1  0.516300  0.579400  0.803600  1.0  0.1106
  C  C280  1  0.460000  0.607200  0.796400  1.0  -0.021
  C  C281  1  0.395740  0.302700  0.221810  1.0  0.7456
  C  C282  1  0.625370  0.291000  0.206100  1.0  0.7486
  C  C283  1  0.510540  0.297200  0.215900  1.0  0.0354
  C  C284  1  0.457260  0.331100  0.213500  1.0  -0.1417
  C  C285  1  0.566720  0.325000  0.206200  1.0  -0.1462
  C  C286  1  0.569950  0.387200  0.197100  1.0  -0.0692
  C  C287  1  0.516300  0.420600  0.196400  1.0  0.1103
  C  C288  1  0.460000  0.392800  0.203600  1.0  -0.0214
  N  N289  1  0.692600  0.013720  0.976210  1.0  -0.106
  N  N290  1  0.307400  0.986280  0.976210  1.0  -0.1053
  N  N291  1  0.307400  0.013720  0.023790  1.0  -0.1032
  N  N292  1  0.692600  0.986280  0.023790  1.0  -0.1033
  N  N293  1  0.976210  0.692600  0.013720  1.0  -0.102
  N  N294  1  0.976210  0.307400  0.986280  1.0  -0.1016
  N  N295  1  0.023790  0.307400  0.013720  1.0  -0.1017
  N  N296  1  0.023790  0.692600  0.986280  1.0  -0.1014
  N  N297  1  0.013720  0.976210  0.692600  1.0  -0.1032
  N  N298  1  0.986280  0.976210  0.307400  1.0  -0.1028
  N  N299  1  0.013720  0.023790  0.307400  1.0  -0.1035
  N  N300  1  0.986280  0.023790  0.692600  1.0  -0.1044
  N  N301  1  0.513720  0.192600  0.476210  1.0  -0.1053
  N  N302  1  0.486280  0.807400  0.476210  1.0  -0.105
  N  N303  1  0.513720  0.807400  0.523790  1.0  -0.1026
  N  N304  1  0.486280  0.192600  0.523790  1.0  -0.103
  N  N305  1  0.192600  0.476210  0.513720  1.0  -0.1034
  N  N306  1  0.807400  0.476210  0.486280  1.0  -0.1026
  N  N307  1  0.807400  0.523790  0.513720  1.0  -0.104
  N  N308  1  0.192600  0.523790  0.486280  1.0  -0.104
  N  N309  1  0.476210  0.513720  0.192600  1.0  -0.1028
  N  N310  1  0.476210  0.486280  0.807400  1.0  -0.1017
  N  N311  1  0.523790  0.513720  0.807400  1.0  -0.1022
  N  N312  1  0.523790  0.486280  0.192600  1.0  -0.1026
  O  O313  1  0.745590  0.249280  0.106900  1.0  -0.597
  O  O314  1  0.703770  0.165890  0.149200  1.0  -0.6156
  O  O315  1  0.726520  0.262600  0.874220  1.0  -0.6041
  O  O316  1  0.686170  0.181100  0.829140  1.0  -0.5887
  O  O317  1  0.254410  0.750720  0.106900  1.0  -0.5975
  O  O318  1  0.296230  0.834110  0.149200  1.0  -0.6147
  O  O319  1  0.273480  0.737400  0.874220  1.0  -0.6038
  O  O320  1  0.313830  0.818900  0.829140  1.0  -0.5883
  O  O321  1  0.254410  0.249280  0.893100  1.0  -0.5974
  O  O322  1  0.296230  0.165890  0.850800  1.0  -0.6149
  O  O323  1  0.273480  0.262600  0.125780  1.0  -0.6037
  O  O324  1  0.313830  0.181100  0.170860  1.0  -0.5897
  O  O325  1  0.745590  0.750720  0.893100  1.0  -0.5971
  O  O326  1  0.703770  0.834110  0.850800  1.0  -0.6141
  O  O327  1  0.726520  0.737400  0.125780  1.0  -0.603
  O  O328  1  0.686170  0.818900  0.170860  1.0  -0.5887
  O  O329  1  0.106900  0.745590  0.249280  1.0  -0.5978
  O  O330  1  0.149200  0.703770  0.165890  1.0  -0.6132
  O  O331  1  0.874220  0.726520  0.262600  1.0  -0.6056
  O  O332  1  0.829140  0.686170  0.181100  1.0  -0.5887
  O  O333  1  0.106900  0.254410  0.750720  1.0  -0.5965
  O  O334  1  0.149200  0.296230  0.834110  1.0  -0.6124
  O  O335  1  0.874220  0.273480  0.737400  1.0  -0.6054
  O  O336  1  0.829140  0.313830  0.818900  1.0  -0.5878
  O  O337  1  0.893100  0.254410  0.249280  1.0  -0.5965
  O  O338  1  0.850800  0.296230  0.165890  1.0  -0.6135
  O  O339  1  0.125780  0.273480  0.262600  1.0  -0.605
  O  O340  1  0.170860  0.313830  0.181100  1.0  -0.589
  O  O341  1  0.893100  0.745590  0.750720  1.0  -0.5969
  O  O342  1  0.850800  0.703770  0.834110  1.0  -0.6142
  O  O343  1  0.125780  0.726520  0.737400  1.0  -0.605
  O  O344  1  0.170860  0.686170  0.818900  1.0  -0.5893
  O  O345  1  0.249280  0.106900  0.745590  1.0  -0.5981
  O  O346  1  0.165890  0.149200  0.703770  1.0  -0.6131
  O  O347  1  0.262600  0.874220  0.726520  1.0  -0.6047
  O  O348  1  0.181100  0.829140  0.686170  1.0  -0.5887
  O  O349  1  0.750720  0.106900  0.254410  1.0  -0.5969
  O  O350  1  0.834110  0.149200  0.296230  1.0  -0.6136
  O  O351  1  0.737400  0.874220  0.273480  1.0  -0.6045
  O  O352  1  0.818900  0.829140  0.313830  1.0  -0.5905
  O  O353  1  0.249280  0.893100  0.254410  1.0  -0.5982
  O  O354  1  0.165890  0.850800  0.296230  1.0  -0.6134
  O  O355  1  0.262600  0.125780  0.273480  1.0  -0.605
  O  O356  1  0.181100  0.170860  0.313830  1.0  -0.5899
  O  O357  1  0.750720  0.893100  0.745590  1.0  -0.5981
  O  O358  1  0.834110  0.850800  0.703770  1.0  -0.6137
  O  O359  1  0.737400  0.125780  0.726520  1.0  -0.6041
  O  O360  1  0.818900  0.170860  0.686170  1.0  -0.5905
  O  O361  1  0.749280  0.245590  0.606900  1.0  -0.5979
  O  O362  1  0.665890  0.203770  0.649200  1.0  -0.6128
  O  O363  1  0.762600  0.226520  0.374220  1.0  -0.6054
  O  O364  1  0.681100  0.186170  0.329140  1.0  -0.588
  O  O365  1  0.250720  0.754410  0.606900  1.0  -0.5966
  O  O366  1  0.334110  0.796230  0.649200  1.0  -0.6126
  O  O367  1  0.237400  0.773480  0.374220  1.0  -0.6041
  O  O368  1  0.318900  0.813830  0.329140  1.0  -0.5886
  O  O369  1  0.749280  0.754410  0.393100  1.0  -0.5975
  O  O370  1  0.665890  0.796230  0.350800  1.0  -0.6119
  O  O371  1  0.762600  0.773480  0.625780  1.0  -0.6051
  O  O372  1  0.681100  0.813830  0.670860  1.0  -0.588
  O  O373  1  0.250720  0.245590  0.393100  1.0  -0.5974
  O  O374  1  0.334110  0.203770  0.350800  1.0  -0.613
  O  O375  1  0.237400  0.226520  0.625780  1.0  -0.6043
  O  O376  1  0.318900  0.186170  0.670860  1.0  -0.5898
  O  O377  1  0.245590  0.606900  0.749280  1.0  -0.5964
  O  O378  1  0.203770  0.649200  0.665890  1.0  -0.6145
  O  O379  1  0.226520  0.374220  0.762600  1.0  -0.6032
  O  O380  1  0.186170  0.329140  0.681100  1.0  -0.5889
  O  O381  1  0.754410  0.606900  0.250720  1.0  -0.5961
  O  O382  1  0.796230  0.649200  0.334110  1.0  -0.6144
  O  O383  1  0.773480  0.374220  0.237400  1.0  -0.6032
  O  O384  1  0.813830  0.329140  0.318900  1.0  -0.5897
  O  O385  1  0.754410  0.393100  0.749280  1.0  -0.5972
  O  O386  1  0.796230  0.350800  0.665890  1.0  -0.6151
  O  O387  1  0.773480  0.625780  0.762600  1.0  -0.6034
  O  O388  1  0.813830  0.670860  0.681100  1.0  -0.5895
  O  O389  1  0.245590  0.393100  0.250720  1.0  -0.5965
  O  O390  1  0.203770  0.350800  0.334110  1.0  -0.6153
  O  O391  1  0.226520  0.625780  0.237400  1.0  -0.6031
  O  O392  1  0.186170  0.670860  0.318900  1.0  -0.5902
  O  O393  1  0.606900  0.749280  0.245590  1.0  -0.5986
  O  O394  1  0.649200  0.665890  0.203770  1.0  -0.6142
  O  O395  1  0.374220  0.762600  0.226520  1.0  -0.6069
  O  O396  1  0.329140  0.681100  0.186170  1.0  -0.5893
  O  O397  1  0.606900  0.250720  0.754410  1.0  -0.5977
  O  O398  1  0.649200  0.334110  0.796230  1.0  -0.6137
  O  O399  1  0.374220  0.237400  0.773480  1.0  -0.6067
  O  O400  1  0.329140  0.318900  0.813830  1.0  -0.5884
  O  O401  1  0.393100  0.749280  0.754410  1.0  -0.5981
  O  O402  1  0.350800  0.665890  0.796230  1.0  -0.6153
  O  O403  1  0.625780  0.762600  0.773480  1.0  -0.607
  O  O404  1  0.670860  0.681100  0.813830  1.0  -0.5903
  O  O405  1  0.393100  0.250720  0.245590  1.0  -0.5981
  O  O406  1  0.350800  0.334110  0.203770  1.0  -0.6143
  O  O407  1  0.625780  0.237400  0.226520  1.0  -0.6057
  O  O408  1  0.670860  0.318900  0.186170  1.0  -0.5898
  O  O409  1  0.759420  0.240580  0.240580  1.0  -1.083
  O  O410  1  0.240580  0.759420  0.240580  1.0  -1.0834
  O  O411  1  0.240580  0.240580  0.759420  1.0  -1.083
  O  O412  1  0.759420  0.759420  0.759420  1.0  -1.0825
  O  O413  1  0.740580  0.259420  0.740580  1.0  -1.0834
  O  O414  1  0.259420  0.740580  0.740580  1.0  -1.083
  O  O415  1  0.740580  0.740580  0.259420  1.0  -1.083
  O  O416  1  0.259420  0.259420  0.259420  1.0  -1.0825
