# generated using pymatgen
data_Cd3H48C70(N2O3)4
_symmetry_space_group_name_H-M   'P 1'
_cell_length_a   11.62740000
_cell_length_b   19.66300000
_cell_length_c   32.67800000
_cell_angle_alpha   90.00000000
_cell_angle_beta   90.00000000
_cell_angle_gamma   90.00000000
_symmetry_Int_Tables_number   1
_chemical_formula_structural   Cd3H48C70(N2O3)4
_chemical_formula_sum   'Cd12 H192 C280 N32 O48'
_cell_volume   7471.15696428
_cell_formula_units_Z   4
loop_
 _symmetry_equiv_pos_site_id
 _symmetry_equiv_pos_as_xyz
  1  'x, y, z'
loop_
 _atom_site_type_symbol
 _atom_site_label
 _atom_site_symmetry_multiplicity
 _atom_site_fract_x
 _atom_site_fract_y
 _atom_site_fract_z
 _atom_site_occupancy
 _atom_site_charge
  Cd  Cd1  1  0.974050  0.341900  0.401760  1.0  0.9959
  Cd  Cd2  1  0.035710  0.806430  0.595220  1.0  1.0083
  Cd  Cd3  1  0.264410  0.046650  0.259840  1.0  1.0329
  Cd  Cd4  1  0.525950  0.658100  0.901760  1.0  0.9965
  Cd  Cd5  1  0.464290  0.193570  0.095220  1.0  1.0075
  Cd  Cd6  1  0.235590  0.953350  0.759840  1.0  1.0339
  Cd  Cd7  1  0.025950  0.841900  0.098240  1.0  0.9972
  Cd  Cd8  1  0.964290  0.306430  0.904780  1.0  1.0079
  Cd  Cd9  1  0.735590  0.546650  0.240160  1.0  1.034
  Cd  Cd10  1  0.474050  0.158100  0.598240  1.0  0.9962
  Cd  Cd11  1  0.535710  0.693570  0.404780  1.0  1.0074
  Cd  Cd12  1  0.764410  0.453350  0.740160  1.0  1.0324
  H  H13  1  0.056200  0.580700  0.031300  1.0  0.1059
  H  H14  1  0.785100  0.971900  0.210100  1.0  0.1114
  H  H15  1  0.828800  0.450300  0.896800  1.0  0.0554
  H  H16  1  0.850100  0.764000  0.158300  1.0  0.0753
  H  H17  1  0.796600  0.643900  0.968200  1.0  0.0491
  H  H18  1  0.997600  0.069400  0.149600  1.0  0.1007
  H  H19  1  0.422400  0.815200  0.286400  1.0  0.0785
  H  H20  1  0.915900  0.956700  0.156300  1.0  0.0766
  H  H21  1  0.374400  0.964700  0.342300  1.0  0.1044
  H  H22  1  0.068000  0.683000  0.068000  1.0  0.1219
  H  H23  1  0.495400  0.079100  0.204400  1.0  0.0898
  H  H24  1  0.609400  0.215600  0.406200  1.0  0.0948
  H  H25  1  0.452200  0.160100  0.377900  1.0  0.1076
  H  H26  1  0.584300  0.187900  0.265500  1.0  0.1023
  H  H27  1  0.741400  0.243300  0.293800  1.0  0.1013
  H  H28  1  0.696900  0.977200  0.264800  1.0  0.1117
  H  H29  1  0.727200  0.776600  0.212900  1.0  0.1083
  H  H30  1  0.779700  0.789700  0.970400  1.0  0.1201
  H  H31  1  0.696900  0.764700  0.006000  1.0  0.093
  H  H32  1  0.838300  0.110700  0.116300  1.0  0.0871
  H  H33  1  0.603600  0.033100  0.155000  1.0  0.0803
  H  H34  1  0.799400  0.715200  0.427100  1.0  0.0997
  H  H35  1  0.961000  0.767400  0.399700  1.0  0.1078
  H  H36  1  0.814300  0.764800  0.288400  1.0  0.105
  H  H37  1  0.652800  0.712600  0.315700  1.0  0.0866
  H  H38  1  0.718300  0.197000  0.213300  1.0  0.0735
  H  H39  1  0.542000  0.000500  0.311500  1.0  0.1315
  H  H40  1  0.992500  0.472600  0.024400  1.0  0.1275
  H  H41  1  0.054100  0.932100  0.254000  1.0  0.1054
  H  H42  1  0.809300  0.552400  0.928000  1.0  0.097
  H  H43  1  0.882900  0.155400  0.254200  1.0  0.087
  H  H44  1  0.914200  0.864500  0.280600  1.0  0.0951
  H  H45  1  0.878500  0.591900  0.555500  1.0  0.0976
  H  H46  1  0.856000  0.492800  0.517900  1.0  0.0987
  H  H47  1  0.046000  0.572900  0.427200  1.0  0.1012
  H  H48  1  0.068500  0.672000  0.464800  1.0  0.1015
  H  H49  1  0.013600  0.378200  0.982900  1.0  0.0633
  H  H50  1  0.552400  0.821100  0.128500  1.0  0.0992
  H  H51  1  0.666500  0.004600  0.092700  1.0  0.1089
  H  H52  1  0.785300  0.953000  0.044900  1.0  0.1055
  H  H53  1  0.671200  0.769500  0.080700  1.0  0.1072
  H  H54  1  0.294000  0.887300  0.378100  1.0  0.086
  H  H55  1  0.348700  0.831300  0.349500  1.0  0.0836
  H  H56  1  0.867700  0.856400  0.010400  1.0  0.0708
  H  H57  1  0.119100  0.782900  0.366900  1.0  0.1077
  H  H58  1  0.563600  0.800100  0.235400  1.0  0.1077
  H  H59  1  0.400800  0.877700  0.148600  1.0  0.0959
  H  H60  1  0.285700  0.926900  0.199600  1.0  0.0923
  H  H61  1  0.443800  0.419300  0.531300  1.0  0.105
  H  H62  1  0.714900  0.028100  0.710100  1.0  0.112
  H  H63  1  0.671200  0.549700  0.396800  1.0  0.0555
  H  H64  1  0.649900  0.236000  0.658300  1.0  0.074
  H  H65  1  0.703400  0.356100  0.468200  1.0  0.0485
  H  H66  1  0.502400  0.930600  0.649600  1.0  0.0998
  H  H67  1  0.077600  0.184800  0.786400  1.0  0.0789
  H  H68  1  0.584100  0.043300  0.656300  1.0  0.076
  H  H69  1  0.125600  0.035300  0.842300  1.0  0.1057
  H  H70  1  0.432000  0.317000  0.568000  1.0  0.1216
  H  H71  1  0.004600  0.920900  0.704400  1.0  0.0896
  H  H72  1  0.890600  0.784400  0.906200  1.0  0.096
  H  H73  1  0.047800  0.839900  0.877900  1.0  0.1075
  H  H74  1  0.915700  0.812100  0.765500  1.0  0.1026
  H  H75  1  0.758600  0.756700  0.793800  1.0  0.1013
  H  H76  1  0.803100  0.022800  0.764800  1.0  0.1113
  H  H77  1  0.772800  0.223400  0.712900  1.0  0.1087
  H  H78  1  0.720300  0.210300  0.470400  1.0  0.1195
  H  H79  1  0.803100  0.235300  0.506000  1.0  0.092
  H  H80  1  0.661700  0.889300  0.616300  1.0  0.0873
  H  H81  1  0.896400  0.966900  0.655000  1.0  0.0803
  H  H82  1  0.700600  0.284800  0.927100  1.0  0.0995
  H  H83  1  0.539000  0.232600  0.899700  1.0  0.1075
  H  H84  1  0.685700  0.235200  0.788400  1.0  0.1052
  H  H85  1  0.847200  0.287400  0.815700  1.0  0.0865
  H  H86  1  0.781700  0.803000  0.713300  1.0  0.0739
  H  H87  1  0.958000  0.999500  0.811500  1.0  0.1321
  H  H88  1  0.507500  0.527400  0.524400  1.0  0.1277
  H  H89  1  0.445900  0.067900  0.754000  1.0  0.1049
  H  H90  1  0.690700  0.447600  0.428000  1.0  0.0969
  H  H91  1  0.617100  0.844600  0.754200  1.0  0.0867
  H  H92  1  0.585800  0.135500  0.780600  1.0  0.095
  H  H93  1  0.621500  0.408100  0.055500  1.0  0.0974
  H  H94  1  0.644000  0.507200  0.017900  1.0  0.0991
  H  H95  1  0.454000  0.427100  0.927200  1.0  0.1007
  H  H96  1  0.431500  0.328000  0.964800  1.0  0.101
  H  H97  1  0.486400  0.621800  0.482900  1.0  0.0638
  H  H98  1  0.947600  0.178900  0.628500  1.0  0.0991
  H  H99  1  0.833500  0.995400  0.592700  1.0  0.1075
  H  H100  1  0.714700  0.047000  0.544900  1.0  0.1049
  H  H101  1  0.828800  0.230500  0.580700  1.0  0.1055
  H  H102  1  0.206000  0.112700  0.878100  1.0  0.0865
  H  H103  1  0.151300  0.168700  0.849500  1.0  0.0831
  H  H104  1  0.632300  0.143600  0.510400  1.0  0.0712
  H  H105  1  0.380900  0.217100  0.866900  1.0  0.1081
  H  H106  1  0.936400  0.199900  0.735400  1.0  0.108
  H  H107  1  0.099200  0.122300  0.648600  1.0  0.0956
  H  H108  1  0.214300  0.073100  0.699600  1.0  0.093
  H  H109  1  0.943800  0.080700  0.468700  1.0  0.1051
  H  H110  1  0.214900  0.471900  0.289900  1.0  0.1119
  H  H111  1  0.171200  0.950300  0.603200  1.0  0.0556
  H  H112  1  0.149900  0.264000  0.341700  1.0  0.0756
  H  H113  1  0.203400  0.143900  0.531800  1.0  0.0487
  H  H114  1  0.002400  0.569400  0.350400  1.0  0.0994
  H  H115  1  0.577600  0.315200  0.213600  1.0  0.0786
  H  H116  1  0.084100  0.456700  0.343700  1.0  0.0763
  H  H117  1  0.625600  0.464700  0.157700  1.0  0.1055
  H  H118  1  0.932000  0.183000  0.432000  1.0  0.121
  H  H119  1  0.504600  0.579100  0.295600  1.0  0.0903
  H  H120  1  0.390600  0.715600  0.093800  1.0  0.0963
  H  H121  1  0.547800  0.660100  0.122100  1.0  0.1074
  H  H122  1  0.415700  0.687900  0.234500  1.0  0.1024
  H  H123  1  0.258600  0.743300  0.206200  1.0  0.1012
  H  H124  1  0.303100  0.477200  0.235200  1.0  0.1125
  H  H125  1  0.272800  0.276600  0.287100  1.0  0.1084
  H  H126  1  0.220300  0.289700  0.529600  1.0  0.1184
  H  H127  1  0.303100  0.264700  0.494000  1.0  0.0923
  H  H128  1  0.161700  0.610700  0.383700  1.0  0.0872
  H  H129  1  0.396400  0.533100  0.345000  1.0  0.08
  H  H130  1  0.200600  0.215200  0.072900  1.0  0.0993
  H  H131  1  0.039000  0.267400  0.100300  1.0  0.1076
  H  H132  1  0.185700  0.264800  0.211600  1.0  0.104
  H  H133  1  0.347200  0.212600  0.184300  1.0  0.0869
  H  H134  1  0.281700  0.697000  0.286700  1.0  0.0737
  H  H135  1  0.458000  0.500500  0.188500  1.0  0.1324
  H  H136  1  0.007500  0.972600  0.475600  1.0  0.1267
  H  H137  1  0.945900  0.432100  0.246000  1.0  0.1051
  H  H138  1  0.190700  0.052400  0.572000  1.0  0.0967
  H  H139  1  0.117100  0.655400  0.245800  1.0  0.0864
  H  H140  1  0.085800  0.364500  0.219400  1.0  0.0952
  H  H141  1  0.121500  0.091900  0.944500  1.0  0.0975
  H  H142  1  0.144000  0.992800  0.982100  1.0  0.0986
  H  H143  1  0.954000  0.072900  0.072800  1.0  0.1015
  H  H144  1  0.931500  0.172000  0.035200  1.0  0.1015
  H  H145  1  0.986400  0.878200  0.517100  1.0  0.0632
  H  H146  1  0.447600  0.321100  0.371500  1.0  0.0986
  H  H147  1  0.333500  0.504600  0.407300  1.0  0.1081
  H  H148  1  0.214700  0.453000  0.455100  1.0  0.1054
  H  H149  1  0.328800  0.269500  0.419300  1.0  0.1078
  H  H150  1  0.706000  0.387300  0.121900  1.0  0.0856
  H  H151  1  0.651300  0.331300  0.150500  1.0  0.0841
  H  H152  1  0.132300  0.356400  0.489600  1.0  0.0714
  H  H153  1  0.880900  0.282900  0.133100  1.0  0.1082
  H  H154  1  0.436400  0.300100  0.264600  1.0  0.1078
  H  H155  1  0.599200  0.377700  0.351400  1.0  0.0957
  H  H156  1  0.714300  0.426900  0.300400  1.0  0.0928
  H  H157  1  0.556200  0.919300  0.968700  1.0  0.1053
  H  H158  1  0.285100  0.528100  0.789900  1.0  0.1111
  H  H159  1  0.328800  0.049700  0.103200  1.0  0.056
  H  H160  1  0.350100  0.736000  0.841700  1.0  0.0746
  H  H161  1  0.296600  0.856100  0.031800  1.0  0.0492
  H  H162  1  0.497600  0.430600  0.850400  1.0  0.1008
  H  H163  1  0.922400  0.684800  0.713600  1.0  0.0786
  H  H164  1  0.415900  0.543300  0.843700  1.0  0.0769
  H  H165  1  0.874400  0.535300  0.657700  1.0  0.1054
  H  H166  1  0.568000  0.817000  0.932000  1.0  0.1215
  H  H167  1  0.995400  0.420900  0.795600  1.0  0.0897
  H  H168  1  0.109400  0.284400  0.593800  1.0  0.0948
  H  H169  1  0.952200  0.339900  0.622100  1.0  0.1078
  H  H170  1  0.084300  0.312100  0.734500  1.0  0.1021
  H  H171  1  0.241400  0.256700  0.706200  1.0  0.1017
  H  H172  1  0.196900  0.522800  0.735200  1.0  0.1121
  H  H173  1  0.227200  0.723400  0.787100  1.0  0.1084
  H  H174  1  0.279700  0.710300  0.029600  1.0  0.1184
  H  H175  1  0.196900  0.735300  0.994000  1.0  0.0933
  H  H176  1  0.338300  0.389300  0.883700  1.0  0.0872
  H  H177  1  0.103600  0.466900  0.845000  1.0  0.0802
  H  H178  1  0.299400  0.784800  0.572900  1.0  0.0998
  H  H179  1  0.461000  0.732600  0.600300  1.0  0.1072
  H  H180  1  0.314300  0.735200  0.711600  1.0  0.1041
  H  H181  1  0.152800  0.787400  0.684300  1.0  0.087
  H  H182  1  0.218300  0.303000  0.786700  1.0  0.0732
  H  H183  1  0.042000  0.499500  0.688500  1.0  0.1315
  H  H184  1  0.492500  0.027400  0.975600  1.0  0.1269
  H  H185  1  0.554100  0.567900  0.746000  1.0  0.1055
  H  H186  1  0.309300  0.947600  0.072000  1.0  0.097
  H  H187  1  0.382900  0.344600  0.745800  1.0  0.0861
  H  H188  1  0.414200  0.635500  0.719400  1.0  0.0949
  H  H189  1  0.378500  0.908100  0.444500  1.0  0.0975
  H  H190  1  0.356000  0.007200  0.482100  1.0  0.0987
  H  H191  1  0.546000  0.927100  0.572800  1.0  0.1014
  H  H192  1  0.568500  0.828000  0.535200  1.0  0.1011
  H  H193  1  0.513600  0.121800  0.017100  1.0  0.0631
  H  H194  1  0.052400  0.678900  0.871500  1.0  0.0989
  H  H195  1  0.166500  0.495400  0.907300  1.0  0.1082
  H  H196  1  0.285300  0.547000  0.955100  1.0  0.1054
  H  H197  1  0.171200  0.730500  0.919300  1.0  0.1055
  H  H198  1  0.794000  0.612700  0.621900  1.0  0.0844
  H  H199  1  0.848700  0.668700  0.650500  1.0  0.0836
  H  H200  1  0.367700  0.643600  0.989600  1.0  0.0721
  H  H201  1  0.619100  0.717100  0.633100  1.0  0.108
  H  H202  1  0.063600  0.699900  0.764600  1.0  0.1077
  H  H203  1  0.900800  0.622300  0.851400  1.0  0.0961
  H  H204  1  0.785700  0.573100  0.800400  1.0  0.0923
  C  C205  1  0.940200  0.462200  0.441700  1.0  0.4461
  C  C206  1  0.914200  0.534600  0.976300  1.0  -0.0691
  C  C207  1  0.001700  0.614100  0.025600  1.0  -0.1136
  C  C208  1  0.799500  0.928700  0.199700  1.0  -0.1211
  C  C209  1  0.863400  0.456300  0.922200  1.0  0.1992
  C  C210  1  0.964800  0.114300  0.207700  1.0  -0.1108
  C  C211  1  0.842000  0.807300  0.169400  1.0  0.1729
  C  C212  1  0.065400  0.091300  0.230300  1.0  0.5842
  C  C213  1  0.421300  0.140700  0.299100  1.0  0.5137
  C  C214  1  0.173000  0.905900  0.299600  1.0  0.344
  C  C215  1  0.928100  0.725100  0.036500  1.0  0.4224
  C  C216  1  0.852300  0.650200  0.988300  1.0  0.0933
  C  C217  1  0.944300  0.095700  0.163700  1.0  -0.1431
  C  C218  1  0.473500  0.850300  0.280700  1.0  -0.1309
  C  C219  1  0.879300  0.919200  0.167800  1.0  0.1547
  C  C220  1  0.355200  0.926100  0.324700  1.0  0.0178
  C  C221  1  0.743900  0.873300  0.215000  1.0  0.1005
  C  C222  1  0.012400  0.675700  0.048000  1.0  -0.1129
  C  C223  1  0.648800  0.885900  0.249300  1.0  0.0039
  C  C224  1  0.759700  0.149800  0.163800  1.0  0.0022
  C  C225  1  0.472800  0.038200  0.192600  1.0  0.1523
  C  C226  1  0.690900  0.235000  0.352800  1.0  0.064
  C  C227  1  0.604300  0.210000  0.378000  1.0  -0.1064
  C  C228  1  0.510200  0.176800  0.361100  1.0  -0.1517
  C  C229  1  0.502700  0.168500  0.318900  1.0  0.3629
  C  C230  1  0.589300  0.193400  0.293700  1.0  -0.1269
  C  C231  1  0.683400  0.226700  0.310700  1.0  -0.1269
  C  C232  1  0.640200  0.944500  0.268900  1.0  -0.1135
  C  C233  1  0.921300  0.597800  0.996900  1.0  0.1388
  C  C234  1  0.763600  0.814300  0.201600  1.0  -0.1899
  C  C235  1  0.776100  0.773800  0.998500  1.0  -0.1376
  C  C236  1  0.845500  0.118100  0.144300  1.0  -0.0994
  C  C237  1  0.538800  0.009400  0.163600  1.0  -0.1548
  C  C238  1  0.802400  0.725100  0.399300  1.0  0.1363
  C  C239  1  0.899200  0.756400  0.382900  1.0  -0.1544
  C  C240  1  0.903700  0.771200  0.341300  1.0  0.0108
  C  C241  1  0.811400  0.754800  0.316200  1.0  -0.1131
  C  C242  1  0.714500  0.723600  0.332600  1.0  0.1611
  C  C243  1  0.773200  0.169000  0.201200  1.0  -0.0724
  C  C244  1  0.546100  0.960100  0.296700  1.0  -0.1166
  C  C245  1  0.001000  0.700000  0.542800  1.0  0.6606
  C  C246  1  0.966000  0.471800  0.997600  1.0  -0.1633
  C  C247  1  0.066600  0.905700  0.277200  1.0  -0.1281
  C  C248  1  0.855100  0.519300  0.940200  1.0  -0.1771
  C  C249  1  0.879100  0.146500  0.226200  1.0  -0.0641
  C  C250  1  0.997400  0.817400  0.326100  1.0  -0.003
  C  C251  1  0.460100  0.908200  0.299400  1.0  0.0914
  C  C252  1  0.986100  0.863200  0.293100  1.0  -0.073
  C  C253  1  0.975700  0.641800  0.513900  1.0  -0.1569
  C  C254  1  0.912100  0.588100  0.529800  1.0  -0.0523
  C  C255  1  0.898600  0.528700  0.507300  1.0  -0.0586
  C  C256  1  0.948800  0.523000  0.468800  1.0  -0.1679
  C  C257  1  0.012400  0.576700  0.452900  1.0  -0.0767
  C  C258  1  0.025900  0.636100  0.475500  1.0  -0.0526
  C  C259  1  0.648200  0.167200  0.141700  1.0  0.6861
  C  C260  1  0.969000  0.414500  0.973600  1.0  0.1471
  C  C261  1  0.599000  0.847500  0.111800  1.0  -0.0923
  C  C262  1  0.597600  0.918000  0.115400  1.0  0.0113
  C  C263  1  0.667400  0.957500  0.090300  1.0  -0.0948
  C  C264  1  0.738600  0.926500  0.061700  1.0  -0.0634
  C  C265  1  0.740000  0.856100  0.058100  1.0  0.0074
  C  C266  1  0.670200  0.816600  0.083100  1.0  -0.1079
  C  C267  1  0.302500  0.872300  0.350000  1.0  -0.0747
  C  C268  1  0.831500  0.820300  0.026600  1.0  0.0084
  C  C269  1  0.103900  0.813400  0.345800  1.0  0.0855
  C  C270  1  0.563300  0.838600  0.251900  1.0  -0.1353
  C  C271  1  0.518500  0.951000  0.146700  1.0  0.1285
  C  C272  1  0.421300  0.919500  0.159700  1.0  -0.152
  C  C273  1  0.350500  0.949700  0.190100  1.0  0.1565
  C  C274  1  0.783900  0.265100  0.369500  1.0  0.4623
  C  C275  1  0.559800  0.537800  0.941700  1.0  0.4452
  C  C276  1  0.585800  0.465400  0.476300  1.0  -0.0686
  C  C277  1  0.498300  0.385900  0.525600  1.0  -0.1133
  C  C278  1  0.700500  0.071300  0.699700  1.0  -0.1207
  C  C279  1  0.636600  0.543700  0.422200  1.0  0.1989
  C  C280  1  0.535200  0.885700  0.707700  1.0  -0.111
  C  C281  1  0.658000  0.192700  0.669400  1.0  0.1712
  C  C282  1  0.434600  0.908700  0.730300  1.0  0.5837
  C  C283  1  0.078700  0.859300  0.799100  1.0  0.5163
  C  C284  1  0.327000  0.094100  0.799600  1.0  0.345
  C  C285  1  0.571900  0.274900  0.536500  1.0  0.4221
  C  C286  1  0.647700  0.349800  0.488300  1.0  0.0923
  C  C287  1  0.555700  0.904300  0.663700  1.0  -0.143
  C  C288  1  0.026500  0.149700  0.780700  1.0  -0.1306
  C  C289  1  0.620700  0.080800  0.667800  1.0  0.1551
  C  C290  1  0.144800  0.073900  0.824700  1.0  0.0176
  C  C291  1  0.756100  0.126700  0.715000  1.0  0.1011
  C  C292  1  0.487600  0.324300  0.548000  1.0  -0.1136
  C  C293  1  0.851200  0.114100  0.749300  1.0  0.0004
  C  C294  1  0.740300  0.850200  0.663800  1.0  0.0076
  C  C295  1  0.027200  0.961800  0.692600  1.0  0.1525
  C  C296  1  0.809100  0.765000  0.852800  1.0  0.0628
  C  C297  1  0.895700  0.790000  0.878000  1.0  -0.1052
  C  C298  1  0.989800  0.823200  0.861100  1.0  -0.1515
  C  C299  1  0.997300  0.831500  0.818900  1.0  0.3623
  C  C300  1  0.910700  0.806600  0.793700  1.0  -0.128
  C  C301  1  0.816600  0.773300  0.810700  1.0  -0.1273
  C  C302  1  0.859800  0.055500  0.768900  1.0  -0.1131
  C  C303  1  0.578700  0.402200  0.496900  1.0  0.1389
  C  C304  1  0.736400  0.185700  0.701600  1.0  -0.1918
  C  C305  1  0.723900  0.226200  0.498500  1.0  -0.138
  C  C306  1  0.654500  0.881900  0.644300  1.0  -0.0999
  C  C307  1  0.961200  0.990600  0.663600  1.0  -0.1548
  C  C308  1  0.697600  0.274900  0.899300  1.0  0.138
  C  C309  1  0.600800  0.243600  0.882900  1.0  -0.1537
  C  C310  1  0.596300  0.228800  0.841300  1.0  0.01
  C  C311  1  0.688600  0.245200  0.816200  1.0  -0.1126
  C  C312  1  0.785500  0.276400  0.832600  1.0  0.1616
  C  C313  1  0.726800  0.831000  0.701200  1.0  -0.0735
  C  C314  1  0.953900  0.039900  0.796700  1.0  -0.1188
  C  C315  1  0.499000  0.300000  0.042800  1.0  0.6617
  C  C316  1  0.534000  0.528200  0.497600  1.0  -0.1622
  C  C317  1  0.433400  0.094300  0.777200  1.0  -0.1285
  C  C318  1  0.644900  0.480700  0.440200  1.0  -0.177
  C  C319  1  0.620900  0.853500  0.726200  1.0  -0.0661
  C  C320  1  0.502600  0.182600  0.826100  1.0  -0.0035
  C  C321  1  0.039900  0.091800  0.799400  1.0  0.0928
  C  C322  1  0.513900  0.136800  0.793100  1.0  -0.0736
  C  C323  1  0.524300  0.358200  0.013900  1.0  -0.1563
  C  C324  1  0.587900  0.411900  0.029800  1.0  -0.0525
  C  C325  1  0.601400  0.471300  0.007300  1.0  -0.0589
  C  C326  1  0.551200  0.477000  0.968800  1.0  -0.1679
  C  C327  1  0.487600  0.423300  0.952900  1.0  -0.078
  C  C328  1  0.474100  0.363900  0.975500  1.0  -0.0524
  C  C329  1  0.851800  0.832800  0.641700  1.0  0.6859
  C  C330  1  0.531000  0.585500  0.473600  1.0  0.1471
  C  C331  1  0.901000  0.152500  0.611800  1.0  -0.0928
  C  C332  1  0.902400  0.082000  0.615400  1.0  0.0107
  C  C333  1  0.832600  0.042500  0.590300  1.0  -0.0953
  C  C334  1  0.761400  0.073500  0.561700  1.0  -0.0634
  C  C335  1  0.760000  0.143900  0.558100  1.0  0.0057
  C  C336  1  0.829800  0.183400  0.583100  1.0  -0.1094
  C  C337  1  0.197500  0.127700  0.850000  1.0  -0.0754
  C  C338  1  0.668500  0.179700  0.526600  1.0  0.0092
  C  C339  1  0.396100  0.186600  0.845800  1.0  0.0835
  C  C340  1  0.936700  0.161400  0.751900  1.0  -0.1361
  C  C341  1  0.981500  0.049000  0.646700  1.0  0.1296
  C  C342  1  0.078700  0.080500  0.659700  1.0  -0.1516
  C  C343  1  0.149500  0.050300  0.690100  1.0  0.1566
  C  C344  1  0.716100  0.734900  0.869500  1.0  0.4579
  C  C345  1  0.059800  0.962200  0.058300  1.0  0.4464
  C  C346  1  0.085800  0.034600  0.523700  1.0  -0.0694
  C  C347  1  0.998300  0.114100  0.474400  1.0  -0.1126
  C  C348  1  0.200500  0.428700  0.300300  1.0  -0.1222
  C  C349  1  0.136600  0.956300  0.577800  1.0  0.2005
  C  C350  1  0.035200  0.614300  0.292300  1.0  -0.11
  C  C351  1  0.158000  0.307300  0.330600  1.0  0.1723
  C  C352  1  0.934600  0.591300  0.269700  1.0  0.5849
  C  C353  1  0.578700  0.640700  0.200900  1.0  0.5188
  C  C354  1  0.827000  0.405900  0.200400  1.0  0.3434
  C  C355  1  0.071900  0.225100  0.463500  1.0  0.42
  C  C356  1  0.147700  0.150200  0.511700  1.0  0.0927
  C  C357  1  0.055700  0.595700  0.336300  1.0  -0.1426
  C  C358  1  0.526500  0.350300  0.219300  1.0  -0.1309
  C  C359  1  0.120700  0.419200  0.332200  1.0  0.1554
  C  C360  1  0.644800  0.426100  0.175300  1.0  0.0163
  C  C361  1  0.256100  0.373300  0.285000  1.0  0.1005
  C  C362  1  0.987600  0.175700  0.452000  1.0  -0.1134
  C  C363  1  0.351200  0.385900  0.250700  1.0  1e-04
  C  C364  1  0.240300  0.649800  0.336200  1.0  0.0086
  C  C365  1  0.527200  0.538200  0.307400  1.0  0.1514
  C  C366  1  0.309100  0.735000  0.147200  1.0  0.0622
  C  C367  1  0.395700  0.710000  0.122000  1.0  -0.1042
  C  C368  1  0.489800  0.676800  0.138900  1.0  -0.153
  C  C369  1  0.497300  0.668500  0.181100  1.0  0.3636
  C  C370  1  0.410700  0.693400  0.206300  1.0  -0.127
  C  C371  1  0.316600  0.726700  0.189300  1.0  -0.1274
  C  C372  1  0.359800  0.444500  0.231100  1.0  -0.1152
  C  C373  1  0.078700  0.097800  0.503100  1.0  0.1384
  C  C374  1  0.236400  0.314300  0.298400  1.0  -0.1913
  C  C375  1  0.223900  0.273800  0.501500  1.0  -0.1385
  C  C376  1  0.154500  0.618100  0.355700  1.0  -0.0995
  C  C377  1  0.461200  0.509400  0.336400  1.0  -0.1547
  C  C378  1  0.197600  0.225100  0.100700  1.0  0.1376
  C  C379  1  0.100800  0.256400  0.117100  1.0  -0.1539
  C  C380  1  0.096300  0.271200  0.158700  1.0  0.01
  C  C381  1  0.188600  0.254800  0.183800  1.0  -0.1132
  C  C382  1  0.285500  0.223600  0.167400  1.0  0.1612
  C  C383  1  0.226800  0.669000  0.298800  1.0  -0.0744
  C  C384  1  0.453900  0.460100  0.203300  1.0  -0.12
  C  C385  1  0.999000  0.200000  0.957200  1.0  0.6602
  C  C386  1  0.034000  0.971800  0.502400  1.0  -0.1622
  C  C387  1  0.933400  0.405700  0.222800  1.0  -0.1291
  C  C388  1  0.144900  0.019300  0.559800  1.0  -0.1765
  C  C389  1  0.120900  0.646500  0.273800  1.0  -0.0653
  C  C390  1  0.002600  0.317400  0.173900  1.0  -0.0027
  C  C391  1  0.539900  0.408200  0.200600  1.0  0.0928
  C  C392  1  0.013900  0.363200  0.206900  1.0  -0.0732
  C  C393  1  0.024300  0.141800  0.986100  1.0  -0.1561
  C  C394  1  0.087900  0.088100  0.970200  1.0  -0.0529
  C  C395  1  0.101400  0.028700  0.992700  1.0  -0.058
  C  C396  1  0.051200  0.023000  0.031200  1.0  -0.1679
  C  C397  1  0.987600  0.076700  0.047100  1.0  -0.0783
  C  C398  1  0.974100  0.136100  0.024500  1.0  -0.0531
  C  C399  1  0.351800  0.667200  0.358300  1.0  0.6859
  C  C400  1  0.031000  0.914500  0.526400  1.0  0.147
  C  C401  1  0.401000  0.347500  0.388200  1.0  -0.0939
  C  C402  1  0.402400  0.418000  0.384600  1.0  0.0104
  C  C403  1  0.332600  0.457500  0.409700  1.0  -0.0962
  C  C404  1  0.261400  0.426500  0.438300  1.0  -0.064
  C  C405  1  0.260000  0.356100  0.441900  1.0  0.0061
  C  C406  1  0.329800  0.316600  0.416900  1.0  -0.1078
  C  C407  1  0.697500  0.372300  0.150000  1.0  -0.0759
  C  C408  1  0.168500  0.320300  0.473400  1.0  0.0111
  C  C409  1  0.896100  0.313400  0.154200  1.0  0.0833
  C  C410  1  0.436700  0.338600  0.248100  1.0  -0.1361
  C  C411  1  0.481500  0.451000  0.353300  1.0  0.1289
  C  C412  1  0.578700  0.419500  0.340300  1.0  -0.152
  C  C413  1  0.649500  0.449700  0.309900  1.0  0.1561
  C  C414  1  0.216100  0.765100  0.130500  1.0  0.4577
  C  C415  1  0.440200  0.037800  0.558300  1.0  0.4464
  C  C416  1  0.414200  0.965400  0.023700  1.0  -0.07
  C  C417  1  0.501700  0.885900  0.974400  1.0  -0.1136
  C  C418  1  0.299500  0.571300  0.800300  1.0  -0.1214
  C  C419  1  0.363400  0.043700  0.077800  1.0  0.1986
  C  C420  1  0.464800  0.385700  0.792300  1.0  -0.1093
  C  C421  1  0.342000  0.692700  0.830600  1.0  0.1733
  C  C422  1  0.565400  0.408700  0.769700  1.0  0.5849
  C  C423  1  0.921300  0.359300  0.700900  1.0  0.5144
  C  C424  1  0.673000  0.594100  0.700400  1.0  0.3421
  C  C425  1  0.428100  0.774900  0.963500  1.0  0.4222
  C  C426  1  0.352300  0.849800  0.011700  1.0  0.0936
  C  C427  1  0.444300  0.404300  0.836300  1.0  -0.1427
  C  C428  1  0.973500  0.649700  0.719300  1.0  -0.1306
  C  C429  1  0.379300  0.580800  0.832200  1.0  0.1561
  C  C430  1  0.855200  0.573900  0.675300  1.0  0.0161
  C  C431  1  0.243900  0.626700  0.785000  1.0  0.1
  C  C432  1  0.512400  0.824300  0.952000  1.0  -0.1119
  C  C433  1  0.148800  0.614100  0.750700  1.0  0.0039
  C  C434  1  0.259700  0.350200  0.836200  1.0  0.0029
  C  C435  1  0.972800  0.461800  0.807400  1.0  0.1513
  C  C436  1  0.190900  0.265000  0.647200  1.0  0.0645
  C  C437  1  0.104300  0.290000  0.622000  1.0  -0.1049
  C  C438  1  0.010200  0.323200  0.638900  1.0  -0.1524
  C  C439  1  0.002700  0.331500  0.681100  1.0  0.3631
  C  C440  1  0.089300  0.306600  0.706300  1.0  -0.1262
  C  C441  1  0.183400  0.273300  0.689300  1.0  -0.1266
  C  C442  1  0.140200  0.555500  0.731100  1.0  -0.1151
  C  C443  1  0.421300  0.902200  0.003100  1.0  0.1388
  C  C444  1  0.263600  0.685700  0.798400  1.0  -0.1904
  C  C445  1  0.276100  0.726200  0.001500  1.0  -0.1379
  C  C446  1  0.345500  0.381900  0.855700  1.0  -0.0992
  C  C447  1  0.038800  0.490600  0.836400  1.0  -0.1545
  C  C448  1  0.302400  0.774900  0.600700  1.0  0.1394
  C  C449  1  0.399200  0.743600  0.617100  1.0  -0.1547
  C  C450  1  0.403700  0.728800  0.658700  1.0  0.0102
  C  C451  1  0.311400  0.745200  0.683800  1.0  -0.1131
  C  C452  1  0.214500  0.776400  0.667400  1.0  0.1601
  C  C453  1  0.273200  0.331000  0.798800  1.0  -0.0739
  C  C454  1  0.046100  0.539900  0.703300  1.0  -0.118
  C  C455  1  0.501000  0.800000  0.457200  1.0  0.6603
  C  C456  1  0.466000  0.028200  0.002400  1.0  -0.1649
  C  C457  1  0.566600  0.594300  0.722800  1.0  -0.129
  C  C458  1  0.355100  0.980700  0.059800  1.0  -0.1771
  C  C459  1  0.379100  0.353500  0.773800  1.0  -0.0652
  C  C460  1  0.497400  0.682600  0.673900  1.0  -0.0029
  C  C461  1  0.960100  0.591800  0.700600  1.0  0.0926
  C  C462  1  0.486100  0.636800  0.706900  1.0  -0.0729
  C  C463  1  0.475700  0.858200  0.486100  1.0  -0.1562
  C  C464  1  0.412100  0.911900  0.470200  1.0  -0.0518
  C  C465  1  0.398600  0.971300  0.492700  1.0  -0.0597
  C  C466  1  0.448800  0.977000  0.531200  1.0  -0.1678
  C  C467  1  0.512400  0.923300  0.547100  1.0  -0.0778
  C  C468  1  0.525900  0.863900  0.524500  1.0  -0.0537
  C  C469  1  0.148200  0.332800  0.858300  1.0  0.6859
  C  C470  1  0.469000  0.085500  0.026400  1.0  0.1466
  C  C471  1  0.099000  0.652500  0.888200  1.0  -0.092
  C  C472  1  0.097600  0.582000  0.884600  1.0  0.0112
  C  C473  1  0.167400  0.542500  0.909700  1.0  -0.0948
  C  C474  1  0.238600  0.573500  0.938300  1.0  -0.0624
  C  C475  1  0.240000  0.643900  0.941900  1.0  0.0067
  C  C476  1  0.170200  0.683400  0.916900  1.0  -0.1105
  C  C477  1  0.802500  0.627700  0.650000  1.0  -0.0744
  C  C478  1  0.331500  0.679700  0.973400  1.0  0.0103
  C  C479  1  0.603900  0.686600  0.654200  1.0  0.0846
  C  C480  1  0.063300  0.661400  0.748100  1.0  -0.1367
  C  C481  1  0.018500  0.549000  0.853300  1.0  0.1286
  C  C482  1  0.921300  0.580500  0.840300  1.0  -0.1504
  C  C483  1  0.850500  0.550300  0.809900  1.0  0.1567
  C  C484  1  0.283900  0.234900  0.630500  1.0  0.4596
  N  N485  1  0.710100  0.708700  0.374100  1.0  -0.3331
  N  N486  1  0.903800  0.855700  0.153400  1.0  -0.3752
  N  N487  1  0.919000  0.787900  0.049800  1.0  -0.3709
  N  N488  1  0.263000  0.948400  0.294600  1.0  -0.3941
  N  N489  1  0.857300  0.710300  0.006200  1.0  -0.0637
  N  N490  1  0.187100  0.860300  0.330700  1.0  -0.1992
  N  N491  1  0.376100  0.008800  0.204600  1.0  -0.3484
  N  N492  1  0.914100  0.406800  0.937600  1.0  -0.3165
  N  N493  1  0.789900  0.291300  0.874100  1.0  -0.3339
  N  N494  1  0.596200  0.144300  0.653400  1.0  -0.3757
  N  N495  1  0.581000  0.212100  0.549800  1.0  -0.3697
  N  N496  1  0.237000  0.051600  0.794600  1.0  -0.3936
  N  N497  1  0.642700  0.289700  0.506200  1.0  -0.0637
  N  N498  1  0.312900  0.139700  0.830700  1.0  -0.198
  N  N499  1  0.123900  0.991200  0.704600  1.0  -0.3481
  N  N500  1  0.585900  0.593200  0.437600  1.0  -0.3167
  N  N501  1  0.289900  0.208700  0.125900  1.0  -0.3343
  N  N502  1  0.096200  0.355700  0.346600  1.0  -0.3767
  N  N503  1  0.081000  0.287900  0.450200  1.0  -0.3676
  N  N504  1  0.737000  0.448400  0.205400  1.0  -0.3951
  N  N505  1  0.142700  0.210300  0.493800  1.0  -0.0631
  N  N506  1  0.812900  0.360300  0.169300  1.0  -0.1981
  N  N507  1  0.623900  0.508800  0.295400  1.0  -0.3503
  N  N508  1  0.085900  0.906800  0.562400  1.0  -0.3175
  N  N509  1  0.210100  0.791300  0.625900  1.0  -0.3333
  N  N510  1  0.403800  0.644300  0.846600  1.0  -0.3757
  N  N511  1  0.419000  0.712100  0.950200  1.0  -0.3687
  N  N512  1  0.763000  0.551600  0.705400  1.0  -0.3946
  N  N513  1  0.357300  0.789700  0.993800  1.0  -0.0629
  N  N514  1  0.687100  0.639700  0.669300  1.0  -0.1996
  N  N515  1  0.876100  0.491200  0.795400  1.0  -0.3489
  N  N516  1  0.414100  0.093200  0.062400  1.0  -0.3162
  O  O517  1  0.644200  0.151300  0.105200  1.0  -0.576
  O  O518  1  0.572000  0.195800  0.159000  1.0  -0.5885
  O  O519  1  0.970000  0.459400  0.409600  1.0  -0.5844
  O  O520  1  0.092900  0.117000  0.259700  1.0  -0.6154
  O  O521  1  0.349200  0.095300  0.317900  1.0  -0.716
  O  O522  1  0.391100  0.137300  0.262600  1.0  -0.6478
  O  O523  1  0.122700  0.048100  0.214300  1.0  -0.5831
  O  O524  1  0.905000  0.409100  0.460300  1.0  -0.6772
  O  O525  1  0.986000  0.699100  0.578400  1.0  -0.5478
  O  O526  1  0.054000  0.748500  0.527000  1.0  -0.6566
  O  O527  1  0.796300  0.281400  0.404100  1.0  -0.6013
  O  O528  1  0.872700  0.276800  0.351800  1.0  -0.6091
  O  O529  1  0.855800  0.848700  0.605200  1.0  -0.576
  O  O530  1  0.928000  0.804200  0.659000  1.0  -0.5883
  O  O531  1  0.530000  0.540600  0.909600  1.0  -0.5843
  O  O532  1  0.407100  0.883000  0.759700  1.0  -0.6133
  O  O533  1  0.150800  0.904700  0.817900  1.0  -0.7157
  O  O534  1  0.108900  0.862700  0.762600  1.0  -0.6479
  O  O535  1  0.377300  0.951900  0.714300  1.0  -0.5819
  O  O536  1  0.595000  0.590900  0.960300  1.0  -0.6804
  O  O537  1  0.514000  0.300900  0.078400  1.0  -0.549
  O  O538  1  0.446000  0.251500  0.027000  1.0  -0.6581
  O  O539  1  0.703700  0.718600  0.904100  1.0  -0.602
  O  O540  1  0.627300  0.723200  0.851800  1.0  -0.6099
  O  O541  1  0.355800  0.651300  0.394800  1.0  -0.5776
  O  O542  1  0.428000  0.695800  0.341000  1.0  -0.588
  O  O543  1  0.030000  0.959400  0.090400  1.0  -0.5869
  O  O544  1  0.907100  0.617000  0.240300  1.0  -0.6176
  O  O545  1  0.650800  0.595300  0.182100  1.0  -0.7166
  O  O546  1  0.608900  0.637300  0.237400  1.0  -0.6477
  O  O547  1  0.877300  0.548100  0.285700  1.0  -0.5825
  O  O548  1  0.095000  0.909100  0.039700  1.0  -0.6775
  O  O549  1  0.014000  0.199100  0.921600  1.0  -0.5492
  O  O550  1  0.946000  0.248500  0.973000  1.0  -0.6574
  O  O551  1  0.203700  0.781400  0.095900  1.0  -0.6036
  O  O552  1  0.127300  0.776800  0.148200  1.0  -0.6091
  O  O553  1  0.144200  0.348700  0.894800  1.0  -0.5775
  O  O554  1  0.072000  0.304200  0.841000  1.0  -0.589
  O  O555  1  0.470000  0.040600  0.590400  1.0  -0.5869
  O  O556  1  0.592900  0.383000  0.740300  1.0  -0.6176
  O  O557  1  0.849200  0.404700  0.682100  1.0  -0.7144
  O  O558  1  0.891100  0.362700  0.737400  1.0  -0.6481
  O  O559  1  0.622700  0.451900  0.785700  1.0  -0.5828
  O  O560  1  0.405000  0.090900  0.539700  1.0  -0.6781
  O  O561  1  0.486000  0.800900  0.421600  1.0  -0.5482
  O  O562  1  0.554000  0.751500  0.473000  1.0  -0.6579
  O  O563  1  0.296300  0.218600  0.595900  1.0  -0.6023
  O  O564  1  0.372700  0.223200  0.648200  1.0  -0.6092
