# generated using pymatgen
data_CuH18C30N2(O2F3)2
_symmetry_space_group_name_H-M   'P 1'
_cell_length_a   21.56690000
_cell_length_b   21.56690000
_cell_length_c   7.79690000
_cell_angle_alpha   90.00000000
_cell_angle_beta   90.00000000
_cell_angle_gamma   120.00000000
_symmetry_Int_Tables_number   1
_chemical_formula_structural   CuH18C30N2(O2F3)2
_chemical_formula_sum   'Cu3 H54 C90 N6 O12 F18'
_cell_volume   3140.71150275
_cell_formula_units_Z   3
loop_
 _symmetry_equiv_pos_site_id
 _symmetry_equiv_pos_as_xyz
  1  'x, y, z'
loop_
 _atom_site_type_symbol
 _atom_site_label
 _atom_site_symmetry_multiplicity
 _atom_site_fract_x
 _atom_site_fract_y
 _atom_site_fract_z
 _atom_site_occupancy
 _atom_site_charge
  Cu  Cu1  1  0.500000  0.000000  0.000000  1.0  0.7192
  Cu  Cu2  1  0.000000  0.500000  0.000000  1.0  0.7192
  Cu  Cu3  1  0.500000  0.500000  0.000000  1.0  0.7192
  H  H4  1  0.480400  0.470800  0.632400  1.0  0.0886
  H  H5  1  0.477300  0.392600  0.431900  1.0  0.1171
  H  H6  1  0.511900  0.366100  0.997700  1.0  0.0787
  H  H7  1  0.511600  0.286000  0.806100  1.0  0.1336
  H  H8  1  0.417800  0.282100  0.310700  1.0  0.1057
  H  H9  1  0.405900  0.197500  0.115600  1.0  0.1144
  H  H10  1  0.558600  0.177800  0.365500  1.0  0.1038
  H  H11  1  0.566800  0.259200  0.566700  1.0  0.1214
  H  H12  1  0.426200  0.147500  0.907600  1.0  0.1002
  H  H13  1  0.529200  0.009600  0.632400  1.0  0.0894
  H  H14  1  0.607400  0.084700  0.431900  1.0  0.1171
  H  H15  1  0.633900  0.145800  0.997700  1.0  0.0782
  H  H16  1  0.714000  0.225600  0.806100  1.0  0.1342
  H  H17  1  0.717900  0.135700  0.310700  1.0  0.1085
  H  H18  1  0.802500  0.208400  0.115600  1.0  0.1156
  H  H19  1  0.822200  0.380800  0.365500  1.0  0.1038
  H  H20  1  0.740800  0.307600  0.566700  1.0  0.1218
  H  H21  1  0.852500  0.278700  0.907600  1.0  0.1
  H  H22  1  0.990400  0.519600  0.632400  1.0  0.0899
  H  H23  1  0.915300  0.522700  0.431900  1.0  0.1173
  H  H24  1  0.854200  0.488100  0.997700  1.0  0.0791
  H  H25  1  0.774400  0.488400  0.806100  1.0  0.1339
  H  H26  1  0.864300  0.582200  0.310700  1.0  0.107
  H  H27  1  0.791600  0.594100  0.115600  1.0  0.117
  H  H28  1  0.619200  0.441400  0.365500  1.0  0.1022
  H  H29  1  0.692400  0.433200  0.566700  1.0  0.1217
  H  H30  1  0.721300  0.573800  0.907600  1.0  0.0987
  H  H31  1  0.519600  0.529200  0.367600  1.0  0.0887
  H  H32  1  0.522700  0.607400  0.568100  1.0  0.1165
  H  H33  1  0.488100  0.633900  0.002300  1.0  0.0796
  H  H34  1  0.488400  0.714000  0.193900  1.0  0.1329
  H  H35  1  0.582200  0.717900  0.689300  1.0  0.1055
  H  H36  1  0.594100  0.802500  0.884400  1.0  0.1136
  H  H37  1  0.441400  0.822200  0.634500  1.0  0.1035
  H  H38  1  0.433200  0.740800  0.433300  1.0  0.1214
  H  H39  1  0.573800  0.852500  0.092400  1.0  0.1001
  H  H40  1  0.470800  0.990400  0.367600  1.0  0.0894
  H  H41  1  0.392600  0.915300  0.568100  1.0  0.117
  H  H42  1  0.366100  0.854200  0.002300  1.0  0.0798
  H  H43  1  0.286000  0.774400  0.193900  1.0  0.1339
  H  H44  1  0.282100  0.864300  0.689300  1.0  0.108
  H  H45  1  0.197500  0.791600  0.884400  1.0  0.1147
  H  H46  1  0.177800  0.619200  0.634500  1.0  0.1034
  H  H47  1  0.259200  0.692400  0.433300  1.0  0.1218
  H  H48  1  0.147500  0.721300  0.092400  1.0  0.1002
  H  H49  1  0.009600  0.480400  0.367600  1.0  0.0901
  H  H50  1  0.084700  0.477300  0.568100  1.0  0.1166
  H  H51  1  0.145800  0.511900  0.002300  1.0  0.0796
  H  H52  1  0.225600  0.511600  0.193900  1.0  0.1336
  H  H53  1  0.135700  0.417800  0.689300  1.0  0.1064
  H  H54  1  0.208400  0.405900  0.884400  1.0  0.1162
  H  H55  1  0.380800  0.558600  0.634500  1.0  0.1019
  H  H56  1  0.307600  0.566800  0.433300  1.0  0.1214
  H  H57  1  0.278700  0.426200  0.092400  1.0  0.0993
  C  C58  1  0.486000  0.432600  0.667600  1.0  0.1502
  C  C59  1  0.484300  0.386100  0.546600  1.0  -0.1663
  C  C60  1  0.493100  0.328800  0.595200  1.0  0.1144
  C  C61  1  0.504700  0.371200  0.882200  1.0  0.1849
  C  C62  1  0.504300  0.322700  0.768000  1.0  -0.191
  C  C63  1  0.490400  0.277500  0.464500  1.0  0.0605
  C  C64  1  0.444700  0.259600  0.324400  1.0  -0.1022
  C  C65  1  0.438300  0.209700  0.205600  1.0  -0.1344
  C  C66  1  0.480500  0.177000  0.219800  1.0  -0.075
  C  C67  1  0.529200  0.197700  0.356300  1.0  -0.0286
  C  C68  1  0.534300  0.246600  0.476900  1.0  -0.116
  C  C69  1  0.474100  0.121800  0.096900  1.0  0.3655
  C  C70  1  0.436500  0.112000  0.939100  1.0  -0.111
  C  C71  1  0.414500  0.055000  0.830600  1.0  0.2793
  C  C72  1  0.373800  0.055000  0.671100  1.0  0.5046
  C  C73  1  0.567400  0.053400  0.667600  1.0  0.1505
  C  C74  1  0.613900  0.098200  0.546600  1.0  -0.1648
  C  C75  1  0.671200  0.164300  0.595200  1.0  0.1148
  C  C76  1  0.628800  0.133500  0.882200  1.0  0.184
  C  C77  1  0.677300  0.181600  0.768000  1.0  -0.1924
  C  C78  1  0.722500  0.212900  0.464500  1.0  0.0607
  C  C79  1  0.740400  0.185100  0.324400  1.0  -0.0996
  C  C80  1  0.790300  0.228600  0.205600  1.0  -0.1353
  C  C81  1  0.823000  0.303500  0.219800  1.0  -0.0738
  C  C82  1  0.802300  0.331500  0.356300  1.0  -0.0255
  C  C83  1  0.753400  0.287700  0.476900  1.0  -0.1169
  C  C84  1  0.878200  0.352300  0.096900  1.0  0.3687
  C  C85  1  0.888000  0.324500  0.939100  1.0  -0.1168
  C  C86  1  0.945000  0.359500  0.830600  1.0  0.2747
  C  C87  1  0.945000  0.318800  0.671100  1.0  0.5088
  C  C88  1  0.946600  0.514000  0.667600  1.0  0.1479
  C  C89  1  0.901800  0.515700  0.546600  1.0  -0.1664
  C  C90  1  0.835700  0.506900  0.595200  1.0  0.1137
  C  C91  1  0.866500  0.495300  0.882200  1.0  0.1846
  C  C92  1  0.818400  0.495700  0.768000  1.0  -0.192
  C  C93  1  0.787100  0.509600  0.464500  1.0  0.0616
  C  C94  1  0.814900  0.555300  0.324400  1.0  -0.1031
  C  C95  1  0.771400  0.561700  0.205600  1.0  -0.136
  C  C96  1  0.696500  0.519500  0.219800  1.0  -0.0739
  C  C97  1  0.668500  0.470800  0.356300  1.0  -0.026
  C  C98  1  0.712300  0.465700  0.476900  1.0  -0.1159
  C  C99  1  0.647700  0.525900  0.096900  1.0  0.3662
  C  C100  1  0.675500  0.563500  0.939100  1.0  -0.1138
  C  C101  1  0.640500  0.585500  0.830600  1.0  0.2758
  C  C102  1  0.681200  0.626200  0.671100  1.0  0.5105
  C  C103  1  0.514000  0.567400  0.332400  1.0  0.1498
  C  C104  1  0.515700  0.613900  0.453400  1.0  -0.1658
  C  C105  1  0.506900  0.671200  0.404800  1.0  0.1147
  C  C106  1  0.495300  0.628800  0.117800  1.0  0.1839
  C  C107  1  0.495700  0.677300  0.232000  1.0  -0.19
  C  C108  1  0.509600  0.722500  0.535500  1.0  0.0616
  C  C109  1  0.555300  0.740400  0.675600  1.0  -0.1026
  C  C110  1  0.561700  0.790300  0.794400  1.0  -0.1337
  C  C111  1  0.519500  0.823000  0.780200  1.0  -0.0738
  C  C112  1  0.470800  0.802300  0.643700  1.0  -0.0287
  C  C113  1  0.465700  0.753400  0.523100  1.0  -0.1157
  C  C114  1  0.525900  0.878200  0.903100  1.0  0.3677
  C  C115  1  0.563500  0.888000  0.060900  1.0  -0.1092
  C  C116  1  0.585500  0.945000  0.169400  1.0  0.2796
  C  C117  1  0.626200  0.945000  0.328900  1.0  0.5038
  C  C118  1  0.432600  0.946600  0.332400  1.0  0.1509
  C  C119  1  0.386100  0.901800  0.453400  1.0  -0.1635
  C  C120  1  0.328800  0.835700  0.404800  1.0  0.1142
  C  C121  1  0.371200  0.866500  0.117800  1.0  0.1842
  C  C122  1  0.322700  0.818400  0.232000  1.0  -0.1925
  C  C123  1  0.277500  0.787100  0.535500  1.0  0.0606
  C  C124  1  0.259600  0.814900  0.675600  1.0  -0.1011
  C  C125  1  0.209700  0.771400  0.794400  1.0  -0.1354
  C  C126  1  0.177000  0.696500  0.780200  1.0  -0.0744
  C  C127  1  0.197700  0.668500  0.643700  1.0  -0.0253
  C  C128  1  0.246600  0.712300  0.523100  1.0  -0.1172
  C  C129  1  0.121800  0.647700  0.903100  1.0  0.3676
  C  C130  1  0.112000  0.675500  0.060900  1.0  -0.1161
  C  C131  1  0.055000  0.640500  0.169400  1.0  0.2752
  C  C132  1  0.055000  0.681200  0.328900  1.0  0.5092
  C  C133  1  0.053400  0.486000  0.332400  1.0  0.1499
  C  C134  1  0.098200  0.484300  0.453400  1.0  -0.1644
  C  C135  1  0.164300  0.493100  0.404800  1.0  0.114
  C  C136  1  0.133500  0.504700  0.117800  1.0  0.1848
  C  C137  1  0.181600  0.504300  0.232000  1.0  -0.1924
  C  C138  1  0.212900  0.490400  0.535500  1.0  0.0622
  C  C139  1  0.185100  0.444700  0.675600  1.0  -0.1027
  C  C140  1  0.228600  0.438300  0.794400  1.0  -0.135
  C  C141  1  0.303500  0.480500  0.780200  1.0  -0.0739
  C  C142  1  0.331500  0.529200  0.643700  1.0  -0.0249
  C  C143  1  0.287700  0.534300  0.523100  1.0  -0.1162
  C  C144  1  0.352300  0.474100  0.903100  1.0  0.3655
  C  C145  1  0.324500  0.436500  0.060900  1.0  -0.1143
  C  C146  1  0.359500  0.414500  0.169400  1.0  0.2763
  C  C147  1  0.318800  0.373800  0.328900  1.0  0.5104
  N  N148  1  0.495230  0.425590  0.835600  1.0  -0.3319
  N  N149  1  0.574410  0.069640  0.835600  1.0  -0.3305
  N  N150  1  0.930360  0.504770  0.835600  1.0  -0.3295
  N  N151  1  0.504770  0.574410  0.164400  1.0  -0.3311
  N  N152  1  0.425590  0.930360  0.164400  1.0  -0.3311
  N  N153  1  0.069640  0.495230  0.164400  1.0  -0.3275
  O  O154  1  0.422260  0.000730  0.837800  1.0  -0.5621
  O  O155  1  0.503490  0.086030  0.140600  1.0  -0.561
  O  O156  1  0.999270  0.421530  0.837800  1.0  -0.5599
  O  O157  1  0.913970  0.417460  0.140600  1.0  -0.5608
  O  O158  1  0.578470  0.577740  0.837800  1.0  -0.5611
  O  O159  1  0.582540  0.496510  0.140600  1.0  -0.5613
  O  O160  1  0.577740  0.999270  0.162200  1.0  -0.5615
  O  O161  1  0.496510  0.913970  0.859400  1.0  -0.5609
  O  O162  1  0.000730  0.578470  0.162200  1.0  -0.5605
  O  O163  1  0.086030  0.582540  0.859400  1.0  -0.5598
  O  O164  1  0.421530  0.422260  0.162200  1.0  -0.5623
  O  O165  1  0.417460  0.503490  0.859400  1.0  -0.5613
  F  F166  1  0.406700  0.053940  0.528400  1.0  -0.2629
  F  F167  1  0.307600  0.995400  0.669800  1.0  -0.1751
  F  F168  1  0.362500  0.110420  0.657700  1.0  -0.1732
  F  F169  1  0.946060  0.352760  0.528400  1.0  -0.2614
  F  F170  1  0.004600  0.312200  0.669800  1.0  -0.1765
  F  F171  1  0.889580  0.252080  0.657700  1.0  -0.1723
  F  F172  1  0.647240  0.593300  0.528400  1.0  -0.2613
  F  F173  1  0.687800  0.692400  0.669800  1.0  -0.1743
  F  F174  1  0.747920  0.637500  0.657700  1.0  -0.17
  F  F175  1  0.593300  0.946060  0.471600  1.0  -0.2649
  F  F176  1  0.692400  0.004600  0.330200  1.0  -0.1748
  F  F177  1  0.637500  0.889580  0.342300  1.0  -0.1727
  F  F178  1  0.053940  0.647240  0.471600  1.0  -0.2608
  F  F179  1  0.995400  0.687800  0.330200  1.0  -0.1769
  F  F180  1  0.110420  0.747920  0.342300  1.0  -0.1764
  F  F181  1  0.352760  0.406700  0.471600  1.0  -0.2609
  F  F182  1  0.312200  0.307600  0.330200  1.0  -0.1715
  F  F183  1  0.252080  0.362500  0.342300  1.0  -0.1736
