# generated using pymatgen
data_Cu3H10C7N11
_symmetry_space_group_name_H-M   'P 1'
_cell_length_a   8.34250000
_cell_length_b   11.93370000
_cell_length_c   21.66410000
_cell_angle_alpha   90.00000000
_cell_angle_beta   90.00000000
_cell_angle_gamma   90.00000000
_symmetry_Int_Tables_number   1
_chemical_formula_structural   Cu3H10C7N11
_chemical_formula_sum   'Cu12 H40 C28 N44'
_cell_volume   2156.81046939
_cell_formula_units_Z   4
loop_
 _symmetry_equiv_pos_site_id
 _symmetry_equiv_pos_as_xyz
  1  'x, y, z'
loop_
 _atom_site_type_symbol
 _atom_site_label
 _atom_site_symmetry_multiplicity
 _atom_site_fract_x
 _atom_site_fract_y
 _atom_site_fract_z
 _atom_site_occupancy
 _atom_site_charge
  Cu  Cu1  1  0.526830  0.358910  0.501620  1.0  0.5045
  Cu  Cu2  1  0.941420  0.356360  0.499050  1.0  0.4912
  Cu  Cu3  1  0.759000  0.522450  0.746100  1.0  0.646
  Cu  Cu4  1  0.973170  0.641090  0.001620  1.0  0.5049
  Cu  Cu5  1  0.558580  0.643640  0.999050  1.0  0.4916
  Cu  Cu6  1  0.741000  0.477550  0.246100  1.0  0.6442
  Cu  Cu7  1  0.473170  0.858910  0.998380  1.0  0.5031
  Cu  Cu8  1  0.058580  0.856360  0.000950  1.0  0.4911
  Cu  Cu9  1  0.241000  0.022450  0.753900  1.0  0.6467
  Cu  Cu10  1  0.026830  0.141090  0.498380  1.0  0.5055
  Cu  Cu11  1  0.441420  0.143640  0.500950  1.0  0.4916
  Cu  Cu12  1  0.259000  0.977550  0.253900  1.0  0.6447
  H  H13  1  0.075080  0.523770  0.638230  1.0  0.0809
  H  H14  1  0.457500  0.653080  0.827370  1.0  0.0956
  H  H15  1  0.076820  0.300520  0.680200  1.0  0.0859
  H  H16  1  0.228030  0.378480  0.678900  1.0  0.0862
  H  H17  1  0.148450  0.339820  0.616900  1.0  0.0987
  H  H18  1  0.403300  0.428590  0.864240  1.0  0.1131
  H  H19  1  0.270730  0.510280  0.839640  1.0  0.1037
  H  H20  1  0.351690  0.532530  0.903780  1.0  0.102
  H  H21  1  0.042450  0.560840  0.732270  1.0  0.2952
  H  H22  1  0.028140  0.445560  0.750270  1.0  0.2696
  H  H23  1  0.424920  0.476230  0.138230  1.0  0.0806
  H  H24  1  0.042500  0.346920  0.327370  1.0  0.0947
  H  H25  1  0.423180  0.699480  0.180200  1.0  0.0866
  H  H26  1  0.271970  0.621520  0.178900  1.0  0.0897
  H  H27  1  0.351550  0.660180  0.116900  1.0  0.0989
  H  H28  1  0.096700  0.571410  0.364240  1.0  0.1146
  H  H29  1  0.229270  0.489720  0.339640  1.0  0.0997
  H  H30  1  0.148310  0.467470  0.403780  1.0  0.1014
  H  H31  1  0.457550  0.439160  0.232270  1.0  0.2877
  H  H32  1  0.471860  0.554440  0.250270  1.0  0.269
  H  H33  1  0.924920  0.023770  0.861770  1.0  0.0808
  H  H34  1  0.542500  0.153080  0.672630  1.0  0.0953
  H  H35  1  0.923180  0.800520  0.819800  1.0  0.0857
  H  H36  1  0.771970  0.878480  0.821100  1.0  0.09
  H  H37  1  0.851550  0.839820  0.883100  1.0  0.0975
  H  H38  1  0.596700  0.928590  0.635760  1.0  0.1134
  H  H39  1  0.729270  0.010280  0.660360  1.0  0.0996
  H  H40  1  0.648310  0.032530  0.596220  1.0  0.1022
  H  H41  1  0.957550  0.060840  0.767730  1.0  0.2966
  H  H42  1  0.971860  0.945560  0.749730  1.0  0.2711
  H  H43  1  0.575080  0.976230  0.361770  1.0  0.0816
  H  H44  1  0.957500  0.846920  0.172630  1.0  0.0938
  H  H45  1  0.576820  0.199480  0.319800  1.0  0.0888
  H  H46  1  0.728030  0.121520  0.321100  1.0  0.0874
  H  H47  1  0.648450  0.160180  0.383100  1.0  0.0988
  H  H48  1  0.903300  0.071410  0.135760  1.0  0.1156
  H  H49  1  0.770730  0.989720  0.160360  1.0  0.1031
  H  H50  1  0.851690  0.967470  0.096220  1.0  0.1012
  H  H51  1  0.542450  0.939160  0.267730  1.0  0.2879
  H  H52  1  0.528140  0.054440  0.249730  1.0  0.271
  C  C53  1  0.303900  0.334400  0.499300  1.0  0.0221
  C  C54  1  0.652300  0.580000  0.864500  1.0  0.2904
  C  C55  1  0.860800  0.441800  0.631200  1.0  0.2597
  C  C56  1  0.021800  0.462300  0.660100  1.0  0.0599
  C  C57  1  0.498000  0.576300  0.831000  1.0  0.0137
  C  C58  1  0.128300  0.361200  0.658900  1.0  -0.3538
  C  C59  1  0.368900  0.505300  0.862600  1.0  -0.3712
  C  C60  1  0.196100  0.665600  0.999300  1.0  0.0214
  C  C61  1  0.847700  0.420000  0.364500  1.0  0.2902
  C  C62  1  0.639200  0.558200  0.131200  1.0  0.2613
  C  C63  1  0.478200  0.537700  0.160100  1.0  0.059
  C  C64  1  0.002000  0.423700  0.331000  1.0  0.0149
  C  C65  1  0.371700  0.638800  0.158900  1.0  -0.3531
  C  C66  1  0.131100  0.494700  0.362600  1.0  -0.371
  C  C67  1  0.696100  0.834400  0.000700  1.0  0.022
  C  C68  1  0.347700  0.080000  0.635500  1.0  0.2876
  C  C69  1  0.139200  0.941800  0.868800  1.0  0.2599
  C  C70  1  0.978200  0.962300  0.839900  1.0  0.059
  C  C71  1  0.502000  0.076300  0.669000  1.0  0.0151
  C  C72  1  0.871700  0.861200  0.841100  1.0  -0.3534
  C  C73  1  0.631100  0.005300  0.637400  1.0  -0.3724
  C  C74  1  0.803900  0.165600  0.500700  1.0  0.0214
  C  C75  1  0.152300  0.920000  0.135500  1.0  0.2901
  C  C76  1  0.360800  0.058200  0.368800  1.0  0.2605
  C  C77  1  0.521800  0.037700  0.339900  1.0  0.0589
  C  C78  1  0.998000  0.923700  0.169000  1.0  0.0136
  C  C79  1  0.628300  0.138800  0.341100  1.0  -0.3539
  C  C80  1  0.868900  0.994700  0.137400  1.0  -0.3704
  N  N81  1  0.822100  0.406600  0.575100  1.0  -0.3421
  N  N82  1  0.846300  0.591800  0.926700  1.0  -0.0208
  N  N83  1  0.684200  0.600400  0.922500  1.0  -0.2773
  N  N84  1  0.656300  0.405200  0.574200  1.0  -0.0478
  N  N85  1  0.727100  0.461400  0.663500  1.0  -0.2222
  N  N86  1  0.909400  0.569000  0.872900  1.0  -0.2236
  N  N87  1  0.786100  0.560400  0.833400  1.0  -0.1907
  N  N88  1  0.600500  0.438400  0.626800  1.0  -0.1674
  N  N89  1  0.167700  0.335200  0.498100  1.0  -0.3688
  N  N90  1  0.525200  0.532000  0.767600  1.0  -0.4082
  N  N91  1  0.989100  0.497600  0.725000  1.0  -0.6161
  N  N92  1  0.677900  0.593400  0.075100  1.0  -0.3422
  N  N93  1  0.653700  0.408200  0.426700  1.0  -0.0189
  N  N94  1  0.815800  0.399600  0.422500  1.0  -0.2758
  N  N95  1  0.843700  0.594800  0.074200  1.0  -0.0496
  N  N96  1  0.772900  0.538600  0.163500  1.0  -0.2253
  N  N97  1  0.590600  0.431000  0.372900  1.0  -0.2268
  N  N98  1  0.713900  0.439600  0.333400  1.0  -0.1911
  N  N99  1  0.899500  0.561600  0.126800  1.0  -0.1672
  N  N100  1  0.332300  0.664800  0.998100  1.0  -0.3699
  N  N101  1  0.974800  0.468000  0.267600  1.0  -0.4084
  N  N102  1  0.510900  0.502400  0.225000  1.0  -0.6143
  N  N103  1  0.177900  0.906600  0.924900  1.0  -0.3443
  N  N104  1  0.153700  0.091800  0.573300  1.0  -0.02
  N  N105  1  0.315800  0.100400  0.577500  1.0  -0.275
  N  N106  1  0.343700  0.905200  0.925800  1.0  -0.0493
  N  N107  1  0.272900  0.961400  0.836500  1.0  -0.2278
  N  N108  1  0.090600  0.069000  0.627100  1.0  -0.2252
  N  N109  1  0.213900  0.060400  0.666667  1.0  -0.1928
  N  N110  1  0.399500  0.938400  0.873200  1.0  -0.1679
  N  N111  1  0.832300  0.835200  0.001900  1.0  -0.3726
  N  N112  1  0.474800  0.032000  0.732400  1.0  -0.4068
  N  N113  1  0.010900  0.997600  0.775000  1.0  -0.6137
  N  N114  1  0.322100  0.093400  0.424900  1.0  -0.3442
  N  N115  1  0.346300  0.908200  0.073300  1.0  -0.0201
  N  N116  1  0.184200  0.899600  0.077500  1.0  -0.2755
  N  N117  1  0.156300  0.094800  0.425800  1.0  -0.0473
  N  N118  1  0.227100  0.038600  0.336500  1.0  -0.2255
  N  N119  1  0.409400  0.931000  0.127100  1.0  -0.2249
  N  N120  1  0.286100  0.939600  0.166600  1.0  -0.1915
  N  N121  1  0.100500  0.061600  0.373200  1.0  -0.1667
  N  N122  1  0.667700  0.164800  0.501900  1.0  -0.3739
  N  N123  1  0.025200  0.968000  0.232400  1.0  -0.4085
  N  N124  1  0.489100  0.002400  0.275000  1.0  -0.6144
