# generated using pymatgen
data_CuH24(C3N)12
_symmetry_space_group_name_H-M   'P 1'
_cell_length_a   12.57570000
_cell_length_b   13.47050000
_cell_length_c   14.24080000
_cell_angle_alpha   99.64100000
_cell_angle_beta   95.82300000
_cell_angle_gamma   117.24500000
_symmetry_Int_Tables_number   1
_chemical_formula_structural   CuH24(C3N)12
_chemical_formula_sum   'Cu2 H48 C72 N24'
_cell_volume   2070.35062903
_cell_formula_units_Z   2
loop_
 _symmetry_equiv_pos_site_id
 _symmetry_equiv_pos_as_xyz
  1  'x, y, z'
loop_
 _atom_site_type_symbol
 _atom_site_label
 _atom_site_symmetry_multiplicity
 _atom_site_fract_x
 _atom_site_fract_y
 _atom_site_fract_z
 _atom_site_occupancy
 _atom_site_charge
  Cu  Cu1  1  0.000000  0.500000  0.500000  1.0  0.3333
  Cu  Cu2  1  0.500000  0.000000  0.000000  1.0  0.507
  H  H3  1  0.905800  0.626900  0.358700  1.0  0.0792
  H  H4  1  0.874300  0.610900  0.627600  1.0  0.1076
  H  H5  1  0.960800  0.901100  0.562600  1.0  0.0936
  H  H6  1  0.037900  0.096300  0.613600  1.0  0.0919
  H  H7  1  0.922900  0.173000  0.687700  1.0  0.1024
  H  H8  1  0.735100  0.052800  0.716000  1.0  0.0936
  H  H9  1  0.436500  0.659800  0.739100  1.0  0.0924
  H  H10  1  0.373100  0.466200  0.709300  1.0  0.1058
  H  H11  1  0.470300  0.386600  0.613100  1.0  0.0915
  H  H12  1  0.638200  0.502500  0.558000  1.0  0.0853
  H  H13  1  0.666200  0.941500  0.878100  1.0  0.1081
  H  H14  1  0.339000  0.889400  0.774200  1.0  0.0781
  H  H15  1  0.415500  0.733700  0.956200  1.0  0.1173
  H  H16  1  0.707400  0.980900  0.141100  1.0  0.0778
  H  H17  1  0.691100  0.735600  0.923800  1.0  0.0916
  H  H18  1  0.787200  0.673600  0.819000  1.0  0.1067
  H  H19  1  0.740500  0.479100  0.782100  1.0  0.0878
  H  H20  1  0.598600  0.348000  0.848500  1.0  0.1043
  H  H21  1  0.443200  0.740800  0.360500  1.0  0.0964
  H  H22  1  0.620100  0.772400  0.307300  1.0  0.1009
  H  H23  1  0.792600  0.958100  0.350600  1.0  0.0992
  H  H24  1  0.788900  0.108000  0.451000  1.0  0.0899
  H  H25  1  0.079000  0.579200  0.302300  1.0  0.086
  H  H26  1  0.264400  0.726400  0.570900  1.0  0.0982
  H  H27  1  0.094200  0.373100  0.641300  1.0  0.0787
  H  H28  1  0.125700  0.389100  0.372400  1.0  0.1094
  H  H29  1  0.039200  0.098900  0.437400  1.0  0.0941
  H  H30  1  0.962100  0.903700  0.386400  1.0  0.0916
  H  H31  1  0.077100  0.827000  0.312300  1.0  0.1019
  H  H32  1  0.264900  0.947200  0.284000  1.0  0.0933
  H  H33  1  0.563500  0.340200  0.260900  1.0  0.092
  H  H34  1  0.626900  0.533800  0.290700  1.0  0.1055
  H  H35  1  0.529700  0.613400  0.386900  1.0  0.0918
  H  H36  1  0.361800  0.497500  0.442000  1.0  0.0853
  H  H37  1  0.333800  0.058500  0.121900  1.0  0.1084
  H  H38  1  0.661000  0.110600  0.225800  1.0  0.0779
  H  H39  1  0.584500  0.266300  0.043800  1.0  0.117
  H  H40  1  0.292600  0.019100  0.858900  1.0  0.0776
  H  H41  1  0.308900  0.264400  0.076200  1.0  0.0906
  H  H42  1  0.212800  0.326400  0.181000  1.0  0.1055
  H  H43  1  0.259500  0.520900  0.217900  1.0  0.0868
  H  H44  1  0.401400  0.652000  0.151500  1.0  0.1044
  H  H45  1  0.556800  0.259200  0.639500  1.0  0.0961
  H  H46  1  0.379900  0.227600  0.692700  1.0  0.1008
  H  H47  1  0.207400  0.041900  0.649400  1.0  0.1002
  H  H48  1  0.211100  0.892000  0.549000  1.0  0.0902
  H  H49  1  0.921000  0.420800  0.697700  1.0  0.0877
  H  H50  1  0.735600  0.273600  0.429100  1.0  0.0984
  C  C51  1  0.884400  0.636600  0.420400  1.0  0.2612
  C  C52  1  0.869200  0.626700  0.565200  1.0  0.1428
  C  C53  1  0.800500  0.853100  0.614100  1.0  -0.0408
  C  C54  1  0.915300  0.930500  0.595400  1.0  -0.0833
  C  C55  1  0.959800  0.045700  0.624000  1.0  -0.1185
  C  C56  1  0.891300  0.092000  0.669500  1.0  -0.0995
  C  C57  1  0.781100  0.021100  0.687100  1.0  -0.117
  C  C58  1  0.733300  0.899800  0.662800  1.0  -0.0534
  C  C59  1  0.625900  0.822800  0.687670  1.0  0.1165
  C  C60  1  0.582000  0.704700  0.669100  1.0  -0.0563
  C  C61  1  0.478900  0.629300  0.703000  1.0  -0.1199
  C  C62  1  0.440500  0.514900  0.684400  1.0  -0.0958
  C  C63  1  0.500200  0.467400  0.628200  1.0  -0.0913
  C  C64  1  0.599400  0.536000  0.595600  1.0  -0.132
  C  C65  1  0.646700  0.657700  0.616500  1.0  -0.0272
  C  C66  1  0.752500  0.733800  0.589700  1.0  0.0726
  C  C67  1  0.591700  0.919900  0.835800  1.0  0.1306
  C  C68  1  0.415400  0.890600  0.777900  1.0  0.2284
  C  C69  1  0.489800  0.775300  0.003200  1.0  0.1312
  C  C70  1  0.647800  0.906700  0.103300  1.0  0.2201
  C  C71  1  0.526000  0.612600  0.020900  1.0  0.1496
  C  C72  1  0.585100  0.579200  0.955300  1.0  -0.0617
  C  C73  1  0.672300  0.657200  0.910100  1.0  -0.0948
  C  C74  1  0.728500  0.620700  0.847900  1.0  -0.1169
  C  C75  1  0.700100  0.503600  0.825800  1.0  -0.0721
  C  C76  1  0.617300  0.426300  0.865400  1.0  -0.096
  C  C77  1  0.557700  0.461500  0.932500  1.0  -0.035
  C  C78  1  0.399000  0.892000  0.473530  1.0  0.0975
  C  C79  1  0.504500  0.907300  0.439500  1.0  0.0094
  C  C80  1  0.512100  0.815700  0.378900  1.0  -0.1177
  C  C81  1  0.616600  0.834300  0.347400  1.0  -0.0824
  C  C82  1  0.720600  0.945700  0.374000  1.0  -0.0848
  C  C83  1  0.717900  0.034600  0.432600  1.0  -0.1046
  C  C84  1  0.610000  0.019400  0.467040  1.0  -0.0225
  C  C85  1  0.139600  0.633500  0.357100  1.0  0.2185
  C  C86  1  0.237600  0.710700  0.502700  1.0  0.1468
  C  C87  1  0.115600  0.363400  0.579600  1.0  0.2597
  C  C88  1  0.130800  0.373300  0.434800  1.0  0.1426
  C  C89  1  0.199500  0.146900  0.385900  1.0  -0.0415
  C  C90  1  0.084700  0.069500  0.404600  1.0  -0.0824
  C  C91  1  0.040200  0.954300  0.376000  1.0  -0.1194
  C  C92  1  0.108700  0.908000  0.330500  1.0  -0.1002
  C  C93  1  0.218900  0.978900  0.312900  1.0  -0.1176
  C  C94  1  0.266700  0.100200  0.337200  1.0  -0.053
  C  C95  1  0.374100  0.177200  0.312330  1.0  0.1169
  C  C96  1  0.418000  0.295300  0.330900  1.0  -0.0567
  C  C97  1  0.521100  0.370700  0.297000  1.0  -0.1193
  C  C98  1  0.559500  0.485100  0.315600  1.0  -0.096
  C  C99  1  0.499800  0.532600  0.371800  1.0  -0.092
  C  C100  1  0.400600  0.464000  0.404400  1.0  -0.1314
  C  C101  1  0.353300  0.342300  0.383500  1.0  -0.027
  C  C102  1  0.247500  0.266200  0.410300  1.0  0.0721
  C  C103  1  0.408300  0.080100  0.164200  1.0  0.1307
  C  C104  1  0.584600  0.109400  0.222100  1.0  0.2274
  C  C105  1  0.510200  0.224700  0.996800  1.0  0.1323
  C  C106  1  0.352200  0.093300  0.896700  1.0  0.2197
  C  C107  1  0.474000  0.387400  0.979100  1.0  0.1501
  C  C108  1  0.414900  0.420800  0.044700  1.0  -0.0606
  C  C109  1  0.327700  0.342800  0.089900  1.0  -0.0968
  C  C110  1  0.271500  0.379300  0.152100  1.0  -0.1179
  C  C111  1  0.299900  0.496400  0.174200  1.0  -0.0759
  C  C112  1  0.382700  0.573700  0.134600  1.0  -0.0964
  C  C113  1  0.442300  0.538500  0.067500  1.0  -0.0347
  C  C114  1  0.601000  0.108000  0.526470  1.0  0.0969
  C  C115  1  0.495500  0.092700  0.560500  1.0  0.0087
  C  C116  1  0.487900  0.184300  0.621100  1.0  -0.116
  C  C117  1  0.383400  0.165700  0.652600  1.0  -0.0829
  C  C118  1  0.279400  0.054300  0.626000  1.0  -0.0849
  C  C119  1  0.282100  0.965400  0.567400  1.0  -0.1042
  C  C120  1  0.390000  0.980600  0.532960  1.0  -0.0227
  C  C121  1  0.860400  0.366500  0.642900  1.0  0.2188
  C  C122  1  0.762400  0.289300  0.497300  1.0  0.1451
  N  N123  1  0.912500  0.592640  0.493080  1.0  -0.4148
  N  N124  1  0.825600  0.693100  0.443070  1.0  -0.3738
  N  N125  1  0.817200  0.686490  0.536950  1.0  0.1053
  N  N126  1  0.561600  0.868330  0.742070  1.0  0.1029
  N  N127  1  0.447000  0.847900  0.702880  1.0  -0.3831
  N  N128  1  0.501500  0.936730  0.861540  1.0  -0.4194
  N  N129  1  0.547900  0.888100  0.040500  1.0  -0.4013
  N  N130  1  0.552000  0.730200  0.041870  1.0  0.1183
  N  N131  1  0.654500  0.813500  0.106800  1.0  -0.3755
  N  N132  1  0.138500  0.617490  0.449110  1.0  -0.387
  N  N133  1  0.231600  0.730200  0.350620  1.0  -0.3828
  N  N134  1  0.293400  0.778830  0.445160  1.0  0.1113
  N  N135  1  0.087500  0.407360  0.506920  1.0  -0.4165
  N  N136  1  0.174400  0.306900  0.556930  1.0  -0.3755
  N  N137  1  0.182800  0.313510  0.463050  1.0  0.1049
  N  N138  1  0.438400  0.131670  0.257930  1.0  0.1045
  N  N139  1  0.553000  0.152100  0.297120  1.0  -0.3852
  N  N140  1  0.498500  0.063270  0.138460  1.0  -0.4198
  N  N141  1  0.452100  0.111900  0.959500  1.0  -0.3992
  N  N142  1  0.448000  0.269800  0.958130  1.0  0.1172
  N  N143  1  0.345500  0.186500  0.893200  1.0  -0.3746
  N  N144  1  0.861500  0.382510  0.550890  1.0  -0.3866
  N  N145  1  0.768400  0.269800  0.649380  1.0  -0.3849
  N  N146  1  0.706600  0.221170  0.554840  1.0  0.1112
