# generated using pymatgen
data_Zn2H9C17N3O8
_symmetry_space_group_name_H-M   'P 1'
_cell_length_a   8.59740000
_cell_length_b   10.65460000
_cell_length_c   7.68150000
_cell_angle_alpha   84.20500000
_cell_angle_beta   103.47500000
_cell_angle_gamma   84.90990000
_symmetry_Int_Tables_number   1
_chemical_formula_structural   Zn2H9C17N3O8
_chemical_formula_sum   'Zn2 H9 C17 N3 O8'
_cell_volume   676.17532209
_cell_formula_units_Z   1
loop_
 _symmetry_equiv_pos_site_id
 _symmetry_equiv_pos_as_xyz
  1  'x, y, z'
loop_
 _atom_site_type_symbol
 _atom_site_label
 _atom_site_symmetry_multiplicity
 _atom_site_fract_x
 _atom_site_fract_y
 _atom_site_fract_z
 _atom_site_occupancy
 _atom_site_charge
  Zn  Zn1  1  0.904440  0.156100  0.481870  1.0  0.9674
  Zn  Zn2  1  0.865100  0.187440  0.090050  1.0  0.9653
  H  H3  1  0.860250  0.935340  0.962910  1.0  0.2156
  H  H4  1  0.434140  0.155450  0.499200  1.0  0.0957
  H  H5  1  0.026300  0.059070  0.838900  1.0  0.1759
  H  H6  1  0.335410  0.188080  0.072720  1.0  0.1026
  H  H7  1  0.910280  0.529430  0.579460  1.0  0.2121
  H  H8  1  0.818710  0.602400  0.667000  1.0  0.2919
  H  H9  1  0.844200  0.460040  0.960510  1.0  0.1667
  H  H10  1  0.918240  0.767090  0.580660  1.0  0.2987
  H  H11  1  0.743280  0.284460  0.733040  1.0  0.0901
  C  C12  1  0.593460  0.180950  0.241760  1.0  0.6711
  C  C13  1  0.416490  0.178490  0.214910  1.0  -0.1389
  C  C14  1  0.893870  0.942170  0.287330  1.0  0.5308
  C  C15  1  0.889180  0.802760  0.286610  1.0  -0.1099
  C  C16  1  0.870710  0.750230  0.124180  1.0  -0.028
  C  C17  1  0.866290  0.619240  0.123510  1.0  -0.0404
  C  C18  1  0.898830  0.593320  0.447740  1.0  -0.1763
  C  C19  1  0.903230  0.724310  0.448400  1.0  -0.1606
  C  C20  1  0.856650  0.828680  0.962390  1.0  -0.1345
  C  C21  1  0.838180  0.776150  0.799940  1.0  -0.0924
  C  C22  1  0.833760  0.645160  0.799280  1.0  -0.145
  C  C23  1  0.847820  0.566700  0.961070  1.0  -0.1391
  C  C24  1  0.176080  0.162590  0.330150  1.0  0.6688
  C  C25  1  0.353050  0.165060  0.356990  1.0  -0.1517
  C  C26  1  0.875670  0.401370  0.284580  1.0  0.6523
  C  C27  1  0.880360  0.540780  0.285290  1.0  -0.1644
  C  C28  1  0.822720  0.862460  0.621980  1.0  0.3054
  N  N29  1  0.931300  0.134710  0.749280  1.0  0.0429
  N  N30  1  0.838260  0.208820  0.822640  1.0  0.0566
  N  N31  1  0.811070  0.927460  0.487940  1.0  -0.1416
  O  O32  1  0.101760  0.173660  0.172450  1.0  -0.6068
  O  O33  1  0.637920  0.193670  0.102080  1.0  -0.5862
  O  O34  1  0.880510  0.000850  0.138880  1.0  -0.7186
  O  O35  1  0.859180  0.366480  0.135650  1.0  -0.6647
  O  O36  1  0.910360  0.977070  0.436270  1.0  -0.5202
  O  O37  1  0.667780  0.169880  0.399470  1.0  -0.6018
  O  O38  1  0.131620  0.149870  0.469840  1.0  -0.5845
  O  O39  1  0.889040  0.342690  0.433040  1.0  -0.6048
