# generated using pymatgen
data_Cu8H48C74N8O59
_symmetry_space_group_name_H-M   'P 1'
_cell_length_a   33.51060000
_cell_length_b   33.50970000
_cell_length_c   33.50650000
_cell_angle_alpha   60.00420000
_cell_angle_beta   60.00840000
_cell_angle_gamma   59.99480000
_symmetry_Int_Tables_number   1
_chemical_formula_structural   Cu8H48C74N8O59
_chemical_formula_sum   'Cu8 H48 C74 N8 O59'
_cell_volume   26606.70442163
_cell_formula_units_Z   1
loop_
 _symmetry_equiv_pos_site_id
 _symmetry_equiv_pos_as_xyz
  1  'x, y, z'
loop_
 _atom_site_type_symbol
 _atom_site_label
 _atom_site_symmetry_multiplicity
 _atom_site_fract_x
 _atom_site_fract_y
 _atom_site_fract_z
 _atom_site_occupancy
 _atom_site_charge
  Cu  Cu1  1  0.067790  0.511070  0.469680  1.0  0.8854
  Cu  Cu2  1  0.035700  0.478990  0.437700  1.0  0.8301
  Cu  Cu3  1  0.502590  0.511240  0.469300  1.0  0.9016
  Cu  Cu4  1  0.598720  0.479270  0.437150  1.0  0.9328
  Cu  Cu5  1  0.067760  0.945810  0.469620  1.0  0.9001
  Cu  Cu6  1  0.035660  0.041950  0.437590  1.0  0.9124
  Cu  Cu7  1  0.068160  0.511030  0.904220  1.0  0.9119
  Cu  Cu8  1  0.036150  0.478970  0.000350  1.0  0.9312
  H  H9  1  0.047050  0.603770  0.739820  1.0  0.1353
  H  H10  1  0.846250  0.305800  0.360870  1.0  0.1484
  H  H11  1  0.550630  0.585290  0.481180  1.0  0.1642
  H  H12  1  0.025770  0.620000  0.321450  1.0  0.1572
  H  H13  1  0.169370  0.994240  0.363050  1.0  0.1658
  H  H14  1  0.119970  0.993910  0.539210  1.0  0.1486
  H  H15  1  0.992820  0.596420  0.500910  1.0  0.1996
  H  H16  1  0.961750  0.612810  0.952330  1.0  0.164
  H  H17  1  0.137830  0.563180  0.952290  1.0  0.1516
  H  H18  1  0.983450  0.993840  0.368000  1.0  0.1448
  H  H19  1  0.933940  0.993840  0.544050  1.0  0.1626
  H  H20  1  0.550830  0.404830  0.571000  1.0  0.1699
  H  H21  1  0.982620  0.599400  0.813050  1.0  0.3014
  H  H22  1  0.162610  0.348100  0.985370  1.0  0.1504
  H  H23  1  0.966510  0.426850  0.952190  1.0  0.1453
  H  H24  1  0.550470  0.585680  0.335450  1.0  0.1649
  H  H25  1  0.199940  0.509580  0.829430  1.0  0.2489
  H  H26  1  0.232280  0.501430  0.759280  1.0  0.2721
  H  H27  1  0.178080  0.734720  0.460110  1.0  0.2721
  H  H28  1  0.000260  0.617280  0.575900  1.0  0.266
  H  H29  1  0.167500  0.497100  0.455560  1.0  0.1256
  H  H30  1  0.914150  0.169370  0.425140  1.0  0.2585
  H  H31  1  0.079600  0.377130  0.543840  1.0  0.1792
  H  H32  1  0.974360  0.284260  0.264120  1.0  0.225
  H  H33  1  0.232000  0.501470  0.459870  1.0  0.2931
  H  H34  1  0.338160  0.490870  0.552900  1.0  0.1454
  H  H35  1  0.430970  0.459950  0.521890  1.0  0.141
  H  H36  1  0.169570  0.467410  0.363390  1.0  0.1579
  H  H37  1  0.583850  0.363130  0.427080  1.0  0.1546
  H  H38  1  0.021950  0.308680  0.320040  1.0  0.1419
  H  H39  1  0.411290  0.656420  0.456010  1.0  0.2881
  H  H40  1  0.897950  0.562820  0.539800  1.0  0.1592
  H  H41  1  0.129500  0.874190  0.417700  1.0  0.1338
  H  H42  1  0.357700  0.674270  0.473920  1.0  0.284
  H  H43  1  0.084810  0.781310  0.600220  1.0  0.1537
  H  H44  1  0.012270  0.871070  0.601430  1.0  0.1479
  H  H45  1  0.896590  0.526910  0.177270  1.0  0.2495
  H  H46  1  0.895650  0.512560  0.247470  1.0  0.1342
  H  H47  1  0.909050  0.465930  0.310630  1.0  0.4522
  H  H48  1  0.029380  0.298550  0.194020  1.0  0.2781
  H  H49  1  0.939930  0.496830  0.341690  1.0  0.1419
  H  H50  1  0.984670  0.314300  0.386580  1.0  0.1721
  H  H51  1  0.029020  0.298570  0.431140  1.0  0.3095
  H  H52  1  0.086030  0.235430  0.329380  1.0  0.3082
  H  H53  1  0.865390  0.352320  0.424290  1.0  0.1272
  H  H54  1  0.772810  0.459120  0.303400  1.0  0.1466
  H  H55  1  0.792130  0.356760  0.488690  1.0  0.2941
  H  H56  1  0.865630  0.428100  0.272600  1.0  0.1174
  C  C57  1  0.143030  0.720290  0.544740  1.0  0.1535
  C  C58  1  0.143170  0.586250  0.678710  1.0  0.0516
  C  C59  1  0.143040  0.586280  0.544740  1.0  0.0756
  C  C60  1  0.277090  0.586310  0.544640  1.0  0.1005
  C  C61  1  0.157790  0.676070  0.559460  1.0  0.179
  C  C62  1  0.157870  0.601010  0.634490  1.0  0.1632
  C  C63  1  0.232870  0.601040  0.559410  1.0  0.1459
  C  C64  1  0.157800  0.601020  0.559460  1.0  0.1536
  C  C65  1  0.124240  0.776580  0.525990  1.0  -0.0904
  C  C66  1  0.124260  0.567510  0.526000  1.0  -0.0149
  C  C67  1  0.176580  0.619780  0.578210  1.0  0.0128
  C  C68  1  0.358940  0.600430  0.501510  1.0  0.0556
  C  C69  1  0.410100  0.583390  0.484420  1.0  0.3081
  C  C70  1  0.410140  0.500600  0.516000  1.0  0.291
  C  C71  1  0.358970  0.517640  0.533080  1.0  -0.0552
  C  C72  1  0.136550  0.802180  0.475690  1.0  0.0828
  C  C73  1  0.119470  0.853350  0.458660  1.0  0.3165
  C  C74  1  0.077760  0.853320  0.542220  1.0  0.3246
  C  C75  1  0.094840  0.802150  0.559260  1.0  -0.0575
  C  C76  1  0.073950  0.579860  0.538400  1.0  0.0611
  C  C77  1  0.056880  0.562800  0.521350  1.0  0.3122
  C  C78  1  0.140430  0.521050  0.479520  1.0  0.2531
  C  C79  1  0.157500  0.538110  0.496560  1.0  0.0616
  C  C80  1  0.074160  0.579820  0.760620  1.0  -0.0852
  C  C81  1  0.057150  0.562740  0.811790  1.0  0.3395
  C  C82  1  0.140730  0.520990  0.811720  1.0  0.3144
  C  C83  1  0.157740  0.538060  0.760550  1.0  0.1426
  C  C84  1  0.124450  0.567480  0.735000  1.0  -0.0708
  C  C85  1  0.333370  0.567560  0.525840  1.0  -0.0488
  C  C86  1  0.979390  0.422350  0.170300  1.0  0.0027
  C  C87  1  0.979060  0.211900  0.380900  1.0  0.0333
  C  C88  1  0.979090  0.422360  0.380990  1.0  -0.0042
  C  C89  1  0.768660  0.422580  0.380590  1.0  0.05
  C  C90  1  0.870270  0.388620  0.346870  1.0  0.0383
  C  C91  1  0.945280  0.388540  0.347020  1.0  0.0434
  C  C92  1  0.926550  0.369800  0.328190  1.0  -0.0384
  C  C93  1  0.912380  0.287970  0.371240  1.0  0.1073
  C  C94  1  0.929400  0.236800  0.388320  1.0  0.0252
  C  C95  1  0.012190  0.236720  0.356870  1.0  0.0859
  C  C96  1  0.995170  0.287890  0.339800  1.0  -0.0007
  C  C97  1  0.844620  0.376290  0.397160  1.0  -0.0552
  C  C98  1  0.793450  0.393400  0.414130  1.0  0.0069
  C  C99  1  0.793580  0.435160  0.330530  1.0  -0.0987
  C  C100  1  0.844750  0.418050  0.313550  1.0  -0.1013
  C  C101  1  0.932950  0.438840  0.334640  1.0  -0.0776
  C  C102  1  0.949970  0.455870  0.351760  1.0  -0.0561
  C  C103  1  0.991660  0.372300  0.393610  1.0  0.1752
  C  C104  1  0.974630  0.355260  0.376500  1.0  -0.1107
  C  C105  1  0.933080  0.438830  0.246300  1.0  0.1032
  C  C106  1  0.950210  0.455860  0.195130  1.0  0.0955
  C  C107  1  0.991950  0.372280  0.195180  1.0  0.1703
  C  C108  1  0.974830  0.355250  0.246350  1.0  0.1195
  C  C109  1  0.945390  0.388530  0.271910  1.0  0.0019
  C  C110  1  0.945270  0.313510  0.346980  1.0  0.0274
  C  C111  1  0.997880  0.441740  0.114030  1.0  0.1079
  C  C112  1  0.997120  0.155620  0.399940  1.0  0.2148
  C  C113  1  0.997500  0.441760  0.399470  1.0  0.1077
  C  C114  1  0.712380  0.441720  0.398600  1.0  0.1538
  C  C115  1  0.031260  0.575860  0.393290  1.0  0.5935
  C  C116  1  0.132510  0.474710  0.393180  1.0  0.5719
  C  C117  1  0.072230  0.414210  0.514090  1.0  0.5717
  C  C118  1  0.970980  0.515360  0.514200  1.0  0.581
  C  C119  1  0.550780  0.434660  0.533950  1.0  0.5615
  C  C120  1  0.550670  0.434930  0.432670  1.0  0.6159
  C  C121  1  0.550530  0.555850  0.372490  1.0  0.5673
  C  C122  1  0.550640  0.555580  0.473780  1.0  0.5716
  C  C123  1  0.132410  0.994000  0.392960  1.0  0.5855
  C  C124  1  0.031110  0.993860  0.393330  1.0  0.5821
  C  C125  1  0.970980  0.993850  0.514210  1.0  0.5831
  C  C126  1  0.072310  0.993900  0.513880  1.0  0.5813
  C  C127  1  0.991570  0.575760  0.952320  1.0  0.5866
  C  C128  1  0.991850  0.474450  0.952270  1.0  0.5845
  C  C129  1  0.112730  0.414240  0.952260  1.0  0.6006
  C  C130  1  0.112460  0.515560  0.952290  1.0  0.5726
  N  N131  1  0.090360  0.533630  0.492170  1.0  -0.1161
  N  N132  1  0.013140  0.456430  0.415210  1.0  -0.2471
  N  N133  1  0.434970  0.533720  0.491900  1.0  -0.1179
  N  N134  1  0.666330  0.456790  0.414540  1.0  -0.2486
  N  N135  1  0.090320  0.878190  0.492160  1.0  -0.1335
  N  N136  1  0.013090  0.109560  0.415050  1.0  -0.2479
  N  N137  1  0.090670  0.533580  0.836610  1.0  -0.0979
  N  N138  1  0.013630  0.456410  0.067970  1.0  -0.2424
  O  O139  1  0.055430  0.416920  0.487520  1.0  -0.5006
  O  O140  1  0.020930  0.546020  0.392820  1.0  -0.5135
  O  O141  1  0.102690  0.464350  0.392730  1.0  -0.4959
  O  O142  1  0.973670  0.498600  0.487610  1.0  -0.501
  O  O143  1  0.129820  0.491470  0.419770  1.0  -0.5411
  O  O144  1  0.048060  0.573150  0.419860  1.0  -0.5065
  O  O145  1  0.082560  0.444040  0.514560  1.0  -0.515
  O  O146  1  0.000800  0.525720  0.514650  1.0  -0.5707
  O  O147  1  0.591200  0.529250  0.375150  1.0  -0.5016
  O  O148  1  0.591400  0.434230  0.504120  1.0  -0.505
  O  O149  1  0.591310  0.434450  0.422330  1.0  -0.5143
  O  O150  1  0.591280  0.529030  0.456940  1.0  -0.5018
  O  O151  1  0.510020  0.461480  0.449510  1.0  -0.5191
  O  O152  1  0.510110  0.461260  0.531300  1.0  -0.509
  O  O153  1  0.509910  0.556280  0.402330  1.0  -0.5121
  O  O154  1  0.510000  0.556060  0.484120  1.0  -0.5273
  O  O155  1  0.973660  0.034500  0.487580  1.0  -0.5158
  O  O156  1  0.102630  0.034540  0.392540  1.0  -0.4895
  O  O157  1  0.020800  0.034510  0.392810  1.0  -0.4996
  O  O158  1  0.055490  0.034540  0.487310  1.0  -0.5029
  O  O159  1  0.047930  0.953210  0.419900  1.0  -0.5141
  O  O160  1  0.129760  0.953250  0.419630  1.0  -0.5128
  O  O161  1  0.000790  0.953210  0.514670  1.0  -0.5206
  O  O162  1  0.082620  0.953250  0.514400  1.0  -0.5052
  O  O163  1  0.086120  0.416940  0.992910  1.0  -0.5144
  O  O164  1  0.991120  0.545950  0.992950  1.0  -0.5058
  O  O165  1  0.991340  0.464140  0.992930  1.0  -0.5065
  O  O166  1  0.085900  0.498750  0.992930  1.0  -0.502
  O  O167  1  0.018410  0.491250  0.911640  1.0  -0.5048
  O  O168  1  0.018190  0.573060  0.911670  1.0  -0.5154
  O  O169  1  0.113190  0.444050  0.911620  1.0  -0.5104
  O  O170  1  0.112960  0.525860  0.911640  1.0  -0.5079
  O  O171  1  0.858560  0.315610  0.378990  1.0  -0.5889
  O  O172  1  0.021500  0.624980  0.353890  1.0  -0.4076
  O  O173  1  0.082150  0.993900  0.553210  1.0  -0.4767
  O  O174  1  0.002620  0.576120  0.534720  1.0  -0.5325
  O  O175  1  0.151810  0.525360  0.952280  1.0  -0.4387
  O  O176  1  0.021270  0.993850  0.354000  1.0  -0.4489
  O  O177  1  0.002900  0.576070  0.839420  1.0  -0.4637
  O  O178  1  0.152250  0.365160  0.952240  1.0  -0.4141
  O  O179  1  0.952520  0.464660  0.952220  1.0  -0.4394
  O  O180  1  0.176640  0.489260  0.839270  1.0  -0.4859
  O  O181  1  0.211990  0.524750  0.732920  1.0  -0.452
  O  O182  1  0.168260  0.774600  0.439810  1.0  -0.4973
  O  O183  1  0.038110  0.611560  0.570150  1.0  -0.4481
  O  O184  1  0.893930  0.209250  0.414480  1.0  -0.4799
  O  O185  1  0.988100  0.301000  0.273970  1.0  -0.5987
  O  O186  1  0.211760  0.524790  0.483200  1.0  -0.4464
  O  O187  1  0.550690  0.395570  0.422860  1.0  -0.4092
  O  O188  1  0.437690  0.618850  0.458180  1.0  -0.4829
  O  O189  1  0.921890  0.525020  0.553670  1.0  -0.4528
  O  O190  1  0.331330  0.654280  0.493700  1.0  -0.4698
  O  O191  1  0.046060  0.880900  0.578100  1.0  -0.4819
  O  O192  1  0.936920  0.510120  0.167520  1.0  -0.4582
  O  O193  1  0.901330  0.474720  0.273870  1.0  -0.5784
  O  O194  1  0.023700  0.336390  0.167620  1.0  -0.4375
  O  O195  1  0.023320  0.336410  0.425410  1.0  -0.4435
  O  O196  1  0.066020  0.209070  0.349130  1.0  -0.4774
  O  O197  1  0.765790  0.380100  0.468380  1.0  -0.4479
