# generated using pymatgen
data_Zn4H2C20O13F6
_symmetry_space_group_name_H-M   'P 1'
_cell_length_a   8.49740000
_cell_length_b   8.49740000
_cell_length_c   19.80540000
_cell_angle_alpha   89.99890000
_cell_angle_beta   90.00490000
_cell_angle_gamma   90.00440000
_symmetry_Int_Tables_number   1
_chemical_formula_structural   Zn4H2C20O13F6
_chemical_formula_sum   'Zn4 H2 C20 O13 F6'
_cell_volume   1430.06487549
_cell_formula_units_Z   1
loop_
 _symmetry_equiv_pos_site_id
 _symmetry_equiv_pos_as_xyz
  1  'x, y, z'
loop_
 _atom_site_type_symbol
 _atom_site_label
 _atom_site_symmetry_multiplicity
 _atom_site_fract_x
 _atom_site_fract_y
 _atom_site_fract_z
 _atom_site_occupancy
 _atom_site_charge
  Zn  Zn1  1  0.892220  0.628320  0.034760  1.0  1.1262
  Zn  Zn2  1  0.628490  0.892070  0.034750  1.0  1.117
  Zn  Zn3  1  0.628440  0.628290  0.921600  1.0  1.1141
  Zn  Zn4  1  0.892210  0.892050  0.921580  1.0  1.1134
  H  H5  1  0.577550  0.576820  0.720500  1.0  0.14
  H  H6  1  0.577630  0.576890  0.236500  1.0  0.1578
  C  C7  1  0.760290  0.760150  0.802320  1.0  0.6611
  C  C8  1  0.760300  0.760180  0.727090  1.0  -0.1289
  C  C9  1  0.861050  0.861230  0.691750  1.0  0.1276
  C  C10  1  0.861070  0.861230  0.621060  1.0  0.1523
  C  C11  1  0.760340  0.760190  0.585710  1.0  0.0018
  C  C12  1  0.659590  0.659120  0.621050  1.0  0.2098
  C  C13  1  0.659580  0.659120  0.691730  1.0  -0.0738
  C  C14  1  0.659640  0.659160  0.335970  1.0  0.2198
  C  C15  1  0.659660  0.659180  0.265280  1.0  -0.0392
  C  C16  1  0.861140  0.861280  0.265300  1.0  0.1397
  C  C17  1  0.861120  0.861270  0.335990  1.0  0.1493
  C  C18  1  0.760380  0.760200  0.371320  1.0  -0.0056
  C  C19  1  0.760360  0.760190  0.447970  1.0  0.0322
  C  C20  1  0.760350  0.760200  0.509060  1.0  0.0187
  C  C21  1  0.350460  0.760210  0.978180  1.0  0.5644
  C  C22  1  0.171820  0.760200  0.978170  1.0  0.5837
  C  C23  1  0.760360  0.170060  0.978170  1.0  0.5551
  C  C24  1  0.760340  0.348710  0.978180  1.0  0.5867
  C  C25  1  0.760390  0.760210  0.154720  1.0  0.6605
  C  C26  1  0.760410  0.760230  0.229950  1.0  -0.0219
  O  O27  1  0.760340  0.760180  0.978170  1.0  -1.2598
  O  O28  1  0.857270  0.663320  0.129470  1.0  -0.5402
  O  O29  1  0.407720  0.857070  0.019740  1.0  -0.5353
  O  O30  1  0.663420  0.407530  0.936620  1.0  -0.5395
  O  O31  1  0.663500  0.857100  0.129470  1.0  -0.5484
  O  O32  1  0.857220  0.407550  0.019750  1.0  -0.5336
  O  O33  1  0.407680  0.663280  0.936610  1.0  -0.5265
  O  O34  1  0.663400  0.663260  0.826880  1.0  -0.5718
  O  O35  1  0.112970  0.857070  0.936590  1.0  -0.5382
  O  O36  1  0.857190  0.857040  0.826870  1.0  -0.5584
  O  O37  1  0.112980  0.663300  0.019740  1.0  -0.5393
  O  O38  1  0.663490  0.112830  0.019730  1.0  -0.5362
  O  O39  1  0.857240  0.112810  0.936590  1.0  -0.5369
  F  F40  1  0.968250  0.968780  0.729370  1.0  -0.2809
  F  F41  1  0.968360  0.968840  0.227700  1.0  -0.2242
  F  F42  1  0.552430  0.551590  0.373570  1.0  -0.216
  F  F43  1  0.552400  0.551580  0.583420  1.0  -0.2251
  F  F44  1  0.968300  0.968790  0.583460  1.0  -0.2273
  F  F45  1  0.968330  0.968820  0.373620  1.0  -0.2243
