# generated using pymatgen
data_ZnH8C16NO5
_symmetry_space_group_name_H-M   'P 1'
_cell_length_a   16.10930000
_cell_length_b   14.51970000
_cell_length_c   15.18620000
_cell_angle_alpha   89.99530000
_cell_angle_beta   89.99940000
_cell_angle_gamma   83.57080000
_symmetry_Int_Tables_number   1
_chemical_formula_structural   ZnH8C16NO5
_chemical_formula_sum   'Zn2 H16 C32 N2 O10'
_cell_volume   3529.74649426
_cell_formula_units_Z   2
loop_
 _symmetry_equiv_pos_site_id
 _symmetry_equiv_pos_as_xyz
  1  'x, y, z'
loop_
 _atom_site_type_symbol
 _atom_site_label
 _atom_site_symmetry_multiplicity
 _atom_site_fract_x
 _atom_site_fract_y
 _atom_site_fract_z
 _atom_site_occupancy
 _atom_site_charge
  Zn  Zn1  1  0.982310  0.125910  0.096530  1.0  1.0845
  Zn  Zn2  1  0.982320  0.125920  0.903560  1.0  1.0971
  H  H3  1  0.543210  0.279880  0.000040  1.0  0.1062
  H  H4  1  0.385890  0.276810  0.000040  1.0  0.1081
  H  H5  1  0.245980  0.833160  0.467860  1.0  0.0744
  H  H6  1  0.169680  0.831740  0.375930  1.0  0.1008
  H  H7  1  0.247150  0.917740  0.375860  1.0  0.1006
  H  H8  1  0.101940  0.907140  0.512950  1.0  0.1275
  H  H9  1  0.179490  0.993050  0.512780  1.0  0.1252
  H  H10  1  0.421410  0.971950  0.000060  1.0  0.1033
  H  H11  1  0.578750  0.975010  0.000050  1.0  0.1049
  H  H12  1  0.084720  0.012170  0.583670  1.0  0.1271
  H  H13  1  0.879920  0.239650  0.583670  1.0  0.1279
  H  H14  1  0.718630  0.418670  0.467820  1.0  0.0773
  H  H15  1  0.794920  0.420070  0.375870  1.0  0.0998
  H  H16  1  0.717450  0.334070  0.375850  1.0  0.106
  H  H17  1  0.862670  0.344700  0.512910  1.0  0.1283
  H  H18  1  0.785140  0.258780  0.512780  1.0  0.132
  C  C19  1  0.830320  0.132690  0.000040  1.0  0.6915
  C  C20  1  0.738020  0.130900  0.000030  1.0  -0.0052
  C  C21  1  0.988130  0.957300  0.000060  1.0  0.6967
  C  C22  1  0.986340  0.854930  0.000060  1.0  -0.0063
  C  C23  1  0.515890  0.210770  0.000040  1.0  -0.1212
  C  C24  1  0.429160  0.209080  0.000040  1.0  -0.1229
  C  C25  1  0.448750  0.041050  0.000050  1.0  -0.1167
  C  C26  1  0.535470  0.042740  0.000050  1.0  -0.1263
  C  C27  1  0.569040  0.127610  0.000040  1.0  -0.0442
  C  C28  1  0.395590  0.124220  0.000050  1.0  -0.0465
  C  C29  1  0.301560  0.122390  0.000050  1.0  -0.028
  C  C30  1  0.663070  0.129440  0.000040  1.0  -0.0184
  C  C31  1  0.979740  0.480050  0.000030  1.0  0.0393
  C  C32  1  0.981570  0.584350  0.000040  1.0  0.0037
  C  C33  1  0.983040  0.667480  0.000040  1.0  0.0053
  C  C34  1  0.984870  0.771790  0.000050  1.0  0.0387
  C  C35  1  0.134310  0.119140  0.000050  1.0  0.7034
  C  C36  1  0.226610  0.120930  0.000050  1.0  -0.0176
  C  C37  1  0.976490  0.294530  0.000040  1.0  0.6942
  C  C38  1  0.978290  0.396900  0.000030  1.0  0.0005
  C  C39  1  0.038750  0.063220  0.453950  1.0  0.1785
  C  C40  1  0.038760  0.063220  0.546140  1.0  -0.1337
  C  C41  1  0.925870  0.188610  0.546140  1.0  -0.1355
  C  C42  1  0.925870  0.188600  0.453950  1.0  0.1828
  C  C43  1  0.982310  0.125910  0.407860  1.0  -0.075
  C  C44  1  0.982320  0.125910  0.592240  1.0  0.007
  C  C45  1  0.982320  0.125910  0.692190  1.0  0.1234
  C  C46  1  0.982310  0.125910  0.307900  1.0  0.1227
  C  C47  1  0.205600  0.877890  0.419050  1.0  -0.3384
  C  C48  1  0.143510  0.946900  0.469710  1.0  -0.0175
  C  C49  1  0.759010  0.373930  0.419020  1.0  -0.3387
  C  C50  1  0.821100  0.304930  0.469690  1.0  -0.0177
  N  N51  1  0.982310  0.125910  0.228220  1.0  -0.3314
  N  N52  1  0.982330  0.125910  0.771870  1.0  -0.3208
  O  O53  1  0.103340  0.118540  0.926830  1.0  -0.5573
  O  O54  1  0.861300  0.133290  0.926810  1.0  -0.5599
  O  O55  1  0.988740  0.991660  0.926830  1.0  -0.5553
  O  O56  1  0.975900  0.260170  0.926810  1.0  -0.5553
  O  O57  1  0.988730  0.991660  0.073280  1.0  -0.5646
  O  O58  1  0.861290  0.133290  0.073270  1.0  -0.5624
  O  O59  1  0.103330  0.118540  0.073280  1.0  -0.5611
  O  O60  1  0.975890  0.260170  0.073270  1.0  -0.5628
  O  O61  1  0.093610  0.002230  0.409320  1.0  -0.291
  O  O62  1  0.871010  0.249600  0.409300  1.0  -0.2875
