# generated using pymatgen
data_Zn4H24C50N8O23
_symmetry_space_group_name_H-M   'P 1'
_cell_length_a   21.29540000
_cell_length_b   21.29540000
_cell_length_c   16.95940000
_cell_angle_alpha   90.02920000
_cell_angle_beta   89.98140000
_cell_angle_gamma   89.95490000
_symmetry_Int_Tables_number   1
_chemical_formula_structural   Zn4H24C50N8O23
_chemical_formula_sum   'Zn4 H24 C50 N8 O23'
_cell_volume   7690.98339314
_cell_formula_units_Z   1
loop_
 _symmetry_equiv_pos_site_id
 _symmetry_equiv_pos_as_xyz
  1  'x, y, z'
loop_
 _atom_site_type_symbol
 _atom_site_label
 _atom_site_symmetry_multiplicity
 _atom_site_fract_x
 _atom_site_fract_y
 _atom_site_fract_z
 _atom_site_occupancy
 _atom_site_charge
  Zn  Zn1  1  0.962320  0.250370  0.553080  1.0  1.1259
  Zn  Zn2  1  0.962230  0.355640  0.685270  1.0  1.1292
  Zn  Zn3  1  0.857050  0.250420  0.685250  1.0  1.1295
  Zn  Zn4  1  0.857010  0.355630  0.553130  1.0  1.1349
  H  H5  1  0.269290  0.230060  0.527270  1.0  0.1477
  H  H6  1  0.025560  0.101280  0.688610  1.0  0.1594
  H  H7  1  0.982670  0.542610  0.710840  1.0  0.1461
  H  H8  1  0.021490  0.191170  0.951680  1.0  0.3956
  H  H9  1  0.083150  0.189700  0.048760  1.0  0.1556
  H  H10  1  0.644970  0.191540  0.478730  1.0  0.2976
  H  H11  1  0.550660  0.375990  0.711060  1.0  0.1439
  H  H12  1  0.150020  0.230030  0.527270  1.0  0.1506
  H  H13  1  0.669930  0.376010  0.711080  1.0  0.1578
  H  H14  1  0.149820  0.375920  0.711030  1.0  0.1513
  H  H15  1  0.836670  0.943510  0.527460  1.0  0.1568
  H  H16  1  0.269090  0.375940  0.711040  1.0  0.1475
  H  H17  1  0.982780  0.229900  0.317450  1.0  0.1442
  H  H18  1  0.982720  0.661880  0.710800  1.0  0.1422
  H  H19  1  0.832840  0.122700  0.522550  1.0  0.2613
  H  H20  1  0.965330  0.904850  0.764320  1.0  0.1565
  H  H21  1  0.836570  0.661950  0.527540  1.0  0.1393
  H  H22  1  0.798020  0.414560  0.951780  1.0  0.266
  H  H23  1  0.796380  0.416210  0.043930  1.0  0.1213
  H  H24  1  0.836620  0.546560  0.452170  1.0  0.1662
  H  H25  1  0.576120  0.191540  0.478690  1.0  0.2848
  H  H26  1  0.796370  0.416250  0.193710  1.0  0.1411
  H  H27  1  0.832730  0.379910  0.392760  1.0  0.4425
  H  H28  1  0.023070  0.189600  0.193610  1.0  0.1368
  C  C29  1  0.746100  0.303050  0.619200  1.0  0.6725
  C  C30  1  0.676140  0.303070  0.619190  1.0  -0.0256
  C  C31  1  0.643320  0.262870  0.568550  1.0  0.1556
  C  C32  1  0.577580  0.262850  0.568540  1.0  0.0748
  C  C33  1  0.544650  0.303050  0.619180  1.0  -0.0178
  C  C34  1  0.577470  0.343260  0.669830  1.0  -0.1021
  C  C35  1  0.643210  0.343270  0.669840  1.0  -0.0542
  C  C36  1  0.346580  0.303020  0.619160  1.0  0.2296
  C  C37  1  0.473370  0.303040  0.619180  1.0  0.2709
  C  C38  1  0.242480  0.262790  0.568510  1.0  -0.0942
  C  C39  1  0.176740  0.262770  0.568510  1.0  -0.0945
  C  C40  1  0.176630  0.343190  0.669800  1.0  -0.0807
  C  C41  1  0.242370  0.343200  0.669800  1.0  -0.0847
  C  C42  1  0.275290  0.303000  0.619150  1.0  -0.0246
  C  C43  1  0.909570  0.466570  0.619220  1.0  0.6824
  C  C44  1  0.909600  0.536530  0.619200  1.0  -0.1114
  C  C45  1  0.949880  0.569380  0.669700  1.0  -0.0908
  C  C46  1  0.949910  0.635130  0.669680  1.0  -0.0337
  C  C47  1  0.909640  0.668020  0.619170  1.0  -0.0077
  C  C48  1  0.869350  0.635160  0.568660  1.0  -0.0476
  C  C49  1  0.869330  0.569420  0.568680  1.0  0.1049
  C  C50  1  0.909710  0.866090  0.619110  1.0  0.292
  C  C51  1  0.909670  0.739300  0.619140  1.0  0.29
  C  C52  1  0.950040  0.970230  0.669590  1.0  0.1425
  C  C53  1  0.950070  0.035970  0.669560  1.0  0.1277
  C  C54  1  0.869500  0.036000  0.568550  1.0  0.1717
  C  C55  1  0.869480  0.970260  0.568570  1.0  -0.0598
  C  C56  1  0.909740  0.937380  0.619100  1.0  0.0469
  C  C57  1  0.073850  0.302990  0.619160  1.0  0.72
  C  C58  1  0.143810  0.302970  0.619150  1.0  -0.0402
  C  C59  1  0.909690  0.302970  0.413010  1.0  0.6788
  C  C60  1  0.909710  0.302960  0.325150  1.0  -0.0891
  C  C61  1  0.909760  0.138820  0.619110  1.0  0.6474
  C  C62  1  0.909800  0.068860  0.619050  1.0  -0.0651
  C  C63  1  0.869430  0.343210  0.283900  1.0  0.0754
  C  C64  1  0.949990  0.262680  0.283860  1.0  -0.0683
  C  C65  1  0.950000  0.262660  0.201310  1.0  0.0922
  C  C66  1  0.909730  0.302910  0.160060  1.0  0.0569
  C  C67  1  0.869440  0.343190  0.201340  1.0  0.0489
  C  C68  1  0.990290  0.222370  0.160020  1.0  -0.0512
  C  C69  1  0.990300  0.222350  0.077470  1.0  0.093
  C  C70  1  0.950030  0.262610  0.036210  1.0  0.0616
  C  C71  1  0.909740  0.302890  0.077500  1.0  0.0601
  C  C72  1  0.869470  0.343150  0.036240  1.0  0.0307
  C  C73  1  0.829180  0.383440  0.077540  1.0  -0.0397
  C  C74  1  0.829170  0.383450  0.160090  1.0  -0.1146
  C  C75  1  0.950040  0.262590  0.953660  1.0  0.1477
  C  C76  1  0.869480  0.343130  0.953690  1.0  0.1547
  C  C77  1  0.909660  0.303010  0.824550  1.0  0.6548
  C  C78  1  0.909760  0.302850  0.912400  1.0  -0.1052
  N  N79  1  0.441380  0.358130  0.625350  1.0  -0.2223
  N  N80  1  0.378930  0.358120  0.625340  1.0  -0.2232
  N  N81  1  0.379040  0.247930  0.612980  1.0  -0.219
  N  N82  1  0.441500  0.247950  0.612980  1.0  -0.22
  N  N83  1  0.854580  0.771300  0.613140  1.0  -0.2234
  N  N84  1  0.854600  0.833750  0.613130  1.0  -0.2105
  N  N85  1  0.964800  0.833620  0.625120  1.0  -0.2224
  N  N86  1  0.964780  0.771170  0.625140  1.0  -0.2222
  O  O87  1  0.909660  0.303020  0.619180  1.0  -1.2369
  O  O88  1  0.050400  0.264320  0.570600  1.0  -0.5607
  O  O89  1  0.948260  0.341710  0.795870  1.0  -0.5538
  O  O90  1  0.871070  0.162320  0.667690  1.0  -0.5685
  O  O91  1  0.050330  0.341660  0.667720  1.0  -0.5588
  O  O92  1  0.948410  0.162290  0.570590  1.0  -0.5638
  O  O93  1  0.870990  0.264400  0.795860  1.0  -0.5476
  O  O94  1  0.768960  0.264390  0.667730  1.0  -0.5446
  O  O95  1  0.871000  0.341650  0.442510  1.0  -0.456
  O  O96  1  0.768930  0.341690  0.570670  1.0  -0.5469
  O  O97  1  0.948370  0.264310  0.442480  1.0  -0.5665
  O  O98  1  0.948220  0.443730  0.667760  1.0  -0.5697
  O  O99  1  0.870920  0.443720  0.570690  1.0  -0.5564
  O  O100  1  0.993530  0.071400  0.724030  1.0  -0.4774
  O  O101  1  0.993480  0.219150  0.909120  1.0  -0.4971
  O  O102  1  0.033750  0.178910  0.032930  1.0  -0.5271
  O  O103  1  0.678830  0.219500  0.513940  1.0  -0.4782
  O  O104  1  0.826060  0.071470  0.514070  1.0  -0.4696
  O  O105  1  0.993480  0.934750  0.724050  1.0  -0.4803
  O  O106  1  0.826030  0.386550  0.909190  1.0  -0.4861
  O  O107  1  0.825860  0.533990  0.514230  1.0  -0.4537
  O  O108  1  0.542180  0.219490  0.513910  1.0  -0.4657
  O  O109  1  0.825980  0.386660  0.328430  1.0  -0.4836
