# generated using pymatgen
data_ZnH4C18NO4F5
_symmetry_space_group_name_H-M   'P 1'
_cell_length_a   10.65450000
_cell_length_b   14.04420000
_cell_length_c   9.73020000
_cell_angle_alpha   89.99560000
_cell_angle_beta   89.99990000
_cell_angle_gamma   88.83640000
_symmetry_Int_Tables_number   1
_chemical_formula_structural   ZnH4C18NO4F5
_chemical_formula_sum   'Zn2 H8 C36 N2 O8 F10'
_cell_volume   1455.66781032
_cell_formula_units_Z   2
loop_
 _symmetry_equiv_pos_site_id
 _symmetry_equiv_pos_as_xyz
  1  'x, y, z'
loop_
 _atom_site_type_symbol
 _atom_site_label
 _atom_site_symmetry_multiplicity
 _atom_site_fract_x
 _atom_site_fract_y
 _atom_site_fract_z
 _atom_site_occupancy
 _atom_site_charge
  Zn  Zn1  1  0.499120  0.139560  0.150610  1.0  0.9858
  Zn  Zn2  1  0.499120  0.139570  0.849450  1.0  0.9978
  H  H3  1  0.226680  0.316970  0.999960  1.0  0.1329
  H  H4  1  0.859780  0.466420  0.999950  1.0  0.1375
  H  H5  1  0.200650  0.383290  0.369510  1.0  0.1434
  H  H6  1  0.342630  0.267360  0.238990  1.0  0.1264
  H  H7  1  0.350920  0.636240  0.000020  1.0  0.1568
  H  H8  1  0.097970  0.471180  0.999950  1.0  0.1435
  H  H9  1  0.750320  0.307440  0.000000  1.0  0.1195
  H  H10  1  0.655620  0.011750  0.761080  1.0  0.1272
  C  C11  1  0.270130  0.144980  0.000020  1.0  0.6639
  C  C12  1  0.130400  0.142190  0.000020  1.0  -0.0596
  C  C13  1  0.119780  0.314830  0.999990  1.0  -0.1064
  C  C14  1  0.048830  0.399830  0.999960  1.0  -0.1113
  C  C15  1  0.917550  0.397200  0.999960  1.0  -0.086
  C  C16  1  0.857220  0.309570  0.999990  1.0  -0.1041
  C  C17  1  0.928170  0.224560  0.000010  1.0  0.0136
  C  C18  1  0.059450  0.227200  0.000010  1.0  0.0312
  C  C19  1  0.938790  0.051930  0.000050  1.0  0.0516
  C  C20  1  0.070070  0.054560  0.000050  1.0  0.035
  C  C21  1  0.878460  0.964300  0.000080  1.0  0.0917
  C  C22  1  0.949410  0.879290  0.000090  1.0  0.1144
  C  C23  1  0.080700  0.881920  0.000090  1.0  0.1409
  C  C24  1  0.141030  0.969560  0.000070  1.0  0.0921
  C  C25  1  0.488870  0.966200  0.000050  1.0  0.6648
  C  C26  1  0.474590  0.860880  0.000050  1.0  0.131
  C  C27  1  0.448490  0.668050  0.000030  1.0  0.0728
  C  C28  1  0.549740  0.611080  0.000030  1.0  0.166
  C  C29  1  0.535220  0.503780  0.000010  1.0  0.0532
  C  C30  1  0.463010  0.775360  0.000040  1.0  0.0216
  C  C31  1  0.728110  0.134150  0.000040  1.0  0.6626
  C  C32  1  0.867840  0.136940  0.000030  1.0  -0.0608
  C  C33  1  0.509370  0.312930  0.000010  1.0  0.6611
  C  C34  1  0.523650  0.418250  0.000000  1.0  0.0796
  C  C35  1  0.655610  0.011760  0.356160  1.0  0.1385
  C  C36  1  0.733850  0.947860  0.428100  1.0  0.1509
  C  C37  1  0.733870  0.947860  0.571980  1.0  0.1993
  C  C38  1  0.655620  0.011770  0.643920  1.0  0.0024
  C  C39  1  0.577370  0.075660  0.571980  1.0  0.2095
  C  C40  1  0.577370  0.075660  0.428090  1.0  0.2137
  C  C41  1  0.420880  0.203460  0.571970  1.0  0.2046
  C  C42  1  0.420870  0.203470  0.428090  1.0  0.2014
  C  C43  1  0.342630  0.267360  0.643910  1.0  0.1412
  C  C44  1  0.264390  0.331260  0.571960  1.0  0.1968
  C  C45  1  0.264380  0.331260  0.428080  1.0  -0.0696
  C  C46  1  0.342620  0.267360  0.356150  1.0  -0.0204
  N  N47  1  0.499120  0.139560  0.356150  1.0  -0.1892
  N  N48  1  0.499130  0.139560  0.643910  1.0  -0.1946
  O  O49  1  0.681230  0.133220  0.885750  1.0  -0.5475
  O  O50  1  0.317020  0.145920  0.885740  1.0  -0.6111
  O  O51  1  0.493660  0.001550  0.885750  1.0  -0.559
  O  O52  1  0.504590  0.277590  0.885730  1.0  -0.6283
  O  O53  1  0.493650  0.001540  0.114330  1.0  -0.6361
  O  O54  1  0.317020  0.145910  0.114320  1.0  -0.5444
  O  O55  1  0.681220  0.133220  0.114330  1.0  -0.6077
  O  O56  1  0.504580  0.277590  0.114310  1.0  -0.553
  F  F57  1  0.885200  0.786040  0.000130  1.0  -0.2202
  F  F58  1  0.677300  0.652660  0.000040  1.0  -0.2459
  F  F59  1  0.181110  0.399260  0.648530  1.0  -0.2009
  F  F60  1  0.738740  0.961510  0.000090  1.0  -0.3125
  F  F61  1  0.817140  0.879850  0.648550  1.0  -0.2187
  F  F62  1  0.655610  0.011770  0.203030  1.0  -0.4078
  F  F63  1  0.280750  0.972360  0.000060  1.0  -0.335
  F  F64  1  0.156200  0.791450  0.000130  1.0  -0.2117
  F  F65  1  0.817130  0.879860  0.351530  1.0  -0.2411
  F  F66  1  0.342640  0.267360  0.797040  1.0  -0.393
