# generated using pymatgen
data_Zn4H18C50N8O13
_symmetry_space_group_name_H-M   'P 1'
_cell_length_a   19.12120000
_cell_length_b   19.12110000
_cell_length_c   12.75940000
_cell_angle_alpha   92.40270000
_cell_angle_beta   87.53390000
_cell_angle_gamma   95.00250000
_symmetry_Int_Tables_number   1
_chemical_formula_structural   Zn4H18C50N8O13
_chemical_formula_sum   'Zn4 H18 C50 N8 O13'
_cell_volume   4639.58137431
_cell_formula_units_Z   1
loop_
 _symmetry_equiv_pos_site_id
 _symmetry_equiv_pos_as_xyz
  1  'x, y, z'
loop_
 _atom_site_type_symbol
 _atom_site_label
 _atom_site_symmetry_multiplicity
 _atom_site_fract_x
 _atom_site_fract_y
 _atom_site_fract_z
 _atom_site_occupancy
 _atom_site_charge
  Zn  Zn1  1  0.063760  0.765710  0.322960  1.0  1.1233
  Zn  Zn2  1  0.058640  0.648020  0.491480  1.0  1.1181
  Zn  Zn3  1  0.946090  0.760660  0.505840  1.0  1.1252
  Zn  Zn4  1  0.941040  0.643070  0.323060  1.0  1.124
  H  H5  1  0.407820  0.803030  0.269050  1.0  0.1202
  H  H6  1  0.932300  0.969450  0.310310  1.0  0.1414
  H  H7  1  0.101310  0.109720  0.552080  1.0  0.125
  H  H8  1  0.517730  0.762850  0.326790  1.0  0.2892
  H  H9  1  0.857120  0.775640  0.835220  1.0  0.1446
  H  H10  1  0.080600  0.626340  0.800820  1.0  0.1444
  H  H11  1  0.926670  0.852480  0.839880  1.0  0.1368
  H  H12  1  0.597660  0.605720  0.552550  1.0  0.138
  H  H13  1  0.730980  0.611420  0.544410  1.0  0.1461
  H  H14  1  0.854560  0.780420  0.009210  1.0  0.1403
  H  H15  1  0.937940  0.102760  0.318500  1.0  0.1412
  H  H16  1  0.080550  0.626280  0.999880  1.0  0.1527
  H  H17  1  0.943870  0.189780  0.327070  1.0  0.1391
  H  H18  1  0.095670  0.976410  0.543910  1.0  0.1469
  H  H19  1  0.267410  0.634230  0.511480  1.0  0.1429
  H  H20  1  0.061020  0.219660  0.494560  1.0  0.1374
  H  H21  1  0.072590  0.439990  0.511310  1.0  0.1399
  H  H22  1  0.400720  0.639930  0.503350  1.0  0.2403
  C  C23  1  0.819560  0.696600  0.422070  1.0  0.6492
  C  C24  1  0.741350  0.693260  0.426850  1.0  -0.0291
  C  C25  1  0.298910  0.672110  0.457080  1.0  -0.0839
  C  C26  1  0.372400  0.675250  0.452600  1.0  -0.1114
  C  C27  1  0.411100  0.721770  0.385780  1.0  0.0745
  C  C28  1  0.376310  0.765150  0.323450  1.0  -0.0671
  C  C29  1  0.302820  0.762010  0.327940  1.0  -0.0769
  C  C30  1  0.633080  0.733500  0.369000  1.0  -0.0997
  C  C31  1  0.706570  0.736630  0.364520  1.0  0.0074
  C  C32  1  0.702650  0.646740  0.493670  1.0  -0.0975
  C  C33  1  0.629170  0.643600  0.498140  1.0  -0.0969
  C  C34  1  0.594380  0.686980  0.435820  1.0  0.0802
  C  C35  1  0.486210  0.724980  0.381200  1.0  -0.1153
  C  C36  1  0.519270  0.683780  0.440410  1.0  -0.0726
  C  C37  1  0.994500  0.521550  0.399730  1.0  0.664
  C  C38  1  0.991190  0.443340  0.394940  1.0  -0.1332
  C  C39  1  0.034660  0.408520  0.457050  1.0  -0.0583
  C  C40  1  0.031550  0.335040  0.452540  1.0  -0.105
  C  C41  1  0.984980  0.296380  0.385920  1.0  -0.0031
  C  C42  1  0.941510  0.331210  0.323800  1.0  -0.0722
  C  C43  1  0.944620  0.404690  0.328300  1.0  -0.0432
  C  C44  1  0.973330  0.074420  0.369080  1.0  -0.0571
  C  C45  1  0.970230  0.000930  0.364580  1.0  -0.07
  C  C46  1  0.060280  0.004770  0.493330  1.0  -0.0833
  C  C47  1  0.063380  0.078250  0.497840  1.0  -0.0883
  C  C48  1  0.019910  0.113070  0.435710  1.0  0.0161
  C  C49  1  0.981800  0.221270  0.381310  1.0  -0.044
  C  C50  1  0.023090  0.188180  0.440310  1.0  -0.0969
  C  C51  1  0.185910  0.712170  0.399560  1.0  0.6697
  C  C52  1  0.264120  0.715490  0.394750  1.0  -0.1012
  C  C53  1  0.002430  0.704440  0.136800  1.0  0.6292
  C  C54  1  0.002450  0.704470  0.020030  1.0  0.0006
  C  C55  1  0.010310  0.887900  0.421960  1.0  0.6613
  C  C56  1  0.013690  0.966110  0.426700  1.0  -0.016
  C  C57  1  0.959410  0.747570  0.970650  1.0  0.0237
  C  C58  1  0.959430  0.747590  0.860930  1.0  0.0782
  C  C59  1  0.045540  0.661410  0.849960  1.0  -0.0946
  C  C60  1  0.045510  0.661390  0.959680  1.0  -0.0954
  C  C61  1  0.909700  0.797330  0.976980  1.0  -0.0035
  C  C62  1  0.909720  0.797350  0.867260  1.0  -0.1545
  C  C63  1  0.002380  0.704350  0.683800  1.0  0.6607
  C  C64  1  0.002500  0.704520  0.800580  1.0  -0.0902
  C  C65  1  0.594820  0.781220  0.300430  1.0  0.2249
  C  C66  1  0.890270  0.288680  0.250510  1.0  0.1937
  C  C67  1  0.896800  0.442990  0.259970  1.0  0.248
  C  C68  1  0.264560  0.809730  0.259370  1.0  0.2577
  C  C69  1  0.749140  0.787810  0.291010  1.0  0.2451
  C  C70  1  0.939080  0.868380  0.025580  1.0  0.2167
  C  C71  1  0.476700  0.632610  0.513910  1.0  0.1705
  C  C72  1  0.079370  0.296740  0.520880  1.0  0.2852
  N  N73  1  0.566010  0.817160  0.248780  1.0  -0.3324
  N  N74  1  0.851670  0.256650  0.195320  1.0  -0.396
  N  N75  1  0.860780  0.471840  0.208500  1.0  -0.3961
  N  N76  1  0.235730  0.845670  0.207720  1.0  -0.4002
  N  N77  1  0.781200  0.826350  0.235650  1.0  -0.3926
  N  N78  1  0.961210  0.921880  0.062180  1.0  -0.4436
  N  N79  1  0.444620  0.594070  0.569260  1.0  -0.3683
  N  N80  1  0.115390  0.267890  0.572360  1.0  -0.3519
  O  O81  1  0.002380  0.704370  0.410830  1.0  -1.2471
  O  O82  1  0.161550  0.754280  0.339260  1.0  -0.5718
  O  O83  1  0.043690  0.662930  0.640400  1.0  -0.5739
  O  O84  1  0.965950  0.859800  0.487550  1.0  -0.5563
  O  O85  1  0.157790  0.667820  0.463080  1.0  -0.5647
  O  O86  1  0.052410  0.863510  0.353190  1.0  -0.5566
  O  O87  1  0.960990  0.745680  0.650950  1.0  -0.5462
  O  O88  1  0.846950  0.740880  0.487640  1.0  -0.551
  O  O89  1  0.957340  0.659380  0.176020  1.0  -0.5576
  O  O90  1  0.843240  0.654490  0.353350  1.0  -0.5575
  O  O91  1  0.047510  0.749480  0.175950  1.0  -0.5507
  O  O92  1  0.038790  0.548900  0.463170  1.0  -0.5716
  O  O93  1  0.952380  0.545260  0.339430  1.0  -0.567
