# generated using pymatgen
data_Zn8P6ClO24
_symmetry_space_group_name_H-M   'P 1'
_cell_length_a   8.87750000
_cell_length_b   8.87750000
_cell_length_c   23.77500000
_cell_angle_alpha   90.00000000
_cell_angle_beta   90.00000000
_cell_angle_gamma   120.00000000
_symmetry_Int_Tables_number   1
_chemical_formula_structural   Zn8P6ClO24
_chemical_formula_sum   'Zn16 P12 Cl2 O48'
_cell_volume   1622.67863945
_cell_formula_units_Z   2
loop_
 _symmetry_equiv_pos_site_id
 _symmetry_equiv_pos_as_xyz
  1  'x, y, z'
loop_
 _atom_site_type_symbol
 _atom_site_label
 _atom_site_symmetry_multiplicity
 _atom_site_fract_x
 _atom_site_fract_y
 _atom_site_fract_z
 _atom_site_occupancy
 _atom_site_charge
  Zn  Zn1  1  0.039980  0.333270  0.544080  1.0  1.2622
  Zn  Zn2  1  0.666667  0.706710  0.544080  1.0  1.2547
  Zn  Zn3  1  0.293290  0.960020  0.544080  1.0  1.2607
  Zn  Zn4  1  0.666667  0.960020  0.955920  1.0  1.2611
  Zn  Zn5  1  0.293290  0.333270  0.955920  1.0  1.259
  Zn  Zn6  1  0.039980  0.706710  0.955920  1.0  1.2611
  Zn  Zn7  1  0.960020  0.666667  0.455920  1.0  1.2578
  Zn  Zn8  1  0.333270  0.293290  0.455920  1.0  1.2601
  Zn  Zn9  1  0.706710  0.039980  0.455920  1.0  1.2618
  Zn  Zn10  1  0.333270  0.039980  0.044080  1.0  1.2611
  Zn  Zn11  1  0.706710  0.666667  0.044080  1.0  1.2571
  Zn  Zn12  1  0.960020  0.293290  0.044080  1.0  1.2601
  Zn  Zn13  1  0.666667  0.333333  0.649380  1.0  1.1052
  Zn  Zn14  1  0.666667  0.333333  0.850620  1.0  1.1071
  Zn  Zn15  1  0.333333  0.666667  0.350620  1.0  1.1071
  Zn  Zn16  1  0.333333  0.666667  0.149380  1.0  1.1052
  P  P17  1  0.964690  0.645610  0.582750  1.0  1.7774
  P  P18  1  0.354390  0.319080  0.582750  1.0  1.7724
  P  P19  1  0.680920  0.035310  0.582750  1.0  1.7798
  P  P20  1  0.354390  0.035310  0.917250  1.0  1.7745
  P  P21  1  0.680920  0.645610  0.917250  1.0  1.777
  P  P22  1  0.964690  0.319080  0.917250  1.0  1.7787
  P  P23  1  0.035310  0.354390  0.417250  1.0  1.777
  P  P24  1  0.645610  0.680920  0.417250  1.0  1.7825
  P  P25  1  0.319080  0.964690  0.417250  1.0  1.7779
  P  P26  1  0.645610  0.964690  0.082750  1.0  1.7788
  P  P27  1  0.319080  0.354390  0.082750  1.0  1.7783
  P  P28  1  0.035310  0.680920  0.082750  1.0  1.7778
  Cl  Cl29  1  0.666667  0.333333  0.750000  1.0  -0.3485
  Cl  Cl30  1  0.333333  0.666667  0.250000  1.0  -0.3479
  O  O31  1  0.050500  0.543600  0.565630  1.0  -0.8761
  O  O32  1  0.855000  0.650700  0.531860  1.0  -0.9648
  O  O33  1  0.103200  0.832300  0.596610  1.0  -0.7424
  O  O34  1  0.842400  0.568800  0.633140  1.0  -0.7631
  O  O35  1  0.456400  0.506900  0.565630  1.0  -0.8771
  O  O36  1  0.349300  0.204300  0.531860  1.0  -0.9662
  O  O37  1  0.167700  0.270900  0.596610  1.0  -0.7422
  O  O38  1  0.431200  0.273600  0.633140  1.0  -0.7655
  O  O39  1  0.493100  0.949500  0.565630  1.0  -0.877
  O  O40  1  0.795700  0.145000  0.531860  1.0  -0.9662
  O  O41  1  0.729100  0.896800  0.596610  1.0  -0.7428
  O  O42  1  0.726400  0.157600  0.633140  1.0  -0.762
  O  O43  1  0.456400  0.949500  0.934370  1.0  -0.8742
  O  O44  1  0.349300  0.145000  0.968140  1.0  -0.9663
  O  O45  1  0.167700  0.896800  0.903390  1.0  -0.743
  O  O46  1  0.431200  0.157600  0.866860  1.0  -0.7639
  O  O47  1  0.493100  0.543600  0.934370  1.0  -0.8753
  O  O48  1  0.795700  0.650700  0.968140  1.0  -0.966
  O  O49  1  0.729100  0.832300  0.903390  1.0  -0.7435
  O  O50  1  0.726400  0.568800  0.866860  1.0  -0.7637
  O  O51  1  0.050500  0.506900  0.934370  1.0  -0.8758
  O  O52  1  0.855000  0.204300  0.968140  1.0  -0.9659
  O  O53  1  0.103200  0.270900  0.903390  1.0  -0.7422
  O  O54  1  0.842400  0.273600  0.866860  1.0  -0.7642
  O  O55  1  0.949500  0.456400  0.434370  1.0  -0.8751
  O  O56  1  0.145000  0.349300  0.468140  1.0  -0.9661
  O  O57  1  0.896800  0.167700  0.403390  1.0  -0.7428
  O  O58  1  0.157600  0.431200  0.366860  1.0  -0.7634
  O  O59  1  0.543600  0.493100  0.434370  1.0  -0.8754
  O  O60  1  0.650700  0.795700  0.468140  1.0  -0.9661
  O  O61  1  0.832300  0.729100  0.403390  1.0  -0.742
  O  O62  1  0.568800  0.726400  0.366860  1.0  -0.7641
  O  O63  1  0.506900  0.050500  0.434370  1.0  -0.8748
  O  O64  1  0.204300  0.855000  0.468140  1.0  -0.9659
  O  O65  1  0.270900  0.103200  0.403390  1.0  -0.7429
  O  O66  1  0.273600  0.842400  0.366860  1.0  -0.764
  O  O67  1  0.543600  0.050500  0.065630  1.0  -0.8762
  O  O68  1  0.650700  0.855000  0.031860  1.0  -0.9649
  O  O69  1  0.832300  0.103200  0.096610  1.0  -0.7427
  O  O70  1  0.568800  0.842400  0.133140  1.0  -0.7627
  O  O71  1  0.506900  0.456400  0.065630  1.0  -0.876
  O  O72  1  0.204300  0.349300  0.031860  1.0  -0.9661
  O  O73  1  0.270900  0.167700  0.096610  1.0  -0.7434
  O  O74  1  0.273600  0.431200  0.133140  1.0  -0.7631
  O  O75  1  0.949500  0.493100  0.065630  1.0  -0.8771
  O  O76  1  0.145000  0.795700  0.031860  1.0  -0.9661
  O  O77  1  0.896800  0.729100  0.096610  1.0  -0.742
  O  O78  1  0.157600  0.726400  0.133140  1.0  -0.765
