# generated using pymatgen
data_NaCdH9C11SNO7
_symmetry_space_group_name_H-M   'P 1'
_cell_length_a   7.08220000
_cell_length_b   20.72000000
_cell_length_c   22.87800000
_cell_angle_alpha   90.00000000
_cell_angle_beta   90.00000000
_cell_angle_gamma   90.00000000
_symmetry_Int_Tables_number   1
_chemical_formula_structural   NaCdH9C11SNO7
_chemical_formula_sum   'Na8 Cd8 H72 C88 S8 N8 O56'
_cell_volume   3357.19056355
_cell_formula_units_Z   8
loop_
 _symmetry_equiv_pos_site_id
 _symmetry_equiv_pos_as_xyz
  1  'x, y, z'
loop_
 _atom_site_type_symbol
 _atom_site_label
 _atom_site_symmetry_multiplicity
 _atom_site_fract_x
 _atom_site_fract_y
 _atom_site_fract_z
 _atom_site_occupancy
 _atom_site_charge
  Na  Na1  1  0.826400  0.544170  0.950410  1.0  0.9691
  Na  Na2  1  0.673600  0.955830  0.450410  1.0  0.9686
  Na  Na3  1  0.826400  0.455830  0.549590  1.0  0.9687
  Na  Na4  1  0.673600  0.044170  0.049590  1.0  0.9689
  Na  Na5  1  0.173600  0.455830  0.049590  1.0  0.969
  Na  Na6  1  0.326400  0.044170  0.549590  1.0  0.9689
  Na  Na7  1  0.173600  0.544170  0.450410  1.0  0.969
  Na  Na8  1  0.326400  0.955830  0.950410  1.0  0.9686
  Cd  Cd9  1  0.779420  0.040320  0.903100  1.0  1.1154
  Cd  Cd10  1  0.720580  0.459680  0.403100  1.0  1.1154
  Cd  Cd11  1  0.779420  0.959680  0.596900  1.0  1.1154
  Cd  Cd12  1  0.720580  0.540320  0.096900  1.0  1.1153
  Cd  Cd13  1  0.220580  0.959680  0.096900  1.0  1.1153
  Cd  Cd14  1  0.279420  0.540320  0.596900  1.0  1.1154
  Cd  Cd15  1  0.220580  0.040320  0.403100  1.0  1.1153
  Cd  Cd16  1  0.279420  0.459680  0.903100  1.0  1.1154
  H  H17  1  0.780900  0.276300  0.890200  1.0  0.1143
  H  H18  1  0.737100  0.205100  0.052000  1.0  0.0974
  H  H19  1  0.710700  0.308400  0.088700  1.0  0.1108
  H  H20  1  0.030100  0.979300  0.804800  1.0  0.0837
  H  H21  1  0.019700  0.051900  0.785800  1.0  0.0877
  H  H22  1  0.548100  0.952300  0.809500  1.0  0.0703
  H  H23  1  0.746100  0.918600  0.814300  1.0  0.0852
  H  H24  1  0.732200  0.103400  0.778800  1.0  0.0981
  H  H25  1  0.542000  0.065300  0.784500  1.0  0.0832
  H  H26  1  0.719100  0.223700  0.390200  1.0  0.1144
  H  H27  1  0.762900  0.294900  0.552000  1.0  0.0971
  H  H28  1  0.789300  0.191600  0.588700  1.0  0.1106
  H  H29  1  0.469900  0.520700  0.304800  1.0  0.0835
  H  H30  1  0.480300  0.448100  0.285800  1.0  0.0881
  H  H31  1  0.951900  0.547700  0.309500  1.0  0.0696
  H  H32  1  0.753900  0.581400  0.314300  1.0  0.0843
  H  H33  1  0.767800  0.396600  0.278800  1.0  0.0991
  H  H34  1  0.958000  0.434700  0.284500  1.0  0.0819
  H  H35  1  0.780900  0.723700  0.609800  1.0  0.1133
  H  H36  1  0.737100  0.794900  0.448000  1.0  0.0969
  H  H37  1  0.710700  0.691600  0.411300  1.0  0.1111
  H  H38  1  0.030100  0.020700  0.695200  1.0  0.0832
  H  H39  1  0.019700  0.948100  0.714200  1.0  0.087
  H  H40  1  0.548100  0.047700  0.690500  1.0  0.0703
  H  H41  1  0.746100  0.081400  0.685700  1.0  0.0839
  H  H42  1  0.732200  0.896600  0.721200  1.0  0.0991
  H  H43  1  0.542000  0.934700  0.715500  1.0  0.082
  H  H44  1  0.719100  0.776300  0.109800  1.0  0.1135
  H  H45  1  0.762900  0.705100  0.948000  1.0  0.0968
  H  H46  1  0.789300  0.808400  0.911300  1.0  0.1109
  H  H47  1  0.469900  0.479300  0.195200  1.0  0.083
  H  H48  1  0.480300  0.551900  0.214200  1.0  0.0872
  H  H49  1  0.951900  0.452300  0.190500  1.0  0.07
  H  H50  1  0.753900  0.418600  0.185700  1.0  0.0827
  H  H51  1  0.767800  0.603400  0.221200  1.0  0.0981
  H  H52  1  0.958000  0.565300  0.215500  1.0  0.0815
  H  H53  1  0.219100  0.723700  0.109800  1.0  0.1132
  H  H54  1  0.262900  0.794900  0.948000  1.0  0.0967
  H  H55  1  0.289300  0.691600  0.911300  1.0  0.1109
  H  H56  1  0.969900  0.020700  0.195200  1.0  0.0836
  H  H57  1  0.980300  0.948100  0.214200  1.0  0.0877
  H  H58  1  0.451900  0.047700  0.190500  1.0  0.0701
  H  H59  1  0.253900  0.081400  0.185700  1.0  0.0853
  H  H60  1  0.267800  0.896600  0.221200  1.0  0.0988
  H  H61  1  0.458000  0.934700  0.215500  1.0  0.0815
  H  H62  1  0.280900  0.776300  0.609800  1.0  0.1135
  H  H63  1  0.237100  0.705100  0.448000  1.0  0.097
  H  H64  1  0.210700  0.808400  0.411300  1.0  0.111
  H  H65  1  0.530100  0.479300  0.695200  1.0  0.0829
  H  H66  1  0.519700  0.551900  0.714200  1.0  0.0875
  H  H67  1  0.048100  0.452300  0.690500  1.0  0.0707
  H  H68  1  0.246100  0.418600  0.685700  1.0  0.084
  H  H69  1  0.232200  0.603400  0.721200  1.0  0.0982
  H  H70  1  0.042000  0.565300  0.715500  1.0  0.0831
  H  H71  1  0.219100  0.276300  0.390200  1.0  0.1147
  H  H72  1  0.262900  0.205100  0.552000  1.0  0.0973
  H  H73  1  0.289300  0.308400  0.588700  1.0  0.1109
  H  H74  1  0.969900  0.979300  0.304800  1.0  0.0837
  H  H75  1  0.980300  0.051900  0.285800  1.0  0.0873
  H  H76  1  0.451900  0.952300  0.309500  1.0  0.0696
  H  H77  1  0.253900  0.918600  0.314300  1.0  0.0838
  H  H78  1  0.267800  0.103400  0.278800  1.0  0.0981
  H  H79  1  0.458000  0.065300  0.284500  1.0  0.0815
  H  H80  1  0.280900  0.223700  0.890200  1.0  0.1141
  H  H81  1  0.237100  0.294900  0.052000  1.0  0.0972
  H  H82  1  0.210700  0.191600  0.088700  1.0  0.1107
  H  H83  1  0.530100  0.520700  0.804800  1.0  0.083
  H  H84  1  0.519700  0.448100  0.785800  1.0  0.0873
  H  H85  1  0.048100  0.547700  0.809500  1.0  0.0701
  H  H86  1  0.246100  0.581400  0.814300  1.0  0.083
  H  H87  1  0.232200  0.396600  0.778800  1.0  0.0993
  H  H88  1  0.042000  0.434700  0.784500  1.0  0.0824
  C  C89  1  0.738200  0.356200  0.011700  1.0  -0.0348
  C  C90  1  0.769700  0.282900  0.930300  1.0  0.0268
  C  C91  1  0.769400  0.162500  0.943200  1.0  0.6952
  C  C92  1  0.761400  0.345300  0.951200  1.0  -0.2023
  C  C93  1  0.762000  0.229800  0.966900  1.0  -0.1441
  C  C94  1  0.741500  0.240200  0.026700  1.0  -0.0218
  C  C95  1  0.727400  0.302300  0.048700  1.0  -0.1082
  C  C96  1  0.720000  0.420200  0.041400  1.0  0.6916
  C  C97  1  0.958300  0.010300  0.782100  1.0  -0.0397
  C  C98  1  0.676000  0.952200  0.794400  1.0  -0.0239
  C  C99  1  0.672000  0.062000  0.771800  1.0  -0.0321
  C  C100  1  0.761800  0.143800  0.511700  1.0  -0.0355
  C  C101  1  0.730300  0.217100  0.430300  1.0  0.0263
  C  C102  1  0.730600  0.337500  0.443200  1.0  0.695
  C  C103  1  0.738600  0.154700  0.451200  1.0  -0.2035
  C  C104  1  0.738000  0.270200  0.466900  1.0  -0.1433
  C  C105  1  0.758500  0.259800  0.526700  1.0  -0.0208
  C  C106  1  0.772600  0.197700  0.548700  1.0  -0.1082
  C  C107  1  0.780000  0.079800  0.541400  1.0  0.6921
  C  C108  1  0.541700  0.489700  0.282100  1.0  -0.0403
  C  C109  1  0.824000  0.547800  0.294400  1.0  -0.0235
  C  C110  1  0.828000  0.438000  0.271800  1.0  -0.0328
  C  C111  1  0.738200  0.643800  0.488300  1.0  -0.0358
  C  C112  1  0.769700  0.717100  0.569700  1.0  0.0283
  C  C113  1  0.769400  0.837500  0.556800  1.0  0.6951
  C  C114  1  0.761400  0.654700  0.548800  1.0  -0.2041
  C  C115  1  0.762000  0.770200  0.533100  1.0  -0.1435
  C  C116  1  0.741500  0.759800  0.473300  1.0  -0.0207
  C  C117  1  0.727400  0.697700  0.451300  1.0  -0.1086
  C  C118  1  0.720000  0.579800  0.458600  1.0  0.6919
  C  C119  1  0.958300  0.989700  0.717900  1.0  -0.0401
  C  C120  1  0.676000  0.047800  0.705600  1.0  -0.0231
  C  C121  1  0.672000  0.938000  0.728200  1.0  -0.031
  C  C122  1  0.761800  0.856200  0.988300  1.0  -0.0354
  C  C123  1  0.730300  0.782900  0.069700  1.0  0.0282
  C  C124  1  0.730600  0.662500  0.056800  1.0  0.6955
  C  C125  1  0.738600  0.845300  0.048800  1.0  -0.2034
  C  C126  1  0.738000  0.729800  0.033100  1.0  -0.1439
  C  C127  1  0.758500  0.740200  0.973300  1.0  -0.0211
  C  C128  1  0.772600  0.802300  0.951300  1.0  -0.1083
  C  C129  1  0.780000  0.920200  0.958600  1.0  0.6913
  C  C130  1  0.541700  0.510300  0.217900  1.0  -0.0393
  C  C131  1  0.824000  0.452200  0.205600  1.0  -0.0247
  C  C132  1  0.828000  0.562000  0.228200  1.0  -0.0328
  C  C133  1  0.261800  0.643800  0.988300  1.0  -0.0359
  C  C134  1  0.230300  0.717100  0.069700  1.0  0.0279
  C  C135  1  0.230600  0.837500  0.056800  1.0  0.6951
  C  C136  1  0.238600  0.654700  0.048800  1.0  -0.2042
  C  C137  1  0.238000  0.770200  0.033100  1.0  -0.1435
  C  C138  1  0.258500  0.759800  0.973300  1.0  -0.0205
  C  C139  1  0.272600  0.697700  0.951300  1.0  -0.1089
  C  C140  1  0.280000  0.579800  0.958600  1.0  0.6919
  C  C141  1  0.041700  0.989700  0.217900  1.0  -0.0404
  C  C142  1  0.324000  0.047800  0.205600  1.0  -0.0246
  C  C143  1  0.328000  0.938000  0.228200  1.0  -0.0327
  C  C144  1  0.238200  0.856200  0.488300  1.0  -0.0353
  C  C145  1  0.269700  0.782900  0.569700  1.0  0.0285
  C  C146  1  0.269400  0.662500  0.556800  1.0  0.6955
  C  C147  1  0.261400  0.845300  0.548800  1.0  -0.2035
  C  C148  1  0.262000  0.729800  0.533100  1.0  -0.1439
  C  C149  1  0.241500  0.740200  0.473300  1.0  -0.0211
  C  C150  1  0.227400  0.802300  0.451300  1.0  -0.108
  C  C151  1  0.220000  0.920200  0.458600  1.0  0.6914
  C  C152  1  0.458300  0.510300  0.717900  1.0  -0.0405
  C  C153  1  0.176000  0.452200  0.705600  1.0  -0.0236
  C  C154  1  0.172000  0.562000  0.728200  1.0  -0.0317
  C  C155  1  0.261800  0.356200  0.511700  1.0  -0.0348
  C  C156  1  0.230300  0.282900  0.430300  1.0  0.0268
  C  C157  1  0.230600  0.162500  0.443200  1.0  0.6952
  C  C158  1  0.238600  0.345300  0.451200  1.0  -0.2022
  C  C159  1  0.238000  0.229800  0.466900  1.0  -0.1441
  C  C160  1  0.258500  0.240200  0.526700  1.0  -0.0217
  C  C161  1  0.272600  0.302300  0.548700  1.0  -0.1077
  C  C162  1  0.280000  0.420200  0.541400  1.0  0.6915
  C  C163  1  0.041700  0.010300  0.282100  1.0  -0.0395
  C  C164  1  0.324000  0.952200  0.294400  1.0  -0.024
  C  C165  1  0.328000  0.062000  0.271800  1.0  -0.0325
  C  C166  1  0.238200  0.143800  0.011700  1.0  -0.0355
  C  C167  1  0.269700  0.217100  0.930300  1.0  0.0262
  C  C168  1  0.269400  0.337500  0.943200  1.0  0.6949
  C  C169  1  0.261400  0.154700  0.951200  1.0  -0.2034
  C  C170  1  0.262000  0.270200  0.966900  1.0  -0.1434
  C  C171  1  0.241500  0.259800  0.026700  1.0  -0.0209
  C  C172  1  0.227400  0.197700  0.048700  1.0  -0.1087
  C  C173  1  0.220000  0.079800  0.041400  1.0  0.6922
  C  C174  1  0.458300  0.489700  0.782100  1.0  -0.0394
  C  C175  1  0.176000  0.547800  0.794400  1.0  -0.0237
  C  C176  1  0.172000  0.438000  0.771800  1.0  -0.0317
  S  S177  1  0.763300  0.409060  0.899040  1.0  1.4022
  S  S178  1  0.736700  0.090940  0.399040  1.0  1.402
  S  S179  1  0.763300  0.590940  0.600960  1.0  1.402
  S  S180  1  0.736700  0.909060  0.100960  1.0  1.4023
  S  S181  1  0.236700  0.590940  0.100960  1.0  1.402
  S  S182  1  0.263300  0.909060  0.600960  1.0  1.4022
  S  S183  1  0.236700  0.409060  0.399040  1.0  1.4022
  S  S184  1  0.263300  0.090940  0.899040  1.0  1.402
  N  N185  1  0.764000  0.014600  0.806000  1.0  -0.2387
  N  N186  1  0.736000  0.485400  0.306000  1.0  -0.2382
  N  N187  1  0.764000  0.985400  0.694000  1.0  -0.2372
  N  N188  1  0.736000  0.514600  0.194000  1.0  -0.2372
  N  N189  1  0.236000  0.985400  0.194000  1.0  -0.2371
  N  N190  1  0.264000  0.514600  0.694000  1.0  -0.2371
  N  N191  1  0.236000  0.014600  0.306000  1.0  -0.2387
  N  N192  1  0.264000  0.485400  0.806000  1.0  -0.2384
  O  O193  1  0.783900  0.154200  0.889700  1.0  -0.5823
  O  O194  1  0.939700  0.444900  0.904500  1.0  -0.7884
  O  O195  1  0.759900  0.116100  0.978400  1.0  -0.7375
  O  O196  1  0.828000  0.464200  0.030000  1.0  -0.7355
  O  O197  1  0.736500  0.378800  0.843800  1.0  -0.6125
  O  O198  1  0.609200  0.452800  0.915100  1.0  -0.764
  O  O199  1  0.594900  0.427200  0.081100  1.0  -0.6616
  O  O200  1  0.716100  0.345800  0.389700  1.0  -0.5818
  O  O201  1  0.560300  0.055100  0.404500  1.0  -0.7879
  O  O202  1  0.740100  0.383900  0.478400  1.0  -0.7397
  O  O203  1  0.672000  0.035800  0.530000  1.0  -0.7348
  O  O204  1  0.763500  0.121200  0.343800  1.0  -0.6126
  O  O205  1  0.890800  0.047200  0.415100  1.0  -0.7644
  O  O206  1  0.905100  0.072800  0.581100  1.0  -0.6629
  O  O207  1  0.783900  0.845800  0.610300  1.0  -0.5827
  O  O208  1  0.939700  0.555100  0.595500  1.0  -0.7889
  O  O209  1  0.759900  0.883900  0.521600  1.0  -0.7381
  O  O210  1  0.828000  0.535800  0.470000  1.0  -0.7357
  O  O211  1  0.736500  0.621200  0.656200  1.0  -0.6125
  O  O212  1  0.609200  0.547200  0.584900  1.0  -0.7628
  O  O213  1  0.594900  0.572800  0.418900  1.0  -0.6616
  O  O214  1  0.716100  0.654200  0.110300  1.0  -0.5825
  O  O215  1  0.560300  0.944900  0.095500  1.0  -0.788
  O  O216  1  0.740100  0.616100  0.021600  1.0  -0.7381
  O  O217  1  0.672000  0.964200  0.970000  1.0  -0.7353
  O  O218  1  0.763500  0.878800  0.156200  1.0  -0.6125
  O  O219  1  0.890800  0.952800  0.084900  1.0  -0.7634
  O  O220  1  0.905100  0.927200  0.918900  1.0  -0.6622
  O  O221  1  0.216100  0.845800  0.110300  1.0  -0.5826
  O  O222  1  0.060300  0.555100  0.095500  1.0  -0.7882
  O  O223  1  0.240100  0.883900  0.021600  1.0  -0.7383
  O  O224  1  0.172000  0.535800  0.970000  1.0  -0.7352
  O  O225  1  0.263500  0.621200  0.156200  1.0  -0.6125
  O  O226  1  0.390800  0.547200  0.084900  1.0  -0.7635
  O  O227  1  0.405100  0.572800  0.918900  1.0  -0.6616
  O  O228  1  0.283900  0.654200  0.610300  1.0  -0.5827
  O  O229  1  0.439700  0.944900  0.595500  1.0  -0.7887
  O  O230  1  0.259900  0.616100  0.521600  1.0  -0.7381
  O  O231  1  0.328000  0.964200  0.470000  1.0  -0.7359
  O  O232  1  0.236500  0.878800  0.656200  1.0  -0.6124
  O  O233  1  0.109200  0.952800  0.584900  1.0  -0.7629
  O  O234  1  0.094900  0.927200  0.418900  1.0  -0.662
  O  O235  1  0.216100  0.154200  0.389700  1.0  -0.5819
  O  O236  1  0.060300  0.444900  0.404500  1.0  -0.7876
  O  O237  1  0.240100  0.116100  0.478400  1.0  -0.7377
  O  O238  1  0.172000  0.464200  0.530000  1.0  -0.7349
  O  O239  1  0.263500  0.378800  0.343800  1.0  -0.6126
  O  O240  1  0.390800  0.452800  0.415100  1.0  -0.7644
  O  O241  1  0.405100  0.427200  0.581100  1.0  -0.6625
  O  O242  1  0.283900  0.345800  0.889700  1.0  -0.5821
  O  O243  1  0.439700  0.055100  0.904500  1.0  -0.7886
  O  O244  1  0.259900  0.383900  0.978400  1.0  -0.7396
  O  O245  1  0.328000  0.035800  0.030000  1.0  -0.7352
  O  O246  1  0.236500  0.121200  0.843800  1.0  -0.6124
  O  O247  1  0.109200  0.047200  0.915100  1.0  -0.7637
  O  O248  1  0.094900  0.072800  0.081100  1.0  -0.6619
