# generated using pymatgen
data_Cu2H14C17(N5O2)2
_symmetry_space_group_name_H-M   'P 1'
_cell_length_a   9.27410000
_cell_length_b   9.38990000
_cell_length_c   15.05670000
_cell_angle_alpha   108.16900000
_cell_angle_beta   92.52440000
_cell_angle_gamma   90.00000000
_symmetry_Int_Tables_number   1
_chemical_formula_structural   Cu2H14C17(N5O2)2
_chemical_formula_sum   'Cu4 H28 C34 N20 O8'
_cell_volume   1244.46711713
_cell_formula_units_Z   2
loop_
 _symmetry_equiv_pos_site_id
 _symmetry_equiv_pos_as_xyz
  1  'x, y, z'
loop_
 _atom_site_type_symbol
 _atom_site_label
 _atom_site_symmetry_multiplicity
 _atom_site_fract_x
 _atom_site_fract_y
 _atom_site_fract_z
 _atom_site_occupancy
 _atom_site_charge
  Cu  Cu1  1  0.879960  0.361790  0.384920  1.0  0.6528
  Cu  Cu2  1  0.620040  0.976870  0.615080  1.0  0.6531
  Cu  Cu3  1  0.120040  0.638210  0.615080  1.0  0.6534
  Cu  Cu4  1  0.379960  0.023130  0.384920  1.0  0.6535
  H  H5  1  0.143100  0.704400  0.254000  1.0  0.1251
  H  H6  1  0.035600  0.631700  0.366400  1.0  0.0646
  H  H7  1  0.043400  0.298600  0.070200  1.0  0.1318
  H  H8  1  0.930700  0.240000  0.188000  1.0  0.0932
  H  H9  1  0.108300  0.603400  0.042600  1.0  0.0911
  H  H10  1  0.254400  0.632700  0.104000  1.0  0.094
  H  H11  1  0.322400  0.385200  0.030400  1.0  0.0771
  H  H12  1  0.356900  0.450400  0.746000  1.0  0.1245
  H  H13  1  0.464400  0.265300  0.633600  1.0  0.066
  H  H14  1  0.456600  0.228400  0.929800  1.0  0.1335
  H  H15  1  0.569300  0.052000  0.812000  1.0  0.0922
  H  H16  1  0.391700  0.560800  0.957400  1.0  0.093
  H  H17  1  0.245600  0.528700  0.896000  1.0  0.0991
  H  H18  1  0.177600  0.354800  0.969600  1.0  0.076
  H  H19  1  0.856900  0.295600  0.746000  1.0  0.1236
  H  H20  1  0.964400  0.368300  0.633600  1.0  0.064
  H  H21  1  0.956600  0.701400  0.929800  1.0  0.1318
  H  H22  1  0.069300  0.760000  0.812000  1.0  0.0919
  H  H23  1  0.891700  0.396600  0.957400  1.0  0.0924
  H  H24  1  0.745600  0.367300  0.896000  1.0  0.0995
  H  H25  1  0.677600  0.614800  0.969600  1.0  0.0774
  H  H26  1  0.643100  0.549600  0.254000  1.0  0.1239
  H  H27  1  0.535600  0.734700  0.366400  1.0  0.067
  H  H28  1  0.543400  0.771600  0.070200  1.0  0.1344
  H  H29  1  0.430700  0.948000  0.188000  1.0  0.0942
  H  H30  1  0.608300  0.439200  0.042600  1.0  0.0932
  H  H31  1  0.754400  0.471300  0.104000  1.0  0.0959
  H  H32  1  0.822400  0.645200  0.030400  1.0  0.0758
  C  C33  1  0.102200  0.607700  0.238800  1.0  -0.2005
  C  C34  1  0.036800  0.563800  0.305400  1.0  0.1714
  C  C35  1  0.042600  0.369100  0.130200  1.0  -0.2331
  C  C36  1  0.108400  0.509000  0.147800  1.0  0.1599
  C  C37  1  0.976200  0.334200  0.201400  1.0  0.1675
  C  C38  1  0.180400  0.556500  0.073600  1.0  -0.199
  C  C39  1  0.140400  0.201300  0.406400  1.0  0.1574
  C  C40  1  0.099200  0.067600  0.324400  1.0  0.6059
  C  C41  1  0.397800  0.368900  0.761200  1.0  -0.1918
  C  C42  1  0.463200  0.258400  0.694600  1.0  0.1731
  C  C43  1  0.457400  0.238900  0.869800  1.0  -0.2342
  C  C44  1  0.391600  0.361200  0.852200  1.0  0.1594
  C  C45  1  0.523800  0.132800  0.798600  1.0  0.1668
  C  C46  1  0.319600  0.482900  0.926400  1.0  -0.1987
  C  C47  1  0.359600  0.794900  0.593600  1.0  0.1559
  C  C48  1  0.400800  0.743200  0.675600  1.0  0.6089
  C  C49  1  0.897800  0.392300  0.761200  1.0  -0.2018
  C  C50  1  0.963200  0.436200  0.694600  1.0  0.1746
  C  C51  1  0.957400  0.630900  0.869800  1.0  -0.233
  C  C52  1  0.891600  0.491000  0.852200  1.0  0.1603
  C  C53  1  0.023800  0.665800  0.798600  1.0  0.1687
  C  C54  1  0.819600  0.443500  0.926400  1.0  -0.1986
  C  C55  1  0.859600  0.798700  0.593600  1.0  0.1587
  C  C56  1  0.900800  0.932400  0.675600  1.0  0.607
  C  C57  1  0.602200  0.631100  0.238800  1.0  -0.2004
  C  C58  1  0.536800  0.741600  0.305400  1.0  0.1728
  C  C59  1  0.542600  0.761100  0.130200  1.0  -0.2329
  C  C60  1  0.608400  0.638800  0.147800  1.0  0.1587
  C  C61  1  0.476200  0.867200  0.201400  1.0  0.1654
  C  C62  1  0.680400  0.517100  0.073600  1.0  -0.195
  C  C63  1  0.640400  0.205100  0.406400  1.0  0.1574
  C  C64  1  0.599200  0.256800  0.324400  1.0  0.6088
  C  C65  1  0.250000  0.430900  0.000000  1.0  -0.1033
  C  C66  1  0.750000  0.569100  0.000000  1.0  -0.1057
  N  N67  1  0.974000  0.428770  0.288540  1.0  -0.2899
  N  N68  1  0.072300  0.327680  0.443160  1.0  -0.1959
  N  N69  1  0.159200  0.411330  0.512460  1.0  -0.0294
  N  N70  1  0.279700  0.338050  0.517100  1.0  -0.0965
  N  N71  1  0.269000  0.204870  0.449940  1.0  -0.1972
  N  N72  1  0.526000  0.140230  0.711460  1.0  -0.2904
  N  N73  1  0.427700  0.884520  0.556840  1.0  -0.1951
  N  N74  1  0.340800  0.898870  0.487540  1.0  -0.0298
  N  N75  1  0.220300  0.820950  0.482900  1.0  -0.0969
  N  N76  1  0.231000  0.754930  0.550060  1.0  -0.2066
  N  N77  1  0.026000  0.571230  0.711460  1.0  -0.2907
  N  N78  1  0.927700  0.672320  0.556840  1.0  -0.1955
  N  N79  1  0.840800  0.588670  0.487540  1.0  -0.0291
  N  N80  1  0.720300  0.661950  0.482900  1.0  -0.0975
  N  N81  1  0.731000  0.795130  0.550060  1.0  -0.2005
  N  N82  1  0.474000  0.859770  0.288540  1.0  -0.2895
  N  N83  1  0.572300  0.115480  0.443160  1.0  -0.1966
  N  N84  1  0.659200  0.101130  0.512460  1.0  -0.031
  N  N85  1  0.779700  0.179050  0.517100  1.0  -0.096
  N  N86  1  0.769000  0.245070  0.449940  1.0  -0.1989
  O  O87  1  0.198300  0.971100  0.305400  1.0  -0.5455
  O  O88  1  0.979600  0.062820  0.285040  1.0  -0.56
  O  O89  1  0.301700  0.665700  0.694600  1.0  -0.5426
  O  O90  1  0.520400  0.777780  0.714960  1.0  -0.5611
  O  O91  1  0.801700  0.028900  0.694600  1.0  -0.5427
  O  O92  1  0.020400  0.937180  0.714960  1.0  -0.5614
  O  O93  1  0.698300  0.334300  0.305400  1.0  -0.543
  O  O94  1  0.479600  0.222220  0.285040  1.0  -0.5599
