# generated using pymatgen
data_Cu2H14C17(N5O2)2
_symmetry_space_group_name_H-M   'P 1'
_cell_length_a   9.25530000
_cell_length_b   9.35370000
_cell_length_c   13.87350000
_cell_angle_alpha   109.70100000
_cell_angle_beta   101.75800000
_cell_angle_gamma   90.00000000
_symmetry_Int_Tables_number   1
_chemical_formula_structural   Cu2H14C17(N5O2)2
_chemical_formula_sum   'Cu4 H28 C34 N20 O8'
_cell_volume   1103.93792297
_cell_formula_units_Z   2
loop_
 _symmetry_equiv_pos_site_id
 _symmetry_equiv_pos_as_xyz
  1  'x, y, z'
loop_
 _atom_site_type_symbol
 _atom_site_label
 _atom_site_symmetry_multiplicity
 _atom_site_fract_x
 _atom_site_fract_y
 _atom_site_fract_z
 _atom_site_occupancy
 _atom_site_charge
  Cu  Cu1  1  0.038600  0.020300  0.384600  1.0  0.6495
  Cu  Cu2  1  0.461400  0.635700  0.615400  1.0  0.647
  Cu  Cu3  1  0.961400  0.979700  0.615400  1.0  0.6475
  Cu  Cu4  1  0.538600  0.364300  0.384600  1.0  0.6493
  H  H5  1  0.823340  0.930810  0.180720  1.0  0.0859
  H  H6  1  0.681840  0.723100  0.048640  1.0  0.1333
  H  H7  1  0.817920  0.467460  0.233760  1.0  0.1248
  H  H8  1  0.955050  0.683820  0.359800  1.0  0.0788
  H  H9  1  0.589070  0.465180  0.992580  1.0  0.078
  H  H10  1  0.584650  0.393260  0.076480  1.0  0.1033
  H  H11  1  0.809010  0.264850  0.046740  1.0  0.0915
  H  H12  1  0.676660  0.750090  0.819280  1.0  0.0868
  H  H13  1  0.818160  0.674460  0.951360  1.0  0.1327
  H  H14  1  0.682080  0.233700  0.766240  1.0  0.126
  H  H15  1  0.544950  0.324020  0.640200  1.0  0.0788
  H  H16  1  0.910930  0.472600  0.007420  1.0  0.0798
  H  H17  1  0.915350  0.316780  0.923520  1.0  0.1025
  H  H18  1  0.690990  0.218110  0.953260  1.0  0.0901
  H  H19  1  0.176660  0.069190  0.819280  1.0  0.086
  H  H20  1  0.318160  0.276900  0.951360  1.0  0.1314
  H  H21  1  0.182080  0.532540  0.766240  1.0  0.1242
  H  H22  1  0.044950  0.316180  0.640200  1.0  0.0784
  H  H23  1  0.410930  0.534820  0.007420  1.0  0.0787
  H  H24  1  0.415350  0.606740  0.923520  1.0  0.1035
  H  H25  1  0.190990  0.735150  0.953260  1.0  0.0925
  H  H26  1  0.323340  0.249910  0.180720  1.0  0.0864
  H  H27  1  0.181840  0.325540  0.048640  1.0  0.1295
  H  H28  1  0.317920  0.766300  0.233760  1.0  0.1267
  H  H29  1  0.455050  0.675980  0.359800  1.0  0.0789
  H  H30  1  0.089070  0.527400  0.992580  1.0  0.0794
  H  H31  1  0.084650  0.683220  0.076480  1.0  0.1032
  H  H32  1  0.309010  0.781890  0.046740  1.0  0.0908
  C  C33  1  0.769600  0.256800  0.301600  1.0  0.5899
  C  C34  1  0.775000  0.202500  0.392000  1.0  0.1565
  C  C35  1  0.821900  0.834600  0.191400  1.0  0.1558
  C  C36  1  0.737200  0.712400  0.112000  1.0  -0.2335
  C  C37  1  0.736300  0.573900  0.128600  1.0  0.1624
  C  C38  1  0.817400  0.562500  0.221400  1.0  -0.2063
  C  C39  1  0.898800  0.691700  0.295800  1.0  0.1593
  C  C40  1  0.646870  0.436000  0.046000  1.0  -0.1812
  C  C41  1  0.730400  0.955200  0.698400  1.0  0.5879
  C  C42  1  0.725000  0.810500  0.608000  1.0  0.1557
  C  C43  1  0.678100  0.643200  0.808600  1.0  0.1554
  C  C44  1  0.762800  0.600400  0.888000  1.0  -0.2329
  C  C45  1  0.763700  0.445300  0.871400  1.0  0.1646
  C  C46  1  0.682600  0.341100  0.778600  1.0  -0.2093
  C  C47  1  0.601200  0.395900  0.704200  1.0  0.1625
  C  C48  1  0.853130  0.390000  0.954000  1.0  -0.1811
  C  C49  1  0.230400  0.743200  0.698400  1.0  0.5905
  C  C50  1  0.225000  0.797500  0.608000  1.0  0.1557
  C  C51  1  0.178100  0.165400  0.808600  1.0  0.155
  C  C52  1  0.262800  0.287600  0.888000  1.0  -0.2307
  C  C53  1  0.263700  0.426100  0.871400  1.0  0.1622
  C  C54  1  0.182600  0.437500  0.778600  1.0  -0.2061
  C  C55  1  0.101200  0.308300  0.704200  1.0  0.1607
  C  C56  1  0.353130  0.564000  0.954000  1.0  -0.1787
  C  C57  1  0.269600  0.044800  0.301600  1.0  0.588
  C  C58  1  0.275000  0.189500  0.392000  1.0  0.1562
  C  C59  1  0.321900  0.356800  0.191400  1.0  0.1549
  C  C60  1  0.237200  0.399600  0.112000  1.0  -0.2323
  C  C61  1  0.236300  0.554700  0.128600  1.0  0.1643
  C  C62  1  0.317400  0.658900  0.221400  1.0  -0.2098
  C  C63  1  0.398800  0.604100  0.295800  1.0  0.1612
  C  C64  1  0.146870  0.610000  0.046000  1.0  -0.1789
  C  C65  1  0.750000  0.320000  0.000000  1.0  -0.1123
  C  C66  1  0.250000  0.680000  0.000000  1.0  -0.1133
  N  N67  1  0.675800  0.246400  0.450800  1.0  -0.2109
  N  N68  1  0.706400  0.182700  0.525400  1.0  -0.073
  N  N69  1  0.822800  0.101900  0.509800  1.0  -0.0607
  N  N70  1  0.866000  0.113500  0.427000  1.0  -0.2072
  N  N71  1  0.902000  0.827400  0.282000  1.0  -0.2864
  N  N72  1  0.824200  0.795600  0.549200  1.0  -0.2107
  N  N73  1  0.793600  0.657300  0.474600  1.0  -0.0722
  N  N74  1  0.677200  0.592100  0.490200  1.0  -0.0604
  N  N75  1  0.634000  0.686500  0.573000  1.0  -0.2064
  N  N76  1  0.598000  0.545400  0.718000  1.0  -0.2878
  N  N77  1  0.324200  0.753600  0.549200  1.0  -0.211
  N  N78  1  0.293600  0.817300  0.474600  1.0  -0.0717
  N  N79  1  0.177200  0.898100  0.490200  1.0  -0.0611
  N  N80  1  0.134000  0.886500  0.573000  1.0  -0.2073
  N  N81  1  0.098000  0.172600  0.718000  1.0  -0.2878
  N  N82  1  0.175800  0.204400  0.450800  1.0  -0.2133
  N  N83  1  0.206400  0.342700  0.525400  1.0  -0.0741
  N  N84  1  0.322800  0.407900  0.509800  1.0  -0.0619
  N  N85  1  0.366000  0.313500  0.427000  1.0  -0.2055
  N  N86  1  0.402000  0.454600  0.282000  1.0  -0.2856
  O  O87  1  0.866400  0.228200  0.250400  1.0  -0.5297
  O  O88  1  0.655000  0.329500  0.289000  1.0  -0.5229
  O  O89  1  0.633600  0.977800  0.749600  1.0  -0.5285
  O  O90  1  0.845000  0.040500  0.711000  1.0  -0.5226
  O  O91  1  0.133600  0.771800  0.749600  1.0  -0.5295
  O  O92  1  0.345000  0.670500  0.711000  1.0  -0.5253
  O  O93  1  0.366400  0.022200  0.250400  1.0  -0.5299
  O  O94  1  0.155000  0.959500  0.289000  1.0  -0.5241
