# generated using pymatgen
data_CuH6C11O5
_symmetry_space_group_name_H-M   'P 1'
_cell_length_a   29.33040000
_cell_length_b   29.33040000
_cell_length_c   29.33040000
_cell_angle_alpha   60.00000000
_cell_angle_beta   60.00000000
_cell_angle_gamma   60.00000000
_symmetry_Int_Tables_number   1
_chemical_formula_structural   CuH6C11O5
_chemical_formula_sum   'Cu24 H144 C264 O120'
_cell_volume   17841.81202973
_cell_formula_units_Z   24
loop_
 _symmetry_equiv_pos_site_id
 _symmetry_equiv_pos_as_xyz
  1  'x, y, z'
loop_
 _atom_site_type_symbol
 _atom_site_label
 _atom_site_symmetry_multiplicity
 _atom_site_fract_x
 _atom_site_fract_y
 _atom_site_fract_z
 _atom_site_occupancy
 _atom_site_charge
  Cu  Cu1  1  0.360490  0.001270  0.639510  1.0  0.9281
  Cu  Cu2  1  0.270520  0.000520  0.729480  1.0  0.9228
  Cu  Cu3  1  0.001270  0.360490  0.998730  1.0  0.9281
  Cu  Cu4  1  0.000520  0.270520  0.999480  1.0  0.9235
  Cu  Cu5  1  0.639510  0.998730  0.360490  1.0  0.929
  Cu  Cu6  1  0.729480  0.999480  0.270520  1.0  0.9222
  Cu  Cu7  1  0.998730  0.639510  0.001270  1.0  0.9295
  Cu  Cu8  1  0.999480  0.729480  0.000520  1.0  0.9242
  Cu  Cu9  1  0.360490  0.639510  0.998730  1.0  0.9292
  Cu  Cu10  1  0.270520  0.729480  0.999480  1.0  0.9228
  Cu  Cu11  1  0.001270  0.998730  0.639510  1.0  0.9274
  Cu  Cu12  1  0.000520  0.999480  0.729480  1.0  0.9213
  Cu  Cu13  1  0.639510  0.360490  0.001270  1.0  0.9281
  Cu  Cu14  1  0.729480  0.270520  0.000520  1.0  0.9234
  Cu  Cu15  1  0.998730  0.001270  0.360490  1.0  0.9254
  Cu  Cu16  1  0.999480  0.000520  0.270520  1.0  0.9225
  Cu  Cu17  1  0.360490  0.998730  0.001270  1.0  0.9282
  Cu  Cu18  1  0.270520  0.999480  0.000520  1.0  0.9236
  Cu  Cu19  1  0.001270  0.639510  0.360490  1.0  0.9283
  Cu  Cu20  1  0.000520  0.729480  0.270520  1.0  0.9241
  Cu  Cu21  1  0.639510  0.001270  0.998730  1.0  0.9287
  Cu  Cu22  1  0.729480  0.000520  0.999480  1.0  0.9227
  Cu  Cu23  1  0.998730  0.360490  0.639510  1.0  0.9282
  Cu  Cu24  1  0.999480  0.270520  0.729480  1.0  0.9244
  H  H25  1  0.324800  0.833200  0.828800  1.0  0.1268
  H  H26  1  0.457700  0.691300  0.821700  1.0  0.1205
  H  H27  1  0.447300  0.826500  0.679300  1.0  0.1312
  H  H28  1  0.519500  0.653500  0.740700  1.0  0.1073
  H  H29  1  0.544800  0.668800  0.767000  1.0  0.0865
  H  H30  1  0.622200  0.585200  0.740000  1.0  0.1254
  H  H31  1  0.833200  0.324800  0.013200  1.0  0.1281
  H  H32  1  0.691300  0.457700  0.029300  1.0  0.1214
  H  H33  1  0.826500  0.447300  0.046900  1.0  0.1309
  H  H34  1  0.653500  0.519500  0.086300  1.0  0.1075
  H  H35  1  0.668800  0.544800  0.019400  1.0  0.0871
  H  H36  1  0.585200  0.622200  0.052600  1.0  0.1252
  H  H37  1  0.828800  0.013200  0.324800  1.0  0.128
  H  H38  1  0.821700  0.029300  0.457700  1.0  0.1216
  H  H39  1  0.679300  0.046900  0.447300  1.0  0.13
  H  H40  1  0.740700  0.086300  0.519500  1.0  0.1056
  H  H41  1  0.767000  0.019400  0.544800  1.0  0.0866
  H  H42  1  0.740000  0.052600  0.622200  1.0  0.1265
  H  H43  1  0.013200  0.828800  0.833200  1.0  0.1267
  H  H44  1  0.029300  0.821700  0.691300  1.0  0.1213
  H  H45  1  0.046900  0.679300  0.826500  1.0  0.1319
  H  H46  1  0.086300  0.740700  0.653500  1.0  0.1061
  H  H47  1  0.019400  0.767000  0.668800  1.0  0.0868
  H  H48  1  0.052600  0.740000  0.585200  1.0  0.1265
  H  H49  1  0.324800  0.828800  0.013200  1.0  0.1269
  H  H50  1  0.457700  0.821700  0.029300  1.0  0.1212
  H  H51  1  0.447300  0.679300  0.046900  1.0  0.132
  H  H52  1  0.519500  0.740700  0.086300  1.0  0.1089
  H  H53  1  0.544800  0.767000  0.019400  1.0  0.0861
  H  H54  1  0.622200  0.740000  0.052600  1.0  0.1262
  H  H55  1  0.833200  0.013200  0.828800  1.0  0.127
  H  H56  1  0.691300  0.029300  0.821700  1.0  0.1217
  H  H57  1  0.826500  0.046900  0.679300  1.0  0.131
  H  H58  1  0.653500  0.086300  0.740700  1.0  0.1069
  H  H59  1  0.668800  0.019400  0.767000  1.0  0.0863
  H  H60  1  0.585200  0.052600  0.740000  1.0  0.1261
  H  H61  1  0.828800  0.324800  0.833200  1.0  0.128
  H  H62  1  0.821700  0.457700  0.691300  1.0  0.1211
  H  H63  1  0.679300  0.447300  0.826500  1.0  0.1304
  H  H64  1  0.740700  0.519500  0.653500  1.0  0.1086
  H  H65  1  0.767000  0.544800  0.668800  1.0  0.0825
  H  H66  1  0.740000  0.622200  0.585200  1.0  0.1251
  H  H67  1  0.013200  0.833200  0.324800  1.0  0.1279
  H  H68  1  0.029300  0.691300  0.457700  1.0  0.1208
  H  H69  1  0.046900  0.826500  0.447300  1.0  0.1305
  H  H70  1  0.086300  0.653500  0.519500  1.0  0.1055
  H  H71  1  0.019400  0.668800  0.544800  1.0  0.0819
  H  H72  1  0.052600  0.585200  0.622200  1.0  0.1258
  H  H73  1  0.324800  0.013200  0.833200  1.0  0.127
  H  H74  1  0.457700  0.029300  0.691300  1.0  0.1211
  H  H75  1  0.447300  0.046900  0.826500  1.0  0.1303
  H  H76  1  0.519500  0.086300  0.653500  1.0  0.1067
  H  H77  1  0.544800  0.019400  0.668800  1.0  0.0855
  H  H78  1  0.622200  0.052600  0.585200  1.0  0.1245
  H  H79  1  0.833200  0.828800  0.324800  1.0  0.1275
  H  H80  1  0.691300  0.821700  0.457700  1.0  0.1202
  H  H81  1  0.826500  0.679300  0.447300  1.0  0.1315
  H  H82  1  0.653500  0.740700  0.519500  1.0  0.1085
  H  H83  1  0.668800  0.767000  0.544800  1.0  0.0863
  H  H84  1  0.585200  0.740000  0.622200  1.0  0.1255
  H  H85  1  0.828800  0.833200  0.013200  1.0  0.1277
  H  H86  1  0.821700  0.691300  0.029300  1.0  0.1198
  H  H87  1  0.679300  0.826500  0.046900  1.0  0.1308
  H  H88  1  0.740700  0.653500  0.086300  1.0  0.107
  H  H89  1  0.767000  0.668800  0.019400  1.0  0.0872
  H  H90  1  0.740000  0.585200  0.052600  1.0  0.1255
  H  H91  1  0.013200  0.324800  0.828800  1.0  0.1282
  H  H92  1  0.029300  0.457700  0.821700  1.0  0.1208
  H  H93  1  0.046900  0.447300  0.679300  1.0  0.1311
  H  H94  1  0.086300  0.519500  0.740700  1.0  0.1068
  H  H95  1  0.019400  0.544800  0.767000  1.0  0.0872
  H  H96  1  0.052600  0.622200  0.740000  1.0  0.1248
  H  H97  1  0.675200  0.166800  0.171200  1.0  0.1269
  H  H98  1  0.542300  0.308700  0.178300  1.0  0.1212
  H  H99  1  0.552700  0.173500  0.320700  1.0  0.1318
  H  H100  1  0.480500  0.346500  0.259300  1.0  0.1078
  H  H101  1  0.455200  0.331200  0.233000  1.0  0.0874
  H  H102  1  0.377800  0.414800  0.260000  1.0  0.1254
  H  H103  1  0.166800  0.675200  0.986800  1.0  0.1281
  H  H104  1  0.308700  0.542300  0.970700  1.0  0.122
  H  H105  1  0.173500  0.552700  0.953100  1.0  0.1315
  H  H106  1  0.346500  0.480500  0.913700  1.0  0.1078
  H  H107  1  0.331200  0.455200  0.980600  1.0  0.0865
  H  H108  1  0.414800  0.377800  0.947400  1.0  0.1255
  H  H109  1  0.171200  0.986800  0.675200  1.0  0.1277
  H  H110  1  0.178300  0.970700  0.542300  1.0  0.1217
  H  H111  1  0.320700  0.953100  0.552700  1.0  0.131
  H  H112  1  0.259300  0.913700  0.480500  1.0  0.104
  H  H113  1  0.233000  0.980600  0.455200  1.0  0.0866
  H  H114  1  0.260000  0.947400  0.377800  1.0  0.126
  H  H115  1  0.986800  0.171200  0.166800  1.0  0.1276
  H  H116  1  0.970700  0.178300  0.308700  1.0  0.1218
  H  H117  1  0.953100  0.320700  0.173500  1.0  0.1303
  H  H118  1  0.913700  0.259300  0.346500  1.0  0.1049
  H  H119  1  0.980600  0.233000  0.331200  1.0  0.0874
  H  H120  1  0.947400  0.260000  0.414800  1.0  0.1264
  H  H121  1  0.675200  0.171200  0.986800  1.0  0.1271
  H  H122  1  0.542300  0.178300  0.970700  1.0  0.1207
  H  H123  1  0.552700  0.320700  0.953100  1.0  0.1307
  H  H124  1  0.480500  0.259300  0.913700  1.0  0.1099
  H  H125  1  0.455200  0.233000  0.980600  1.0  0.0855
  H  H126  1  0.377800  0.260000  0.947400  1.0  0.1263
  H  H127  1  0.166800  0.986800  0.171200  1.0  0.1282
  H  H128  1  0.308700  0.970700  0.178300  1.0  0.1219
  H  H129  1  0.173500  0.953100  0.320700  1.0  0.131
  H  H130  1  0.346500  0.913700  0.259300  1.0  0.1045
  H  H131  1  0.331200  0.980600  0.233000  1.0  0.0863
  H  H132  1  0.414800  0.947400  0.260000  1.0  0.1253
  H  H133  1  0.171200  0.675200  0.166800  1.0  0.1281
  H  H134  1  0.178300  0.542300  0.308700  1.0  0.1212
  H  H135  1  0.320700  0.552700  0.173500  1.0  0.1313
  H  H136  1  0.259300  0.480500  0.346500  1.0  0.109
  H  H137  1  0.233000  0.455200  0.331200  1.0  0.0838
  H  H138  1  0.260000  0.377800  0.414800  1.0  0.1261
  H  H139  1  0.986800  0.166800  0.675200  1.0  0.127
  H  H140  1  0.970700  0.308700  0.542300  1.0  0.1207
  H  H141  1  0.953100  0.173500  0.552700  1.0  0.1317
  H  H142  1  0.913700  0.346500  0.480500  1.0  0.1073
  H  H143  1  0.980600  0.331200  0.455200  1.0  0.0816
  H  H144  1  0.947400  0.414800  0.377800  1.0  0.1273
  H  H145  1  0.675200  0.986800  0.166800  1.0  0.1284
  H  H146  1  0.542300  0.970700  0.308700  1.0  0.1213
  H  H147  1  0.552700  0.953100  0.173500  1.0  0.1313
  H  H148  1  0.480500  0.913700  0.346500  1.0  0.1055
  H  H149  1  0.455200  0.980600  0.331200  1.0  0.0862
  H  H150  1  0.377800  0.947400  0.414800  1.0  0.1248
  H  H151  1  0.166800  0.171200  0.675200  1.0  0.1272
  H  H152  1  0.308700  0.178300  0.542300  1.0  0.1206
  H  H153  1  0.173500  0.320700  0.552700  1.0  0.1307
  H  H154  1  0.346500  0.259300  0.480500  1.0  0.1089
  H  H155  1  0.331200  0.233000  0.455200  1.0  0.0866
  H  H156  1  0.414800  0.260000  0.377800  1.0  0.1264
  H  H157  1  0.171200  0.166800  0.986800  1.0  0.1273
  H  H158  1  0.178300  0.308700  0.970700  1.0  0.1199
  H  H159  1  0.320700  0.173500  0.953100  1.0  0.131
  H  H160  1  0.259300  0.346500  0.913700  1.0  0.1076
  H  H161  1  0.233000  0.331200  0.980600  1.0  0.0867
  H  H162  1  0.260000  0.414800  0.947400  1.0  0.1259
  H  H163  1  0.986800  0.675200  0.171200  1.0  0.1282
  H  H164  1  0.970700  0.542300  0.178300  1.0  0.1211
  H  H165  1  0.953100  0.552700  0.320700  1.0  0.1311
  H  H166  1  0.913700  0.480500  0.259300  1.0  0.1061
  H  H167  1  0.980600  0.455200  0.233000  1.0  0.087
  H  H168  1  0.947400  0.377800  0.260000  1.0  0.1247
  C  C169  1  0.384500  0.836700  0.752700  1.0  -0.0919
  C  C170  1  0.359500  0.812240  0.808540  1.0  -0.0561
  C  C171  1  0.385200  0.756800  0.835200  1.0  -0.1202
  C  C172  1  0.437800  0.728400  0.804000  1.0  -0.1301
  C  C173  1  0.460700  0.754700  0.747100  1.0  0.1381
  C  C174  1  0.433500  0.809500  0.718500  1.0  -0.1216
  C  C175  1  0.357900  0.731900  0.897300  1.0  0.6777
  C  C176  1  0.359000  0.896600  0.721200  1.0  0.6517
  C  C177  1  0.540100  0.676700  0.732300  1.0  0.0168
  C  C178  1  0.597400  0.664800  0.686200  1.0  0.1141
  C  C179  1  0.633100  0.611100  0.703700  1.0  -0.1814
  C  C180  1  0.836700  0.384500  0.026100  1.0  -0.0921
  C  C181  1  0.812240  0.359500  0.019720  1.0  -0.0566
  C  C182  1  0.756800  0.385200  0.022800  1.0  -0.1202
  C  C183  1  0.728400  0.437800  0.029800  1.0  -0.1336
  C  C184  1  0.754700  0.460700  0.037500  1.0  0.1384
  C  C185  1  0.809500  0.433500  0.038500  1.0  -0.1216
  C  C186  1  0.731900  0.357900  0.012900  1.0  0.6779
  C  C187  1  0.896600  0.359000  0.023200  1.0  0.65
  C  C188  1  0.676700  0.540100  0.050900  1.0  0.0169
  C  C189  1  0.664800  0.597400  0.051600  1.0  0.1129
  C  C190  1  0.611100  0.633100  0.052100  1.0  -0.1785
  C  C191  1  0.752700  0.026100  0.384500  1.0  -0.0931
  C  C192  1  0.808540  0.019720  0.359500  1.0  -0.0575
  C  C193  1  0.835200  0.022800  0.385200  1.0  -0.1198
  C  C194  1  0.804000  0.029800  0.437800  1.0  -0.135
  C  C195  1  0.747100  0.037500  0.460700  1.0  0.1368
  C  C196  1  0.718500  0.038500  0.433500  1.0  -0.1228
  C  C197  1  0.897300  0.012900  0.357900  1.0  0.677
  C  C198  1  0.721200  0.023200  0.359000  1.0  0.6509
  C  C199  1  0.732300  0.050900  0.540100  1.0  0.0185
  C  C200  1  0.686200  0.051600  0.597400  1.0  0.1127
  C  C201  1  0.703700  0.052100  0.633100  1.0  -0.1779
  C  C202  1  0.026100  0.752700  0.836700  1.0  -0.0927
  C  C203  1  0.019720  0.808540  0.812240  1.0  -0.0564
  C  C204  1  0.022800  0.835200  0.756800  1.0  -0.1199
  C  C205  1  0.029800  0.804000  0.728400  1.0  -0.1319
  C  C206  1  0.037500  0.747100  0.754700  1.0  0.1386
  C  C207  1  0.038500  0.718500  0.809500  1.0  -0.1213
  C  C208  1  0.012900  0.897300  0.731900  1.0  0.6794
  C  C209  1  0.023200  0.721200  0.896600  1.0  0.6498
  C  C210  1  0.050900  0.732300  0.676700  1.0  0.0196
  C  C211  1  0.051600  0.686200  0.664800  1.0  0.1137
  C  C212  1  0.052100  0.703700  0.611100  1.0  -0.178
  C  C213  1  0.384500  0.752700  0.026100  1.0  -0.0918
  C  C214  1  0.359500  0.808540  0.019720  1.0  -0.0551
  C  C215  1  0.385200  0.835200  0.022800  1.0  -0.1195
  C  C216  1  0.437800  0.804000  0.029800  1.0  -0.1335
  C  C217  1  0.460700  0.747100  0.037500  1.0  0.1388
  C  C218  1  0.433500  0.718500  0.038500  1.0  -0.1212
  C  C219  1  0.357900  0.897300  0.012900  1.0  0.6778
  C  C220  1  0.359000  0.721200  0.023200  1.0  0.6507
  C  C221  1  0.540100  0.732300  0.050900  1.0  0.0198
  C  C222  1  0.597400  0.686200  0.051600  1.0  0.114
  C  C223  1  0.633100  0.703700  0.052100  1.0  -0.1806
  C  C224  1  0.836700  0.026100  0.752700  1.0  -0.0921
  C  C225  1  0.812240  0.019720  0.808540  1.0  -0.057
  C  C226  1  0.756800  0.022800  0.835200  1.0  -0.1217
  C  C227  1  0.728400  0.029800  0.804000  1.0  -0.1328
  C  C228  1  0.754700  0.037500  0.747100  1.0  0.1376
  C  C229  1  0.809500  0.038500  0.718500  1.0  -0.1216
  C  C230  1  0.731900  0.012900  0.897300  1.0  0.6789
  C  C231  1  0.896600  0.023200  0.721200  1.0  0.6499
  C  C232  1  0.676700  0.050900  0.732300  1.0  0.0144
  C  C233  1  0.664800  0.051600  0.686200  1.0  0.1142
  C  C234  1  0.611100  0.052100  0.703700  1.0  -0.1783
  C  C235  1  0.752700  0.384500  0.836700  1.0  -0.0923
  C  C236  1  0.808540  0.359500  0.812240  1.0  -0.0552
  C  C237  1  0.835200  0.385200  0.756800  1.0  -0.1203
  C  C238  1  0.804000  0.437800  0.728400  1.0  -0.1338
  C  C239  1  0.747100  0.460700  0.754700  1.0  0.1374
  C  C240  1  0.718500  0.433500  0.809500  1.0  -0.122
  C  C241  1  0.897300  0.357900  0.731900  1.0  0.6765
  C  C242  1  0.721200  0.359000  0.896600  1.0  0.6513
  C  C243  1  0.732300  0.540100  0.676700  1.0  0.0183
  C  C244  1  0.686200  0.597400  0.664800  1.0  0.1146
  C  C245  1  0.703700  0.633100  0.611100  1.0  -0.1782
  C  C246  1  0.026100  0.836700  0.384500  1.0  -0.0925
  C  C247  1  0.019720  0.812240  0.359500  1.0  -0.0564
  C  C248  1  0.022800  0.756800  0.385200  1.0  -0.1215
  C  C249  1  0.029800  0.728400  0.437800  1.0  -0.131
  C  C250  1  0.037500  0.754700  0.460700  1.0  0.1383
  C  C251  1  0.038500  0.809500  0.433500  1.0  -0.1211
  C  C252  1  0.012900  0.731900  0.357900  1.0  0.6779
  C  C253  1  0.023200  0.896600  0.359000  1.0  0.6512
  C  C254  1  0.050900  0.676700  0.540100  1.0  0.0188
  C  C255  1  0.051600  0.664800  0.597400  1.0  0.1138
  C  C256  1  0.052100  0.611100  0.633100  1.0  -0.1786
  C  C257  1  0.384500  0.026100  0.836700  1.0  -0.0931
  C  C258  1  0.359500  0.019720  0.812240  1.0  -0.0575
  C  C259  1  0.385200  0.022800  0.756800  1.0  -0.1193
  C  C260  1  0.437800  0.029800  0.728400  1.0  -0.1321
  C  C261  1  0.460700  0.037500  0.754700  1.0  0.1378
  C  C262  1  0.433500  0.038500  0.809500  1.0  -0.121
  C  C263  1  0.357900  0.012900  0.731900  1.0  0.6771
  C  C264  1  0.359000  0.023200  0.896600  1.0  0.6526
  C  C265  1  0.540100  0.050900  0.676700  1.0  0.0173
  C  C266  1  0.597400  0.051600  0.664800  1.0  0.1139
  C  C267  1  0.633100  0.052100  0.611100  1.0  -0.1782
  C  C268  1  0.836700  0.752700  0.384500  1.0  -0.0915
  C  C269  1  0.812240  0.808540  0.359500  1.0  -0.0569
  C  C270  1  0.756800  0.835200  0.385200  1.0  -0.1194
  C  C271  1  0.728400  0.804000  0.437800  1.0  -0.1332
  C  C272  1  0.754700  0.747100  0.460700  1.0  0.1387
  C  C273  1  0.809500  0.718500  0.433500  1.0  -0.1213
  C  C274  1  0.731900  0.897300  0.357900  1.0  0.6789
  C  C275  1  0.896600  0.721200  0.359000  1.0  0.6506
  C  C276  1  0.676700  0.732300  0.540100  1.0  0.0176
  C  C277  1  0.664800  0.686200  0.597400  1.0  0.1133
  C  C278  1  0.611100  0.703700  0.633100  1.0  -0.1792
  C  C279  1  0.752700  0.836700  0.026100  1.0  -0.0922
  C  C280  1  0.808540  0.812240  0.019720  1.0  -0.055
  C  C281  1  0.835200  0.756800  0.022800  1.0  -0.1193
  C  C282  1  0.804000  0.728400  0.029800  1.0  -0.1284
  C  C283  1  0.747100  0.754700  0.037500  1.0  0.1371
  C  C284  1  0.718500  0.809500  0.038500  1.0  -0.1214
  C  C285  1  0.897300  0.731900  0.012900  1.0  0.6774
  C  C286  1  0.721200  0.896600  0.023200  1.0  0.6521
  C  C287  1  0.732300  0.676700  0.050900  1.0  0.0184
  C  C288  1  0.686200  0.664800  0.051600  1.0  0.1149
  C  C289  1  0.703700  0.611100  0.052100  1.0  -0.1771
  C  C290  1  0.026100  0.384500  0.752700  1.0  -0.0931
  C  C291  1  0.019720  0.359500  0.808540  1.0  -0.055
  C  C292  1  0.022800  0.385200  0.835200  1.0  -0.1192
  C  C293  1  0.029800  0.437800  0.804000  1.0  -0.1315
  C  C294  1  0.037500  0.460700  0.747100  1.0  0.1382
  C  C295  1  0.038500  0.433500  0.718500  1.0  -0.1216
  C  C296  1  0.012900  0.357900  0.897300  1.0  0.6777
  C  C297  1  0.023200  0.359000  0.721200  1.0  0.6505
  C  C298  1  0.050900  0.540100  0.732300  1.0  0.0193
  C  C299  1  0.051600  0.597400  0.686200  1.0  0.1151
  C  C300  1  0.052100  0.633100  0.703700  1.0  -0.1767
  C  C301  1  0.615500  0.163300  0.247300  1.0  -0.0919
  C  C302  1  0.640500  0.187760  0.191460  1.0  -0.0577
  C  C303  1  0.614800  0.243200  0.164800  1.0  -0.1198
  C  C304  1  0.562200  0.271600  0.196000  1.0  -0.1317
  C  C305  1  0.539300  0.245300  0.252900  1.0  0.1393
  C  C306  1  0.566500  0.190500  0.281500  1.0  -0.1222
  C  C307  1  0.642100  0.268100  0.102700  1.0  0.6775
  C  C308  1  0.641000  0.103400  0.278800  1.0  0.6519
  C  C309  1  0.459900  0.323300  0.267700  1.0  0.0182
  C  C310  1  0.402600  0.335200  0.313800  1.0  0.1138
  C  C311  1  0.366900  0.388900  0.296300  1.0  -0.1796
  C  C312  1  0.163300  0.615500  0.973900  1.0  -0.0918
  C  C313  1  0.187760  0.640500  0.980280  1.0  -0.0564
  C  C314  1  0.243200  0.614800  0.977200  1.0  -0.1203
  C  C315  1  0.271600  0.562200  0.970200  1.0  -0.1345
  C  C316  1  0.245300  0.539300  0.962500  1.0  0.1388
  C  C317  1  0.190500  0.566500  0.961500  1.0  -0.1217
  C  C318  1  0.268100  0.642100  0.987100  1.0  0.6777
  C  C319  1  0.103400  0.641000  0.976800  1.0  0.6496
  C  C320  1  0.323300  0.459900  0.949100  1.0  0.0182
  C  C321  1  0.335200  0.402600  0.948400  1.0  0.1142
  C  C322  1  0.388900  0.366900  0.947900  1.0  -0.1803
  C  C323  1  0.247300  0.973900  0.615500  1.0  -0.0928
  C  C324  1  0.191460  0.980280  0.640500  1.0  -0.0579
  C  C325  1  0.164800  0.977200  0.614800  1.0  -0.1196
  C  C326  1  0.196000  0.970200  0.562200  1.0  -0.1339
  C  C327  1  0.252900  0.962500  0.539300  1.0  0.1369
  C  C328  1  0.281500  0.961500  0.566500  1.0  -0.1209
  C  C329  1  0.102700  0.987100  0.642100  1.0  0.6773
  C  C330  1  0.278800  0.976800  0.641000  1.0  0.6512
  C  C331  1  0.267700  0.949100  0.459900  1.0  0.0149
  C  C332  1  0.313800  0.948400  0.402600  1.0  0.1133
  C  C333  1  0.296300  0.947900  0.366900  1.0  -0.1775
  C  C334  1  0.973900  0.247300  0.163300  1.0  -0.0926
  C  C335  1  0.980280  0.191460  0.187760  1.0  -0.0562
  C  C336  1  0.977200  0.164800  0.243200  1.0  -0.1192
  C  C337  1  0.970200  0.196000  0.271600  1.0  -0.1325
  C  C338  1  0.962500  0.252900  0.245300  1.0  0.1388
  C  C339  1  0.961500  0.281500  0.190500  1.0  -0.1212
  C  C340  1  0.987100  0.102700  0.268100  1.0  0.679
  C  C341  1  0.976800  0.278800  0.103400  1.0  0.6495
  C  C342  1  0.949100  0.267700  0.323300  1.0  0.016
  C  C343  1  0.948400  0.313800  0.335200  1.0  0.1129
  C  C344  1  0.947900  0.296300  0.388900  1.0  -0.1781
  C  C345  1  0.615500  0.247300  0.973900  1.0  -0.0923
  C  C346  1  0.640500  0.191460  0.980280  1.0  -0.0562
  C  C347  1  0.614800  0.164800  0.977200  1.0  -0.1195
  C  C348  1  0.562200  0.196000  0.970200  1.0  -0.1335
  C  C349  1  0.539300  0.252900  0.962500  1.0  0.139
  C  C350  1  0.566500  0.281500  0.961500  1.0  -0.1209
  C  C351  1  0.642100  0.102700  0.987100  1.0  0.6784
  C  C352  1  0.641000  0.278800  0.976800  1.0  0.651
  C  C353  1  0.459900  0.267700  0.949100  1.0  0.0188
  C  C354  1  0.402600  0.313800  0.948400  1.0  0.1141
  C  C355  1  0.366900  0.296300  0.947900  1.0  -0.1781
  C  C356  1  0.163300  0.973900  0.247300  1.0  -0.0921
  C  C357  1  0.187760  0.980280  0.191460  1.0  -0.0564
  C  C358  1  0.243200  0.977200  0.164800  1.0  -0.1205
  C  C359  1  0.271600  0.970200  0.196000  1.0  -0.1319
  C  C360  1  0.245300  0.962500  0.252900  1.0  0.1387
  C  C361  1  0.190500  0.961500  0.281500  1.0  -0.1216
  C  C362  1  0.268100  0.987100  0.102700  1.0  0.6777
  C  C363  1  0.103400  0.976800  0.278800  1.0  0.6502
  C  C364  1  0.323300  0.949100  0.267700  1.0  0.017
  C  C365  1  0.335200  0.948400  0.313800  1.0  0.1136
  C  C366  1  0.388900  0.947900  0.296300  1.0  -0.1783
  C  C367  1  0.247300  0.615500  0.163300  1.0  -0.0924
  C  C368  1  0.191460  0.640500  0.187760  1.0  -0.055
  C  C369  1  0.164800  0.614800  0.243200  1.0  -0.1202
  C  C370  1  0.196000  0.562200  0.271600  1.0  -0.1349
  C  C371  1  0.252900  0.539300  0.245300  1.0  0.1373
  C  C372  1  0.281500  0.566500  0.190500  1.0  -0.1216
  C  C373  1  0.102700  0.642100  0.268100  1.0  0.6778
  C  C374  1  0.278800  0.641000  0.103400  1.0  0.6495
  C  C375  1  0.267700  0.459900  0.323300  1.0  0.0167
  C  C376  1  0.313800  0.402600  0.335200  1.0  0.1139
  C  C377  1  0.296300  0.366900  0.388900  1.0  -0.1807
  C  C378  1  0.973900  0.163300  0.615500  1.0  -0.0918
  C  C379  1  0.980280  0.187760  0.640500  1.0  -0.0568
  C  C380  1  0.977200  0.243200  0.614800  1.0  -0.1216
  C  C381  1  0.970200  0.271600  0.562200  1.0  -0.1315
  C  C382  1  0.962500  0.245300  0.539300  1.0  0.1379
  C  C383  1  0.961500  0.190500  0.566500  1.0  -0.1215
  C  C384  1  0.987100  0.268100  0.642100  1.0  0.6788
  C  C385  1  0.976800  0.103400  0.641000  1.0  0.6515
  C  C386  1  0.949100  0.323300  0.459900  1.0  0.0179
  C  C387  1  0.948400  0.335200  0.402600  1.0  0.1145
  C  C388  1  0.947900  0.388900  0.366900  1.0  -0.1786
  C  C389  1  0.615500  0.973900  0.163300  1.0  -0.0927
  C  C390  1  0.640500  0.980280  0.187760  1.0  -0.0565
  C  C391  1  0.614800  0.977200  0.243200  1.0  -0.1202
  C  C392  1  0.562200  0.970200  0.271600  1.0  -0.1311
  C  C393  1  0.539300  0.962500  0.245300  1.0  0.1389
  C  C394  1  0.566500  0.961500  0.190500  1.0  -0.1202
  C  C395  1  0.642100  0.987100  0.268100  1.0  0.6775
  C  C396  1  0.641000  0.976800  0.103400  1.0  0.6519
  C  C397  1  0.459900  0.949100  0.323300  1.0  0.0179
  C  C398  1  0.402600  0.948400  0.335200  1.0  0.1147
  C  C399  1  0.366900  0.947900  0.388900  1.0  -0.1776
  C  C400  1  0.163300  0.247300  0.615500  1.0  -0.0919
  C  C401  1  0.187760  0.191460  0.640500  1.0  -0.0546
  C  C402  1  0.243200  0.164800  0.614800  1.0  -0.1194
  C  C403  1  0.271600  0.196000  0.562200  1.0  -0.1325
  C  C404  1  0.245300  0.252900  0.539300  1.0  0.1391
  C  C405  1  0.190500  0.281500  0.566500  1.0  -0.1209
  C  C406  1  0.268100  0.102700  0.642100  1.0  0.6795
  C  C407  1  0.103400  0.278800  0.641000  1.0  0.65
  C  C408  1  0.323300  0.267700  0.459900  1.0  0.0177
  C  C409  1  0.335200  0.313800  0.402600  1.0  0.1138
  C  C410  1  0.388900  0.296300  0.366900  1.0  -0.1774
  C  C411  1  0.247300  0.163300  0.973900  1.0  -0.0915
  C  C412  1  0.191460  0.187760  0.980280  1.0  -0.0569
  C  C413  1  0.164800  0.243200  0.977200  1.0  -0.1192
  C  C414  1  0.196000  0.271600  0.970200  1.0  -0.1309
  C  C415  1  0.252900  0.245300  0.962500  1.0  0.1371
  C  C416  1  0.281500  0.190500  0.961500  1.0  -0.1211
  C  C417  1  0.102700  0.268100  0.987100  1.0  0.6777
  C  C418  1  0.278800  0.103400  0.976800  1.0  0.653
  C  C419  1  0.267700  0.323300  0.949100  1.0  0.0165
  C  C420  1  0.313800  0.335200  0.948400  1.0  0.1136
  C  C421  1  0.296300  0.388900  0.947900  1.0  -0.1782
  C  C422  1  0.973900  0.615500  0.247300  1.0  -0.0928
  C  C423  1  0.980280  0.640500  0.191460  1.0  -0.0546
  C  C424  1  0.977200  0.614800  0.164800  1.0  -0.1189
  C  C425  1  0.970200  0.562200  0.196000  1.0  -0.1327
  C  C426  1  0.962500  0.539300  0.252900  1.0  0.1388
  C  C427  1  0.961500  0.566500  0.281500  1.0  -0.1225
  C  C428  1  0.987100  0.642100  0.102700  1.0  0.6777
  C  C429  1  0.976800  0.641000  0.278800  1.0  0.6509
  C  C430  1  0.949100  0.459900  0.267700  1.0  0.0186
  C  C431  1  0.948400  0.402600  0.313800  1.0  0.1141
  C  C432  1  0.947900  0.366900  0.296300  1.0  -0.1781
  O  O433  1  0.310700  0.921500  0.755700  1.0  -0.5634
  O  O434  1  0.384710  0.922910  0.675690  1.0  -0.5527
  O  O435  1  0.311720  0.754480  0.920480  1.0  -0.5378
  O  O436  1  0.387800  0.678400  0.920400  1.0  -0.5705
  O  O437  1  0.513300  0.731100  0.710900  1.0  -0.2952
  O  O438  1  0.921500  0.310700  0.012100  1.0  -0.5667
  O  O439  1  0.922910  0.384710  0.016690  1.0  -0.5544
  O  O440  1  0.754480  0.311720  0.013320  1.0  -0.5357
  O  O441  1  0.678400  0.387800  0.013400  1.0  -0.5715
  O  O442  1  0.731100  0.513300  0.044700  1.0  -0.296
  O  O443  1  0.755700  0.012100  0.310700  1.0  -0.5641
  O  O444  1  0.675690  0.016690  0.384710  1.0  -0.5521
  O  O445  1  0.920480  0.013320  0.311720  1.0  -0.5359
  O  O446  1  0.920400  0.013400  0.387800  1.0  -0.57
  O  O447  1  0.710900  0.044700  0.513300  1.0  -0.2965
  O  O448  1  0.012100  0.755700  0.921500  1.0  -0.5652
  O  O449  1  0.016690  0.675690  0.922910  1.0  -0.5544
  O  O450  1  0.013320  0.920480  0.754480  1.0  -0.5365
  O  O451  1  0.013400  0.920400  0.678400  1.0  -0.5709
  O  O452  1  0.044700  0.710900  0.731100  1.0  -0.2953
  O  O453  1  0.310700  0.755700  0.012100  1.0  -0.5655
  O  O454  1  0.384710  0.675690  0.016690  1.0  -0.5574
  O  O455  1  0.311720  0.920480  0.013320  1.0  -0.5367
  O  O456  1  0.387800  0.920400  0.013400  1.0  -0.5697
  O  O457  1  0.513300  0.710900  0.044700  1.0  -0.2973
  O  O458  1  0.921500  0.012100  0.755700  1.0  -0.5655
  O  O459  1  0.922910  0.016690  0.675690  1.0  -0.555
  O  O460  1  0.754480  0.013320  0.920480  1.0  -0.5369
  O  O461  1  0.678400  0.013400  0.920400  1.0  -0.5706
  O  O462  1  0.731100  0.044700  0.710900  1.0  -0.2969
  O  O463  1  0.755700  0.310700  0.921500  1.0  -0.5659
  O  O464  1  0.675690  0.384710  0.922910  1.0  -0.555
  O  O465  1  0.920480  0.311720  0.754480  1.0  -0.534
  O  O466  1  0.920400  0.387800  0.678400  1.0  -0.5705
  O  O467  1  0.710900  0.513300  0.731100  1.0  -0.296
  O  O468  1  0.012100  0.921500  0.310700  1.0  -0.5657
  O  O469  1  0.016690  0.922910  0.384710  1.0  -0.5529
  O  O470  1  0.013320  0.754480  0.311720  1.0  -0.5375
  O  O471  1  0.013400  0.678400  0.387800  1.0  -0.5704
  O  O472  1  0.044700  0.731100  0.513300  1.0  -0.2958
  O  O473  1  0.310700  0.012100  0.921500  1.0  -0.566
  O  O474  1  0.384710  0.016690  0.922910  1.0  -0.5537
  O  O475  1  0.311720  0.013320  0.754480  1.0  -0.5371
  O  O476  1  0.387800  0.013400  0.678400  1.0  -0.5702
  O  O477  1  0.513300  0.044700  0.731100  1.0  -0.2905
  O  O478  1  0.921500  0.755700  0.310700  1.0  -0.5639
  O  O479  1  0.922910  0.675690  0.384710  1.0  -0.5564
  O  O480  1  0.754480  0.920480  0.311720  1.0  -0.5365
  O  O481  1  0.678400  0.920400  0.387800  1.0  -0.5709
  O  O482  1  0.731100  0.710900  0.513300  1.0  -0.2935
  O  O483  1  0.755700  0.921500  0.012100  1.0  -0.5637
  O  O484  1  0.675690  0.922910  0.016690  1.0  -0.5531
  O  O485  1  0.920480  0.754480  0.013320  1.0  -0.5362
  O  O486  1  0.920400  0.678400  0.013400  1.0  -0.5711
  O  O487  1  0.710900  0.731100  0.044700  1.0  -0.296
  O  O488  1  0.012100  0.310700  0.755700  1.0  -0.566
  O  O489  1  0.016690  0.384710  0.675690  1.0  -0.5551
  O  O490  1  0.013320  0.311720  0.920480  1.0  -0.5347
  O  O491  1  0.013400  0.387800  0.920400  1.0  -0.5707
  O  O492  1  0.044700  0.513300  0.710900  1.0  -0.2936
  O  O493  1  0.689300  0.078500  0.244300  1.0  -0.5637
  O  O494  1  0.615290  0.077090  0.324310  1.0  -0.5536
  O  O495  1  0.688280  0.245520  0.079520  1.0  -0.538
  O  O496  1  0.612200  0.321600  0.079600  1.0  -0.5717
  O  O497  1  0.486700  0.268900  0.289100  1.0  -0.2953
  O  O498  1  0.078500  0.689300  0.987900  1.0  -0.5638
  O  O499  1  0.077090  0.615290  0.983310  1.0  -0.554
  O  O500  1  0.245520  0.688280  0.986680  1.0  -0.5375
  O  O501  1  0.321600  0.612200  0.986600  1.0  -0.5704
  O  O502  1  0.268900  0.486700  0.955300  1.0  -0.2965
  O  O503  1  0.244300  0.987900  0.689300  1.0  -0.5638
  O  O504  1  0.324310  0.983310  0.615290  1.0  -0.5523
  O  O505  1  0.079520  0.986680  0.688280  1.0  -0.5365
  O  O506  1  0.079600  0.986600  0.612200  1.0  -0.572
  O  O507  1  0.289100  0.955300  0.486700  1.0  -0.2951
  O  O508  1  0.987900  0.244300  0.078500  1.0  -0.5672
  O  O509  1  0.983310  0.324310  0.077090  1.0  -0.5541
  O  O510  1  0.986680  0.079520  0.245520  1.0  -0.5362
  O  O511  1  0.986600  0.079600  0.321600  1.0  -0.5696
  O  O512  1  0.955300  0.289100  0.268900  1.0  -0.2951
  O  O513  1  0.689300  0.244300  0.987900  1.0  -0.5649
  O  O514  1  0.615290  0.324310  0.983310  1.0  -0.5561
  O  O515  1  0.688280  0.079520  0.986680  1.0  -0.5372
  O  O516  1  0.612200  0.079600  0.986600  1.0  -0.5718
  O  O517  1  0.486700  0.289100  0.955300  1.0  -0.2961
  O  O518  1  0.078500  0.987900  0.244300  1.0  -0.5666
  O  O519  1  0.077090  0.983310  0.324310  1.0  -0.5548
  O  O520  1  0.245520  0.986680  0.079520  1.0  -0.5358
  O  O521  1  0.321600  0.986600  0.079600  1.0  -0.5704
  O  O522  1  0.268900  0.955300  0.289100  1.0  -0.296
  O  O523  1  0.244300  0.689300  0.078500  1.0  -0.5656
  O  O524  1  0.324310  0.615290  0.077090  1.0  -0.5561
  O  O525  1  0.079520  0.688280  0.245520  1.0  -0.5367
  O  O526  1  0.079600  0.612200  0.321600  1.0  -0.5701
  O  O527  1  0.289100  0.486700  0.268900  1.0  -0.2975
  O  O528  1  0.987900  0.078500  0.689300  1.0  -0.5634
  O  O529  1  0.983310  0.077090  0.615290  1.0  -0.5535
  O  O530  1  0.986680  0.245520  0.688280  1.0  -0.5369
  O  O531  1  0.986600  0.321600  0.612200  1.0  -0.5693
  O  O532  1  0.955300  0.268900  0.486700  1.0  -0.2965
  O  O533  1  0.689300  0.987900  0.078500  1.0  -0.5644
  O  O534  1  0.615290  0.983310  0.077090  1.0  -0.5538
  O  O535  1  0.688280  0.986680  0.245520  1.0  -0.5367
  O  O536  1  0.612200  0.986600  0.321600  1.0  -0.5717
  O  O537  1  0.486700  0.955300  0.268900  1.0  -0.2939
  O  O538  1  0.078500  0.244300  0.689300  1.0  -0.5653
  O  O539  1  0.077090  0.324310  0.615290  1.0  -0.5538
  O  O540  1  0.245520  0.079520  0.688280  1.0  -0.5366
  O  O541  1  0.321600  0.079600  0.612200  1.0  -0.5697
  O  O542  1  0.268900  0.289100  0.486700  1.0  -0.2945
  O  O543  1  0.244300  0.078500  0.987900  1.0  -0.5648
  O  O544  1  0.324310  0.077090  0.983310  1.0  -0.5542
  O  O545  1  0.079520  0.245520  0.986680  1.0  -0.536
  O  O546  1  0.079600  0.321600  0.986600  1.0  -0.5704
  O  O547  1  0.289100  0.268900  0.955300  1.0  -0.295
  O  O548  1  0.987900  0.689300  0.244300  1.0  -0.5656
  O  O549  1  0.983310  0.615290  0.324310  1.0  -0.5557
  O  O550  1  0.986680  0.688280  0.079520  1.0  -0.5355
  O  O551  1  0.986600  0.612200  0.079600  1.0  -0.5717
  O  O552  1  0.955300  0.486700  0.289100  1.0  -0.29
