# generated using pymatgen
data_Co3H18C33O16
_symmetry_space_group_name_H-M   'P 1'
_cell_length_a   29.39510000
_cell_length_b   29.39510000
_cell_length_c   29.41880000
_cell_angle_alpha   60.02670000
_cell_angle_beta   60.02670000
_cell_angle_gamma   90.00000000
_symmetry_Int_Tables_number   1
_chemical_formula_structural   Co3H18C33O16
_chemical_formula_sum   'Co24 H144 C264 O128'
_cell_volume   17989.12335298
_cell_formula_units_Z   8
loop_
 _symmetry_equiv_pos_site_id
 _symmetry_equiv_pos_as_xyz
  1  'x, y, z'
loop_
 _atom_site_type_symbol
 _atom_site_label
 _atom_site_symmetry_multiplicity
 _atom_site_fract_x
 _atom_site_fract_y
 _atom_site_fract_z
 _atom_site_occupancy
 _atom_site_charge
  Co  Co1  1  0.241540  0.508860  0.269060  1.0  1.0451
  Co  Co2  1  0.144350  0.511130  0.366960  1.0  1.0163
  Co  Co3  1  0.489400  0.222080  0.269060  1.0  1.041
  Co  Co4  1  0.488690  0.121910  0.366960  1.0  1.0173
  Co  Co5  1  0.508860  0.489400  0.269060  1.0  1.0431
  Co  Co6  1  0.511130  0.488690  0.366960  1.0  1.0152
  Co  Co7  1  0.222080  0.241540  0.269060  1.0  1.046
  Co  Co8  1  0.121910  0.144350  0.366960  1.0  1.0156
  Co  Co9  1  0.758460  0.491140  0.730940  1.0  1.0451
  Co  Co10  1  0.855650  0.488870  0.633040  1.0  1.0191
  Co  Co11  1  0.510600  0.777920  0.730940  1.0  1.0442
  Co  Co12  1  0.511310  0.878090  0.633040  1.0  1.0151
  Co  Co13  1  0.491140  0.510600  0.730940  1.0  1.0443
  Co  Co14  1  0.488870  0.511310  0.633040  1.0  1.014
  Co  Co15  1  0.777920  0.758460  0.730940  1.0  1.047
  Co  Co16  1  0.878090  0.855650  0.633040  1.0  1.0152
  Co  Co17  1  0.522080  0.865630  0.000000  1.0  1.065
  Co  Co18  1  0.518830  0.766860  0.000000  1.0  1.0171
  Co  Co19  1  0.477920  0.134370  0.000000  1.0  1.0636
  Co  Co20  1  0.481170  0.233140  0.000000  1.0  1.0157
  Co  Co21  1  0.865630  0.477920  0.000000  1.0  1.064
  Co  Co22  1  0.766860  0.481170  0.000000  1.0  1.0309
  Co  Co23  1  0.134370  0.522080  0.000000  1.0  1.0653
  Co  Co24  1  0.233140  0.518830  0.000000  1.0  1.0333
  H  H25  1  0.690900  0.820100  0.842200  1.0  0.1119
  H  H26  1  0.650300  0.318300  0.851000  1.0  0.123
  H  H27  1  0.172100  0.343900  0.341600  1.0  0.1202
  H  H28  1  0.842900  0.941900  0.735600  1.0  0.1282
  H  H29  1  0.701300  0.940900  0.870000  1.0  0.1199
  H  H30  1  0.661700  0.174000  0.870400  1.0  0.1308
  H  H31  1  0.783000  0.323300  0.703600  1.0  0.1241
  H  H32  1  0.051800  0.326900  0.506600  1.0  0.1336
  H  H33  1  0.051100  0.195300  0.497800  1.0  0.1098
  H  H34  1  0.773200  0.013000  0.842400  1.0  0.1138
  H  H35  1  0.743300  0.030800  0.805600  1.0  0.1066
  H  H36  1  0.988000  0.151800  0.620000  1.0  0.094
  H  H37  1  0.966000  0.165500  0.576000  1.0  0.0816
  H  H38  1  0.835400  0.224400  0.766800  1.0  0.1101
  H  H39  1  0.836700  0.260900  0.703000  1.0  0.0819
  H  H40  1  0.918300  0.232500  0.643600  1.0  0.1074
  H  H41  1  0.766600  0.116800  0.800000  1.0  0.1064
  H  H42  1  0.886400  0.074000  0.696600  1.0  0.1168
  H  H43  1  0.466900  0.337700  0.842200  1.0  0.1104
  H  H44  1  0.498700  0.830700  0.851000  1.0  0.1241
  H  H45  1  0.486300  0.314500  0.341600  1.0  0.1201
  H  H46  1  0.421500  0.322500  0.735600  1.0  0.1276
  H  H47  1  0.428700  0.189100  0.870000  1.0  0.1199
  H  H48  1  0.467900  0.955600  0.870400  1.0  0.1297
  H  H49  1  0.513400  0.973100  0.703600  1.0  0.1246
  H  H50  1  0.441600  0.166500  0.506600  1.0  0.1336
  H  H51  1  0.451100  0.306900  0.497800  1.0  0.1112
  H  H52  1  0.384400  0.144600  0.842400  1.0  0.1136
  H  H53  1  0.451100  0.163600  0.805600  1.0  0.1063
  H  H54  1  0.392000  0.228200  0.620000  1.0  0.0948
  H  H55  1  0.458000  0.258500  0.576000  1.0  0.0819
  H  H56  1  0.397800  0.008800  0.766800  1.0  0.1066
  H  H57  1  0.460300  0.036100  0.703000  1.0  0.0819
  H  H58  1  0.438100  0.123900  0.643600  1.0  0.11
  H  H59  1  0.433400  0.083200  0.800000  1.0  0.1063
  H  H60  1  0.417000  0.229400  0.696600  1.0  0.1161
  H  H61  1  0.820100  0.466900  0.842200  1.0  0.1122
  H  H62  1  0.318300  0.498700  0.851000  1.0  0.1225
  H  H63  1  0.343900  0.486300  0.341600  1.0  0.1209
  H  H64  1  0.941900  0.421500  0.735600  1.0  0.1275
  H  H65  1  0.940900  0.428700  0.870000  1.0  0.1201
  H  H66  1  0.174000  0.467900  0.870400  1.0  0.1277
  H  H67  1  0.323300  0.513400  0.703600  1.0  0.1251
  H  H68  1  0.326900  0.441600  0.506600  1.0  0.1335
  H  H69  1  0.195300  0.451100  0.497800  1.0  0.1109
  H  H70  1  0.013000  0.384400  0.842400  1.0  0.1129
  H  H71  1  0.030800  0.451100  0.805600  1.0  0.1105
  H  H72  1  0.151800  0.392000  0.620000  1.0  0.0923
  H  H73  1  0.165500  0.458000  0.576000  1.0  0.0814
  H  H74  1  0.224400  0.397800  0.766800  1.0  0.1072
  H  H75  1  0.260900  0.460300  0.703000  1.0  0.0832
  H  H76  1  0.232500  0.438100  0.643600  1.0  0.1099
  H  H77  1  0.116800  0.433400  0.800000  1.0  0.1066
  H  H78  1  0.074000  0.417000  0.696600  1.0  0.1173
  H  H79  1  0.337700  0.690900  0.842200  1.0  0.1111
  H  H80  1  0.830700  0.650300  0.851000  1.0  0.123
  H  H81  1  0.314500  0.172100  0.341600  1.0  0.1202
  H  H82  1  0.322500  0.842900  0.735600  1.0  0.1291
  H  H83  1  0.189100  0.701300  0.870000  1.0  0.119
  H  H84  1  0.955600  0.661700  0.870400  1.0  0.1308
  H  H85  1  0.973100  0.783000  0.703600  1.0  0.1231
  H  H86  1  0.166500  0.051800  0.506600  1.0  0.1341
  H  H87  1  0.306900  0.051100  0.497800  1.0  0.11
  H  H88  1  0.144600  0.773200  0.842400  1.0  0.1134
  H  H89  1  0.163600  0.743300  0.805600  1.0  0.1105
  H  H90  1  0.228200  0.988000  0.620000  1.0  0.0968
  H  H91  1  0.258500  0.966000  0.576000  1.0  0.0758
  H  H92  1  0.008800  0.835400  0.766800  1.0  0.1075
  H  H93  1  0.036100  0.836700  0.703000  1.0  0.0831
  H  H94  1  0.123900  0.918300  0.643600  1.0  0.1087
  H  H95  1  0.083200  0.766600  0.800000  1.0  0.1049
  H  H96  1  0.229400  0.886400  0.696600  1.0  0.1156
  H  H97  1  0.309100  0.179900  0.157800  1.0  0.1113
  H  H98  1  0.349700  0.681700  0.149000  1.0  0.1231
  H  H99  1  0.827900  0.656100  0.658400  1.0  0.1202
  H  H100  1  0.157100  0.058100  0.264400  1.0  0.1281
  H  H101  1  0.298700  0.059100  0.130000  1.0  0.1189
  H  H102  1  0.338300  0.826000  0.129600  1.0  0.1306
  H  H103  1  0.217000  0.676700  0.296400  1.0  0.125
  H  H104  1  0.948200  0.673100  0.493400  1.0  0.1337
  H  H105  1  0.948900  0.804700  0.502200  1.0  0.1093
  H  H106  1  0.226800  0.987000  0.157600  1.0  0.1133
  H  H107  1  0.256700  0.969200  0.194400  1.0  0.104
  H  H108  1  0.012000  0.848200  0.380000  1.0  0.0947
  H  H109  1  0.034000  0.834500  0.424000  1.0  0.0806
  H  H110  1  0.164600  0.775600  0.233200  1.0  0.1098
  H  H111  1  0.163300  0.739100  0.297000  1.0  0.0825
  H  H112  1  0.081700  0.767500  0.356400  1.0  0.1091
  H  H113  1  0.233400  0.883200  0.200000  1.0  0.1069
  H  H114  1  0.113600  0.926000  0.303400  1.0  0.1162
  H  H115  1  0.533100  0.662300  0.157800  1.0  0.1108
  H  H116  1  0.501300  0.169300  0.149000  1.0  0.1236
  H  H117  1  0.513700  0.685500  0.658400  1.0  0.1201
  H  H118  1  0.578500  0.677500  0.264400  1.0  0.1275
  H  H119  1  0.571300  0.810900  0.130000  1.0  0.1215
  H  H120  1  0.532100  0.044400  0.129600  1.0  0.1294
  H  H121  1  0.486600  0.026900  0.296400  1.0  0.1248
  H  H122  1  0.558400  0.833500  0.493400  1.0  0.1333
  H  H123  1  0.548900  0.693100  0.502200  1.0  0.1111
  H  H124  1  0.615600  0.855400  0.157600  1.0  0.1141
  H  H125  1  0.548900  0.836400  0.194400  1.0  0.1085
  H  H126  1  0.608000  0.771800  0.380000  1.0  0.0993
  H  H127  1  0.542000  0.741500  0.424000  1.0  0.0808
  H  H128  1  0.602200  0.991200  0.233200  1.0  0.1083
  H  H129  1  0.539700  0.963900  0.297000  1.0  0.0834
  H  H130  1  0.561900  0.876100  0.356400  1.0  0.11
  H  H131  1  0.566600  0.916800  0.200000  1.0  0.1062
  H  H132  1  0.583000  0.770600  0.303400  1.0  0.116
  H  H133  1  0.179900  0.533100  0.157800  1.0  0.113
  H  H134  1  0.681700  0.501300  0.149000  1.0  0.1227
  H  H135  1  0.656100  0.513700  0.658400  1.0  0.1209
  H  H136  1  0.058100  0.578500  0.264400  1.0  0.1276
  H  H137  1  0.059100  0.571300  0.130000  1.0  0.1206
  H  H138  1  0.826000  0.532100  0.129600  1.0  0.1283
  H  H139  1  0.676700  0.486600  0.296400  1.0  0.125
  H  H140  1  0.673100  0.558400  0.493400  1.0  0.1336
  H  H141  1  0.804700  0.548900  0.502200  1.0  0.11
  H  H142  1  0.987000  0.615600  0.157600  1.0  0.1143
  H  H143  1  0.969200  0.548900  0.194400  1.0  0.1101
  H  H144  1  0.848200  0.608000  0.380000  1.0  0.095
  H  H145  1  0.834500  0.542000  0.424000  1.0  0.0817
  H  H146  1  0.775600  0.602200  0.233200  1.0  0.1062
  H  H147  1  0.739100  0.539700  0.297000  1.0  0.0837
  H  H148  1  0.767500  0.561900  0.356400  1.0  0.1107
  H  H149  1  0.883200  0.566600  0.200000  1.0  0.1073
  H  H150  1  0.926000  0.583000  0.303400  1.0  0.1169
  H  H151  1  0.662300  0.309100  0.157800  1.0  0.1112
  H  H152  1  0.169300  0.349700  0.149000  1.0  0.1227
  H  H153  1  0.685500  0.827900  0.658400  1.0  0.1206
  H  H154  1  0.677500  0.157100  0.264400  1.0  0.1301
  H  H155  1  0.810900  0.298700  0.130000  1.0  0.1196
  H  H156  1  0.044400  0.338300  0.129600  1.0  0.1305
  H  H157  1  0.026900  0.217000  0.296400  1.0  0.1243
  H  H158  1  0.833500  0.948200  0.493400  1.0  0.1335
  H  H159  1  0.693100  0.948900  0.502200  1.0  0.1106
  H  H160  1  0.855400  0.226800  0.157600  1.0  0.1114
  H  H161  1  0.836400  0.256700  0.194400  1.0  0.1103
  H  H162  1  0.771800  0.012000  0.380000  1.0  0.0978
  H  H163  1  0.741500  0.034000  0.424000  1.0  0.0787
  H  H164  1  0.991200  0.164600  0.233200  1.0  0.1084
  H  H165  1  0.963900  0.163300  0.297000  1.0  0.0824
  H  H166  1  0.876100  0.081700  0.356400  1.0  0.1087
  H  H167  1  0.916800  0.233400  0.200000  1.0  0.1043
  H  H168  1  0.770600  0.113600  0.303400  1.0  0.116
  C  C169  1  0.711100  0.855400  0.827200  1.0  -0.0056
  C  C170  1  0.766600  0.881300  0.774400  1.0  -0.0983
  C  C171  1  0.685100  0.879600  0.857800  1.0  -0.1216
  C  C172  1  0.754100  0.386300  0.747800  1.0  0.7128
  C  C173  1  0.583200  0.219400  0.912400  1.0  0.6968
  C  C174  1  0.670600  0.299200  0.834200  1.0  -0.0339
  C  C175  1  0.645600  0.245800  0.859600  1.0  -0.1333
  C  C176  1  0.726700  0.325700  0.782800  1.0  -0.088
  C  C177  1  0.138200  0.245000  0.373000  1.0  0.7006
  C  C178  1  0.138700  0.407400  0.386000  1.0  0.7097
  C  C179  1  0.137400  0.322800  0.382400  1.0  -0.0372
  C  C180  1  0.111900  0.347200  0.415600  1.0  -0.1631
  C  C181  1  0.111900  0.268500  0.409400  1.0  -0.073
  C  C182  1  0.792500  0.856600  0.737400  1.0  0.7053
  C  C183  1  0.623300  0.850200  0.911000  1.0  0.6691
  C  C184  1  0.803500  0.928500  0.763400  1.0  -0.0753
  C  C185  1  0.718300  0.926500  0.845200  1.0  -0.1078
  C  C186  1  0.678100  0.213200  0.845800  1.0  -0.0621
  C  C187  1  0.755100  0.302900  0.748600  1.0  -0.0656
  C  C188  1  0.066300  0.312400  0.481600  1.0  -0.0516
  C  C189  1  0.066000  0.234300  0.476200  1.0  -0.1265
  C  C190  1  0.773500  0.949100  0.798000  1.0  0.268
  C  C191  1  0.732900  0.239100  0.797000  1.0  0.0399
  C  C192  1  0.043800  0.257500  0.508400  1.0  0.2763
  C  C193  1  0.779100  0.029800  0.800400  1.0  0.0511
  C  C194  1  0.967300  0.173700  0.604200  1.0  -0.0211
  C  C195  1  0.821000  0.223200  0.743200  1.0  -0.0542
  C  C196  1  0.908800  0.156800  0.660600  1.0  0.1099
  C  C197  1  0.893000  0.195600  0.672000  1.0  -0.0645
  C  C198  1  0.803600  0.128200  0.764400  1.0  -0.1064
  C  C199  1  0.837000  0.181500  0.728000  1.0  0.0888
  C  C200  1  0.822800  0.086800  0.750400  1.0  0.0866
  C  C201  1  0.873200  0.101200  0.703000  1.0  -0.1417
  C  C202  1  0.461700  0.317400  0.827200  1.0  -0.0018
  C  C203  1  0.459000  0.344300  0.774400  1.0  -0.0978
  C  C204  1  0.457100  0.262600  0.857800  1.0  -0.1221
  C  C205  1  0.498100  0.865900  0.747800  1.0  0.7138
  C  C206  1  0.504400  0.868200  0.912400  1.0  0.6987
  C  C207  1  0.495200  0.866600  0.834200  1.0  -0.0345
  C  C208  1  0.494800  0.894600  0.859600  1.0  -0.1304
  C  C209  1  0.490500  0.891500  0.782800  1.0  -0.0895
  C  C210  1  0.488800  0.382000  0.373000  1.0  0.6999
  C  C211  1  0.475300  0.206600  0.386000  1.0  0.7096
  C  C212  1  0.480200  0.294800  0.382400  1.0  -0.0415
  C  C213  1  0.472500  0.237200  0.415600  1.0  -0.1635
  C  C214  1  0.478700  0.322100  0.409400  1.0  -0.0735
  C  C215  1  0.470100  0.406000  0.737400  1.0  0.7051
  C  C216  1  0.465700  0.238800  0.911000  1.0  0.6749
  C  C217  1  0.433100  0.308100  0.763400  1.0  -0.0733
  C  C218  1  0.436500  0.228300  0.845200  1.0  -0.109
  C  C219  1  0.476100  0.941000  0.845800  1.0  -0.0692
  C  C220  1  0.496300  0.948500  0.748600  1.0  -0.0661
  C  C221  1  0.452100  0.206000  0.481600  1.0  -0.0511
  C  C222  1  0.457800  0.289500  0.476200  1.0  -0.1255
  C  C223  1  0.428500  0.252900  0.798000  1.0  0.271
  C  C224  1  0.470100  0.963900  0.797000  1.0  0.0397
  C  C225  1  0.447800  0.234100  0.508400  1.0  0.2784
  C  C226  1  0.420500  0.169800  0.800400  1.0  0.0517
  C  C227  1  0.428500  0.222100  0.604200  1.0  -0.0196
  C  C228  1  0.435800  0.033600  0.743200  1.0  -0.0592
  C  C229  1  0.430600  0.182600  0.660600  1.0  0.1105
  C  C230  1  0.435000  0.132400  0.672000  1.0  -0.0633
  C  C231  1  0.432000  0.107400  0.764400  1.0  -0.1043
  C  C232  1  0.435000  0.090500  0.728000  1.0  0.0875
  C  C233  1  0.426800  0.162800  0.750400  1.0  0.0913
  C  C234  1  0.423800  0.195800  0.703000  1.0  -0.1438
  C  C235  1  0.855400  0.461700  0.827200  1.0  -0.0026
  C  C236  1  0.881300  0.459000  0.774400  1.0  -0.0976
  C  C237  1  0.879600  0.457100  0.857800  1.0  -0.1211
  C  C238  1  0.386300  0.498100  0.747800  1.0  0.7119
  C  C239  1  0.219400  0.504400  0.912400  1.0  0.6995
  C  C240  1  0.299200  0.495200  0.834200  1.0  -0.0348
  C  C241  1  0.245800  0.494800  0.859600  1.0  -0.1321
  C  C242  1  0.325700  0.490500  0.782800  1.0  -0.0898
  C  C243  1  0.245000  0.488800  0.373000  1.0  0.6999
  C  C244  1  0.407400  0.475300  0.386000  1.0  0.7086
  C  C245  1  0.322800  0.480200  0.382400  1.0  -0.0394
  C  C246  1  0.347200  0.472500  0.415600  1.0  -0.1638
  C  C247  1  0.268500  0.478700  0.409400  1.0  -0.0738
  C  C248  1  0.856600  0.470100  0.737400  1.0  0.703
  C  C249  1  0.850200  0.465700  0.911000  1.0  0.6685
  C  C250  1  0.928500  0.433100  0.763400  1.0  -0.072
  C  C251  1  0.926500  0.436500  0.845200  1.0  -0.1122
  C  C252  1  0.213200  0.476100  0.845800  1.0  -0.0659
  C  C253  1  0.302900  0.496300  0.748600  1.0  -0.0652
  C  C254  1  0.312400  0.452100  0.481600  1.0  -0.0509
  C  C255  1  0.234300  0.457800  0.476200  1.0  -0.1271
  C  C256  1  0.949100  0.428500  0.798000  1.0  0.2725
  C  C257  1  0.239100  0.470100  0.797000  1.0  0.0391
  C  C258  1  0.257500  0.447800  0.508400  1.0  0.2742
  C  C259  1  0.029800  0.420500  0.800400  1.0  0.0507
  C  C260  1  0.173700  0.428500  0.604200  1.0  -0.0192
  C  C261  1  0.223200  0.435800  0.743200  1.0  -0.0544
  C  C262  1  0.156800  0.430600  0.660600  1.0  0.1099
  C  C263  1  0.195600  0.435000  0.672000  1.0  -0.0622
  C  C264  1  0.128200  0.432000  0.764400  1.0  -0.1056
  C  C265  1  0.181500  0.435000  0.728000  1.0  0.0878
  C  C266  1  0.086800  0.426800  0.750400  1.0  0.0914
  C  C267  1  0.101200  0.423800  0.703000  1.0  -0.1416
  C  C268  1  0.317400  0.711100  0.827200  1.0  -0.0055
  C  C269  1  0.344300  0.766600  0.774400  1.0  -0.0984
  C  C270  1  0.262600  0.685100  0.857800  1.0  -0.1205
  C  C271  1  0.865900  0.754100  0.747800  1.0  0.7131
  C  C272  1  0.868200  0.583200  0.912400  1.0  0.7006
  C  C273  1  0.866600  0.670600  0.834200  1.0  -0.0355
  C  C274  1  0.894600  0.645600  0.859600  1.0  -0.1356
  C  C275  1  0.891500  0.726700  0.782800  1.0  -0.0887
  C  C276  1  0.382000  0.138200  0.373000  1.0  0.7
  C  C277  1  0.206600  0.138700  0.386000  1.0  0.7095
  C  C278  1  0.294800  0.137400  0.382400  1.0  -0.0381
  C  C279  1  0.237200  0.111900  0.415600  1.0  -0.1615
  C  C280  1  0.322100  0.111900  0.409400  1.0  -0.0725
  C  C281  1  0.406000  0.792500  0.737400  1.0  0.703
  C  C282  1  0.238800  0.623300  0.911000  1.0  0.6831
  C  C283  1  0.308100  0.803500  0.763400  1.0  -0.0752
  C  C284  1  0.228300  0.718300  0.845200  1.0  -0.1036
  C  C285  1  0.941000  0.678100  0.845800  1.0  -0.065
  C  C286  1  0.948500  0.755100  0.748600  1.0  -0.0661
  C  C287  1  0.206000  0.066300  0.481600  1.0  -0.0496
  C  C288  1  0.289500  0.066000  0.476200  1.0  -0.1259
  C  C289  1  0.252900  0.773500  0.798000  1.0  0.2715
  C  C290  1  0.963900  0.732900  0.797000  1.0  0.0385
  C  C291  1  0.234100  0.043800  0.508400  1.0  0.2771
  C  C292  1  0.169800  0.779100  0.800400  1.0  0.0499
  C  C293  1  0.222100  0.967300  0.604200  1.0  -0.0209
  C  C294  1  0.033600  0.821000  0.743200  1.0  -0.0545
  C  C295  1  0.182600  0.908800  0.660600  1.0  0.1107
  C  C296  1  0.132400  0.893000  0.672000  1.0  -0.066
  C  C297  1  0.107400  0.803600  0.764400  1.0  -0.1067
  C  C298  1  0.090500  0.837000  0.728000  1.0  0.0884
  C  C299  1  0.162800  0.822800  0.750400  1.0  0.0913
  C  C300  1  0.195800  0.873200  0.703000  1.0  -0.1427
  C  C301  1  0.288900  0.144600  0.172800  1.0  -0.0064
  C  C302  1  0.233400  0.118700  0.225600  1.0  -0.0991
  C  C303  1  0.314900  0.120400  0.142200  1.0  -0.1219
  C  C304  1  0.245900  0.613700  0.252200  1.0  0.713
  C  C305  1  0.416800  0.780600  0.087600  1.0  0.6962
  C  C306  1  0.329400  0.700800  0.165800  1.0  -0.0347
  C  C307  1  0.354400  0.754200  0.140400  1.0  -0.1331
  C  C308  1  0.273300  0.674300  0.217200  1.0  -0.0878
  C  C309  1  0.861800  0.755000  0.627000  1.0  0.7008
  C  C310  1  0.861300  0.592600  0.614000  1.0  0.7091
  C  C311  1  0.862600  0.677200  0.617600  1.0  -0.039
  C  C312  1  0.888100  0.652800  0.584400  1.0  -0.1633
  C  C313  1  0.888100  0.731500  0.590600  1.0  -0.0739
  C  C314  1  0.207500  0.143400  0.262600  1.0  0.7051
  C  C315  1  0.376700  0.149800  0.089000  1.0  0.6685
  C  C316  1  0.196500  0.071500  0.236600  1.0  -0.0751
  C  C317  1  0.281700  0.073500  0.154800  1.0  -0.1078
  C  C318  1  0.321900  0.786800  0.154200  1.0  -0.0636
  C  C319  1  0.244900  0.697100  0.251400  1.0  -0.0636
  C  C320  1  0.933700  0.687600  0.518400  1.0  -0.0511
  C  C321  1  0.934000  0.765700  0.523800  1.0  -0.1256
  C  C322  1  0.226500  0.050900  0.202000  1.0  0.269
  C  C323  1  0.267100  0.760900  0.203000  1.0  0.0398
  C  C324  1  0.956200  0.742500  0.491600  1.0  0.2755
  C  C325  1  0.220900  0.970200  0.199600  1.0  0.0481
  C  C326  1  0.032700  0.826300  0.395800  1.0  -0.0198
  C  C327  1  0.179000  0.776800  0.256800  1.0  -0.0558
  C  C328  1  0.091200  0.843200  0.339400  1.0  0.1102
  C  C329  1  0.107000  0.804400  0.328000  1.0  -0.0639
  C  C330  1  0.196400  0.871800  0.235600  1.0  -0.103
  C  C331  1  0.163000  0.818500  0.272000  1.0  0.089
  C  C332  1  0.177200  0.913200  0.249600  1.0  0.0842
  C  C333  1  0.126800  0.898800  0.297000  1.0  -0.1435
  C  C334  1  0.538300  0.682600  0.172800  1.0  -0.0026
  C  C335  1  0.541000  0.655700  0.225600  1.0  -0.0977
  C  C336  1  0.542900  0.737400  0.142200  1.0  -0.1215
  C  C337  1  0.501900  0.134100  0.252200  1.0  0.7145
  C  C338  1  0.495600  0.131800  0.087600  1.0  0.6976
  C  C339  1  0.504800  0.133400  0.165800  1.0  -0.0346
  C  C340  1  0.505200  0.105400  0.140400  1.0  -0.1306
  C  C341  1  0.509500  0.108500  0.217200  1.0  -0.089
  C  C342  1  0.511200  0.618000  0.627000  1.0  0.7005
  C  C343  1  0.524700  0.793400  0.614000  1.0  0.7095
  C  C344  1  0.519800  0.705200  0.617600  1.0  -0.0414
  C  C345  1  0.527500  0.762800  0.584400  1.0  -0.1638
  C  C346  1  0.521300  0.677900  0.590600  1.0  -0.074
  C  C347  1  0.529900  0.594000  0.262600  1.0  0.7051
  C  C348  1  0.534300  0.761200  0.089000  1.0  0.6741
  C  C349  1  0.566900  0.691900  0.236600  1.0  -0.0719
  C  C350  1  0.563500  0.771700  0.154800  1.0  -0.1085
  C  C351  1  0.523900  0.059000  0.154200  1.0  -0.0672
  C  C352  1  0.503700  0.051500  0.251400  1.0  -0.066
  C  C353  1  0.547900  0.794000  0.518400  1.0  -0.0509
  C  C354  1  0.542200  0.710500  0.523800  1.0  -0.1232
  C  C355  1  0.571500  0.747100  0.202000  1.0  0.2705
  C  C356  1  0.529900  0.036100  0.203000  1.0  0.0403
  C  C357  1  0.552200  0.765900  0.491600  1.0  0.2785
  C  C358  1  0.579500  0.830200  0.199600  1.0  0.0506
  C  C359  1  0.571500  0.777900  0.395800  1.0  -0.0201
  C  C360  1  0.564200  0.966400  0.256800  1.0  -0.0569
  C  C361  1  0.569400  0.817400  0.339400  1.0  0.1105
  C  C362  1  0.565000  0.867600  0.328000  1.0  -0.0631
  C  C363  1  0.568000  0.892600  0.235600  1.0  -0.1038
  C  C364  1  0.565000  0.909500  0.272000  1.0  0.0874
  C  C365  1  0.573200  0.837200  0.249600  1.0  0.0906
  C  C366  1  0.576200  0.804200  0.297000  1.0  -0.1398
  C  C367  1  0.144600  0.538300  0.172800  1.0  -0.0022
  C  C368  1  0.118700  0.541000  0.225600  1.0  -0.0983
  C  C369  1  0.120400  0.542900  0.142200  1.0  -0.1208
  C  C370  1  0.613700  0.501900  0.252200  1.0  0.7125
  C  C371  1  0.780600  0.495600  0.087600  1.0  0.7001
  C  C372  1  0.700800  0.504800  0.165800  1.0  -0.0351
  C  C373  1  0.754200  0.505200  0.140400  1.0  -0.1335
  C  C374  1  0.674300  0.509500  0.217200  1.0  -0.0889
  C  C375  1  0.755000  0.511200  0.627000  1.0  0.699
  C  C376  1  0.592600  0.524700  0.614000  1.0  0.7085
  C  C377  1  0.677200  0.519800  0.617600  1.0  -0.0408
  C  C378  1  0.652800  0.527500  0.584400  1.0  -0.1643
  C  C379  1  0.731500  0.521300  0.590600  1.0  -0.0736
  C  C380  1  0.143400  0.529900  0.262600  1.0  0.7033
  C  C381  1  0.149800  0.534300  0.089000  1.0  0.667
  C  C382  1  0.071500  0.566900  0.236600  1.0  -0.073
  C  C383  1  0.073500  0.563500  0.154800  1.0  -0.1117
  C  C384  1  0.786800  0.523900  0.154200  1.0  -0.0656
  C  C385  1  0.697100  0.503700  0.251400  1.0  -0.065
  C  C386  1  0.687600  0.547900  0.518400  1.0  -0.0513
  C  C387  1  0.765700  0.542200  0.523800  1.0  -0.1246
  C  C388  1  0.050900  0.571500  0.202000  1.0  0.272
  C  C389  1  0.760900  0.529900  0.203000  1.0  0.0394
  C  C390  1  0.742500  0.552200  0.491600  1.0  0.274
  C  C391  1  0.970200  0.579500  0.199600  1.0  0.0476
  C  C392  1  0.826300  0.571500  0.395800  1.0  -0.0202
  C  C393  1  0.776800  0.564200  0.256800  1.0  -0.0552
  C  C394  1  0.843200  0.569400  0.339400  1.0  0.1096
  C  C395  1  0.804400  0.565000  0.328000  1.0  -0.0643
  C  C396  1  0.871800  0.568000  0.235600  1.0  -0.1045
  C  C397  1  0.818500  0.565000  0.272000  1.0  0.0888
  C  C398  1  0.913200  0.573200  0.249600  1.0  0.0923
  C  C399  1  0.898800  0.576200  0.297000  1.0  -0.1406
  C  C400  1  0.682600  0.288900  0.172800  1.0  -0.0036
  C  C401  1  0.655700  0.233400  0.225600  1.0  -0.0984
  C  C402  1  0.737400  0.314900  0.142200  1.0  -0.1207
  C  C403  1  0.134100  0.245900  0.252200  1.0  0.7124
  C  C404  1  0.131800  0.416800  0.087600  1.0  0.7007
  C  C405  1  0.133400  0.329400  0.165800  1.0  -0.0345
  C  C406  1  0.105400  0.354400  0.140400  1.0  -0.1363
  C  C407  1  0.108500  0.273300  0.217200  1.0  -0.0886
  C  C408  1  0.618000  0.861800  0.627000  1.0  0.6993
  C  C409  1  0.793400  0.861300  0.614000  1.0  0.7094
  C  C410  1  0.705200  0.862600  0.617600  1.0  -0.0402
  C  C411  1  0.762800  0.888100  0.584400  1.0  -0.1623
  C  C412  1  0.677900  0.888100  0.590600  1.0  -0.0737
  C  C413  1  0.594000  0.207500  0.262600  1.0  0.702
  C  C414  1  0.761200  0.376700  0.089000  1.0  0.6833
  C  C415  1  0.691900  0.196500  0.236600  1.0  -0.0729
  C  C416  1  0.771700  0.281700  0.154800  1.0  -0.1025
  C  C417  1  0.059000  0.321900  0.154200  1.0  -0.0654
  C  C418  1  0.051500  0.244900  0.251400  1.0  -0.0635
  C  C419  1  0.794000  0.933700  0.518400  1.0  -0.0505
  C  C420  1  0.710500  0.934000  0.523800  1.0  -0.127
  C  C421  1  0.747100  0.226500  0.202000  1.0  0.2718
  C  C422  1  0.036100  0.267100  0.203000  1.0  0.0396
  C  C423  1  0.765900  0.956200  0.491600  1.0  0.2765
  C  C424  1  0.830200  0.220900  0.199600  1.0  0.05
  C  C425  1  0.777900  0.032700  0.395800  1.0  -0.0195
  C  C426  1  0.966400  0.179000  0.256800  1.0  -0.0538
  C  C427  1  0.817400  0.091200  0.339400  1.0  0.1103
  C  C428  1  0.867600  0.107000  0.328000  1.0  -0.0647
  C  C429  1  0.892600  0.196400  0.235600  1.0  -0.1066
  C  C430  1  0.909500  0.163000  0.272000  1.0  0.0878
  C  C431  1  0.837200  0.177200  0.249600  1.0  0.0909
  C  C432  1  0.804200  0.126800  0.297000  1.0  -0.1416
  O  O433  1  0.187090  0.430690  0.334220  1.0  -0.6098
  O  O434  1  0.111550  0.429450  0.411700  1.0  -0.5714
  O  O435  1  0.109420  0.196120  0.396360  1.0  -0.6541
  O  O436  1  0.187050  0.271550  0.322300  1.0  -0.5844
  O  O437  1  0.802600  0.409200  0.697600  1.0  -0.6256
  O  O438  1  0.727700  0.409400  0.772600  1.0  -0.5854
  O  O439  1  0.842660  0.885360  0.685280  1.0  -0.5827
  O  O440  1  0.765700  0.808700  0.761200  1.0  -0.6143
  O  O441  1  0.601180  0.880080  0.933640  1.0  -0.5906
  O  O442  1  0.600010  0.803410  0.932180  1.0  -0.5381
  O  O443  1  0.559900  0.170200  0.932600  1.0  -0.5461
  O  O444  1  0.560430  0.246930  0.932540  1.0  -0.6141
  O  O445  1  0.544800  0.940400  0.983600  1.0  -0.6813
  O  O446  1  0.804400  0.000900  0.772400  1.0  -0.3005
  O  O447  1  0.995100  0.231100  0.569000  1.0  -0.2619
  O  O448  1  0.761300  0.205200  0.782000  1.0  -0.2725
  O  O449  1  0.478690  0.235090  0.334220  1.0  -0.6083
  O  O450  1  0.476750  0.158850  0.411700  1.0  -0.5723
  O  O451  1  0.494220  0.407520  0.396360  1.0  -0.6514
  O  O452  1  0.490650  0.406150  0.322300  1.0  -0.5845
  O  O453  1  0.499800  0.893200  0.697600  1.0  -0.6257
  O  O454  1  0.499700  0.818000  0.772600  1.0  -0.5859
  O  O455  1  0.472060  0.429360  0.685280  1.0  -0.5799
  O  O456  1  0.473100  0.430100  0.761200  1.0  -0.6131
  O  O457  1  0.465180  0.186280  0.933640  1.0  -0.5919
  O  O458  1  0.467810  0.264410  0.932180  1.0  -0.5391
  O  O459  1  0.507500  0.897200  0.932600  1.0  -0.5438
  O  O460  1  0.507030  0.820530  0.932540  1.0  -0.6163
  O  O461  1  0.471600  0.076000  0.983600  1.0  -0.6755
  O  O462  1  0.423200  0.226700  0.772400  1.0  -0.2974
  O  O463  1  0.435900  0.199900  0.569000  1.0  -0.2649
  O  O464  1  0.456700  0.012800  0.782000  1.0  -0.2702
  O  O465  1  0.430690  0.478690  0.334220  1.0  -0.6089
  O  O466  1  0.429450  0.476750  0.411700  1.0  -0.5689
  O  O467  1  0.196120  0.494220  0.396360  1.0  -0.6528
  O  O468  1  0.271550  0.490650  0.322300  1.0  -0.5826
  O  O469  1  0.409200  0.499800  0.697600  1.0  -0.6249
  O  O470  1  0.409400  0.499700  0.772600  1.0  -0.5849
  O  O471  1  0.885360  0.472060  0.685280  1.0  -0.5805
  O  O472  1  0.808700  0.473100  0.761200  1.0  -0.6131
  O  O473  1  0.880080  0.465180  0.933640  1.0  -0.5921
  O  O474  1  0.803410  0.467810  0.932180  1.0  -0.5393
  O  O475  1  0.170200  0.507500  0.932600  1.0  -0.5433
  O  O476  1  0.246930  0.507030  0.932540  1.0  -0.6156
  O  O477  1  0.940400  0.471600  0.983600  1.0  -0.663
  O  O478  1  0.000900  0.423200  0.772400  1.0  -0.2952
  O  O479  1  0.231100  0.435900  0.569000  1.0  -0.2647
  O  O480  1  0.205200  0.456700  0.782000  1.0  -0.2696
  O  O481  1  0.235090  0.187090  0.334220  1.0  -0.6088
  O  O482  1  0.158850  0.111550  0.411700  1.0  -0.5731
  O  O483  1  0.407520  0.109420  0.396360  1.0  -0.6536
  O  O484  1  0.406150  0.187050  0.322300  1.0  -0.586
  O  O485  1  0.893200  0.802600  0.697600  1.0  -0.6255
  O  O486  1  0.818000  0.727700  0.772600  1.0  -0.5866
  O  O487  1  0.429360  0.842660  0.685280  1.0  -0.5839
  O  O488  1  0.430100  0.765700  0.761200  1.0  -0.613
  O  O489  1  0.186280  0.601180  0.933640  1.0  -0.592
  O  O490  1  0.264410  0.600010  0.932180  1.0  -0.5385
  O  O491  1  0.897200  0.559900  0.932600  1.0  -0.5459
  O  O492  1  0.820530  0.560430  0.932540  1.0  -0.6142
  O  O493  1  0.076000  0.544800  0.983600  1.0  -0.6686
  O  O494  1  0.226700  0.804400  0.772400  1.0  -0.2979
  O  O495  1  0.199900  0.995100  0.569000  1.0  -0.2651
  O  O496  1  0.012800  0.761300  0.782000  1.0  -0.2707
  O  O497  1  0.812910  0.569310  0.665780  1.0  -0.6096
  O  O498  1  0.888450  0.570550  0.588300  1.0  -0.5695
  O  O499  1  0.890580  0.803880  0.603640  1.0  -0.6518
  O  O500  1  0.812950  0.728450  0.677700  1.0  -0.5842
  O  O501  1  0.197400  0.590800  0.302400  1.0  -0.6262
  O  O502  1  0.272300  0.590600  0.227400  1.0  -0.5868
  O  O503  1  0.157340  0.114640  0.314720  1.0  -0.5851
  O  O504  1  0.234300  0.191300  0.238800  1.0  -0.613
  O  O505  1  0.398820  0.119920  0.066360  1.0  -0.5914
  O  O506  1  0.399990  0.196590  0.067820  1.0  -0.5385
  O  O507  1  0.440100  0.829800  0.067400  1.0  -0.547
  O  O508  1  0.439570  0.753070  0.067460  1.0  -0.615
  O  O509  1  0.455200  0.059600  0.016400  1.0  -0.6776
  O  O510  1  0.195600  0.999100  0.227600  1.0  -0.2983
  O  O511  1  0.004900  0.768900  0.431000  1.0  -0.2633
  O  O512  1  0.238700  0.794800  0.218000  1.0  -0.2725
  O  O513  1  0.521310  0.764910  0.665780  1.0  -0.6087
  O  O514  1  0.523250  0.841150  0.588300  1.0  -0.5714
  O  O515  1  0.505780  0.592480  0.603640  1.0  -0.6537
  O  O516  1  0.509350  0.593850  0.677700  1.0  -0.5852
  O  O517  1  0.500200  0.106800  0.302400  1.0  -0.6252
  O  O518  1  0.500300  0.182000  0.227400  1.0  -0.5854
  O  O519  1  0.527940  0.570640  0.314720  1.0  -0.5798
  O  O520  1  0.526900  0.569900  0.238800  1.0  -0.614
  O  O521  1  0.534820  0.813720  0.066360  1.0  -0.5929
  O  O522  1  0.532190  0.735590  0.067820  1.0  -0.5387
  O  O523  1  0.492500  0.102800  0.067400  1.0  -0.5434
  O  O524  1  0.492970  0.179470  0.067460  1.0  -0.6162
  O  O525  1  0.528400  0.924000  0.016400  1.0  -0.6745
  O  O526  1  0.576800  0.773300  0.227600  1.0  -0.2972
  O  O527  1  0.564100  0.800100  0.431000  1.0  -0.2628
  O  O528  1  0.543300  0.987200  0.218000  1.0  -0.2737
  O  O529  1  0.569310  0.521310  0.665780  1.0  -0.6085
  O  O530  1  0.570550  0.523250  0.588300  1.0  -0.5697
  O  O531  1  0.803880  0.505780  0.603640  1.0  -0.6522
  O  O532  1  0.728450  0.509350  0.677700  1.0  -0.583
  O  O533  1  0.590800  0.500200  0.302400  1.0  -0.6243
  O  O534  1  0.590600  0.500300  0.227400  1.0  -0.5864
  O  O535  1  0.114640  0.527940  0.314720  1.0  -0.5826
  O  O536  1  0.191300  0.526900  0.238800  1.0  -0.6135
  O  O537  1  0.119920  0.534820  0.066360  1.0  -0.593
  O  O538  1  0.196590  0.532190  0.067820  1.0  -0.5399
  O  O539  1  0.829800  0.492500  0.067400  1.0  -0.5432
  O  O540  1  0.753070  0.492970  0.067460  1.0  -0.616
  O  O541  1  0.059600  0.528400  0.016400  1.0  -0.6611
  O  O542  1  0.999100  0.576800  0.227600  1.0  -0.2939
  O  O543  1  0.768900  0.564100  0.431000  1.0  -0.2652
  O  O544  1  0.794800  0.543300  0.218000  1.0  -0.2734
  O  O545  1  0.764910  0.812910  0.665780  1.0  -0.6099
  O  O546  1  0.841150  0.888450  0.588300  1.0  -0.5721
  O  O547  1  0.592480  0.890580  0.603640  1.0  -0.6532
  O  O548  1  0.593850  0.812950  0.677700  1.0  -0.586
  O  O549  1  0.106800  0.197400  0.302400  1.0  -0.6253
  O  O550  1  0.182000  0.272300  0.227400  1.0  -0.5883
  O  O551  1  0.570640  0.157340  0.314720  1.0  -0.5835
  O  O552  1  0.569900  0.234300  0.238800  1.0  -0.6121
  O  O553  1  0.813720  0.398820  0.066360  1.0  -0.5893
  O  O554  1  0.735590  0.399990  0.067820  1.0  -0.5381
  O  O555  1  0.102800  0.440100  0.067400  1.0  -0.5452
  O  O556  1  0.179470  0.439570  0.067460  1.0  -0.613
  O  O557  1  0.924000  0.455200  0.016400  1.0  -0.6595
  O  O558  1  0.773300  0.195600  0.227600  1.0  -0.2969
  O  O559  1  0.800100  0.004900  0.431000  1.0  -0.2662
  O  O560  1  0.987200  0.238700  0.218000  1.0  -0.272
