# generated using pymatgen
data_ZnH6C11O5
_symmetry_space_group_name_H-M   'P 1'
_cell_length_a   29.30260000
_cell_length_b   29.30260000
_cell_length_c   29.38470000
_cell_angle_alpha   60.09230000
_cell_angle_beta   60.09230000
_cell_angle_gamma   89.99990000
_symmetry_Int_Tables_number   1
_chemical_formula_structural   ZnH6C11O5
_chemical_formula_sum   'Zn24 H144 C264 O120'
_cell_volume   17890.65499108
_cell_formula_units_Z   24
loop_
 _symmetry_equiv_pos_site_id
 _symmetry_equiv_pos_as_xyz
  1  'x, y, z'
loop_
 _atom_site_type_symbol
 _atom_site_label
 _atom_site_symmetry_multiplicity
 _atom_site_fract_x
 _atom_site_fract_y
 _atom_site_fract_z
 _atom_site_occupancy
 _atom_site_charge
  Zn  Zn1  1  0.009470  0.744020  0.267180  1.0  1.1022
  Zn  Zn2  1  0.644980  0.618470  0.368400  1.0  1.0765
  Zn  Zn3  1  0.723350  0.988800  0.267180  1.0  1.1043
  Zn  Zn4  1  0.986620  0.013130  0.368400  1.0  1.0731
  Zn  Zn5  1  0.744020  0.723350  0.267180  1.0  1.1016
  Zn  Zn6  1  0.618470  0.986620  0.368400  1.0  1.0733
  Zn  Zn7  1  0.988800  0.009470  0.267180  1.0  1.0992
  Zn  Zn8  1  0.013130  0.644980  0.368400  1.0  1.0747
  Zn  Zn9  1  0.990530  0.255980  0.732820  1.0  1.1022
  Zn  Zn10  1  0.355020  0.381530  0.631600  1.0  1.0755
  Zn  Zn11  1  0.276650  0.011200  0.732820  1.0  1.0999
  Zn  Zn12  1  0.013380  0.986870  0.631600  1.0  1.0696
  Zn  Zn13  1  0.255980  0.276650  0.732820  1.0  1.101
  Zn  Zn14  1  0.381530  0.013380  0.631600  1.0  1.0805
  Zn  Zn15  1  0.011200  0.990530  0.732820  1.0  1.099
  Zn  Zn16  1  0.986870  0.355020  0.631600  1.0  1.073
  Zn  Zn17  1  0.265290  0.020060  0.000000  1.0  1.0901
  Zn  Zn18  1  0.632650  0.974550  0.000000  1.0  1.0729
  Zn  Zn19  1  0.734710  0.979940  0.000000  1.0  1.083
  Zn  Zn20  1  0.367350  0.025450  0.000000  1.0  1.0762
  Zn  Zn21  1  0.020060  0.734710  0.000000  1.0  1.0936
  Zn  Zn22  1  0.974550  0.367350  0.000000  1.0  1.0647
  Zn  Zn23  1  0.979940  0.265290  0.000000  1.0  1.089
  Zn  Zn24  1  0.025450  0.632650  0.000000  1.0  1.0681
  H  H25  1  0.180000  0.850000  0.150400  1.0  0.1108
  H  H26  1  0.322300  0.848100  0.141200  1.0  0.1278
  H  H27  1  0.187700  0.704000  0.268200  1.0  0.1083
  H  H28  1  0.259900  0.668800  0.262000  1.0  0.0789
  H  H29  1  0.235200  0.681000  0.315800  1.0  0.08
  H  H30  1  0.682300  0.806800  0.157400  1.0  0.1074
  H  H31  1  0.550300  0.665400  0.283600  1.0  0.1262
  H  H32  1  0.554400  0.800900  0.140200  1.0  0.1135
  H  H33  1  0.480700  0.739400  0.173200  1.0  0.0718
  H  H34  1  0.460000  0.756700  0.222600  1.0  0.0756
  H  H35  1  0.157200  0.326100  0.655200  1.0  0.0923
  H  H36  1  0.165800  0.449400  0.505000  1.0  0.1206
  H  H37  1  0.297300  0.458800  0.514800  1.0  0.114
  H  H38  1  0.257400  0.593000  0.370400  1.0  0.1058
  H  H39  1  0.342300  0.523500  0.396600  1.0  0.0776
  H  H40  1  0.318900  0.545800  0.441200  1.0  0.0768
  H  H41  1  0.377600  0.739600  0.212600  1.0  0.1132
  H  H42  1  0.411900  0.623000  0.326600  1.0  0.0924
  H  H43  1  0.669600  0.999600  0.150400  1.0  0.1108
  H  H44  1  0.536500  0.010700  0.141200  1.0  0.1237
  H  H45  1  0.544100  0.027800  0.268200  1.0  0.1078
  H  H46  1  0.478100  0.069200  0.262000  1.0  0.0798
  H  H47  1  0.449000  0.003200  0.315800  1.0  0.0794
  H  H48  1  0.160300  0.035800  0.157400  1.0  0.1088
  H  H49  1  0.166100  0.051000  0.283600  1.0  0.1263
  H  H50  1  0.305400  0.058900  0.140200  1.0  0.1114
  H  H51  1  0.346100  0.087400  0.173200  1.0  0.0667
  H  H52  1  0.317400  0.020700  0.222600  1.0  0.0724
  H  H53  1  0.187600  0.018700  0.655200  1.0  0.0924
  H  H54  1  0.329200  0.045600  0.505000  1.0  0.1209
  H  H55  1  0.187900  0.026400  0.514800  1.0  0.1145
  H  H56  1  0.372200  0.036600  0.370400  1.0  0.1095
  H  H57  1  0.261100  0.079900  0.396600  1.0  0.0743
  H  H58  1  0.239900  0.013000  0.441200  1.0  0.075
  H  H59  1  0.409800  0.047800  0.212600  1.0  0.112
  H  H60  1  0.261500  0.050400  0.326600  1.0  0.0924
  H  H61  1  0.850000  0.669600  0.150400  1.0  0.1077
  H  H62  1  0.848100  0.536500  0.141200  1.0  0.1249
  H  H63  1  0.704000  0.544100  0.268200  1.0  0.1084
  H  H64  1  0.668800  0.478100  0.262000  1.0  0.0777
  H  H65  1  0.681000  0.449000  0.315800  1.0  0.0795
  H  H66  1  0.806800  0.160300  0.157400  1.0  0.1085
  H  H67  1  0.665400  0.166100  0.283600  1.0  0.1262
  H  H68  1  0.800900  0.305400  0.140200  1.0  0.1121
  H  H69  1  0.739400  0.346100  0.173200  1.0  0.0631
  H  H70  1  0.756700  0.317400  0.222600  1.0  0.0758
  H  H71  1  0.326100  0.187600  0.655200  1.0  0.0884
  H  H72  1  0.449400  0.329200  0.505000  1.0  0.1205
  H  H73  1  0.458800  0.187900  0.514800  1.0  0.1134
  H  H74  1  0.593000  0.372200  0.370400  1.0  0.1082
  H  H75  1  0.523500  0.261100  0.396600  1.0  0.0801
  H  H76  1  0.545800  0.239900  0.441200  1.0  0.0773
  H  H77  1  0.739600  0.409800  0.212600  1.0  0.1142
  H  H78  1  0.623000  0.261500  0.326600  1.0  0.0915
  H  H79  1  0.999600  0.180000  0.150400  1.0  0.111
  H  H80  1  0.010700  0.322300  0.141200  1.0  0.1258
  H  H81  1  0.027800  0.187700  0.268200  1.0  0.1084
  H  H82  1  0.069200  0.259900  0.262000  1.0  0.07
  H  H83  1  0.003200  0.235200  0.315800  1.0  0.0787
  H  H84  1  0.035800  0.682300  0.157400  1.0  0.1087
  H  H85  1  0.051000  0.550300  0.283600  1.0  0.1263
  H  H86  1  0.058900  0.554400  0.140200  1.0  0.1141
  H  H87  1  0.087400  0.480700  0.173200  1.0  0.0691
  H  H88  1  0.020700  0.460000  0.222600  1.0  0.0708
  H  H89  1  0.018700  0.157200  0.655200  1.0  0.0919
  H  H90  1  0.045600  0.165800  0.505000  1.0  0.1203
  H  H91  1  0.026400  0.297300  0.514800  1.0  0.1123
  H  H92  1  0.036600  0.257400  0.370400  1.0  0.1077
  H  H93  1  0.079900  0.342300  0.396600  1.0  0.0794
  H  H94  1  0.013000  0.318900  0.441200  1.0  0.0728
  H  H95  1  0.047800  0.377600  0.212600  1.0  0.1128
  H  H96  1  0.050400  0.411900  0.326600  1.0  0.0938
  H  H97  1  0.820000  0.150000  0.849600  1.0  0.1109
  H  H98  1  0.677700  0.151900  0.858800  1.0  0.128
  H  H99  1  0.812300  0.296000  0.731800  1.0  0.1077
  H  H100  1  0.740100  0.331200  0.738000  1.0  0.0779
  H  H101  1  0.764800  0.319000  0.684200  1.0  0.08
  H  H102  1  0.317700  0.193200  0.842600  1.0  0.1076
  H  H103  1  0.449700  0.334600  0.716400  1.0  0.1258
  H  H104  1  0.445600  0.199100  0.859800  1.0  0.1135
  H  H105  1  0.519300  0.260600  0.826800  1.0  0.0707
  H  H106  1  0.540000  0.243300  0.777400  1.0  0.0757
  H  H107  1  0.842800  0.673900  0.344800  1.0  0.0937
  H  H108  1  0.834200  0.550600  0.495000  1.0  0.1207
  H  H109  1  0.702700  0.541200  0.485200  1.0  0.1137
  H  H110  1  0.742600  0.407000  0.629600  1.0  0.1079
  H  H111  1  0.657700  0.476500  0.603400  1.0  0.0772
  H  H112  1  0.681100  0.454200  0.558800  1.0  0.0764
  H  H113  1  0.622400  0.260400  0.787400  1.0  0.1133
  H  H114  1  0.588100  0.377000  0.673400  1.0  0.0931
  H  H115  1  0.330400  0.000400  0.849600  1.0  0.1108
  H  H116  1  0.463500  0.989300  0.858800  1.0  0.1242
  H  H117  1  0.455900  0.972200  0.731800  1.0  0.1085
  H  H118  1  0.521900  0.930800  0.738000  1.0  0.0777
  H  H119  1  0.551000  0.996800  0.684200  1.0  0.0786
  H  H120  1  0.839700  0.964200  0.842600  1.0  0.1087
  H  H121  1  0.833900  0.949000  0.716400  1.0  0.126
  H  H122  1  0.694600  0.941100  0.859800  1.0  0.1119
  H  H123  1  0.653900  0.912600  0.826800  1.0  0.0665
  H  H124  1  0.682600  0.979300  0.777400  1.0  0.0748
  H  H125  1  0.812400  0.981300  0.344800  1.0  0.0922
  H  H126  1  0.670800  0.954400  0.495000  1.0  0.1202
  H  H127  1  0.812100  0.973600  0.485200  1.0  0.1149
  H  H128  1  0.627800  0.963400  0.629600  1.0  0.1083
  H  H129  1  0.738900  0.920100  0.603400  1.0  0.0747
  H  H130  1  0.760100  0.987000  0.558800  1.0  0.0747
  H  H131  1  0.590200  0.952200  0.787400  1.0  0.1116
  H  H132  1  0.738500  0.949600  0.673400  1.0  0.0944
  H  H133  1  0.150000  0.330400  0.849600  1.0  0.108
  H  H134  1  0.151900  0.463500  0.858800  1.0  0.125
  H  H135  1  0.296000  0.455900  0.731800  1.0  0.1088
  H  H136  1  0.331200  0.521900  0.738000  1.0  0.0759
  H  H137  1  0.319000  0.551000  0.684200  1.0  0.08
  H  H138  1  0.193200  0.839700  0.842600  1.0  0.1081
  H  H139  1  0.334600  0.833900  0.716400  1.0  0.1262
  H  H140  1  0.199100  0.694600  0.859800  1.0  0.1119
  H  H141  1  0.260600  0.653900  0.826800  1.0  0.0639
  H  H142  1  0.243300  0.682600  0.777400  1.0  0.0754
  H  H143  1  0.673900  0.812400  0.344800  1.0  0.0891
  H  H144  1  0.550600  0.670800  0.495000  1.0  0.1203
  H  H145  1  0.541200  0.812100  0.485200  1.0  0.1129
  H  H146  1  0.407000  0.627800  0.629600  1.0  0.1079
  H  H147  1  0.476500  0.738900  0.603400  1.0  0.0793
  H  H148  1  0.454200  0.760100  0.558800  1.0  0.0756
  H  H149  1  0.260400  0.590200  0.787400  1.0  0.112
  H  H150  1  0.377000  0.738500  0.673400  1.0  0.0935
  H  H151  1  0.000400  0.820000  0.849600  1.0  0.1106
  H  H152  1  0.989300  0.677700  0.858800  1.0  0.1252
  H  H153  1  0.972200  0.812300  0.731800  1.0  0.1081
  H  H154  1  0.930800  0.740100  0.738000  1.0  0.0719
  H  H155  1  0.996800  0.764800  0.684200  1.0  0.0785
  H  H156  1  0.964200  0.317700  0.842600  1.0  0.1091
  H  H157  1  0.949000  0.449700  0.716400  1.0  0.1263
  H  H158  1  0.941100  0.445600  0.859800  1.0  0.1137
  H  H159  1  0.912600  0.519300  0.826800  1.0  0.069
  H  H160  1  0.979300  0.540000  0.777400  1.0  0.0702
  H  H161  1  0.981300  0.842800  0.344800  1.0  0.0915
  H  H162  1  0.954400  0.834200  0.495000  1.0  0.1208
  H  H163  1  0.973600  0.702700  0.485200  1.0  0.1129
  H  H164  1  0.963400  0.742600  0.629600  1.0  0.1078
  H  H165  1  0.920100  0.657700  0.603400  1.0  0.0793
  H  H166  1  0.987000  0.681100  0.558800  1.0  0.0719
  H  H167  1  0.952200  0.622400  0.787400  1.0  0.1141
  H  H168  1  0.949600  0.588100  0.673400  1.0  0.0931
  C  C169  1  0.113600  0.746700  0.252800  1.0  0.682
  C  C170  1  0.174200  0.774500  0.218600  1.0  -0.1121
  C  C171  1  0.200100  0.830600  0.166600  1.0  0.0239
  C  C172  1  0.255600  0.858800  0.138000  1.0  -0.1488
  C  C173  1  0.280100  0.919000  0.087600  1.0  0.7053
  C  C174  1  0.284400  0.830300  0.160600  1.0  -0.0911
  C  C175  1  0.256500  0.773300  0.214000  1.0  0.1764
  C  C176  1  0.202800  0.743500  0.239000  1.0  -0.1485
  C  C177  1  0.269700  0.689000  0.276400  1.0  -0.011
  C  C178  1  0.646700  0.872300  0.090800  1.0  0.69
  C  C179  1  0.622300  0.813700  0.141800  1.0  -0.1263
  C  C180  1  0.646500  0.787300  0.172800  1.0  0.0104
  C  C181  1  0.619700  0.732900  0.225800  1.0  -0.1499
  C  C182  1  0.645500  0.706000  0.260000  1.0  0.6951
  C  C183  1  0.568400  0.703200  0.247600  1.0  -0.1309
  C  C184  1  0.544000  0.729600  0.215800  1.0  0.2923
  C  C185  1  0.570700  0.783700  0.162800  1.0  -0.1867
  C  C186  1  0.462500  0.724900  0.218800  1.0  0.0311
  C  C187  1  0.257000  0.364300  0.625000  1.0  0.6793
  C  C188  1  0.229400  0.388800  0.592600  1.0  -0.1386
  C  C189  1  0.176400  0.362700  0.616800  1.0  -0.0604
  C  C190  1  0.150100  0.385900  0.589200  1.0  -0.1435
  C  C191  1  0.091300  0.357600  0.616800  1.0  0.6879
  C  C192  1  0.181400  0.434500  0.528800  1.0  -0.0632
  C  C193  1  0.235400  0.462100  0.501800  1.0  0.2265
  C  C194  1  0.260000  0.439800  0.533200  1.0  -0.1288
  C  C195  1  0.335100  0.601200  0.352000  1.0  0.1962
  C  C196  1  0.294900  0.617400  0.342000  1.0  -0.2088
  C  C197  1  0.316600  0.543100  0.410000  1.0  -0.0814
  C  C198  1  0.366600  0.703100  0.248600  1.0  -0.1886
  C  C199  1  0.404900  0.683900  0.259600  1.0  0.1319
  C  C200  1  0.386900  0.634100  0.314800  1.0  -0.214
  C  C201  1  0.310500  0.668400  0.291400  1.0  0.188
  C  C202  1  0.633600  0.000500  0.252800  1.0  0.6857
  C  C203  1  0.607200  0.006900  0.218600  1.0  -0.1131
  C  C204  1  0.633300  0.002800  0.166600  1.0  0.0305
  C  C205  1  0.606400  0.003200  0.138000  1.0  -0.1509
  C  C206  1  0.632300  0.993400  0.087600  1.0  0.7024
  C  C207  1  0.555000  0.009100  0.160600  1.0  -0.0878
  C  C208  1  0.529500  0.012700  0.214000  1.0  0.1754
  C  C209  1  0.558200  0.017500  0.239000  1.0  -0.1587
  C  C210  1  0.453900  0.034600  0.276400  1.0  -0.017
  C  C211  1  0.262500  0.036900  0.090800  1.0  0.6865
  C  C212  1  0.235900  0.044500  0.141800  1.0  -0.1267
  C  C213  1  0.180700  0.039900  0.172800  1.0  0.0124
  C  C214  1  0.154500  0.041300  0.225800  1.0  -0.1502
  C  C215  1  0.094500  0.034000  0.260000  1.0  0.6942
  C  C216  1  0.184000  0.049200  0.247600  1.0  -0.1304
  C  C217  1  0.240200  0.054600  0.215800  1.0  0.2968
  C  C218  1  0.266500  0.053500  0.162800  1.0  -0.1805
  C  C219  1  0.318700  0.056300  0.218800  1.0  0.0275
  C  C220  1  0.118000  0.010700  0.625000  1.0  0.6795
  C  C221  1  0.178000  0.018600  0.592600  1.0  -0.1383
  C  C222  1  0.206800  0.020500  0.616800  1.0  -0.0556
  C  C223  1  0.260700  0.024900  0.589200  1.0  -0.1439
  C  C224  1  0.291900  0.025600  0.616800  1.0  0.6896
  C  C225  1  0.289800  0.036700  0.528800  1.0  -0.0598
  C  C226  1  0.262800  0.036100  0.501800  1.0  0.2327
  C  C227  1  0.206800  0.027000  0.533200  1.0  -0.1267
  C  C228  1  0.312900  0.046800  0.352000  1.0  0.1947
  C  C229  1  0.363100  0.040600  0.342000  1.0  -0.2071
  C  C230  1  0.273400  0.046900  0.410000  1.0  -0.0845
  C  C231  1  0.384800  0.048300  0.248600  1.0  -0.193
  C  C232  1  0.335500  0.056500  0.259600  1.0  0.129
  C  C233  1  0.298300  0.051100  0.314800  1.0  -0.2136
  C  C234  1  0.398100  0.040200  0.291400  1.0  0.1872
  C  C235  1  0.746700  0.633600  0.252800  1.0  0.6835
  C  C236  1  0.774500  0.607200  0.218600  1.0  -0.1123
  C  C237  1  0.830600  0.633300  0.166600  1.0  0.0246
  C  C238  1  0.858800  0.606400  0.138000  1.0  -0.1481
  C  C239  1  0.919000  0.632300  0.087600  1.0  0.7012
  C  C240  1  0.830300  0.555000  0.160600  1.0  -0.0921
  C  C241  1  0.773300  0.529500  0.214000  1.0  0.1879
  C  C242  1  0.743500  0.558200  0.239000  1.0  -0.1515
  C  C243  1  0.689000  0.453900  0.276400  1.0  -0.0132
  C  C244  1  0.872300  0.262500  0.090800  1.0  0.6882
  C  C245  1  0.813700  0.235900  0.141800  1.0  -0.1228
  C  C246  1  0.787300  0.180700  0.172800  1.0  0.0041
  C  C247  1  0.732900  0.154500  0.225800  1.0  -0.1489
  C  C248  1  0.706000  0.094500  0.260000  1.0  0.6973
  C  C249  1  0.703200  0.184000  0.247600  1.0  -0.1298
  C  C250  1  0.729600  0.240200  0.215800  1.0  0.2916
  C  C251  1  0.783700  0.266500  0.162800  1.0  -0.1833
  C  C252  1  0.724900  0.318700  0.218800  1.0  0.0281
  C  C253  1  0.364300  0.118000  0.625000  1.0  0.6795
  C  C254  1  0.388800  0.178000  0.592600  1.0  -0.1389
  C  C255  1  0.362700  0.206800  0.616800  1.0  -0.0537
  C  C256  1  0.385900  0.260700  0.589200  1.0  -0.1416
  C  C257  1  0.357600  0.291900  0.616800  1.0  0.6887
  C  C258  1  0.434500  0.289800  0.528800  1.0  -0.0617
  C  C259  1  0.462100  0.262800  0.501800  1.0  0.2319
  C  C260  1  0.439800  0.206800  0.533200  1.0  -0.1276
  C  C261  1  0.601200  0.312900  0.352000  1.0  0.1952
  C  C262  1  0.617400  0.363100  0.342000  1.0  -0.2081
  C  C263  1  0.543100  0.273400  0.410000  1.0  -0.0819
  C  C264  1  0.703100  0.384800  0.248600  1.0  -0.1913
  C  C265  1  0.683900  0.335500  0.259600  1.0  0.1297
  C  C266  1  0.634100  0.298300  0.314800  1.0  -0.2122
  C  C267  1  0.668400  0.398100  0.291400  1.0  0.1882
  C  C268  1  0.000500  0.113600  0.252800  1.0  0.6827
  C  C269  1  0.006900  0.174200  0.218600  1.0  -0.1112
  C  C270  1  0.002800  0.200100  0.166600  1.0  0.0271
  C  C271  1  0.003200  0.255600  0.138000  1.0  -0.1481
  C  C272  1  0.993400  0.280100  0.087600  1.0  0.7019
  C  C273  1  0.009100  0.284400  0.160600  1.0  -0.0898
  C  C274  1  0.012700  0.256500  0.214000  1.0  0.1755
  C  C275  1  0.017500  0.202800  0.239000  1.0  -0.1563
  C  C276  1  0.034600  0.269700  0.276400  1.0  -0.0136
  C  C277  1  0.036900  0.646700  0.090800  1.0  0.7016
  C  C278  1  0.044500  0.622300  0.141800  1.0  -0.126
  C  C279  1  0.039900  0.646500  0.172800  1.0  0.0101
  C  C280  1  0.041300  0.619700  0.225800  1.0  -0.1513
  C  C281  1  0.034000  0.645500  0.260000  1.0  0.6978
  C  C282  1  0.049200  0.568400  0.247600  1.0  -0.1305
  C  C283  1  0.054600  0.544000  0.215800  1.0  0.2949
  C  C284  1  0.053500  0.570700  0.162800  1.0  -0.1822
  C  C285  1  0.056300  0.462500  0.218800  1.0  0.0283
  C  C286  1  0.010700  0.257000  0.625000  1.0  0.6816
  C  C287  1  0.018600  0.229400  0.592600  1.0  -0.1394
  C  C288  1  0.020500  0.176400  0.616800  1.0  -0.0552
  C  C289  1  0.024900  0.150100  0.589200  1.0  -0.1422
  C  C290  1  0.025600  0.091300  0.616800  1.0  0.6875
  C  C291  1  0.036700  0.181400  0.528800  1.0  -0.0601
  C  C292  1  0.036100  0.235400  0.501800  1.0  0.233
  C  C293  1  0.027000  0.260000  0.533200  1.0  -0.1256
  C  C294  1  0.046800  0.335100  0.352000  1.0  0.1932
  C  C295  1  0.040600  0.294900  0.342000  1.0  -0.2075
  C  C296  1  0.046900  0.316600  0.410000  1.0  -0.0861
  C  C297  1  0.048300  0.366600  0.248600  1.0  -0.1872
  C  C298  1  0.056500  0.404900  0.259600  1.0  0.1313
  C  C299  1  0.051100  0.386900  0.314800  1.0  -0.2135
  C  C300  1  0.040200  0.310500  0.291400  1.0  0.1879
  C  C301  1  0.886400  0.253300  0.747200  1.0  0.681
  C  C302  1  0.825800  0.225500  0.781400  1.0  -0.115
  C  C303  1  0.799900  0.169400  0.833400  1.0  0.0232
  C  C304  1  0.744400  0.141200  0.862000  1.0  -0.1488
  C  C305  1  0.719900  0.081000  0.912400  1.0  0.7046
  C  C306  1  0.715600  0.169700  0.839400  1.0  -0.0889
  C  C307  1  0.743500  0.226700  0.786000  1.0  0.1786
  C  C308  1  0.797200  0.256500  0.761000  1.0  -0.147
  C  C309  1  0.730300  0.311000  0.723600  1.0  -0.017
  C  C310  1  0.353300  0.127700  0.909200  1.0  0.6892
  C  C311  1  0.377700  0.186300  0.858200  1.0  -0.127
  C  C312  1  0.353500  0.212700  0.827200  1.0  0.0107
  C  C313  1  0.380300  0.267100  0.774200  1.0  -0.1498
  C  C314  1  0.354500  0.294000  0.740000  1.0  0.6957
  C  C315  1  0.431600  0.296800  0.752400  1.0  -0.1305
  C  C316  1  0.456000  0.270400  0.784200  1.0  0.2992
  C  C317  1  0.429300  0.216300  0.837200  1.0  -0.1859
  C  C318  1  0.537500  0.275100  0.781200  1.0  0.0301
  C  C319  1  0.743000  0.635700  0.375000  1.0  0.6805
  C  C320  1  0.770600  0.611200  0.407400  1.0  -0.1407
  C  C321  1  0.823600  0.637300  0.383200  1.0  -0.0605
  C  C322  1  0.849900  0.614100  0.410800  1.0  -0.1419
  C  C323  1  0.908700  0.642400  0.383200  1.0  0.6887
  C  C324  1  0.818600  0.565500  0.471200  1.0  -0.0637
  C  C325  1  0.764600  0.537900  0.498200  1.0  0.2337
  C  C326  1  0.740000  0.560200  0.466800  1.0  -0.129
  C  C327  1  0.664900  0.398800  0.648000  1.0  0.1945
  C  C328  1  0.705100  0.382600  0.658000  1.0  -0.2077
  C  C329  1  0.683400  0.456900  0.590000  1.0  -0.0811
  C  C330  1  0.633400  0.296900  0.751400  1.0  -0.1878
  C  C331  1  0.595100  0.316100  0.740400  1.0  0.1298
  C  C332  1  0.613100  0.365900  0.685200  1.0  -0.214
  C  C333  1  0.689500  0.331600  0.708600  1.0  0.1883
  C  C334  1  0.366400  0.999500  0.747200  1.0  0.6837
  C  C335  1  0.392800  0.993100  0.781400  1.0  -0.1129
  C  C336  1  0.366700  0.997200  0.833400  1.0  0.0308
  C  C337  1  0.393600  0.996800  0.862000  1.0  -0.1506
  C  C338  1  0.367700  0.006600  0.912400  1.0  0.7027
  C  C339  1  0.445000  0.990900  0.839400  1.0  -0.0895
  C  C340  1  0.470500  0.987300  0.786000  1.0  0.1755
  C  C341  1  0.441800  0.982500  0.761000  1.0  -0.1589
  C  C342  1  0.546100  0.965400  0.723600  1.0  -0.0155
  C  C343  1  0.737500  0.963100  0.909200  1.0  0.6862
  C  C344  1  0.764100  0.955500  0.858200  1.0  -0.1286
  C  C345  1  0.819300  0.960100  0.827200  1.0  0.0113
  C  C346  1  0.845500  0.958700  0.774200  1.0  -0.1498
  C  C347  1  0.905500  0.966000  0.740000  1.0  0.696
  C  C348  1  0.816000  0.950800  0.752400  1.0  -0.1306
  C  C349  1  0.759800  0.945400  0.784200  1.0  0.2909
  C  C350  1  0.733500  0.946500  0.837200  1.0  -0.1808
  C  C351  1  0.681300  0.943700  0.781200  1.0  0.0305
  C  C352  1  0.882000  0.989300  0.375000  1.0  0.6796
  C  C353  1  0.822000  0.981400  0.407400  1.0  -0.139
  C  C354  1  0.793200  0.979500  0.383200  1.0  -0.0542
  C  C355  1  0.739300  0.975100  0.410800  1.0  -0.1434
  C  C356  1  0.708100  0.974400  0.383200  1.0  0.6898
  C  C357  1  0.710200  0.963300  0.471200  1.0  -0.0597
  C  C358  1  0.737200  0.963900  0.498200  1.0  0.2254
  C  C359  1  0.793200  0.973000  0.466800  1.0  -0.1272
  C  C360  1  0.687100  0.953200  0.648000  1.0  0.1944
  C  C361  1  0.636900  0.959400  0.658000  1.0  -0.2074
  C  C362  1  0.726600  0.953100  0.590000  1.0  -0.0829
  C  C363  1  0.615200  0.951700  0.751400  1.0  -0.1895
  C  C364  1  0.664500  0.943500  0.740400  1.0  0.128
  C  C365  1  0.701700  0.948900  0.685200  1.0  -0.2133
  C  C366  1  0.601900  0.959800  0.708600  1.0  0.1875
  C  C367  1  0.253300  0.366400  0.747200  1.0  0.6842
  C  C368  1  0.225500  0.392800  0.781400  1.0  -0.1124
  C  C369  1  0.169400  0.366700  0.833400  1.0  0.0242
  C  C370  1  0.141200  0.393600  0.862000  1.0  -0.1481
  C  C371  1  0.081000  0.367700  0.912400  1.0  0.7009
  C  C372  1  0.169700  0.445000  0.839400  1.0  -0.0921
  C  C373  1  0.226700  0.470500  0.786000  1.0  0.1751
  C  C374  1  0.256500  0.441800  0.761000  1.0  -0.15
  C  C375  1  0.311000  0.546100  0.723600  1.0  -0.0138
  C  C376  1  0.127700  0.737500  0.909200  1.0  0.6902
  C  C377  1  0.186300  0.764100  0.858200  1.0  -0.1214
  C  C378  1  0.212700  0.819300  0.827200  1.0  0.0046
  C  C379  1  0.267100  0.845500  0.774200  1.0  -0.1494
  C  C380  1  0.294000  0.905500  0.740000  1.0  0.6965
  C  C381  1  0.296800  0.816000  0.752400  1.0  -0.1312
  C  C382  1  0.270400  0.759800  0.784200  1.0  0.2892
  C  C383  1  0.216300  0.733500  0.837200  1.0  -0.1832
  C  C384  1  0.275100  0.681300  0.781200  1.0  0.0295
  C  C385  1  0.635700  0.882000  0.375000  1.0  0.6816
  C  C386  1  0.611200  0.822000  0.407400  1.0  -0.1392
  C  C387  1  0.637300  0.793200  0.383200  1.0  -0.0541
  C  C388  1  0.614100  0.739300  0.410800  1.0  -0.1432
  C  C389  1  0.642400  0.708100  0.383200  1.0  0.6893
  C  C390  1  0.565500  0.710200  0.471200  1.0  -0.0611
  C  C391  1  0.537900  0.737200  0.498200  1.0  0.2313
  C  C392  1  0.560200  0.793200  0.466800  1.0  -0.1281
  C  C393  1  0.398800  0.687100  0.648000  1.0  0.1951
  C  C394  1  0.382600  0.636900  0.658000  1.0  -0.2086
  C  C395  1  0.456900  0.726600  0.590000  1.0  -0.0824
  C  C396  1  0.296900  0.615200  0.751400  1.0  -0.191
  C  C397  1  0.316100  0.664500  0.740400  1.0  0.13
  C  C398  1  0.365900  0.701700  0.685200  1.0  -0.2135
  C  C399  1  0.331600  0.601900  0.708600  1.0  0.1892
  C  C400  1  0.999500  0.886400  0.747200  1.0  0.6851
  C  C401  1  0.993100  0.825800  0.781400  1.0  -0.1115
  C  C402  1  0.997200  0.799900  0.833400  1.0  0.0274
  C  C403  1  0.996800  0.744400  0.862000  1.0  -0.1477
  C  C404  1  0.006600  0.719900  0.912400  1.0  0.7026
  C  C405  1  0.990900  0.715600  0.839400  1.0  -0.0891
  C  C406  1  0.987300  0.743500  0.786000  1.0  0.1758
  C  C407  1  0.982500  0.797200  0.761000  1.0  -0.156
  C  C408  1  0.965400  0.730300  0.723600  1.0  -0.0124
  C  C409  1  0.963100  0.353300  0.909200  1.0  0.7004
  C  C410  1  0.955500  0.377700  0.858200  1.0  -0.1248
  C  C411  1  0.960100  0.353500  0.827200  1.0  0.0111
  C  C412  1  0.958700  0.380300  0.774200  1.0  -0.1491
  C  C413  1  0.966000  0.354500  0.740000  1.0  0.6982
  C  C414  1  0.950800  0.431600  0.752400  1.0  -0.1324
  C  C415  1  0.945400  0.456000  0.784200  1.0  0.2919
  C  C416  1  0.946500  0.429300  0.837200  1.0  -0.1855
  C  C417  1  0.943700  0.537500  0.781200  1.0  0.0298
  C  C418  1  0.989300  0.743000  0.375000  1.0  0.6827
  C  C419  1  0.981400  0.770600  0.407400  1.0  -0.1401
  C  C420  1  0.979500  0.823600  0.383200  1.0  -0.0544
  C  C421  1  0.975100  0.849900  0.410800  1.0  -0.1428
  C  C422  1  0.974400  0.908700  0.383200  1.0  0.6897
  C  C423  1  0.963300  0.818600  0.471200  1.0  -0.0616
  C  C424  1  0.963900  0.764600  0.498200  1.0  0.2305
  C  C425  1  0.973000  0.740000  0.466800  1.0  -0.1262
  C  C426  1  0.953200  0.664900  0.648000  1.0  0.1937
  C  C427  1  0.959400  0.705100  0.658000  1.0  -0.2081
  C  C428  1  0.953100  0.683400  0.590000  1.0  -0.0849
  C  C429  1  0.951700  0.633400  0.751400  1.0  -0.1877
  C  C430  1  0.943500  0.595100  0.740400  1.0  0.1285
  C  C431  1  0.948900  0.613100  0.685200  1.0  -0.2136
  C  C432  1  0.959800  0.689500  0.708600  1.0  0.1873
  O  O433  1  0.253920  0.942570  0.065500  1.0  -0.6138
  O  O434  1  0.329540  0.942350  0.067180  1.0  -0.6036
  O  O435  1  0.090010  0.774980  0.228620  1.0  -0.5853
  O  O436  1  0.091530  0.697660  0.302940  1.0  -0.6198
  O  O437  1  0.292100  0.747200  0.227800  1.0  -0.2683
  O  O438  1  0.692880  0.733660  0.237180  1.0  -0.6413
  O  O439  1  0.615780  0.657400  0.314780  1.0  -0.6049
  O  O440  1  0.695370  0.897440  0.068680  1.0  -0.6078
  O  O441  1  0.621030  0.896370  0.065700  1.0  -0.6198
  O  O442  1  0.493600  0.696600  0.241000  1.0  -0.2884
  O  O443  1  0.303270  0.392200  0.602440  1.0  -0.6177
  O  O444  1  0.227690  0.314060  0.678680  1.0  -0.5865
  O  O445  1  0.067630  0.311240  0.669320  1.0  -0.6146
  O  O446  1  0.068830  0.385790  0.591100  1.0  -0.5918
  O  O447  1  0.261700  0.512000  0.440000  1.0  -0.2716
  O  O448  1  0.680580  0.991930  0.065500  1.0  -0.6165
  O  O449  1  0.603280  0.990470  0.067180  1.0  -0.6013
  O  O450  1  0.681370  0.996400  0.228620  1.0  -0.5846
  O  O451  1  0.605530  0.999400  0.302940  1.0  -0.6169
  O  O452  1  0.480100  0.025000  0.227800  1.0  -0.2623
  O  O453  1  0.069940  0.029160  0.237180  1.0  -0.6392
  O  O454  1  0.069440  0.027820  0.314780  1.0  -0.6028
  O  O455  1  0.235950  0.033880  0.068680  1.0  -0.6048
  O  O456  1  0.313270  0.037930  0.065700  1.0  -0.6256
  O  O457  1  0.265400  0.062400  0.241000  1.0  -0.292
  O  O458  1  0.094290  0.005360  0.602440  1.0  -0.6166
  O  O459  1  0.093630  0.007260  0.678680  1.0  -0.5854
  O  O460  1  0.263050  0.019440  0.669320  1.0  -0.6148
  O  O461  1  0.340070  0.023110  0.591100  1.0  -0.592
  O  O462  1  0.298300  0.048000  0.440000  1.0  -0.2739
  O  O463  1  0.942570  0.680580  0.065500  1.0  -0.6241
  O  O464  1  0.942350  0.603280  0.067180  1.0  -0.6041
  O  O465  1  0.774980  0.681370  0.228620  1.0  -0.5851
  O  O466  1  0.697660  0.605530  0.302940  1.0  -0.6194
  O  O467  1  0.747200  0.480100  0.227800  1.0  -0.2676
  O  O468  1  0.733660  0.069940  0.237180  1.0  -0.64
  O  O469  1  0.657400  0.069440  0.314780  1.0  -0.6033
  O  O470  1  0.897440  0.235950  0.068680  1.0  -0.6029
  O  O471  1  0.896370  0.313270  0.065700  1.0  -0.6184
  O  O472  1  0.696600  0.265400  0.241000  1.0  -0.2902
  O  O473  1  0.392200  0.094290  0.602440  1.0  -0.6178
  O  O474  1  0.314060  0.093630  0.678680  1.0  -0.5845
  O  O475  1  0.311240  0.263050  0.669320  1.0  -0.6152
  O  O476  1  0.385790  0.340070  0.591100  1.0  -0.5901
  O  O477  1  0.512000  0.298300  0.440000  1.0  -0.2687
  O  O478  1  0.991930  0.253920  0.065500  1.0  -0.6167
  O  O479  1  0.990470  0.329540  0.067180  1.0  -0.6007
  O  O480  1  0.996400  0.090010  0.228620  1.0  -0.5839
  O  O481  1  0.999400  0.091530  0.302940  1.0  -0.6174
  O  O482  1  0.025000  0.292100  0.227800  1.0  -0.2657
  O  O483  1  0.029160  0.692880  0.237180  1.0  -0.6401
  O  O484  1  0.027820  0.615780  0.314780  1.0  -0.6051
  O  O485  1  0.033880  0.695370  0.068680  1.0  -0.6018
  O  O486  1  0.037930  0.621030  0.065700  1.0  -0.6229
  O  O487  1  0.062400  0.493600  0.241000  1.0  -0.2886
  O  O488  1  0.005360  0.303270  0.602440  1.0  -0.6173
  O  O489  1  0.007260  0.227690  0.678680  1.0  -0.5878
  O  O490  1  0.019440  0.067630  0.669320  1.0  -0.6123
  O  O491  1  0.023110  0.068830  0.591100  1.0  -0.5901
  O  O492  1  0.048000  0.261700  0.440000  1.0  -0.2734
  O  O493  1  0.746080  0.057430  0.934500  1.0  -0.613
  O  O494  1  0.670460  0.057650  0.932820  1.0  -0.604
  O  O495  1  0.909990  0.225020  0.771380  1.0  -0.5869
  O  O496  1  0.908470  0.302340  0.697060  1.0  -0.6209
  O  O497  1  0.707900  0.252800  0.772200  1.0  -0.2638
  O  O498  1  0.307120  0.266340  0.762820  1.0  -0.6413
  O  O499  1  0.384220  0.342600  0.685220  1.0  -0.6031
  O  O500  1  0.304630  0.102560  0.931320  1.0  -0.6088
  O  O501  1  0.378970  0.103630  0.934300  1.0  -0.6178
  O  O502  1  0.506400  0.303400  0.759000  1.0  -0.2905
  O  O503  1  0.696730  0.607800  0.397560  1.0  -0.6177
  O  O504  1  0.772310  0.685940  0.321320  1.0  -0.5841
  O  O505  1  0.932370  0.688760  0.330680  1.0  -0.615
  O  O506  1  0.931170  0.614210  0.408900  1.0  -0.5926
  O  O507  1  0.738300  0.488000  0.560000  1.0  -0.269
  O  O508  1  0.319420  0.008070  0.934500  1.0  -0.6179
  O  O509  1  0.396720  0.009530  0.932820  1.0  -0.6012
  O  O510  1  0.318630  0.003600  0.771380  1.0  -0.5854
  O  O511  1  0.394470  0.000600  0.697060  1.0  -0.619
  O  O512  1  0.519900  0.975000  0.772200  1.0  -0.2605
  O  O513  1  0.930060  0.970840  0.762820  1.0  -0.6387
  O  O514  1  0.930560  0.972180  0.685220  1.0  -0.603
  O  O515  1  0.764050  0.966120  0.931320  1.0  -0.6061
  O  O516  1  0.686730  0.962070  0.934300  1.0  -0.6275
  O  O517  1  0.734600  0.937600  0.759000  1.0  -0.2915
  O  O518  1  0.905710  0.994640  0.397560  1.0  -0.6154
  O  O519  1  0.906370  0.992740  0.321320  1.0  -0.585
  O  O520  1  0.736950  0.980560  0.330680  1.0  -0.6125
  O  O521  1  0.659930  0.976890  0.408900  1.0  -0.5912
  O  O522  1  0.701700  0.952000  0.560000  1.0  -0.2722
  O  O523  1  0.057430  0.319420  0.934500  1.0  -0.6224
  O  O524  1  0.057650  0.396720  0.932820  1.0  -0.6035
  O  O525  1  0.225020  0.318630  0.771380  1.0  -0.5866
  O  O526  1  0.302340  0.394470  0.697060  1.0  -0.62
  O  O527  1  0.252800  0.519900  0.772200  1.0  -0.266
  O  O528  1  0.266340  0.930060  0.762820  1.0  -0.6405
  O  O529  1  0.342600  0.930560  0.685220  1.0  -0.6019
  O  O530  1  0.102560  0.764050  0.931320  1.0  -0.6029
  O  O531  1  0.103630  0.686730  0.934300  1.0  -0.6189
  O  O532  1  0.303400  0.734600  0.759000  1.0  -0.2925
  O  O533  1  0.607800  0.905710  0.397560  1.0  -0.6166
  O  O534  1  0.685940  0.906370  0.321320  1.0  -0.584
  O  O535  1  0.688760  0.736950  0.330680  1.0  -0.6142
  O  O536  1  0.614210  0.659930  0.408900  1.0  -0.5932
  O  O537  1  0.488000  0.701700  0.560000  1.0  -0.2702
  O  O538  1  0.008070  0.746080  0.934500  1.0  -0.6183
  O  O539  1  0.009530  0.670460  0.932820  1.0  -0.5991
  O  O540  1  0.003600  0.909990  0.771380  1.0  -0.5844
  O  O541  1  0.000600  0.908470  0.697060  1.0  -0.6207
  O  O542  1  0.975000  0.707900  0.772200  1.0  -0.2641
  O  O543  1  0.970840  0.307120  0.762820  1.0  -0.6393
  O  O544  1  0.972180  0.384220  0.685220  1.0  -0.6061
  O  O545  1  0.966120  0.304630  0.931320  1.0  -0.6008
  O  O546  1  0.962070  0.378970  0.934300  1.0  -0.6249
  O  O547  1  0.937600  0.506400  0.759000  1.0  -0.2887
  O  O548  1  0.994640  0.696730  0.397560  1.0  -0.6177
  O  O549  1  0.992740  0.772310  0.321320  1.0  -0.5875
  O  O550  1  0.980560  0.932370  0.330680  1.0  -0.6119
  O  O551  1  0.976890  0.931170  0.408900  1.0  -0.5899
  O  O552  1  0.952000  0.738300  0.560000  1.0  -0.2685
