# generated using pymatgen
data_Ag3H72(C39N10)2
_symmetry_space_group_name_H-M   'P 1'
_cell_length_a   25.57400000
_cell_length_b   25.57400000
_cell_length_c   25.57400000
_cell_angle_alpha   90.00000000
_cell_angle_beta   90.00000000
_cell_angle_gamma   90.00000000
_symmetry_Int_Tables_number   1
_chemical_formula_structural   Ag3H72(C39N10)2
_chemical_formula_sum   'Ag12 H288 C312 N80'
_cell_volume   16726.14981922
_cell_formula_units_Z   4
loop_
 _symmetry_equiv_pos_site_id
 _symmetry_equiv_pos_as_xyz
  1  'x, y, z'
loop_
 _atom_site_type_symbol
 _atom_site_label
 _atom_site_symmetry_multiplicity
 _atom_site_fract_x
 _atom_site_fract_y
 _atom_site_fract_z
 _atom_site_occupancy
 _atom_site_charge
  Ag  Ag1  1  0.250000  0.891330  0.000000  1.0  0.419
  Ag  Ag2  1  0.250000  0.108670  0.500000  1.0  0.415
  Ag  Ag3  1  0.750000  0.391330  0.500000  1.0  0.419
  Ag  Ag4  1  0.750000  0.608670  0.000000  1.0  0.415
  Ag  Ag5  1  0.000000  0.250000  0.891330  1.0  0.4134
  Ag  Ag6  1  0.500000  0.250000  0.108670  1.0  0.412
  Ag  Ag7  1  0.500000  0.750000  0.391330  1.0  0.4134
  Ag  Ag8  1  0.000000  0.750000  0.608670  1.0  0.412
  Ag  Ag9  1  0.891330  0.000000  0.250000  1.0  0.4246
  Ag  Ag10  1  0.108670  0.500000  0.250000  1.0  0.4233
  Ag  Ag11  1  0.391330  0.500000  0.750000  1.0  0.4246
  Ag  Ag12  1  0.608670  0.000000  0.750000  1.0  0.4233
  H  H13  1  0.214600  0.962800  0.134200  1.0  0.2143
  H  H14  1  0.187400  0.791800  0.032100  1.0  0.1163
  H  H15  1  0.127000  0.765000  0.098800  1.0  0.1187
  H  H16  1  0.126700  0.815200  0.179400  1.0  0.1019
  H  H17  1  0.157700  0.896400  0.181600  1.0  0.1183
  H  H18  1  0.224300  0.022800  0.132800  1.0  0.1202
  H  H19  1  0.236600  0.070300  0.096100  1.0  0.1087
  H  H20  1  0.278600  0.051000  0.136400  1.0  0.1107
  H  H21  1  0.300500  0.093000  0.039100  1.0  0.1268
  H  H22  1  0.366700  0.116200  0.979200  1.0  0.1074
  H  H23  1  0.410300  0.964500  0.971000  1.0  0.1259
  H  H24  1  0.343900  0.938700  0.023100  1.0  0.1279
  H  H25  1  0.714600  0.462800  0.634200  1.0  0.2143
  H  H26  1  0.687400  0.291800  0.532100  1.0  0.1173
  H  H27  1  0.627000  0.265000  0.598800  1.0  0.1165
  H  H28  1  0.626700  0.315200  0.679400  1.0  0.1019
  H  H29  1  0.657700  0.396400  0.681600  1.0  0.1183
  H  H30  1  0.724300  0.522800  0.632800  1.0  0.1202
  H  H31  1  0.736600  0.570300  0.596100  1.0  0.1087
  H  H32  1  0.778600  0.551000  0.636400  1.0  0.1107
  H  H33  1  0.800500  0.593000  0.539100  1.0  0.1268
  H  H34  1  0.866700  0.616200  0.479200  1.0  0.1074
  H  H35  1  0.910300  0.464500  0.471000  1.0  0.1259
  H  H36  1  0.843900  0.438700  0.523100  1.0  0.1279
  H  H37  1  0.285400  0.037200  0.634200  1.0  0.2161
  H  H38  1  0.312600  0.208200  0.532100  1.0  0.1176
  H  H39  1  0.373000  0.235000  0.598800  1.0  0.1151
  H  H40  1  0.373300  0.184800  0.679400  1.0  0.1016
  H  H41  1  0.342300  0.103600  0.681600  1.0  0.119
  H  H42  1  0.275700  0.977200  0.632800  1.0  0.1196
  H  H43  1  0.263400  0.929700  0.596100  1.0  0.1093
  H  H44  1  0.221400  0.949000  0.636400  1.0  0.1112
  H  H45  1  0.199500  0.907000  0.539100  1.0  0.127
  H  H46  1  0.133300  0.883800  0.479200  1.0  0.1071
  H  H47  1  0.089700  0.035500  0.471000  1.0  0.1262
  H  H48  1  0.156100  0.061300  0.523100  1.0  0.1281
  H  H49  1  0.785400  0.537200  0.134200  1.0  0.2161
  H  H50  1  0.812600  0.708200  0.032100  1.0  0.1177
  H  H51  1  0.873000  0.735000  0.098800  1.0  0.1178
  H  H52  1  0.873300  0.684800  0.179400  1.0  0.1016
  H  H53  1  0.842300  0.603600  0.181600  1.0  0.119
  H  H54  1  0.775700  0.477200  0.132800  1.0  0.1196
  H  H55  1  0.763400  0.429700  0.096100  1.0  0.1093
  H  H56  1  0.721400  0.449000  0.136400  1.0  0.1112
  H  H57  1  0.699500  0.407000  0.039100  1.0  0.127
  H  H58  1  0.633300  0.383800  0.979200  1.0  0.1071
  H  H59  1  0.589700  0.535500  0.971000  1.0  0.1262
  H  H60  1  0.656100  0.561300  0.023100  1.0  0.1281
  H  H61  1  0.785400  0.462800  0.365800  1.0  0.215
  H  H62  1  0.812600  0.291800  0.467900  1.0  0.1177
  H  H63  1  0.873000  0.265000  0.401200  1.0  0.1164
  H  H64  1  0.873300  0.315200  0.320600  1.0  0.1013
  H  H65  1  0.842300  0.396400  0.318400  1.0  0.1188
  H  H66  1  0.775700  0.522800  0.367200  1.0  0.1183
  H  H67  1  0.763400  0.570300  0.403900  1.0  0.1076
  H  H68  1  0.721400  0.551000  0.363600  1.0  0.1101
  H  H69  1  0.699500  0.593000  0.460900  1.0  0.1264
  H  H70  1  0.633300  0.616200  0.520800  1.0  0.1068
  H  H71  1  0.589700  0.464500  0.529000  1.0  0.1253
  H  H72  1  0.656100  0.438700  0.476900  1.0  0.1279
  H  H73  1  0.285400  0.962800  0.865800  1.0  0.215
  H  H74  1  0.312600  0.791800  0.967900  1.0  0.1177
  H  H75  1  0.373000  0.765000  0.901200  1.0  0.1164
  H  H76  1  0.373300  0.815200  0.820600  1.0  0.1013
  H  H77  1  0.342300  0.896400  0.818400  1.0  0.1188
  H  H78  1  0.275700  0.022800  0.867200  1.0  0.1183
  H  H79  1  0.263400  0.070300  0.903900  1.0  0.1076
  H  H80  1  0.221400  0.051000  0.863600  1.0  0.1101
  H  H81  1  0.199500  0.093000  0.960900  1.0  0.1264
  H  H82  1  0.133300  0.116200  0.020800  1.0  0.1068
  H  H83  1  0.089700  0.964500  0.029000  1.0  0.1253
  H  H84  1  0.156100  0.938700  0.976900  1.0  0.1279
  H  H85  1  0.714600  0.537200  0.865800  1.0  0.2133
  H  H86  1  0.687400  0.708200  0.967900  1.0  0.1194
  H  H87  1  0.627000  0.735000  0.901200  1.0  0.1151
  H  H88  1  0.626700  0.684800  0.820600  1.0  0.1013
  H  H89  1  0.657700  0.603600  0.818400  1.0  0.1187
  H  H90  1  0.724300  0.477200  0.867200  1.0  0.1187
  H  H91  1  0.736600  0.429700  0.903900  1.0  0.1082
  H  H92  1  0.778600  0.449000  0.863600  1.0  0.1097
  H  H93  1  0.800500  0.407000  0.960900  1.0  0.1273
  H  H94  1  0.866700  0.383800  0.020800  1.0  0.1077
  H  H95  1  0.910300  0.535500  0.029000  1.0  0.1254
  H  H96  1  0.843900  0.561300  0.976900  1.0  0.1279
  H  H97  1  0.214600  0.037200  0.365800  1.0  0.2133
  H  H98  1  0.187400  0.208200  0.467900  1.0  0.1184
  H  H99  1  0.127000  0.235000  0.401200  1.0  0.1151
  H  H100  1  0.126700  0.184800  0.320600  1.0  0.1013
  H  H101  1  0.157700  0.103600  0.318400  1.0  0.1187
  H  H102  1  0.224300  0.977200  0.367200  1.0  0.1187
  H  H103  1  0.236600  0.929700  0.403900  1.0  0.1082
  H  H104  1  0.278600  0.949000  0.363600  1.0  0.1097
  H  H105  1  0.300500  0.907000  0.460900  1.0  0.1273
  H  H106  1  0.366700  0.883800  0.520800  1.0  0.1077
  H  H107  1  0.410300  0.035500  0.529000  1.0  0.1254
  H  H108  1  0.343900  0.061300  0.476900  1.0  0.1279
  H  H109  1  0.134200  0.214600  0.962800  1.0  0.2177
  H  H110  1  0.032100  0.187400  0.791800  1.0  0.1159
  H  H111  1  0.098800  0.127000  0.765000  1.0  0.1147
  H  H112  1  0.179400  0.126700  0.815200  1.0  0.1004
  H  H113  1  0.181600  0.157700  0.896400  1.0  0.1189
  H  H114  1  0.132800  0.224300  0.022800  1.0  0.12
  H  H115  1  0.096100  0.236600  0.070300  1.0  0.1122
  H  H116  1  0.136400  0.278600  0.051000  1.0  0.1098
  H  H117  1  0.039100  0.300500  0.093000  1.0  0.1267
  H  H118  1  0.979200  0.366700  0.116200  1.0  0.1077
  H  H119  1  0.971000  0.410300  0.964500  1.0  0.125
  H  H120  1  0.023100  0.343900  0.938700  1.0  0.1303
  H  H121  1  0.634200  0.714600  0.462800  1.0  0.2177
  H  H122  1  0.532100  0.687400  0.291800  1.0  0.1168
  H  H123  1  0.598800  0.627000  0.265000  1.0  0.1119
  H  H124  1  0.679400  0.626700  0.315200  1.0  0.1004
  H  H125  1  0.681600  0.657700  0.396400  1.0  0.1189
  H  H126  1  0.632800  0.724300  0.522800  1.0  0.12
  H  H127  1  0.596100  0.736600  0.570300  1.0  0.1122
  H  H128  1  0.636400  0.778600  0.551000  1.0  0.1098
  H  H129  1  0.539100  0.800500  0.593000  1.0  0.1267
  H  H130  1  0.479200  0.866700  0.616200  1.0  0.1077
  H  H131  1  0.471000  0.910300  0.464500  1.0  0.125
  H  H132  1  0.523100  0.843900  0.438700  1.0  0.1303
  H  H133  1  0.634200  0.285400  0.037200  1.0  0.2168
  H  H134  1  0.532100  0.312600  0.208200  1.0  0.1162
  H  H135  1  0.598800  0.373000  0.235000  1.0  0.1123
  H  H136  1  0.679400  0.373300  0.184800  1.0  0.1006
  H  H137  1  0.681600  0.342300  0.103600  1.0  0.1194
  H  H138  1  0.632800  0.275700  0.977200  1.0  0.1201
  H  H139  1  0.596100  0.263400  0.929700  1.0  0.1124
  H  H140  1  0.636400  0.221400  0.949000  1.0  0.1102
  H  H141  1  0.539100  0.199500  0.907000  1.0  0.1266
  H  H142  1  0.479200  0.133300  0.883800  1.0  0.1093
  H  H143  1  0.471000  0.089700  0.035500  1.0  0.1246
  H  H144  1  0.523100  0.156100  0.061300  1.0  0.1294
  H  H145  1  0.134200  0.785400  0.537200  1.0  0.2168
  H  H146  1  0.032100  0.812600  0.708200  1.0  0.1164
  H  H147  1  0.098800  0.873000  0.735000  1.0  0.115
  H  H148  1  0.179400  0.873300  0.684800  1.0  0.1006
  H  H149  1  0.181600  0.842300  0.603600  1.0  0.1194
  H  H150  1  0.132800  0.775700  0.477200  1.0  0.1201
  H  H151  1  0.096100  0.763400  0.429700  1.0  0.1124
  H  H152  1  0.136400  0.721400  0.449000  1.0  0.1102
  H  H153  1  0.039100  0.699500  0.407000  1.0  0.1266
  H  H154  1  0.979200  0.633300  0.383800  1.0  0.1093
  H  H155  1  0.971000  0.589700  0.535500  1.0  0.1246
  H  H156  1  0.023100  0.656100  0.561300  1.0  0.1294
  H  H157  1  0.365800  0.785400  0.462800  1.0  0.2148
  H  H158  1  0.467900  0.812600  0.291800  1.0  0.1167
  H  H159  1  0.401200  0.873000  0.265000  1.0  0.1116
  H  H160  1  0.320600  0.873300  0.315200  1.0  0.1005
  H  H161  1  0.318400  0.842300  0.396400  1.0  0.1184
  H  H162  1  0.367200  0.775700  0.522800  1.0  0.1197
  H  H163  1  0.403900  0.763400  0.570300  1.0  0.1108
  H  H164  1  0.363600  0.721400  0.551000  1.0  0.1107
  H  H165  1  0.460900  0.699500  0.593000  1.0  0.1275
  H  H166  1  0.520800  0.633300  0.616200  1.0  0.1078
  H  H167  1  0.529000  0.589700  0.464500  1.0  0.1244
  H  H168  1  0.476900  0.656100  0.438700  1.0  0.1298
  H  H169  1  0.865800  0.285400  0.962800  1.0  0.2148
  H  H170  1  0.967900  0.312600  0.791800  1.0  0.1167
  H  H171  1  0.901200  0.373000  0.765000  1.0  0.1116
  H  H172  1  0.820600  0.373300  0.815200  1.0  0.1005
  H  H173  1  0.818400  0.342300  0.896400  1.0  0.1184
  H  H174  1  0.867200  0.275700  0.022800  1.0  0.1197
  H  H175  1  0.903900  0.263400  0.070300  1.0  0.1108
  H  H176  1  0.863600  0.221400  0.051000  1.0  0.1107
  H  H177  1  0.960900  0.199500  0.093000  1.0  0.1275
  H  H178  1  0.020800  0.133300  0.116200  1.0  0.1078
  H  H179  1  0.029000  0.089700  0.964500  1.0  0.1244
  H  H180  1  0.976900  0.156100  0.938700  1.0  0.1298
  H  H181  1  0.865800  0.714600  0.537200  1.0  0.2151
  H  H182  1  0.967900  0.687400  0.708200  1.0  0.118
  H  H183  1  0.901200  0.627000  0.735000  1.0  0.1122
  H  H184  1  0.820600  0.626700  0.684800  1.0  0.1011
  H  H185  1  0.818400  0.657700  0.603600  1.0  0.1187
  H  H186  1  0.867200  0.724300  0.477200  1.0  0.1193
  H  H187  1  0.903900  0.736600  0.429700  1.0  0.1102
  H  H188  1  0.863600  0.778600  0.449000  1.0  0.1102
  H  H189  1  0.960900  0.800500  0.407000  1.0  0.127
  H  H190  1  0.020800  0.866700  0.383800  1.0  0.1085
  H  H191  1  0.029000  0.910300  0.535500  1.0  0.1244
  H  H192  1  0.976900  0.843900  0.561300  1.0  0.1299
  H  H193  1  0.365800  0.214600  0.037200  1.0  0.2151
  H  H194  1  0.467900  0.187400  0.208200  1.0  0.1164
  H  H195  1  0.401200  0.127000  0.235000  1.0  0.1122
  H  H196  1  0.320600  0.126700  0.184800  1.0  0.1011
  H  H197  1  0.318400  0.157700  0.103600  1.0  0.1187
  H  H198  1  0.367200  0.224300  0.977200  1.0  0.1193
  H  H199  1  0.403900  0.236600  0.929700  1.0  0.1102
  H  H200  1  0.363600  0.278600  0.949000  1.0  0.1102
  H  H201  1  0.460900  0.300500  0.907000  1.0  0.127
  H  H202  1  0.520800  0.366700  0.883800  1.0  0.1085
  H  H203  1  0.529000  0.410300  0.035500  1.0  0.1244
  H  H204  1  0.476900  0.343900  0.061300  1.0  0.1299
  H  H205  1  0.962800  0.134200  0.214600  1.0  0.2172
  H  H206  1  0.791800  0.032100  0.187400  1.0  0.1155
  H  H207  1  0.765000  0.098800  0.127000  1.0  0.1149
  H  H208  1  0.815200  0.179400  0.126700  1.0  0.1004
  H  H209  1  0.896400  0.181600  0.157700  1.0  0.1197
  H  H210  1  0.022800  0.132800  0.224300  1.0  0.1182
  H  H211  1  0.070300  0.096100  0.236600  1.0  0.1088
  H  H212  1  0.051000  0.136400  0.278600  1.0  0.1099
  H  H213  1  0.093000  0.039100  0.300500  1.0  0.1261
  H  H214  1  0.116200  0.979200  0.366700  1.0  0.1065
  H  H215  1  0.964500  0.971000  0.410300  1.0  0.1241
  H  H216  1  0.938700  0.023100  0.343900  1.0  0.1298
  H  H217  1  0.462800  0.634200  0.714600  1.0  0.2172
  H  H218  1  0.291800  0.532100  0.687400  1.0  0.1162
  H  H219  1  0.265000  0.598800  0.627000  1.0  0.1128
  H  H220  1  0.315200  0.679400  0.626700  1.0  0.1004
  H  H221  1  0.396400  0.681600  0.657700  1.0  0.1197
  H  H222  1  0.522800  0.632800  0.724300  1.0  0.1182
  H  H223  1  0.570300  0.596100  0.736600  1.0  0.1088
  H  H224  1  0.551000  0.636400  0.778600  1.0  0.1099
  H  H225  1  0.593000  0.539100  0.800500  1.0  0.1261
  H  H226  1  0.616200  0.479200  0.866700  1.0  0.1065
  H  H227  1  0.464500  0.471000  0.910300  1.0  0.1241
  H  H228  1  0.438700  0.523100  0.843900  1.0  0.1298
  H  H229  1  0.037200  0.634200  0.285400  1.0  0.2165
  H  H230  1  0.208200  0.532100  0.312600  1.0  0.1171
  H  H231  1  0.235000  0.598800  0.373000  1.0  0.1134
  H  H232  1  0.184800  0.679400  0.373300  1.0  0.1005
  H  H233  1  0.103600  0.681600  0.342300  1.0  0.1203
  H  H234  1  0.977200  0.632800  0.275700  1.0  0.1174
  H  H235  1  0.929700  0.596100  0.263400  1.0  0.1082
  H  H236  1  0.949000  0.636400  0.221400  1.0  0.1096
  H  H237  1  0.907000  0.539100  0.199500  1.0  0.126
  H  H238  1  0.883800  0.479200  0.133300  1.0  0.1073
  H  H239  1  0.035500  0.471000  0.089700  1.0  0.124
  H  H240  1  0.061300  0.523100  0.156100  1.0  0.1292
  H  H241  1  0.537200  0.134200  0.785400  1.0  0.2165
  H  H242  1  0.708200  0.032100  0.812600  1.0  0.1171
  H  H243  1  0.735000  0.098800  0.873000  1.0  0.1165
  H  H244  1  0.684800  0.179400  0.873300  1.0  0.1005
  H  H245  1  0.603600  0.181600  0.842300  1.0  0.1203
  H  H246  1  0.477200  0.132800  0.775700  1.0  0.1174
  H  H247  1  0.429700  0.096100  0.763400  1.0  0.1082
  H  H248  1  0.449000  0.136400  0.721400  1.0  0.1096
  H  H249  1  0.407000  0.039100  0.699500  1.0  0.126
  H  H250  1  0.383800  0.979200  0.633300  1.0  0.1073
  H  H251  1  0.535500  0.971000  0.589700  1.0  0.124
  H  H252  1  0.561300  0.023100  0.656100  1.0  0.1292
  H  H253  1  0.462800  0.365800  0.785400  1.0  0.2166
  H  H254  1  0.291800  0.467900  0.812600  1.0  0.117
  H  H255  1  0.265000  0.401200  0.873000  1.0  0.1139
  H  H256  1  0.315200  0.320600  0.873300  1.0  0.1004
  H  H257  1  0.396400  0.318400  0.842300  1.0  0.1199
  H  H258  1  0.522800  0.367200  0.775700  1.0  0.1185
  H  H259  1  0.570300  0.403900  0.763400  1.0  0.1082
  H  H260  1  0.551000  0.363600  0.721400  1.0  0.1098
  H  H261  1  0.593000  0.460900  0.699500  1.0  0.126
  H  H262  1  0.616200  0.520800  0.633300  1.0  0.1063
  H  H263  1  0.464500  0.529000  0.589700  1.0  0.1243
  H  H264  1  0.438700  0.476900  0.656100  1.0  0.1299
  H  H265  1  0.962800  0.865800  0.285400  1.0  0.2166
  H  H266  1  0.791800  0.967900  0.312600  1.0  0.117
  H  H267  1  0.765000  0.901200  0.373000  1.0  0.1139
  H  H268  1  0.815200  0.820600  0.373300  1.0  0.1004
  H  H269  1  0.896400  0.818400  0.342300  1.0  0.1199
  H  H270  1  0.022800  0.867200  0.275700  1.0  0.1185
  H  H271  1  0.070300  0.903900  0.263400  1.0  0.1082
  H  H272  1  0.051000  0.863600  0.221400  1.0  0.1098
  H  H273  1  0.093000  0.960900  0.199500  1.0  0.126
  H  H274  1  0.116200  0.020800  0.133300  1.0  0.1063
  H  H275  1  0.964500  0.029000  0.089700  1.0  0.1243
  H  H276  1  0.938700  0.976900  0.156100  1.0  0.1299
  H  H277  1  0.537200  0.865800  0.714600  1.0  0.2153
  H  H278  1  0.708200  0.967900  0.687400  1.0  0.1184
  H  H279  1  0.735000  0.901200  0.627000  1.0  0.1133
  H  H280  1  0.684800  0.820600  0.626700  1.0  0.0998
  H  H281  1  0.603600  0.818400  0.657700  1.0  0.1196
  H  H282  1  0.477200  0.867200  0.724300  1.0  0.1158
  H  H283  1  0.429700  0.903900  0.736600  1.0  0.1077
  H  H284  1  0.449000  0.863600  0.778600  1.0  0.1102
  H  H285  1  0.407000  0.960900  0.800500  1.0  0.126
  H  H286  1  0.383800  0.020800  0.866700  1.0  0.1073
  H  H287  1  0.535500  0.029000  0.910300  1.0  0.1234
  H  H288  1  0.561300  0.976900  0.843900  1.0  0.1295
  H  H289  1  0.037200  0.365800  0.214600  1.0  0.2153
  H  H290  1  0.208200  0.467900  0.187400  1.0  0.1178
  H  H291  1  0.235000  0.401200  0.127000  1.0  0.1133
  H  H292  1  0.184800  0.320600  0.126700  1.0  0.0998
  H  H293  1  0.103600  0.318400  0.157700  1.0  0.1196
  H  H294  1  0.977200  0.367200  0.224300  1.0  0.1158
  H  H295  1  0.929700  0.403900  0.236600  1.0  0.1077
  H  H296  1  0.949000  0.363600  0.278600  1.0  0.1102
  H  H297  1  0.907000  0.460900  0.300500  1.0  0.126
  H  H298  1  0.883800  0.520800  0.366700  1.0  0.1073
  H  H299  1  0.035500  0.529000  0.410300  1.0  0.1234
  H  H300  1  0.061300  0.476900  0.343900  1.0  0.1295
  C  C301  1  0.179200  0.813600  0.060000  1.0  0.1357
  C  C302  1  0.146000  0.795900  0.101700  1.0  -0.1152
  C  C303  1  0.143000  0.828800  0.149900  1.0  -0.0935
  C  C304  1  0.162600  0.875800  0.152100  1.0  -0.1926
  C  C305  1  0.191700  0.895500  0.108200  1.0  0.2545
  C  C306  1  0.274100  0.001400  0.070700  1.0  0.0796
  C  C307  1  0.251200  0.040200  0.113200  1.0  -0.3629
  C  C308  1  0.315500  0.012900  0.036200  1.0  0.0199
  C  C309  1  0.322300  0.067900  0.024500  1.0  -0.1497
  C  C310  1  0.362700  0.081900  0.990500  1.0  -0.1975
  C  C311  1  0.394800  0.045000  0.975100  1.0  0.1282
  C  C312  1  0.387600  0.989000  0.985600  1.0  -0.1135
  C  C313  1  0.349100  0.973800  0.015500  1.0  -0.1005
  C  C314  1  0.679200  0.313600  0.560000  1.0  0.1357
  C  C315  1  0.646000  0.295900  0.601700  1.0  -0.1152
  C  C316  1  0.643000  0.328800  0.649900  1.0  -0.0935
  C  C317  1  0.662600  0.375800  0.652100  1.0  -0.1926
  C  C318  1  0.691700  0.395500  0.608200  1.0  0.2545
  C  C319  1  0.774100  0.501400  0.570700  1.0  0.0796
  C  C320  1  0.751200  0.540200  0.613200  1.0  -0.3629
  C  C321  1  0.815500  0.512900  0.536200  1.0  0.0199
  C  C322  1  0.822300  0.567900  0.524500  1.0  -0.1497
  C  C323  1  0.862700  0.581900  0.490500  1.0  -0.1975
  C  C324  1  0.894800  0.545000  0.475100  1.0  0.1282
  C  C325  1  0.887600  0.489000  0.485600  1.0  -0.1135
  C  C326  1  0.849100  0.473800  0.515500  1.0  -0.1005
  C  C327  1  0.320800  0.186400  0.560000  1.0  0.1316
  C  C328  1  0.354000  0.204100  0.601700  1.0  -0.1138
  C  C329  1  0.357000  0.171200  0.649900  1.0  -0.0954
  C  C330  1  0.337400  0.124200  0.652100  1.0  -0.1938
  C  C331  1  0.308300  0.104500  0.608200  1.0  0.2535
  C  C332  1  0.225900  0.998600  0.570700  1.0  0.0808
  C  C333  1  0.248800  0.959800  0.613200  1.0  -0.3638
  C  C334  1  0.184500  0.987100  0.536200  1.0  0.0207
  C  C335  1  0.177700  0.932100  0.524500  1.0  -0.1487
  C  C336  1  0.137300  0.918100  0.490500  1.0  -0.198
  C  C337  1  0.105200  0.955000  0.475100  1.0  0.1259
  C  C338  1  0.112400  0.011000  0.485600  1.0  -0.1131
  C  C339  1  0.150900  0.026200  0.515500  1.0  -0.1019
  C  C340  1  0.820800  0.686400  0.060000  1.0  0.1316
  C  C341  1  0.854000  0.704100  0.101700  1.0  -0.1138
  C  C342  1  0.857000  0.671200  0.149900  1.0  -0.0954
  C  C343  1  0.837400  0.624200  0.152100  1.0  -0.1938
  C  C344  1  0.808300  0.604500  0.108200  1.0  0.2535
  C  C345  1  0.725900  0.498600  0.070700  1.0  0.0808
  C  C346  1  0.748800  0.459800  0.113200  1.0  -0.3638
  C  C347  1  0.684500  0.487100  0.036200  1.0  0.0207
  C  C348  1  0.677700  0.432100  0.024500  1.0  -0.1487
  C  C349  1  0.637300  0.418100  0.990500  1.0  -0.198
  C  C350  1  0.605200  0.455000  0.975100  1.0  0.1259
  C  C351  1  0.612400  0.511000  0.985600  1.0  -0.1131
  C  C352  1  0.650900  0.526200  0.015500  1.0  -0.1019
  C  C353  1  0.820800  0.313600  0.440000  1.0  0.1339
  C  C354  1  0.854000  0.295900  0.398300  1.0  -0.1143
  C  C355  1  0.857000  0.328800  0.350100  1.0  -0.095
  C  C356  1  0.837400  0.375800  0.347900  1.0  -0.191
  C  C357  1  0.808300  0.395500  0.391800  1.0  0.254
  C  C358  1  0.725900  0.501400  0.429300  1.0  0.0783
  C  C359  1  0.748800  0.540200  0.386800  1.0  -0.3639
  C  C360  1  0.684500  0.512900  0.463800  1.0  0.0199
  C  C361  1  0.677700  0.567900  0.475500  1.0  -0.1495
  C  C362  1  0.637300  0.581900  0.509500  1.0  -0.199
  C  C363  1  0.605200  0.545000  0.524900  1.0  0.126
  C  C364  1  0.612400  0.489000  0.514400  1.0  -0.1138
  C  C365  1  0.650900  0.473800  0.484500  1.0  -0.1016
  C  C366  1  0.320800  0.813600  0.940000  1.0  0.1339
  C  C367  1  0.354000  0.795900  0.898300  1.0  -0.1143
  C  C368  1  0.357000  0.828800  0.850100  1.0  -0.095
  C  C369  1  0.337400  0.875800  0.847900  1.0  -0.191
  C  C370  1  0.308300  0.895500  0.891800  1.0  0.254
  C  C371  1  0.225900  0.001400  0.929300  1.0  0.0783
  C  C372  1  0.248800  0.040200  0.886800  1.0  -0.3639
  C  C373  1  0.184500  0.012900  0.963800  1.0  0.0199
  C  C374  1  0.177700  0.067900  0.975500  1.0  -0.1495
  C  C375  1  0.137300  0.081900  0.009500  1.0  -0.199
  C  C376  1  0.105200  0.045000  0.024900  1.0  0.126
  C  C377  1  0.112400  0.989000  0.014400  1.0  -0.1138
  C  C378  1  0.150900  0.973800  0.984500  1.0  -0.1016
  C  C379  1  0.679200  0.686400  0.940000  1.0  0.1318
  C  C380  1  0.646000  0.704100  0.898300  1.0  -0.1134
  C  C381  1  0.643000  0.671200  0.850100  1.0  -0.095
  C  C382  1  0.662600  0.624200  0.847900  1.0  -0.1925
  C  C383  1  0.691700  0.604500  0.891800  1.0  0.2543
  C  C384  1  0.774100  0.498600  0.929300  1.0  0.0782
  C  C385  1  0.751200  0.459800  0.886800  1.0  -0.3644
  C  C386  1  0.815500  0.487100  0.963800  1.0  0.0201
  C  C387  1  0.822300  0.432100  0.975500  1.0  -0.1498
  C  C388  1  0.862700  0.418100  0.009500  1.0  -0.1965
  C  C389  1  0.894800  0.455000  0.024900  1.0  0.1273
  C  C390  1  0.887600  0.511000  0.014400  1.0  -0.1135
  C  C391  1  0.849100  0.526200  0.984500  1.0  -0.0987
  C  C392  1  0.179200  0.186400  0.440000  1.0  0.1318
  C  C393  1  0.146000  0.204100  0.398300  1.0  -0.1134
  C  C394  1  0.143000  0.171200  0.350100  1.0  -0.095
  C  C395  1  0.162600  0.124200  0.347900  1.0  -0.1925
  C  C396  1  0.191700  0.104500  0.391800  1.0  0.2543
  C  C397  1  0.274100  0.998600  0.429300  1.0  0.0782
  C  C398  1  0.251200  0.959800  0.386800  1.0  -0.3644
  C  C399  1  0.315500  0.987100  0.463800  1.0  0.0201
  C  C400  1  0.322300  0.932100  0.475500  1.0  -0.1498
  C  C401  1  0.362700  0.918100  0.509500  1.0  -0.1965
  C  C402  1  0.394800  0.955000  0.524900  1.0  0.1273
  C  C403  1  0.387600  0.011000  0.514400  1.0  -0.1135
  C  C404  1  0.349100  0.026200  0.484500  1.0  -0.0987
  C  C405  1  0.060000  0.179200  0.813600  1.0  0.1358
  C  C406  1  0.101700  0.146000  0.795900  1.0  -0.1157
  C  C407  1  0.149900  0.143000  0.828800  1.0  -0.0953
  C  C408  1  0.152100  0.162600  0.875800  1.0  -0.1869
  C  C409  1  0.108200  0.191700  0.895500  1.0  0.2519
  C  C410  1  0.070700  0.274100  0.001400  1.0  0.0838
  C  C411  1  0.113200  0.251200  0.040200  1.0  -0.3636
  C  C412  1  0.036200  0.315500  0.012900  1.0  0.0204
  C  C413  1  0.024500  0.322300  0.067900  1.0  -0.149
  C  C414  1  0.990500  0.362700  0.081900  1.0  -0.1981
  C  C415  1  0.975100  0.394800  0.045000  1.0  0.1271
  C  C416  1  0.985600  0.387600  0.989000  1.0  -0.1129
  C  C417  1  0.015500  0.349100  0.973800  1.0  -0.0975
  C  C418  1  0.560000  0.679200  0.313600  1.0  0.1358
  C  C419  1  0.601700  0.646000  0.295900  1.0  -0.1157
  C  C420  1  0.649900  0.643000  0.328800  1.0  -0.0953
  C  C421  1  0.652100  0.662600  0.375800  1.0  -0.1869
  C  C422  1  0.608200  0.691700  0.395500  1.0  0.2519
  C  C423  1  0.570700  0.774100  0.501400  1.0  0.0838
  C  C424  1  0.613200  0.751200  0.540200  1.0  -0.3636
  C  C425  1  0.536200  0.815500  0.512900  1.0  0.0204
  C  C426  1  0.524500  0.822300  0.567900  1.0  -0.149
  C  C427  1  0.490500  0.862700  0.581900  1.0  -0.1981
  C  C428  1  0.475100  0.894800  0.545000  1.0  0.1271
  C  C429  1  0.485600  0.887600  0.489000  1.0  -0.1129
  C  C430  1  0.515500  0.849100  0.473800  1.0  -0.0975
  C  C431  1  0.560000  0.320800  0.186400  1.0  0.1353
  C  C432  1  0.601700  0.354000  0.204100  1.0  -0.1138
  C  C433  1  0.649900  0.357000  0.171200  1.0  -0.093
  C  C434  1  0.652100  0.337400  0.124200  1.0  -0.1875
  C  C435  1  0.608200  0.308300  0.104500  1.0  0.2521
  C  C436  1  0.570700  0.225900  0.998600  1.0  0.0821
  C  C437  1  0.613200  0.248800  0.959800  1.0  -0.3631
  C  C438  1  0.536200  0.184500  0.987100  1.0  0.02
  C  C439  1  0.524500  0.177700  0.932100  1.0  -0.1485
  C  C440  1  0.490500  0.137300  0.918100  1.0  -0.1981
  C  C441  1  0.475100  0.105200  0.955000  1.0  0.1279
  C  C442  1  0.485600  0.112400  0.011000  1.0  -0.1115
  C  C443  1  0.515500  0.150900  0.026200  1.0  -0.1001
  C  C444  1  0.060000  0.820800  0.686400  1.0  0.1353
  C  C445  1  0.101700  0.854000  0.704100  1.0  -0.1138
  C  C446  1  0.149900  0.857000  0.671200  1.0  -0.093
  C  C447  1  0.152100  0.837400  0.624200  1.0  -0.1875
  C  C448  1  0.108200  0.808300  0.604500  1.0  0.2521
  C  C449  1  0.070700  0.725900  0.498600  1.0  0.0821
  C  C450  1  0.113200  0.748800  0.459800  1.0  -0.3631
  C  C451  1  0.036200  0.684500  0.487100  1.0  0.02
  C  C452  1  0.024500  0.677700  0.432100  1.0  -0.1485
  C  C453  1  0.990500  0.637300  0.418100  1.0  -0.1981
  C  C454  1  0.975100  0.605200  0.455000  1.0  0.1279
  C  C455  1  0.985600  0.612400  0.511000  1.0  -0.1115
  C  C456  1  0.015500  0.650900  0.526200  1.0  -0.1001
  C  C457  1  0.440000  0.820800  0.313600  1.0  0.1346
  C  C458  1  0.398300  0.854000  0.295900  1.0  -0.1172
  C  C459  1  0.350100  0.857000  0.328800  1.0  -0.0959
  C  C460  1  0.347900  0.837400  0.375800  1.0  -0.1871
  C  C461  1  0.391800  0.808300  0.395500  1.0  0.2523
  C  C462  1  0.429300  0.725900  0.501400  1.0  0.0835
  C  C463  1  0.386800  0.748800  0.540200  1.0  -0.3624
  C  C464  1  0.463800  0.684500  0.512900  1.0  0.0206
  C  C465  1  0.475500  0.677700  0.567900  1.0  -0.1492
  C  C466  1  0.509500  0.637300  0.581900  1.0  -0.1968
  C  C467  1  0.524900  0.605200  0.545000  1.0  0.1272
  C  C468  1  0.514400  0.612400  0.489000  1.0  -0.1124
  C  C469  1  0.484500  0.650900  0.473800  1.0  -0.0961
  C  C470  1  0.940000  0.320800  0.813600  1.0  0.1346
  C  C471  1  0.898300  0.354000  0.795900  1.0  -0.1172
  C  C472  1  0.850100  0.357000  0.828800  1.0  -0.0959
  C  C473  1  0.847900  0.337400  0.875800  1.0  -0.1871
  C  C474  1  0.891800  0.308300  0.895500  1.0  0.2523
  C  C475  1  0.929300  0.225900  0.001400  1.0  0.0835
  C  C476  1  0.886800  0.248800  0.040200  1.0  -0.3624
  C  C477  1  0.963800  0.184500  0.012900  1.0  0.0206
  C  C478  1  0.975500  0.177700  0.067900  1.0  -0.1492
  C  C479  1  0.009500  0.137300  0.081900  1.0  -0.1968
  C  C480  1  0.024900  0.105200  0.045000  1.0  0.1272
  C  C481  1  0.014400  0.112400  0.989000  1.0  -0.1124
  C  C482  1  0.984500  0.150900  0.973800  1.0  -0.0961
  C  C483  1  0.940000  0.679200  0.686400  1.0  0.1357
  C  C484  1  0.898300  0.646000  0.704100  1.0  -0.1129
  C  C485  1  0.850100  0.643000  0.671200  1.0  -0.0945
  C  C486  1  0.847900  0.662600  0.624200  1.0  -0.1887
  C  C487  1  0.891800  0.691700  0.604500  1.0  0.253
  C  C488  1  0.929300  0.774100  0.498600  1.0  0.0821
  C  C489  1  0.886800  0.751200  0.459800  1.0  -0.3629
  C  C490  1  0.963800  0.815500  0.487100  1.0  0.0209
  C  C491  1  0.975500  0.822300  0.432100  1.0  -0.149
  C  C492  1  0.009500  0.862700  0.418100  1.0  -0.198
  C  C493  1  0.024900  0.894800  0.455000  1.0  0.1263
  C  C494  1  0.014400  0.887600  0.511000  1.0  -0.1122
  C  C495  1  0.984500  0.849100  0.526200  1.0  -0.0998
  C  C496  1  0.440000  0.179200  0.186400  1.0  0.1357
  C  C497  1  0.398300  0.146000  0.204100  1.0  -0.1129
  C  C498  1  0.350100  0.143000  0.171200  1.0  -0.0945
  C  C499  1  0.347900  0.162600  0.124200  1.0  -0.1887
  C  C500  1  0.391800  0.191700  0.104500  1.0  0.253
  C  C501  1  0.429300  0.274100  0.998600  1.0  0.0821
  C  C502  1  0.386800  0.251200  0.959800  1.0  -0.3629
  C  C503  1  0.463800  0.315500  0.987100  1.0  0.0209
  C  C504  1  0.475500  0.322300  0.932100  1.0  -0.149
  C  C505  1  0.509500  0.362700  0.918100  1.0  -0.198
  C  C506  1  0.524900  0.394800  0.955000  1.0  0.1263
  C  C507  1  0.514400  0.387600  0.011000  1.0  -0.1122
  C  C508  1  0.484500  0.349100  0.026200  1.0  -0.0998
  C  C509  1  0.813600  0.060000  0.179200  1.0  0.1369
  C  C510  1  0.795900  0.101700  0.146000  1.0  -0.1158
  C  C511  1  0.828800  0.149900  0.143000  1.0  -0.0944
  C  C512  1  0.875800  0.152100  0.162600  1.0  -0.1898
  C  C513  1  0.895500  0.108200  0.191700  1.0  0.2527
  C  C514  1  0.001400  0.070700  0.274100  1.0  0.0793
  C  C515  1  0.040200  0.113200  0.251200  1.0  -0.3623
  C  C516  1  0.012900  0.036200  0.315500  1.0  0.0209
  C  C517  1  0.067900  0.024500  0.322300  1.0  -0.1504
  C  C518  1  0.081900  0.990500  0.362700  1.0  -0.198
  C  C519  1  0.045000  0.975100  0.394800  1.0  0.1268
  C  C520  1  0.989000  0.985600  0.387600  1.0  -0.1066
  C  C521  1  0.973800  0.015500  0.349100  1.0  -0.1028
  C  C522  1  0.313600  0.560000  0.679200  1.0  0.1369
  C  C523  1  0.295900  0.601700  0.646000  1.0  -0.1158
  C  C524  1  0.328800  0.649900  0.643000  1.0  -0.0944
  C  C525  1  0.375800  0.652100  0.662600  1.0  -0.1898
  C  C526  1  0.395500  0.608200  0.691700  1.0  0.2527
  C  C527  1  0.501400  0.570700  0.774100  1.0  0.0793
  C  C528  1  0.540200  0.613200  0.751200  1.0  -0.3623
  C  C529  1  0.512900  0.536200  0.815500  1.0  0.0209
  C  C530  1  0.567900  0.524500  0.822300  1.0  -0.1504
  C  C531  1  0.581900  0.490500  0.862700  1.0  -0.198
  C  C532  1  0.545000  0.475100  0.894800  1.0  0.1268
  C  C533  1  0.489000  0.485600  0.887600  1.0  -0.1066
  C  C534  1  0.473800  0.515500  0.849100  1.0  -0.1028
  C  C535  1  0.186400  0.560000  0.320800  1.0  0.1365
  C  C536  1  0.204100  0.601700  0.354000  1.0  -0.1108
  C  C537  1  0.171200  0.649900  0.357000  1.0  -0.0911
  C  C538  1  0.124200  0.652100  0.337400  1.0  -0.1876
  C  C539  1  0.104500  0.608200  0.308300  1.0  0.2528
  C  C540  1  0.998600  0.570700  0.225900  1.0  0.0806
  C  C541  1  0.959800  0.613200  0.248800  1.0  -0.3628
  C  C542  1  0.987100  0.536200  0.184500  1.0  0.0208
  C  C543  1  0.932100  0.524500  0.177700  1.0  -0.15
  C  C544  1  0.918100  0.490500  0.137300  1.0  -0.1972
  C  C545  1  0.955000  0.475100  0.105200  1.0  0.1285
  C  C546  1  0.011000  0.485600  0.112400  1.0  -0.1046
  C  C547  1  0.026200  0.515500  0.150900  1.0  -0.0983
  C  C548  1  0.686400  0.060000  0.820800  1.0  0.1365
  C  C549  1  0.704100  0.101700  0.854000  1.0  -0.1108
  C  C550  1  0.671200  0.149900  0.857000  1.0  -0.0911
  C  C551  1  0.624200  0.152100  0.837400  1.0  -0.1876
  C  C552  1  0.604500  0.108200  0.808300  1.0  0.2528
  C  C553  1  0.498600  0.070700  0.725900  1.0  0.0806
  C  C554  1  0.459800  0.113200  0.748800  1.0  -0.3628
  C  C555  1  0.487100  0.036200  0.684500  1.0  0.0208
  C  C556  1  0.432100  0.024500  0.677700  1.0  -0.15
  C  C557  1  0.418100  0.990500  0.637300  1.0  -0.1972
  C  C558  1  0.455000  0.975100  0.605200  1.0  0.1285
  C  C559  1  0.511000  0.985600  0.612400  1.0  -0.1046
  C  C560  1  0.526200  0.015500  0.650900  1.0  -0.0983
  C  C561  1  0.313600  0.440000  0.820800  1.0  0.1369
  C  C562  1  0.295900  0.398300  0.854000  1.0  -0.1145
  C  C563  1  0.328800  0.350100  0.857000  1.0  -0.0932
  C  C564  1  0.375800  0.347900  0.837400  1.0  -0.1886
  C  C565  1  0.395500  0.391800  0.808300  1.0  0.2523
  C  C566  1  0.501400  0.429300  0.725900  1.0  0.0803
  C  C567  1  0.540200  0.386800  0.748800  1.0  -0.3626
  C  C568  1  0.512900  0.463800  0.684500  1.0  0.0202
  C  C569  1  0.567900  0.475500  0.677700  1.0  -0.1505
  C  C570  1  0.581900  0.509500  0.637300  1.0  -0.1982
  C  C571  1  0.545000  0.524900  0.605200  1.0  0.127
  C  C572  1  0.489000  0.514400  0.612400  1.0  -0.106
  C  C573  1  0.473800  0.484500  0.650900  1.0  -0.1019
  C  C574  1  0.813600  0.940000  0.320800  1.0  0.1369
  C  C575  1  0.795900  0.898300  0.354000  1.0  -0.1145
  C  C576  1  0.828800  0.850100  0.357000  1.0  -0.0932
  C  C577  1  0.875800  0.847900  0.337400  1.0  -0.1886
  C  C578  1  0.895500  0.891800  0.308300  1.0  0.2523
  C  C579  1  0.001400  0.929300  0.225900  1.0  0.0803
  C  C580  1  0.040200  0.886800  0.248800  1.0  -0.3626
  C  C581  1  0.012900  0.963800  0.184500  1.0  0.0202
  C  C582  1  0.067900  0.975500  0.177700  1.0  -0.1505
  C  C583  1  0.081900  0.009500  0.137300  1.0  -0.1982
  C  C584  1  0.045000  0.024900  0.105200  1.0  0.127
  C  C585  1  0.989000  0.014400  0.112400  1.0  -0.106
  C  C586  1  0.973800  0.984500  0.150900  1.0  -0.1019
  C  C587  1  0.686400  0.940000  0.679200  1.0  0.1354
  C  C588  1  0.704100  0.898300  0.646000  1.0  -0.1112
  C  C589  1  0.671200  0.850100  0.643000  1.0  -0.0898
  C  C590  1  0.624200  0.847900  0.662600  1.0  -0.1883
  C  C591  1  0.604500  0.891800  0.691700  1.0  0.2511
  C  C592  1  0.498600  0.929300  0.774100  1.0  0.0789
  C  C593  1  0.459800  0.886800  0.751200  1.0  -0.3622
  C  C594  1  0.487100  0.963800  0.815500  1.0  0.0206
  C  C595  1  0.432100  0.975500  0.822300  1.0  -0.1499
  C  C596  1  0.418100  0.009500  0.862700  1.0  -0.1971
  C  C597  1  0.455000  0.024900  0.894800  1.0  0.1284
  C  C598  1  0.511000  0.014400  0.887600  1.0  -0.1044
  C  C599  1  0.526200  0.984500  0.849100  1.0  -0.1003
  C  C600  1  0.186400  0.440000  0.179200  1.0  0.1354
  C  C601  1  0.204100  0.398300  0.146000  1.0  -0.1112
  C  C602  1  0.171200  0.350100  0.143000  1.0  -0.0898
  C  C603  1  0.124200  0.347900  0.162600  1.0  -0.1883
  C  C604  1  0.104500  0.391800  0.191700  1.0  0.2511
  C  C605  1  0.998600  0.429300  0.274100  1.0  0.0789
  C  C606  1  0.959800  0.386800  0.251200  1.0  -0.3622
  C  C607  1  0.987100  0.463800  0.315500  1.0  0.0206
  C  C608  1  0.932100  0.475500  0.322300  1.0  -0.1499
  C  C609  1  0.918100  0.509500  0.362700  1.0  -0.1971
  C  C610  1  0.955000  0.524900  0.394800  1.0  0.1284
  C  C611  1  0.011000  0.514400  0.387600  1.0  -0.1044
  C  C612  1  0.026200  0.484500  0.349100  1.0  -0.1003
  N  N613  1  0.198100  0.863100  0.062500  1.0  -0.3787
  N  N614  1  0.219200  0.940900  0.109100  1.0  -0.2321
  N  N615  1  0.254000  0.951900  0.070600  1.0  -0.3188
  N  N616  1  0.698100  0.363100  0.562500  1.0  -0.3787
  N  N617  1  0.719200  0.440900  0.609100  1.0  -0.2321
  N  N618  1  0.754000  0.451900  0.570600  1.0  -0.3188
  N  N619  1  0.301900  0.136900  0.562500  1.0  -0.3807
  N  N620  1  0.280800  0.059100  0.609100  1.0  -0.2329
  N  N621  1  0.246000  0.048100  0.570600  1.0  -0.3191
  N  N622  1  0.801900  0.636900  0.062500  1.0  -0.3807
  N  N623  1  0.780800  0.559100  0.109100  1.0  -0.2329
  N  N624  1  0.746000  0.548100  0.070600  1.0  -0.3191
  N  N625  1  0.801900  0.363100  0.437500  1.0  -0.379
  N  N626  1  0.780800  0.440900  0.390900  1.0  -0.2321
  N  N627  1  0.746000  0.451900  0.429400  1.0  -0.3197
  N  N628  1  0.301900  0.863100  0.937500  1.0  -0.379
  N  N629  1  0.280800  0.940900  0.890900  1.0  -0.2321
  N  N630  1  0.246000  0.951900  0.929400  1.0  -0.3197
  N  N631  1  0.698100  0.636900  0.937500  1.0  -0.381
  N  N632  1  0.719200  0.559100  0.890900  1.0  -0.2325
  N  N633  1  0.754000  0.548100  0.929400  1.0  -0.3194
  N  N634  1  0.198100  0.136900  0.437500  1.0  -0.381
  N  N635  1  0.219200  0.059100  0.390900  1.0  -0.2325
  N  N636  1  0.254000  0.048100  0.429400  1.0  -0.3194
  N  N637  1  0.062500  0.198100  0.863100  1.0  -0.3774
  N  N638  1  0.109100  0.219200  0.940900  1.0  -0.2333
  N  N639  1  0.070600  0.254000  0.951900  1.0  -0.3198
  N  N640  1  0.562500  0.698100  0.363100  1.0  -0.3774
  N  N641  1  0.609100  0.719200  0.440900  1.0  -0.2333
  N  N642  1  0.570600  0.754000  0.451900  1.0  -0.3198
  N  N643  1  0.562500  0.301900  0.136900  1.0  -0.3763
  N  N644  1  0.609100  0.280800  0.059100  1.0  -0.2312
  N  N645  1  0.570600  0.246000  0.048100  1.0  -0.3201
  N  N646  1  0.062500  0.801900  0.636900  1.0  -0.3763
  N  N647  1  0.109100  0.780800  0.559100  1.0  -0.2312
  N  N648  1  0.070600  0.746000  0.548100  1.0  -0.3201
  N  N649  1  0.437500  0.801900  0.363100  1.0  -0.3776
  N  N650  1  0.390900  0.780800  0.440900  1.0  -0.2323
  N  N651  1  0.429400  0.746000  0.451900  1.0  -0.3173
  N  N652  1  0.937500  0.301900  0.863100  1.0  -0.3776
  N  N653  1  0.890900  0.280800  0.940900  1.0  -0.2323
  N  N654  1  0.929400  0.246000  0.951900  1.0  -0.3173
  N  N655  1  0.937500  0.698100  0.636900  1.0  -0.3765
  N  N656  1  0.890900  0.719200  0.559100  1.0  -0.2311
  N  N657  1  0.929400  0.754000  0.548100  1.0  -0.3188
  N  N658  1  0.437500  0.198100  0.136900  1.0  -0.3765
  N  N659  1  0.390900  0.219200  0.059100  1.0  -0.2311
  N  N660  1  0.429400  0.254000  0.048100  1.0  -0.3188
  N  N661  1  0.863100  0.062500  0.198100  1.0  -0.3724
  N  N662  1  0.940900  0.109100  0.219200  1.0  -0.2329
  N  N663  1  0.951900  0.070600  0.254000  1.0  -0.318
  N  N664  1  0.363100  0.562500  0.698100  1.0  -0.3724
  N  N665  1  0.440900  0.609100  0.719200  1.0  -0.2329
  N  N666  1  0.451900  0.570600  0.754000  1.0  -0.318
  N  N667  1  0.136900  0.562500  0.301900  1.0  -0.3751
  N  N668  1  0.059100  0.609100  0.280800  1.0  -0.2329
  N  N669  1  0.048100  0.570600  0.246000  1.0  -0.3182
  N  N670  1  0.636900  0.062500  0.801900  1.0  -0.3751
  N  N671  1  0.559100  0.109100  0.780800  1.0  -0.2329
  N  N672  1  0.548100  0.070600  0.746000  1.0  -0.3182
  N  N673  1  0.363100  0.437500  0.801900  1.0  -0.3736
  N  N674  1  0.440900  0.390900  0.780800  1.0  -0.2327
  N  N675  1  0.451900  0.429400  0.746000  1.0  -0.3161
  N  N676  1  0.863100  0.937500  0.301900  1.0  -0.3736
  N  N677  1  0.940900  0.890900  0.280800  1.0  -0.2327
  N  N678  1  0.951900  0.929400  0.246000  1.0  -0.3161
  N  N679  1  0.636900  0.937500  0.698100  1.0  -0.3755
  N  N680  1  0.559100  0.890900  0.719200  1.0  -0.2307
  N  N681  1  0.548100  0.929400  0.754000  1.0  -0.3181
  N  N682  1  0.136900  0.437500  0.198100  1.0  -0.3755
  N  N683  1  0.059100  0.390900  0.219200  1.0  -0.2307
  N  N684  1  0.048100  0.429400  0.254000  1.0  -0.3181
  N  N685  1  0.440400  0.059600  0.940400  1.0  -0.218
  N  N686  1  0.940400  0.559600  0.440400  1.0  -0.218
  N  N687  1  0.059600  0.940400  0.440400  1.0  -0.2186
  N  N688  1  0.559600  0.440400  0.940400  1.0  -0.2186
  N  N689  1  0.559600  0.559600  0.559600  1.0  -0.2185
  N  N690  1  0.059600  0.059600  0.059600  1.0  -0.2185
  N  N691  1  0.940400  0.440400  0.059600  1.0  -0.2175
  N  N692  1  0.440400  0.940400  0.559600  1.0  -0.2175
