# generated using pymatgen
data_Ag3H72(C39N10)2
_symmetry_space_group_name_H-M   'P 1'
_cell_length_a   25.68860000
_cell_length_b   25.68860000
_cell_length_c   25.68860000
_cell_angle_alpha   90.00000000
_cell_angle_beta   90.00000000
_cell_angle_gamma   90.00000000
_symmetry_Int_Tables_number   1
_chemical_formula_structural   Ag3H72(C39N10)2
_chemical_formula_sum   'Ag12 H288 C312 N80'
_cell_volume   16952.01426043
_cell_formula_units_Z   4
loop_
 _symmetry_equiv_pos_site_id
 _symmetry_equiv_pos_as_xyz
  1  'x, y, z'
loop_
 _atom_site_type_symbol
 _atom_site_label
 _atom_site_symmetry_multiplicity
 _atom_site_fract_x
 _atom_site_fract_y
 _atom_site_fract_z
 _atom_site_occupancy
 _atom_site_charge
  Ag  Ag1  1  0.394100  0.000000  0.250000  1.0  0.4006
  Ag  Ag2  1  0.105900  0.000000  0.750000  1.0  0.4008
  Ag  Ag3  1  0.605900  0.500000  0.250000  1.0  0.4008
  Ag  Ag4  1  0.894100  0.500000  0.750000  1.0  0.4005
  Ag  Ag5  1  0.250000  0.394100  0.000000  1.0  0.3961
  Ag  Ag6  1  0.750000  0.105900  0.000000  1.0  0.3929
  Ag  Ag7  1  0.250000  0.605900  0.500000  1.0  0.3928
  Ag  Ag8  1  0.750000  0.894100  0.500000  1.0  0.396
  Ag  Ag9  1  0.000000  0.250000  0.394100  1.0  0.3895
  Ag  Ag10  1  0.000000  0.750000  0.105900  1.0  0.3889
  Ag  Ag11  1  0.500000  0.250000  0.605900  1.0  0.3889
  Ag  Ag12  1  0.500000  0.750000  0.894100  1.0  0.3895
  H  H13  1  0.463200  0.131700  0.288400  1.0  0.1952
  H  H14  1  0.298500  0.032300  0.320900  1.0  0.087
  H  H15  1  0.270400  0.099400  0.373500  1.0  0.1023
  H  H16  1  0.315400  0.176600  0.373100  1.0  0.0996
  H  H17  1  0.397700  0.179100  0.337700  1.0  0.0901
  H  H18  1  0.528400  0.131900  0.275500  1.0  0.1002
  H  H19  1  0.554500  0.132500  0.220400  1.0  0.1015
  H  H20  1  0.572200  0.091600  0.262100  1.0  0.1017
  H  H21  1  0.594800  0.034600  0.200900  1.0  0.1141
  H  H22  1  0.616700  0.981900  0.131900  1.0  0.0779
  H  H23  1  0.466800  0.972100  0.092000  1.0  0.1073
  H  H24  1  0.444900  0.023200  0.157700  1.0  0.0793
  H  H25  1  0.963200  0.631700  0.788400  1.0  0.1952
  H  H26  1  0.798500  0.532300  0.820900  1.0  0.0869
  H  H27  1  0.770400  0.599400  0.873500  1.0  0.1023
  H  H28  1  0.815400  0.676600  0.873100  1.0  0.0996
  H  H29  1  0.897700  0.679100  0.837700  1.0  0.09
  H  H30  1  0.028400  0.631900  0.775500  1.0  0.1002
  H  H31  1  0.054500  0.632500  0.720400  1.0  0.1015
  H  H32  1  0.072200  0.591600  0.762100  1.0  0.1017
  H  H33  1  0.094800  0.534600  0.700900  1.0  0.1141
  H  H34  1  0.116700  0.481900  0.631900  1.0  0.0779
  H  H35  1  0.966800  0.472100  0.592000  1.0  0.1073
  H  H36  1  0.944900  0.523200  0.657700  1.0  0.0793
  H  H37  1  0.036800  0.868300  0.788400  1.0  0.1944
  H  H38  1  0.201500  0.967700  0.820900  1.0  0.0875
  H  H39  1  0.229600  0.900600  0.873500  1.0  0.1015
  H  H40  1  0.184600  0.823400  0.873100  1.0  0.0992
  H  H41  1  0.102300  0.820900  0.837700  1.0  0.09
  H  H42  1  0.971600  0.868100  0.775500  1.0  0.1008
  H  H43  1  0.945500  0.867500  0.720400  1.0  0.1004
  H  H44  1  0.927800  0.908400  0.762100  1.0  0.1008
  H  H45  1  0.905200  0.965400  0.700900  1.0  0.1131
  H  H46  1  0.883300  0.018100  0.631900  1.0  0.0776
  H  H47  1  0.033200  0.027900  0.592000  1.0  0.1084
  H  H48  1  0.055100  0.976800  0.657700  1.0  0.0781
  H  H49  1  0.536800  0.368300  0.288400  1.0  0.1944
  H  H50  1  0.701500  0.467700  0.320900  1.0  0.0873
  H  H51  1  0.729600  0.400600  0.373500  1.0  0.1015
  H  H52  1  0.684600  0.323400  0.373100  1.0  0.0992
  H  H53  1  0.602300  0.320900  0.337700  1.0  0.0901
  H  H54  1  0.471600  0.368100  0.275500  1.0  0.1008
  H  H55  1  0.445500  0.367500  0.220400  1.0  0.1004
  H  H56  1  0.427800  0.408400  0.262100  1.0  0.1008
  H  H57  1  0.405200  0.465400  0.200900  1.0  0.113
  H  H58  1  0.383300  0.518100  0.131900  1.0  0.0776
  H  H59  1  0.533200  0.527900  0.092000  1.0  0.1084
  H  H60  1  0.555100  0.476800  0.157700  1.0  0.0781
  H  H61  1  0.536800  0.631700  0.211600  1.0  0.1964
  H  H62  1  0.701500  0.532300  0.179100  1.0  0.087
  H  H63  1  0.729600  0.599400  0.126500  1.0  0.1019
  H  H64  1  0.684600  0.676600  0.126900  1.0  0.0992
  H  H65  1  0.602300  0.679100  0.162300  1.0  0.0903
  H  H66  1  0.471600  0.631900  0.224500  1.0  0.1007
  H  H67  1  0.445500  0.632500  0.279600  1.0  0.1009
  H  H68  1  0.427800  0.591600  0.237900  1.0  0.1017
  H  H69  1  0.405200  0.534600  0.299100  1.0  0.1129
  H  H70  1  0.383300  0.481900  0.368100  1.0  0.0775
  H  H71  1  0.533200  0.472100  0.408000  1.0  0.1078
  H  H72  1  0.555100  0.523200  0.342300  1.0  0.0794
  H  H73  1  0.036800  0.131700  0.711600  1.0  0.1964
  H  H74  1  0.201500  0.032300  0.679100  1.0  0.087
  H  H75  1  0.229600  0.099400  0.626500  1.0  0.1019
  H  H76  1  0.184600  0.176600  0.626900  1.0  0.0992
  H  H77  1  0.102300  0.179100  0.662300  1.0  0.0903
  H  H78  1  0.971600  0.131900  0.724500  1.0  0.1007
  H  H79  1  0.945500  0.132500  0.779600  1.0  0.1009
  H  H80  1  0.927800  0.091600  0.737900  1.0  0.1017
  H  H81  1  0.905200  0.034600  0.799100  1.0  0.1129
  H  H82  1  0.883300  0.981900  0.868100  1.0  0.0775
  H  H83  1  0.033200  0.972100  0.908000  1.0  0.1078
  H  H84  1  0.055100  0.023200  0.842300  1.0  0.0794
  H  H85  1  0.963200  0.368300  0.711600  1.0  0.1946
  H  H86  1  0.798500  0.467700  0.679100  1.0  0.0872
  H  H87  1  0.770400  0.400600  0.626500  1.0  0.1022
  H  H88  1  0.815400  0.323400  0.626900  1.0  0.099
  H  H89  1  0.897700  0.320900  0.662300  1.0  0.0895
  H  H90  1  0.028400  0.368100  0.724500  1.0  0.0993
  H  H91  1  0.054500  0.367500  0.779600  1.0  0.1016
  H  H92  1  0.072200  0.408400  0.737900  1.0  0.1019
  H  H93  1  0.094800  0.465400  0.799100  1.0  0.1136
  H  H94  1  0.116700  0.518100  0.868100  1.0  0.0779
  H  H95  1  0.966800  0.527900  0.908000  1.0  0.1093
  H  H96  1  0.944900  0.476800  0.842300  1.0  0.0802
  H  H97  1  0.463200  0.868300  0.211600  1.0  0.1946
  H  H98  1  0.298500  0.967700  0.179100  1.0  0.0879
  H  H99  1  0.270400  0.900600  0.126500  1.0  0.1022
  H  H100  1  0.315400  0.823400  0.126900  1.0  0.099
  H  H101  1  0.397700  0.820900  0.162300  1.0  0.0895
  H  H102  1  0.528400  0.868100  0.224500  1.0  0.0993
  H  H103  1  0.554500  0.867500  0.279600  1.0  0.1016
  H  H104  1  0.572200  0.908400  0.237900  1.0  0.1019
  H  H105  1  0.594800  0.965400  0.299100  1.0  0.1136
  H  H106  1  0.616700  0.018100  0.368100  1.0  0.0779
  H  H107  1  0.466800  0.027900  0.408000  1.0  0.1093
  H  H108  1  0.444900  0.976800  0.342300  1.0  0.0802
  H  H109  1  0.288400  0.463200  0.131700  1.0  0.1955
  H  H110  1  0.320900  0.298500  0.032300  1.0  0.0861
  H  H111  1  0.373500  0.270400  0.099400  1.0  0.1018
  H  H112  1  0.373100  0.315400  0.176600  1.0  0.1007
  H  H113  1  0.337700  0.397700  0.179100  1.0  0.0886
  H  H114  1  0.275500  0.528400  0.131900  1.0  0.1028
  H  H115  1  0.220400  0.554500  0.132500  1.0  0.1007
  H  H116  1  0.262100  0.572200  0.091600  1.0  0.0998
  H  H117  1  0.200900  0.594800  0.034600  1.0  0.1146
  H  H118  1  0.131900  0.616700  0.981900  1.0  0.0755
  H  H119  1  0.092000  0.466800  0.972100  1.0  0.11
  H  H120  1  0.157700  0.444900  0.023200  1.0  0.0792
  H  H121  1  0.788400  0.963200  0.631700  1.0  0.1955
  H  H122  1  0.820900  0.798500  0.532300  1.0  0.0858
  H  H123  1  0.873500  0.770400  0.599400  1.0  0.1018
  H  H124  1  0.873100  0.815400  0.676600  1.0  0.1007
  H  H125  1  0.837700  0.897700  0.679100  1.0  0.0885
  H  H126  1  0.775500  0.028400  0.631900  1.0  0.1028
  H  H127  1  0.720400  0.054500  0.632500  1.0  0.1007
  H  H128  1  0.762100  0.072200  0.591600  1.0  0.0998
  H  H129  1  0.700900  0.094800  0.534600  1.0  0.1147
  H  H130  1  0.631900  0.116700  0.481900  1.0  0.0755
  H  H131  1  0.592000  0.966800  0.472100  1.0  0.11
  H  H132  1  0.657700  0.944900  0.523200  1.0  0.0792
  H  H133  1  0.788400  0.036800  0.868300  1.0  0.1942
  H  H134  1  0.820900  0.201500  0.967700  1.0  0.0868
  H  H135  1  0.873500  0.229600  0.900600  1.0  0.1015
  H  H136  1  0.873100  0.184600  0.823400  1.0  0.1006
  H  H137  1  0.837700  0.102300  0.820900  1.0  0.0878
  H  H138  1  0.775500  0.971600  0.868100  1.0  0.1009
  H  H139  1  0.720400  0.945500  0.867500  1.0  0.1006
  H  H140  1  0.762100  0.927800  0.908400  1.0  0.1001
  H  H141  1  0.700900  0.905200  0.965400  1.0  0.1142
  H  H142  1  0.631900  0.883300  0.018100  1.0  0.0761
  H  H143  1  0.592000  0.033200  0.027900  1.0  0.1101
  H  H144  1  0.657700  0.055100  0.976800  1.0  0.0774
  H  H145  1  0.288400  0.536800  0.368300  1.0  0.1942
  H  H146  1  0.320900  0.701500  0.467700  1.0  0.0866
  H  H147  1  0.373500  0.729600  0.400600  1.0  0.1015
  H  H148  1  0.373100  0.684600  0.323400  1.0  0.1006
  H  H149  1  0.337700  0.602300  0.320900  1.0  0.0878
  H  H150  1  0.275500  0.471600  0.368100  1.0  0.1009
  H  H151  1  0.220400  0.445500  0.367500  1.0  0.1006
  H  H152  1  0.262100  0.427800  0.408400  1.0  0.1001
  H  H153  1  0.200900  0.405200  0.465400  1.0  0.1142
  H  H154  1  0.131900  0.383300  0.518100  1.0  0.076
  H  H155  1  0.092000  0.533200  0.527900  1.0  0.1101
  H  H156  1  0.157700  0.555100  0.476800  1.0  0.0774
  H  H157  1  0.211600  0.536800  0.631700  1.0  0.1953
  H  H158  1  0.179100  0.701500  0.532300  1.0  0.0857
  H  H159  1  0.126500  0.729600  0.599400  1.0  0.1023
  H  H160  1  0.126900  0.684600  0.676600  1.0  0.1006
  H  H161  1  0.162300  0.602300  0.679100  1.0  0.0882
  H  H162  1  0.224500  0.471600  0.631900  1.0  0.1007
  H  H163  1  0.279600  0.445500  0.632500  1.0  0.0998
  H  H164  1  0.237900  0.427800  0.591600  1.0  0.1017
  H  H165  1  0.299100  0.405200  0.534600  1.0  0.114
  H  H166  1  0.368100  0.383300  0.481900  1.0  0.0761
  H  H167  1  0.408000  0.533200  0.472100  1.0  0.1095
  H  H168  1  0.342300  0.555100  0.523200  1.0  0.0776
  H  H169  1  0.711600  0.036800  0.131700  1.0  0.1953
  H  H170  1  0.679100  0.201500  0.032300  1.0  0.0857
  H  H171  1  0.626500  0.229600  0.099400  1.0  0.1023
  H  H172  1  0.626900  0.184600  0.176600  1.0  0.1006
  H  H173  1  0.662300  0.102300  0.179100  1.0  0.0882
  H  H174  1  0.724500  0.971600  0.131900  1.0  0.1008
  H  H175  1  0.779600  0.945500  0.132500  1.0  0.0998
  H  H176  1  0.737900  0.927800  0.091600  1.0  0.1017
  H  H177  1  0.799100  0.905200  0.034600  1.0  0.114
  H  H178  1  0.868100  0.883300  0.981900  1.0  0.0761
  H  H179  1  0.908000  0.033200  0.972100  1.0  0.1095
  H  H180  1  0.842300  0.055100  0.023200  1.0  0.0776
  H  H181  1  0.711600  0.963200  0.368300  1.0  0.1937
  H  H182  1  0.679100  0.798500  0.467700  1.0  0.0865
  H  H183  1  0.626500  0.770400  0.400600  1.0  0.1022
  H  H184  1  0.626900  0.815400  0.323400  1.0  0.1004
  H  H185  1  0.662300  0.897700  0.320900  1.0  0.0879
  H  H186  1  0.724500  0.028400  0.368100  1.0  0.1017
  H  H187  1  0.779600  0.054500  0.367500  1.0  0.1004
  H  H188  1  0.737900  0.072200  0.408400  1.0  0.1002
  H  H189  1  0.799100  0.094800  0.465400  1.0  0.1144
  H  H190  1  0.868100  0.116700  0.518100  1.0  0.076
  H  H191  1  0.908000  0.966800  0.527900  1.0  0.1088
  H  H192  1  0.842300  0.944900  0.476800  1.0  0.0782
  H  H193  1  0.211600  0.463200  0.868300  1.0  0.1937
  H  H194  1  0.179100  0.298500  0.967700  1.0  0.0868
  H  H195  1  0.126500  0.270400  0.900600  1.0  0.1022
  H  H196  1  0.126900  0.315400  0.823400  1.0  0.1004
  H  H197  1  0.162300  0.397700  0.820900  1.0  0.0879
  H  H198  1  0.224500  0.528400  0.868100  1.0  0.1016
  H  H199  1  0.279600  0.554500  0.867500  1.0  0.1004
  H  H200  1  0.237900  0.572200  0.908400  1.0  0.1002
  H  H201  1  0.299100  0.594800  0.965400  1.0  0.1144
  H  H202  1  0.368100  0.616700  0.018100  1.0  0.076
  H  H203  1  0.408000  0.466800  0.027900  1.0  0.1088
  H  H204  1  0.342300  0.444900  0.976800  1.0  0.0782
  H  H205  1  0.131700  0.288400  0.463200  1.0  0.196
  H  H206  1  0.032300  0.320900  0.298500  1.0  0.0858
  H  H207  1  0.099400  0.373500  0.270400  1.0  0.101
  H  H208  1  0.176600  0.373100  0.315400  1.0  0.0997
  H  H209  1  0.179100  0.337700  0.397700  1.0  0.088
  H  H210  1  0.131900  0.275500  0.528400  1.0  0.1014
  H  H211  1  0.132500  0.220400  0.554500  1.0  0.1008
  H  H212  1  0.091600  0.262100  0.572200  1.0  0.1044
  H  H213  1  0.034600  0.200900  0.594800  1.0  0.1153
  H  H214  1  0.981900  0.131900  0.616700  1.0  0.0763
  H  H215  1  0.972100  0.092000  0.466800  1.0  0.1086
  H  H216  1  0.023200  0.157700  0.444900  1.0  0.0813
  H  H217  1  0.631700  0.788400  0.963200  1.0  0.196
  H  H218  1  0.532300  0.820900  0.798500  1.0  0.0855
  H  H219  1  0.599400  0.873500  0.770400  1.0  0.101
  H  H220  1  0.676600  0.873100  0.815400  1.0  0.0997
  H  H221  1  0.679100  0.837700  0.897700  1.0  0.088
  H  H222  1  0.631900  0.775500  0.028400  1.0  0.1014
  H  H223  1  0.632500  0.720400  0.054500  1.0  0.1008
  H  H224  1  0.591600  0.762100  0.072200  1.0  0.1044
  H  H225  1  0.534600  0.700900  0.094800  1.0  0.1153
  H  H226  1  0.481900  0.631900  0.116700  1.0  0.0763
  H  H227  1  0.472100  0.592000  0.966800  1.0  0.1086
  H  H228  1  0.523200  0.657700  0.944900  1.0  0.0813
  H  H229  1  0.868300  0.788400  0.036800  1.0  0.196
  H  H230  1  0.967700  0.820900  0.201500  1.0  0.0858
  H  H231  1  0.900600  0.873500  0.229600  1.0  0.1013
  H  H232  1  0.823400  0.873100  0.184600  1.0  0.0996
  H  H233  1  0.820900  0.837700  0.102300  1.0  0.0872
  H  H234  1  0.868100  0.775500  0.971600  1.0  0.1018
  H  H235  1  0.867500  0.720400  0.945500  1.0  0.0998
  H  H236  1  0.908400  0.762100  0.927800  1.0  0.1026
  H  H237  1  0.965400  0.700900  0.905200  1.0  0.1153
  H  H238  1  0.018100  0.631900  0.883300  1.0  0.0775
  H  H239  1  0.027900  0.592000  0.033200  1.0  0.1096
  H  H240  1  0.976800  0.657700  0.055100  1.0  0.0806
  H  H241  1  0.368300  0.288400  0.536800  1.0  0.196
  H  H242  1  0.467700  0.320900  0.701500  1.0  0.0856
  H  H243  1  0.400600  0.373500  0.729600  1.0  0.1013
  H  H244  1  0.323400  0.373100  0.684600  1.0  0.0996
  H  H245  1  0.320900  0.337700  0.602300  1.0  0.0873
  H  H246  1  0.368100  0.275500  0.471600  1.0  0.1018
  H  H247  1  0.367500  0.220400  0.445500  1.0  0.0998
  H  H248  1  0.408400  0.262100  0.427800  1.0  0.1026
  H  H249  1  0.465400  0.200900  0.405200  1.0  0.1153
  H  H250  1  0.518100  0.131900  0.383300  1.0  0.0775
  H  H251  1  0.527900  0.092000  0.533200  1.0  0.1096
  H  H252  1  0.476800  0.157700  0.555100  1.0  0.0806
  H  H253  1  0.631700  0.211600  0.536800  1.0  0.1953
  H  H254  1  0.532300  0.179100  0.701500  1.0  0.0854
  H  H255  1  0.599400  0.126500  0.729600  1.0  0.1013
  H  H256  1  0.676600  0.126900  0.684600  1.0  0.0998
  H  H257  1  0.679100  0.162300  0.602300  1.0  0.0886
  H  H258  1  0.631900  0.224500  0.471600  1.0  0.1015
  H  H259  1  0.632500  0.279600  0.445500  1.0  0.1007
  H  H260  1  0.591600  0.237900  0.427800  1.0  0.105
  H  H261  1  0.534600  0.299100  0.405200  1.0  0.1149
  H  H262  1  0.481900  0.368100  0.383300  1.0  0.0773
  H  H263  1  0.472100  0.408000  0.533200  1.0  0.1091
  H  H264  1  0.523200  0.342300  0.555100  1.0  0.08
  H  H265  1  0.131700  0.711600  0.036800  1.0  0.1953
  H  H266  1  0.032300  0.679100  0.201500  1.0  0.0854
  H  H267  1  0.099400  0.626500  0.229600  1.0  0.1013
  H  H268  1  0.176600  0.626900  0.184600  1.0  0.0998
  H  H269  1  0.179100  0.662300  0.102300  1.0  0.0886
  H  H270  1  0.131900  0.724500  0.971600  1.0  0.1016
  H  H271  1  0.132500  0.779600  0.945500  1.0  0.1007
  H  H272  1  0.091600  0.737900  0.927800  1.0  0.105
  H  H273  1  0.034600  0.799100  0.905200  1.0  0.115
  H  H274  1  0.981900  0.868100  0.883300  1.0  0.0773
  H  H275  1  0.972100  0.908000  0.033200  1.0  0.1091
  H  H276  1  0.023200  0.842300  0.055100  1.0  0.08
  H  H277  1  0.368300  0.711600  0.963200  1.0  0.1961
  H  H278  1  0.467700  0.679100  0.798500  1.0  0.0859
  H  H279  1  0.400600  0.626500  0.770400  1.0  0.1011
  H  H280  1  0.323400  0.626900  0.815400  1.0  0.0995
  H  H281  1  0.320900  0.662300  0.897700  1.0  0.0877
  H  H282  1  0.368100  0.724500  0.028400  1.0  0.1024
  H  H283  1  0.367500  0.779600  0.054500  1.0  0.1002
  H  H284  1  0.408400  0.737900  0.072200  1.0  0.104
  H  H285  1  0.465400  0.799100  0.094800  1.0  0.1151
  H  H286  1  0.518100  0.868100  0.116700  1.0  0.0763
  H  H287  1  0.527900  0.908000  0.966800  1.0  0.1086
  H  H288  1  0.476800  0.842300  0.944900  1.0  0.0806
  H  H289  1  0.868300  0.211600  0.463200  1.0  0.1961
  H  H290  1  0.967700  0.179100  0.298500  1.0  0.0866
  H  H291  1  0.900600  0.126500  0.270400  1.0  0.1011
  H  H292  1  0.823400  0.126900  0.315400  1.0  0.0995
  H  H293  1  0.820900  0.162300  0.397700  1.0  0.0877
  H  H294  1  0.868100  0.224500  0.528400  1.0  0.1024
  H  H295  1  0.867500  0.279600  0.554500  1.0  0.1002
  H  H296  1  0.908400  0.237900  0.572200  1.0  0.104
  H  H297  1  0.965400  0.299100  0.594800  1.0  0.115
  H  H298  1  0.018100  0.368100  0.616700  1.0  0.0763
  H  H299  1  0.027900  0.408000  0.466800  1.0  0.1086
  H  H300  1  0.976800  0.342300  0.444900  1.0  0.0806
  C  C301  1  0.319200  0.061800  0.324500  1.0  0.1219
  C  C302  1  0.301200  0.102700  0.354700  1.0  -0.1384
  C  C303  1  0.328900  0.147500  0.356400  1.0  -0.1101
  C  C304  1  0.377100  0.149600  0.333333  1.0  -0.1912
  C  C305  1  0.395600  0.108200  0.303200  1.0  0.3613
  C  C306  1  0.500900  0.071700  0.228100  1.0  0.1486
  C  C307  1  0.543100  0.110700  0.248500  1.0  -0.3394
  C  C308  1  0.515900  0.035400  0.185600  1.0  -0.0149
  C  C309  1  0.569300  0.022200  0.178500  1.0  -0.1794
  C  C310  1  0.582000  0.990400  0.137400  1.0  -0.1744
  C  C311  1  0.546300  0.971500  0.105500  1.0  0.1548
  C  C312  1  0.492500  0.985000  0.114100  1.0  -0.1582
  C  C313  1  0.479800  0.015200  0.152500  1.0  0.0123
  C  C314  1  0.819200  0.561800  0.824500  1.0  0.1218
  C  C315  1  0.801200  0.602700  0.854700  1.0  -0.1369
  C  C316  1  0.828900  0.647500  0.856400  1.0  -0.1097
  C  C317  1  0.877100  0.649600  0.833300  1.0  -0.1894
  C  C318  1  0.895600  0.608200  0.803200  1.0  0.3612
  C  C319  1  0.000900  0.571700  0.728100  1.0  0.1486
  C  C320  1  0.043100  0.610700  0.748500  1.0  -0.3394
  C  C321  1  0.015900  0.535400  0.685600  1.0  -0.0149
  C  C322  1  0.069300  0.522200  0.678500  1.0  -0.1794
  C  C323  1  0.082000  0.490400  0.637400  1.0  -0.1744
  C  C324  1  0.046300  0.471500  0.605500  1.0  0.1548
  C  C325  1  0.992500  0.485000  0.614100  1.0  -0.1582
  C  C326  1  0.979800  0.515200  0.652500  1.0  0.0123
  C  C327  1  0.180800  0.938200  0.824500  1.0  0.1218
  C  C328  1  0.198800  0.897300  0.854700  1.0  -0.1334
  C  C329  1  0.171100  0.852500  0.856400  1.0  -0.1086
  C  C330  1  0.122900  0.850400  0.833300  1.0  -0.1865
  C  C331  1  0.104400  0.891800  0.803200  1.0  0.3612
  C  C332  1  0.999100  0.928300  0.728100  1.0  0.144
  C  C333  1  0.956900  0.889300  0.748500  1.0  -0.3386
  C  C334  1  0.984100  0.964600  0.685600  1.0  -0.0146
  C  C335  1  0.930700  0.977800  0.678500  1.0  -0.1798
  C  C336  1  0.918000  0.009600  0.637400  1.0  -0.1723
  C  C337  1  0.953700  0.028500  0.605500  1.0  0.157
  C  C338  1  0.007500  0.015000  0.614100  1.0  -0.1582
  C  C339  1  0.020200  0.984800  0.652500  1.0  0.0118
  C  C340  1  0.680800  0.438200  0.324500  1.0  0.122
  C  C341  1  0.698800  0.397300  0.354700  1.0  -0.135
  C  C342  1  0.671100  0.352500  0.356400  1.0  -0.109
  C  C343  1  0.622900  0.350400  0.333333  1.0  -0.1882
  C  C344  1  0.604400  0.391800  0.303200  1.0  0.3613
  C  C345  1  0.499100  0.428300  0.228100  1.0  0.144
  C  C346  1  0.456900  0.389300  0.248500  1.0  -0.3386
  C  C347  1  0.484100  0.464600  0.185600  1.0  -0.0146
  C  C348  1  0.430700  0.477800  0.178500  1.0  -0.1798
  C  C349  1  0.418000  0.509600  0.137400  1.0  -0.1723
  C  C350  1  0.453700  0.528500  0.105500  1.0  0.157
  C  C351  1  0.507500  0.515000  0.114100  1.0  -0.1582
  C  C352  1  0.520200  0.484800  0.152500  1.0  0.0118
  C  C353  1  0.680800  0.561800  0.175500  1.0  0.1214
  C  C354  1  0.698800  0.602700  0.145300  1.0  -0.1361
  C  C355  1  0.671100  0.647500  0.143600  1.0  -0.1076
  C  C356  1  0.622900  0.649600  0.166700  1.0  -0.1868
  C  C357  1  0.604400  0.608200  0.196800  1.0  0.3633
  C  C358  1  0.499100  0.571700  0.271900  1.0  0.1441
  C  C359  1  0.456900  0.610700  0.251500  1.0  -0.3383
  C  C360  1  0.484100  0.535400  0.314400  1.0  -0.0164
  C  C361  1  0.430700  0.522200  0.321500  1.0  -0.1797
  C  C362  1  0.418000  0.490400  0.362600  1.0  -0.1721
  C  C363  1  0.453700  0.471500  0.394500  1.0  0.1561
  C  C364  1  0.507500  0.485000  0.385900  1.0  -0.1586
  C  C365  1  0.520200  0.515200  0.347500  1.0  0.0107
  C  C366  1  0.180800  0.061800  0.675500  1.0  0.1215
  C  C367  1  0.198800  0.102700  0.645300  1.0  -0.1376
  C  C368  1  0.171100  0.147500  0.643600  1.0  -0.108
  C  C369  1  0.122900  0.149600  0.666667  1.0  -0.1884
  C  C370  1  0.104400  0.108200  0.696800  1.0  0.3633
  C  C371  1  0.999100  0.071700  0.771900  1.0  0.1441
  C  C372  1  0.956900  0.110700  0.751500  1.0  -0.3383
  C  C373  1  0.984100  0.035400  0.814400  1.0  -0.0164
  C  C374  1  0.930700  0.022200  0.821500  1.0  -0.1797
  C  C375  1  0.918000  0.990400  0.862600  1.0  -0.1721
  C  C376  1  0.953700  0.971500  0.894500  1.0  0.1561
  C  C377  1  0.007500  0.985000  0.885900  1.0  -0.1585
  C  C378  1  0.020200  0.015200  0.847500  1.0  0.0107
  C  C379  1  0.819200  0.438200  0.675500  1.0  0.1214
  C  C380  1  0.801200  0.397300  0.645300  1.0  -0.138
  C  C381  1  0.828900  0.352500  0.643600  1.0  -0.1107
  C  C382  1  0.877100  0.350400  0.666667  1.0  -0.1906
  C  C383  1  0.895600  0.391800  0.696800  1.0  0.3625
  C  C384  1  0.000900  0.428300  0.771900  1.0  0.1474
  C  C385  1  0.043100  0.389300  0.751500  1.0  -0.3398
  C  C386  1  0.015900  0.464600  0.814400  1.0  -0.0157
  C  C387  1  0.069300  0.477800  0.821500  1.0  -0.1792
  C  C388  1  0.082000  0.509600  0.862600  1.0  -0.1743
  C  C389  1  0.046300  0.528500  0.894500  1.0  0.1548
  C  C390  1  0.992500  0.515000  0.885900  1.0  -0.1598
  C  C391  1  0.979800  0.484800  0.847500  1.0  0.011
  C  C392  1  0.319200  0.938200  0.175500  1.0  0.1213
  C  C393  1  0.301200  0.897300  0.145300  1.0  -0.1364
  C  C394  1  0.328900  0.852500  0.143600  1.0  -0.1104
  C  C395  1  0.377100  0.850400  0.166700  1.0  -0.1888
  C  C396  1  0.395600  0.891800  0.196800  1.0  0.3625
  C  C397  1  0.500900  0.928300  0.271900  1.0  0.1474
  C  C398  1  0.543100  0.889300  0.251500  1.0  -0.3398
  C  C399  1  0.515900  0.964600  0.314400  1.0  -0.0158
  C  C400  1  0.569300  0.977800  0.321500  1.0  -0.1792
  C  C401  1  0.582000  0.009600  0.362600  1.0  -0.1743
  C  C402  1  0.546300  0.028500  0.394500  1.0  0.1548
  C  C403  1  0.492500  0.015000  0.385900  1.0  -0.1599
  C  C404  1  0.479800  0.984800  0.347500  1.0  0.011
  C  C405  1  0.324500  0.319200  0.061800  1.0  0.1196
  C  C406  1  0.354700  0.301200  0.102700  1.0  -0.1397
  C  C407  1  0.356400  0.328900  0.147500  1.0  -0.1126
  C  C408  1  0.333333  0.377100  0.149600  1.0  -0.1906
  C  C409  1  0.303200  0.395600  0.108200  1.0  0.3618
  C  C410  1  0.228100  0.500900  0.071700  1.0  0.1469
  C  C411  1  0.248500  0.543100  0.110700  1.0  -0.3432
  C  C412  1  0.185600  0.515900  0.035400  1.0  -0.0197
  C  C413  1  0.178500  0.569300  0.022200  1.0  -0.1802
  C  C414  1  0.137400  0.582000  0.990400  1.0  -0.1746
  C  C415  1  0.105500  0.546300  0.971500  1.0  0.1544
  C  C416  1  0.114100  0.492500  0.985000  1.0  -0.1688
  C  C417  1  0.152500  0.479800  0.015200  1.0  0.0081
  C  C418  1  0.824500  0.819200  0.561800  1.0  0.1196
  C  C419  1  0.854700  0.801200  0.602700  1.0  -0.1381
  C  C420  1  0.856400  0.828900  0.647500  1.0  -0.1122
  C  C421  1  0.833300  0.877100  0.649600  1.0  -0.1891
  C  C422  1  0.803200  0.895600  0.608200  1.0  0.3618
  C  C423  1  0.728100  0.000900  0.571700  1.0  0.1469
  C  C424  1  0.748500  0.043100  0.610700  1.0  -0.3432
  C  C425  1  0.685600  0.015900  0.535400  1.0  -0.0197
  C  C426  1  0.678500  0.069300  0.522200  1.0  -0.1802
  C  C427  1  0.637400  0.082000  0.490400  1.0  -0.1746
  C  C428  1  0.605500  0.046300  0.471500  1.0  0.1544
  C  C429  1  0.614100  0.992500  0.485000  1.0  -0.1688
  C  C430  1  0.652500  0.979800  0.515200  1.0  0.0081
  C  C431  1  0.824500  0.180800  0.938200  1.0  0.1162
  C  C432  1  0.854700  0.198800  0.897300  1.0  -0.1346
  C  C433  1  0.856400  0.171100  0.852500  1.0  -0.1109
  C  C434  1  0.833300  0.122900  0.850400  1.0  -0.1873
  C  C435  1  0.803200  0.104400  0.891800  1.0  0.3615
  C  C436  1  0.728100  0.999100  0.928300  1.0  0.1472
  C  C437  1  0.748500  0.956900  0.889300  1.0  -0.3414
  C  C438  1  0.685600  0.984100  0.964600  1.0  -0.02
  C  C439  1  0.678500  0.930700  0.977800  1.0  -0.1791
  C  C440  1  0.637400  0.918000  0.009600  1.0  -0.1729
  C  C441  1  0.605500  0.953700  0.028500  1.0  0.1543
  C  C442  1  0.614100  0.007500  0.015000  1.0  -0.1684
  C  C443  1  0.652500  0.020200  0.984800  1.0  0.0087
  C  C444  1  0.324500  0.680800  0.438200  1.0  0.1161
  C  C445  1  0.354700  0.698800  0.397300  1.0  -0.1362
  C  C446  1  0.356400  0.671100  0.352500  1.0  -0.1112
  C  C447  1  0.333333  0.622900  0.350400  1.0  -0.1889
  C  C448  1  0.303200  0.604400  0.391800  1.0  0.3615
  C  C449  1  0.228100  0.499100  0.428300  1.0  0.1472
  C  C450  1  0.248500  0.456900  0.389300  1.0  -0.3414
  C  C451  1  0.185600  0.484100  0.464600  1.0  -0.02
  C  C452  1  0.178500  0.430700  0.477800  1.0  -0.1791
  C  C453  1  0.137400  0.418000  0.509600  1.0  -0.1729
  C  C454  1  0.105500  0.453700  0.528500  1.0  0.1543
  C  C455  1  0.114100  0.507500  0.515000  1.0  -0.1684
  C  C456  1  0.152500  0.520200  0.484800  1.0  0.0087
  C  C457  1  0.175500  0.680800  0.561800  1.0  0.117
  C  C458  1  0.145300  0.698800  0.602700  1.0  -0.1366
  C  C459  1  0.143600  0.671100  0.647500  1.0  -0.1121
  C  C460  1  0.166700  0.622900  0.649600  1.0  -0.1885
  C  C461  1  0.196800  0.604400  0.608200  1.0  0.3613
  C  C462  1  0.271900  0.499100  0.571700  1.0  0.1461
  C  C463  1  0.251500  0.456900  0.610700  1.0  -0.3421
  C  C464  1  0.314400  0.484100  0.535400  1.0  -0.0188
  C  C465  1  0.321500  0.430700  0.522200  1.0  -0.1793
  C  C466  1  0.362600  0.418000  0.490400  1.0  -0.1732
  C  C467  1  0.394500  0.453700  0.471500  1.0  0.1554
  C  C468  1  0.385900  0.507500  0.485000  1.0  -0.1703
  C  C469  1  0.347500  0.520200  0.515200  1.0  0.0088
  C  C470  1  0.675500  0.180800  0.061800  1.0  0.117
  C  C471  1  0.645300  0.198800  0.102700  1.0  -0.1382
  C  C472  1  0.643600  0.171100  0.147500  1.0  -0.1124
  C  C473  1  0.666667  0.122900  0.149600  1.0  -0.19
  C  C474  1  0.696800  0.104400  0.108200  1.0  0.3614
  C  C475  1  0.771900  0.999100  0.071700  1.0  0.1461
  C  C476  1  0.751500  0.956900  0.110700  1.0  -0.3421
  C  C477  1  0.814400  0.984100  0.035400  1.0  -0.0188
  C  C478  1  0.821500  0.930700  0.022200  1.0  -0.1793
  C  C479  1  0.862600  0.918000  0.990400  1.0  -0.1732
  C  C480  1  0.894500  0.953700  0.971500  1.0  0.1554
  C  C481  1  0.885900  0.007500  0.985000  1.0  -0.1702
  C  C482  1  0.847500  0.020200  0.015200  1.0  0.0088
  C  C483  1  0.675500  0.819200  0.438200  1.0  0.1175
  C  C484  1  0.645300  0.801200  0.397300  1.0  -0.1401
  C  C485  1  0.643600  0.828900  0.352500  1.0  -0.1127
  C  C486  1  0.666667  0.877100  0.350400  1.0  -0.1888
  C  C487  1  0.696800  0.895600  0.391800  1.0  0.3611
  C  C488  1  0.771900  0.000900  0.428300  1.0  0.1466
  C  C489  1  0.751500  0.043100  0.389300  1.0  -0.3405
  C  C490  1  0.814400  0.015900  0.464600  1.0  -0.0197
  C  C491  1  0.821500  0.069300  0.477800  1.0  -0.1801
  C  C492  1  0.862600  0.082000  0.509600  1.0  -0.174
  C  C493  1  0.894500  0.046300  0.528500  1.0  0.1564
  C  C494  1  0.885900  0.992500  0.515000  1.0  -0.1673
  C  C495  1  0.847500  0.979800  0.484800  1.0  0.007
  C  C496  1  0.175500  0.319200  0.938200  1.0  0.1174
  C  C497  1  0.145300  0.301200  0.897300  1.0  -0.1386
  C  C498  1  0.143600  0.328900  0.852500  1.0  -0.1121
  C  C499  1  0.166700  0.377100  0.850400  1.0  -0.1872
  C  C500  1  0.196800  0.395600  0.891800  1.0  0.3612
  C  C501  1  0.271900  0.500900  0.928300  1.0  0.1466
  C  C502  1  0.251500  0.543100  0.889300  1.0  -0.3405
  C  C503  1  0.314400  0.515900  0.964600  1.0  -0.0197
  C  C504  1  0.321500  0.569300  0.977800  1.0  -0.1801
  C  C505  1  0.362600  0.582000  0.009600  1.0  -0.174
  C  C506  1  0.394500  0.546300  0.028500  1.0  0.1564
  C  C507  1  0.385900  0.492500  0.015000  1.0  -0.1674
  C  C508  1  0.347500  0.479800  0.984800  1.0  0.007
  C  C509  1  0.061800  0.324500  0.319200  1.0  0.1178
  C  C510  1  0.102700  0.354700  0.301200  1.0  -0.1392
  C  C511  1  0.147500  0.356400  0.328900  1.0  -0.1105
  C  C512  1  0.149600  0.333333  0.377100  1.0  -0.1861
  C  C513  1  0.108200  0.303200  0.395600  1.0  0.3615
  C  C514  1  0.071700  0.228100  0.500900  1.0  0.1501
  C  C515  1  0.110700  0.248500  0.543100  1.0  -0.3399
  C  C516  1  0.035400  0.185600  0.515900  1.0  -0.0182
  C  C517  1  0.022200  0.178500  0.569300  1.0  -0.1787
  C  C518  1  0.990400  0.137400  0.582000  1.0  -0.1727
  C  C519  1  0.971500  0.105500  0.546300  1.0  0.1558
  C  C520  1  0.985000  0.114100  0.492500  1.0  -0.1647
  C  C521  1  0.015200  0.152500  0.479800  1.0  0.009
  C  C522  1  0.561800  0.824500  0.819200  1.0  0.1178
  C  C523  1  0.602700  0.854700  0.801200  1.0  -0.1376
  C  C524  1  0.647500  0.856400  0.828900  1.0  -0.1101
  C  C525  1  0.649600  0.833300  0.877100  1.0  -0.1846
  C  C526  1  0.608200  0.803200  0.895600  1.0  0.3614
  C  C527  1  0.571700  0.728100  0.000900  1.0  0.1501
  C  C528  1  0.610700  0.748500  0.043100  1.0  -0.3399
  C  C529  1  0.535400  0.685600  0.015900  1.0  -0.0182
  C  C530  1  0.522200  0.678500  0.069300  1.0  -0.1787
  C  C531  1  0.490400  0.637400  0.082000  1.0  -0.1727
  C  C532  1  0.471500  0.605500  0.046300  1.0  0.1558
  C  C533  1  0.485000  0.614100  0.992500  1.0  -0.1647
  C  C534  1  0.515200  0.652500  0.979800  1.0  0.009
  C  C535  1  0.938200  0.824500  0.180800  1.0  0.1183
  C  C536  1  0.897300  0.854700  0.198800  1.0  -0.1353
  C  C537  1  0.852500  0.856400  0.171100  1.0  -0.1137
  C  C538  1  0.850400  0.833300  0.122900  1.0  -0.1874
  C  C539  1  0.891800  0.803200  0.104400  1.0  0.3638
  C  C540  1  0.928300  0.728100  0.999100  1.0  0.1499
  C  C541  1  0.889300  0.748500  0.956900  1.0  -0.3408
  C  C542  1  0.964600  0.685600  0.984100  1.0  -0.0179
  C  C543  1  0.977800  0.678500  0.930700  1.0  -0.1785
  C  C544  1  0.009600  0.637400  0.918000  1.0  -0.1739
  C  C545  1  0.028500  0.605500  0.953700  1.0  0.1546
  C  C546  1  0.015000  0.614100  0.007500  1.0  -0.1662
  C  C547  1  0.984800  0.652500  0.020200  1.0  0.008
  C  C548  1  0.438200  0.324500  0.680800  1.0  0.1183
  C  C549  1  0.397300  0.354700  0.698800  1.0  -0.1368
  C  C550  1  0.352500  0.356400  0.671100  1.0  -0.1141
  C  C551  1  0.350400  0.333333  0.622900  1.0  -0.1893
  C  C552  1  0.391800  0.303200  0.604400  1.0  0.3639
  C  C553  1  0.428300  0.228100  0.499100  1.0  0.1499
  C  C554  1  0.389300  0.248500  0.456900  1.0  -0.3408
  C  C555  1  0.464600  0.185600  0.484100  1.0  -0.0179
  C  C556  1  0.477800  0.178500  0.430700  1.0  -0.1785
  C  C557  1  0.509600  0.137400  0.418000  1.0  -0.1739
  C  C558  1  0.528500  0.105500  0.453700  1.0  0.1546
  C  C559  1  0.515000  0.114100  0.507500  1.0  -0.1662
  C  C560  1  0.484800  0.152500  0.520200  1.0  0.008
  C  C561  1  0.561800  0.175500  0.680800  1.0  0.1151
  C  C562  1  0.602700  0.145300  0.698800  1.0  -0.1359
  C  C563  1  0.647500  0.143600  0.671100  1.0  -0.1097
  C  C564  1  0.649600  0.166700  0.622900  1.0  -0.1865
  C  C565  1  0.608200  0.196800  0.604400  1.0  0.3633
  C  C566  1  0.571700  0.271900  0.499100  1.0  0.1502
  C  C567  1  0.610700  0.251500  0.456900  1.0  -0.3408
  C  C568  1  0.535400  0.314400  0.484100  1.0  -0.0185
  C  C569  1  0.522200  0.321500  0.430700  1.0  -0.1785
  C  C570  1  0.490400  0.362600  0.418000  1.0  -0.1735
  C  C571  1  0.471500  0.394500  0.453700  1.0  0.1552
  C  C572  1  0.485000  0.385900  0.507500  1.0  -0.1681
  C  C573  1  0.515200  0.347500  0.520200  1.0  0.0086
  C  C574  1  0.061800  0.675500  0.180800  1.0  0.1151
  C  C575  1  0.102700  0.645300  0.198800  1.0  -0.1375
  C  C576  1  0.147500  0.643600  0.171100  1.0  -0.1101
  C  C577  1  0.149600  0.666667  0.122900  1.0  -0.1883
  C  C578  1  0.108200  0.696800  0.104400  1.0  0.3634
  C  C579  1  0.071700  0.771900  0.999100  1.0  0.1502
  C  C580  1  0.110700  0.751500  0.956900  1.0  -0.3408
  C  C581  1  0.035400  0.814400  0.984100  1.0  -0.0185
  C  C582  1  0.022200  0.821500  0.930700  1.0  -0.1785
  C  C583  1  0.990400  0.862600  0.918000  1.0  -0.1735
  C  C584  1  0.971500  0.894500  0.953700  1.0  0.1552
  C  C585  1  0.985000  0.885900  0.007500  1.0  -0.168
  C  C586  1  0.015200  0.847500  0.020200  1.0  0.0086
  C  C587  1  0.438200  0.675500  0.819200  1.0  0.1177
  C  C588  1  0.397300  0.645300  0.801200  1.0  -0.139
  C  C589  1  0.352500  0.643600  0.828900  1.0  -0.1122
  C  C590  1  0.350400  0.666667  0.877100  1.0  -0.1861
  C  C591  1  0.391800  0.696800  0.895600  1.0  0.361
  C  C592  1  0.428300  0.771900  0.000900  1.0  0.1499
  C  C593  1  0.389300  0.751500  0.043100  1.0  -0.3409
  C  C594  1  0.464600  0.814400  0.015900  1.0  -0.0184
  C  C595  1  0.477800  0.821500  0.069300  1.0  -0.1792
  C  C596  1  0.509600  0.862600  0.082000  1.0  -0.1724
  C  C597  1  0.528500  0.894500  0.046300  1.0  0.1545
  C  C598  1  0.515000  0.885900  0.992500  1.0  -0.1645
  C  C599  1  0.484800  0.847500  0.979800  1.0  0.011
  C  C600  1  0.938200  0.175500  0.319200  1.0  0.1176
  C  C601  1  0.897300  0.145300  0.301200  1.0  -0.1373
  C  C602  1  0.852500  0.143600  0.328900  1.0  -0.1119
  C  C603  1  0.850400  0.166700  0.377100  1.0  -0.1845
  C  C604  1  0.891800  0.196800  0.395600  1.0  0.3608
  C  C605  1  0.928300  0.271900  0.500900  1.0  0.1499
  C  C606  1  0.889300  0.251500  0.543100  1.0  -0.3409
  C  C607  1  0.964600  0.314400  0.515900  1.0  -0.0184
  C  C608  1  0.977800  0.321500  0.569300  1.0  -0.1792
  C  C609  1  0.009600  0.362600  0.582000  1.0  -0.1724
  C  C610  1  0.028500  0.394500  0.546300  1.0  0.1545
  C  C611  1  0.015000  0.385900  0.492500  1.0  -0.1646
  C  C612  1  0.984800  0.347500  0.479800  1.0  0.011
  N  N613  1  0.366100  0.063200  0.300100  1.0  -0.3827
  N  N614  1  0.441060  0.107800  0.280760  1.0  -0.1922
  N  N615  1  0.454200  0.070970  0.246000  1.0  -0.2896
  N  N616  1  0.866100  0.563200  0.800100  1.0  -0.3823
  N  N617  1  0.941060  0.607800  0.780760  1.0  -0.1922
  N  N618  1  0.954200  0.570970  0.746000  1.0  -0.2896
  N  N619  1  0.133900  0.936800  0.800100  1.0  -0.3786
  N  N620  1  0.058940  0.892200  0.780760  1.0  -0.1902
  N  N621  1  0.045800  0.929030  0.746000  1.0  -0.2885
  N  N622  1  0.633900  0.436800  0.300100  1.0  -0.3787
  N  N623  1  0.558940  0.392200  0.280760  1.0  -0.1904
  N  N624  1  0.545800  0.429030  0.246000  1.0  -0.2885
  N  N625  1  0.633900  0.563200  0.199900  1.0  -0.3781
  N  N626  1  0.558940  0.607800  0.219240  1.0  -0.1898
  N  N627  1  0.545800  0.570970  0.254000  1.0  -0.2871
  N  N628  1  0.133900  0.063200  0.699900  1.0  -0.3784
  N  N629  1  0.058940  0.107800  0.719240  1.0  -0.1899
  N  N630  1  0.045800  0.070970  0.754000  1.0  -0.2871
  N  N631  1  0.866100  0.436800  0.699900  1.0  -0.3805
  N  N632  1  0.941060  0.392200  0.719240  1.0  -0.1915
  N  N633  1  0.954200  0.429030  0.754000  1.0  -0.2884
  N  N634  1  0.366100  0.936800  0.199900  1.0  -0.3805
  N  N635  1  0.441060  0.892200  0.219240  1.0  -0.1914
  N  N636  1  0.454200  0.929030  0.254000  1.0  -0.2884
  N  N637  1  0.300100  0.366100  0.063200  1.0  -0.38
  N  N638  1  0.280760  0.441060  0.107800  1.0  -0.1895
  N  N639  1  0.246000  0.454200  0.070970  1.0  -0.2899
  N  N640  1  0.800100  0.866100  0.563200  1.0  -0.3802
  N  N641  1  0.780760  0.941060  0.607800  1.0  -0.1894
  N  N642  1  0.746000  0.954200  0.570970  1.0  -0.2899
  N  N643  1  0.800100  0.133900  0.936800  1.0  -0.3804
  N  N644  1  0.780760  0.058940  0.892200  1.0  -0.19
  N  N645  1  0.746000  0.045800  0.929030  1.0  -0.2885
  N  N646  1  0.300100  0.633900  0.436800  1.0  -0.3807
  N  N647  1  0.280760  0.558940  0.392200  1.0  -0.19
  N  N648  1  0.246000  0.545800  0.429030  1.0  -0.2885
  N  N649  1  0.199900  0.633900  0.563200  1.0  -0.3834
  N  N650  1  0.219240  0.558940  0.607800  1.0  -0.1901
  N  N651  1  0.254000  0.545800  0.570970  1.0  -0.2882
  N  N652  1  0.699900  0.133900  0.063200  1.0  -0.3835
  N  N653  1  0.719240  0.058940  0.107800  1.0  -0.1901
  N  N654  1  0.754000  0.045800  0.070970  1.0  -0.2882
  N  N655  1  0.699900  0.866100  0.436800  1.0  -0.3789
  N  N656  1  0.719240  0.941060  0.392200  1.0  -0.1884
  N  N657  1  0.754000  0.954200  0.429030  1.0  -0.2882
  N  N658  1  0.199900  0.366100  0.936800  1.0  -0.3785
  N  N659  1  0.219240  0.441060  0.892200  1.0  -0.1883
  N  N660  1  0.254000  0.454200  0.929030  1.0  -0.2882
  N  N661  1  0.063200  0.300100  0.366100  1.0  -0.3849
  N  N662  1  0.107800  0.280760  0.441060  1.0  -0.1868
  N  N663  1  0.070970  0.246000  0.454200  1.0  -0.2934
  N  N664  1  0.563200  0.800100  0.866100  1.0  -0.3851
  N  N665  1  0.607800  0.780760  0.941060  1.0  -0.1868
  N  N666  1  0.570970  0.746000  0.954200  1.0  -0.2934
  N  N667  1  0.936800  0.800100  0.133900  1.0  -0.3847
  N  N668  1  0.892200  0.780760  0.058940  1.0  -0.1867
  N  N669  1  0.929030  0.746000  0.045800  1.0  -0.29
  N  N670  1  0.436800  0.300100  0.633900  1.0  -0.3849
  N  N671  1  0.392200  0.280760  0.558940  1.0  -0.1868
  N  N672  1  0.429030  0.246000  0.545800  1.0  -0.29
  N  N673  1  0.563200  0.199900  0.633900  1.0  -0.3832
  N  N674  1  0.607800  0.219240  0.558940  1.0  -0.1867
  N  N675  1  0.570970  0.254000  0.545800  1.0  -0.2915
  N  N676  1  0.063200  0.699900  0.133900  1.0  -0.3831
  N  N677  1  0.107800  0.719240  0.058940  1.0  -0.1868
  N  N678  1  0.070970  0.754000  0.045800  1.0  -0.2915
  N  N679  1  0.436800  0.699900  0.866100  1.0  -0.385
  N  N680  1  0.392200  0.719240  0.941060  1.0  -0.1872
  N  N681  1  0.429030  0.754000  0.954200  1.0  -0.2898
  N  N682  1  0.936800  0.199900  0.366100  1.0  -0.385
  N  N683  1  0.892200  0.219240  0.441060  1.0  -0.1872
  N  N684  1  0.929030  0.254000  0.454200  1.0  -0.2898
  N  N685  1  0.562200  0.937800  0.062200  1.0  -0.2223
  N  N686  1  0.062200  0.437800  0.562200  1.0  -0.2223
  N  N687  1  0.937800  0.062200  0.562200  1.0  -0.2212
  N  N688  1  0.437800  0.562200  0.062200  1.0  -0.2212
  N  N689  1  0.437800  0.437800  0.437800  1.0  -0.2212
  N  N690  1  0.937800  0.937800  0.937800  1.0  -0.2212
  N  N691  1  0.062200  0.562200  0.937800  1.0  -0.2223
  N  N692  1  0.562200  0.062200  0.437800  1.0  -0.2223
