# generated using pymatgen
data_Ag3H72(C39N10)2
_symmetry_space_group_name_H-M   'P 1'
_cell_length_a   25.36900000
_cell_length_b   25.36900000
_cell_length_c   25.36900000
_cell_angle_alpha   90.00000000
_cell_angle_beta   90.00000000
_cell_angle_gamma   90.00000000
_symmetry_Int_Tables_number   1
_chemical_formula_structural   Ag3H72(C39N10)2
_chemical_formula_sum   'Ag12 H288 C312 N80'
_cell_volume   16327.13731841
_cell_formula_units_Z   4
loop_
 _symmetry_equiv_pos_site_id
 _symmetry_equiv_pos_as_xyz
  1  'x, y, z'
loop_
 _atom_site_type_symbol
 _atom_site_label
 _atom_site_symmetry_multiplicity
 _atom_site_fract_x
 _atom_site_fract_y
 _atom_site_fract_z
 _atom_site_occupancy
 _atom_site_charge
  Ag  Ag1  1  0.387000  0.000000  0.250000  1.0  0.3277
  Ag  Ag2  1  0.113000  0.000000  0.750000  1.0  0.3286
  Ag  Ag3  1  0.613000  0.500000  0.250000  1.0  0.3286
  Ag  Ag4  1  0.887000  0.500000  0.750000  1.0  0.3277
  Ag  Ag5  1  0.250000  0.387000  0.000000  1.0  0.3217
  Ag  Ag6  1  0.750000  0.113000  0.000000  1.0  0.3132
  Ag  Ag7  1  0.250000  0.613000  0.500000  1.0  0.3132
  Ag  Ag8  1  0.750000  0.887000  0.500000  1.0  0.3217
  Ag  Ag9  1  0.000000  0.250000  0.387000  1.0  0.3101
  Ag  Ag10  1  0.000000  0.750000  0.113000  1.0  0.3113
  Ag  Ag11  1  0.500000  0.250000  0.613000  1.0  0.3113
  Ag  Ag12  1  0.500000  0.750000  0.887000  1.0  0.3101
  H  H13  1  0.459700  0.132000  0.292300  1.0  0.1925
  H  H14  1  0.291000  0.034300  0.319700  1.0  0.0863
  H  H15  1  0.262900  0.100300  0.377100  1.0  0.1022
  H  H16  1  0.312600  0.179900  0.377900  1.0  0.1094
  H  H17  1  0.394800  0.178400  0.345000  1.0  0.0706
  H  H18  1  0.521500  0.128600  0.281600  1.0  0.0996
  H  H19  1  0.552400  0.131600  0.228200  1.0  0.0942
  H  H20  1  0.566800  0.088300  0.269900  1.0  0.1074
  H  H21  1  0.590000  0.033500  0.201100  1.0  0.0915
  H  H22  1  0.612600  0.985100  0.126900  1.0  0.1016
  H  H23  1  0.460900  0.976200  0.089200  1.0  0.1229
  H  H24  1  0.440600  0.025000  0.158800  1.0  0.0761
  H  H25  1  0.959700  0.632000  0.792300  1.0  0.1925
  H  H26  1  0.791000  0.534300  0.819700  1.0  0.0862
  H  H27  1  0.762900  0.600300  0.877100  1.0  0.1022
  H  H28  1  0.812600  0.679900  0.877900  1.0  0.1094
  H  H29  1  0.894800  0.678400  0.845000  1.0  0.0706
  H  H30  1  0.021500  0.628600  0.781600  1.0  0.0996
  H  H31  1  0.052400  0.631600  0.728200  1.0  0.0942
  H  H32  1  0.066800  0.588300  0.769900  1.0  0.1074
  H  H33  1  0.090000  0.533500  0.701100  1.0  0.0915
  H  H34  1  0.112600  0.485100  0.626900  1.0  0.1016
  H  H35  1  0.960900  0.476200  0.589200  1.0  0.1229
  H  H36  1  0.940600  0.525000  0.658800  1.0  0.0761
  H  H37  1  0.040300  0.868000  0.792300  1.0  0.1941
  H  H38  1  0.209000  0.965700  0.819700  1.0  0.0877
  H  H39  1  0.237100  0.899700  0.877100  1.0  0.1027
  H  H40  1  0.187400  0.820100  0.877900  1.0  0.1072
  H  H41  1  0.105200  0.821600  0.845000  1.0  0.0708
  H  H42  1  0.978500  0.871400  0.781600  1.0  0.1012
  H  H43  1  0.947600  0.868400  0.728200  1.0  0.0932
  H  H44  1  0.933200  0.911700  0.769900  1.0  0.1076
  H  H45  1  0.910000  0.966500  0.701100  1.0  0.0912
  H  H46  1  0.887400  0.014900  0.626900  1.0  0.1011
  H  H47  1  0.039100  0.023800  0.589200  1.0  0.1224
  H  H48  1  0.059400  0.975000  0.658800  1.0  0.0739
  H  H49  1  0.540300  0.368000  0.292300  1.0  0.194
  H  H50  1  0.709000  0.465700  0.319700  1.0  0.087
  H  H51  1  0.737100  0.399700  0.377100  1.0  0.1001
  H  H52  1  0.687400  0.320100  0.377900  1.0  0.1072
  H  H53  1  0.605200  0.321600  0.345000  1.0  0.0708
  H  H54  1  0.478500  0.371400  0.281600  1.0  0.1012
  H  H55  1  0.447600  0.368400  0.228200  1.0  0.0932
  H  H56  1  0.433200  0.411700  0.269900  1.0  0.1073
  H  H57  1  0.410000  0.466500  0.201100  1.0  0.0912
  H  H58  1  0.387400  0.514900  0.126900  1.0  0.1011
  H  H59  1  0.539100  0.523800  0.089200  1.0  0.1228
  H  H60  1  0.559400  0.475000  0.158800  1.0  0.0739
  H  H61  1  0.540300  0.632000  0.207700  1.0  0.1934
  H  H62  1  0.709000  0.534300  0.180300  1.0  0.0851
  H  H63  1  0.737100  0.600300  0.122900  1.0  0.1032
  H  H64  1  0.687400  0.679900  0.122100  1.0  0.1076
  H  H65  1  0.605200  0.678400  0.155000  1.0  0.0706
  H  H66  1  0.478500  0.628600  0.218400  1.0  0.1009
  H  H67  1  0.447600  0.631600  0.271800  1.0  0.0932
  H  H68  1  0.433200  0.588300  0.230100  1.0  0.1077
  H  H69  1  0.410000  0.533500  0.298900  1.0  0.0882
  H  H70  1  0.387400  0.485100  0.373100  1.0  0.1013
  H  H71  1  0.539100  0.476200  0.410800  1.0  0.123
  H  H72  1  0.559400  0.525000  0.341200  1.0  0.0752
  H  H73  1  0.040300  0.132000  0.707700  1.0  0.1934
  H  H74  1  0.209000  0.034300  0.680300  1.0  0.0851
  H  H75  1  0.237100  0.100300  0.622900  1.0  0.1032
  H  H76  1  0.187400  0.179900  0.622100  1.0  0.1076
  H  H77  1  0.105200  0.178400  0.655000  1.0  0.0706
  H  H78  1  0.978500  0.128600  0.718400  1.0  0.1009
  H  H79  1  0.947600  0.131600  0.771800  1.0  0.0932
  H  H80  1  0.933200  0.088300  0.730100  1.0  0.1079
  H  H81  1  0.910000  0.033500  0.798900  1.0  0.0902
  H  H82  1  0.887400  0.985100  0.873100  1.0  0.1013
  H  H83  1  0.039100  0.976200  0.910800  1.0  0.123
  H  H84  1  0.059400  0.025000  0.841200  1.0  0.0752
  H  H85  1  0.959700  0.368000  0.707700  1.0  0.1925
  H  H86  1  0.791000  0.465700  0.680300  1.0  0.087
  H  H87  1  0.762900  0.399700  0.622900  1.0  0.1018
  H  H88  1  0.812600  0.320100  0.622100  1.0  0.1103
  H  H89  1  0.894800  0.321600  0.655000  1.0  0.0703
  H  H90  1  0.021500  0.371400  0.718400  1.0  0.0984
  H  H91  1  0.052400  0.368400  0.771800  1.0  0.094
  H  H92  1  0.066800  0.411700  0.730100  1.0  0.1078
  H  H93  1  0.090000  0.466500  0.798900  1.0  0.0906
  H  H94  1  0.112600  0.514900  0.873100  1.0  0.1006
  H  H95  1  0.960900  0.523800  0.910800  1.0  0.1258
  H  H96  1  0.940600  0.475000  0.841200  1.0  0.0763
  H  H97  1  0.459700  0.868000  0.207700  1.0  0.1925
  H  H98  1  0.291000  0.965700  0.180300  1.0  0.0878
  H  H99  1  0.262900  0.899700  0.122900  1.0  0.1048
  H  H100  1  0.312600  0.820100  0.122100  1.0  0.1103
  H  H101  1  0.394800  0.821600  0.155000  1.0  0.0703
  H  H102  1  0.521500  0.871400  0.218400  1.0  0.0991
  H  H103  1  0.552400  0.868400  0.271800  1.0  0.094
  H  H104  1  0.566800  0.911700  0.230100  1.0  0.1078
  H  H105  1  0.590000  0.966500  0.298900  1.0  0.0905
  H  H106  1  0.612600  0.014900  0.373100  1.0  0.1006
  H  H107  1  0.460900  0.023800  0.410800  1.0  0.1256
  H  H108  1  0.440600  0.975000  0.341200  1.0  0.0763
  H  H109  1  0.292300  0.459700  0.132000  1.0  0.1951
  H  H110  1  0.319700  0.291000  0.034300  1.0  0.0863
  H  H111  1  0.377100  0.262900  0.100300  1.0  0.1051
  H  H112  1  0.377900  0.312600  0.179900  1.0  0.1103
  H  H113  1  0.345000  0.394800  0.178400  1.0  0.0702
  H  H114  1  0.281600  0.521500  0.128600  1.0  0.104
  H  H115  1  0.228200  0.552400  0.131600  1.0  0.0938
  H  H116  1  0.269900  0.566800  0.088300  1.0  0.1058
  H  H117  1  0.201100  0.590000  0.033500  1.0  0.0933
  H  H118  1  0.126900  0.612600  0.985100  1.0  0.1001
  H  H119  1  0.089200  0.460900  0.976200  1.0  0.1236
  H  H120  1  0.158800  0.440600  0.025000  1.0  0.0741
  H  H121  1  0.792300  0.959700  0.632000  1.0  0.1951
  H  H122  1  0.819700  0.791000  0.534300  1.0  0.0861
  H  H123  1  0.877100  0.762900  0.600300  1.0  0.1051
  H  H124  1  0.877900  0.812600  0.679900  1.0  0.1103
  H  H125  1  0.845000  0.894800  0.678400  1.0  0.0702
  H  H126  1  0.781600  0.021500  0.628600  1.0  0.1041
  H  H127  1  0.728200  0.052400  0.631600  1.0  0.0938
  H  H128  1  0.769900  0.066800  0.588300  1.0  0.1058
  H  H129  1  0.701100  0.090000  0.533500  1.0  0.0927
  H  H130  1  0.626900  0.112600  0.485100  1.0  0.1001
  H  H131  1  0.589200  0.960900  0.476200  1.0  0.1236
  H  H132  1  0.658800  0.940600  0.525000  1.0  0.0741
  H  H133  1  0.792300  0.040300  0.868000  1.0  0.1958
  H  H134  1  0.819700  0.209000  0.965700  1.0  0.0871
  H  H135  1  0.877100  0.237100  0.899700  1.0  0.1043
  H  H136  1  0.877900  0.187400  0.820100  1.0  0.1083
  H  H137  1  0.845000  0.105200  0.821600  1.0  0.0698
  H  H138  1  0.781600  0.978500  0.871400  1.0  0.1015
  H  H139  1  0.728200  0.947600  0.868400  1.0  0.0939
  H  H140  1  0.769900  0.933200  0.911700  1.0  0.1052
  H  H141  1  0.701100  0.910000  0.966500  1.0  0.092
  H  H142  1  0.626900  0.887400  0.014900  1.0  0.1004
  H  H143  1  0.589200  0.039100  0.023800  1.0  0.1238
  H  H144  1  0.658800  0.059400  0.975000  1.0  0.0734
  H  H145  1  0.292300  0.540300  0.368000  1.0  0.1958
  H  H146  1  0.319700  0.709000  0.465700  1.0  0.0866
  H  H147  1  0.377100  0.737100  0.399700  1.0  0.1016
  H  H148  1  0.377900  0.687400  0.320100  1.0  0.1083
  H  H149  1  0.345000  0.605200  0.321600  1.0  0.0698
  H  H150  1  0.281600  0.478500  0.371400  1.0  0.1015
  H  H151  1  0.228200  0.447600  0.368400  1.0  0.0939
  H  H152  1  0.269900  0.433200  0.411700  1.0  0.1053
  H  H153  1  0.201100  0.410000  0.466500  1.0  0.092
  H  H154  1  0.126900  0.387400  0.514900  1.0  0.1004
  H  H155  1  0.089200  0.539100  0.523800  1.0  0.124
  H  H156  1  0.158800  0.559400  0.475000  1.0  0.0734
  H  H157  1  0.207700  0.540300  0.632000  1.0  0.1965
  H  H158  1  0.180300  0.709000  0.534300  1.0  0.0849
  H  H159  1  0.122900  0.737100  0.600300  1.0  0.1044
  H  H160  1  0.122100  0.687400  0.679900  1.0  0.1086
  H  H161  1  0.155000  0.605200  0.678400  1.0  0.0696
  H  H162  1  0.218400  0.478500  0.628600  1.0  0.1016
  H  H163  1  0.271800  0.447600  0.631600  1.0  0.0938
  H  H164  1  0.230100  0.433200  0.588300  1.0  0.1074
  H  H165  1  0.298900  0.410000  0.533500  1.0  0.0888
  H  H166  1  0.373100  0.387400  0.485100  1.0  0.1
  H  H167  1  0.410800  0.539100  0.476200  1.0  0.1218
  H  H168  1  0.341200  0.559400  0.525000  1.0  0.0733
  H  H169  1  0.707700  0.040300  0.132000  1.0  0.1966
  H  H170  1  0.680300  0.209000  0.034300  1.0  0.0849
  H  H171  1  0.622900  0.237100  0.100300  1.0  0.1044
  H  H172  1  0.622100  0.187400  0.179900  1.0  0.1086
  H  H173  1  0.655000  0.105200  0.178400  1.0  0.0696
  H  H174  1  0.718400  0.978500  0.128600  1.0  0.1016
  H  H175  1  0.771800  0.947600  0.131600  1.0  0.0938
  H  H176  1  0.730100  0.933200  0.088300  1.0  0.1074
  H  H177  1  0.798900  0.910000  0.033500  1.0  0.0893
  H  H178  1  0.873100  0.887400  0.985100  1.0  0.1001
  H  H179  1  0.910800  0.039100  0.976200  1.0  0.1218
  H  H180  1  0.841200  0.059400  0.025000  1.0  0.0733
  H  H181  1  0.707700  0.959700  0.368000  1.0  0.1956
  H  H182  1  0.680300  0.791000  0.465700  1.0  0.087
  H  H183  1  0.622900  0.762900  0.399700  1.0  0.1043
  H  H184  1  0.622100  0.812600  0.320100  1.0  0.11
  H  H185  1  0.655000  0.894800  0.321600  1.0  0.0694
  H  H186  1  0.718400  0.021500  0.371400  1.0  0.1
  H  H187  1  0.771800  0.052400  0.368400  1.0  0.0943
  H  H188  1  0.730100  0.066800  0.411700  1.0  0.105
  H  H189  1  0.798900  0.090000  0.466500  1.0  0.0928
  H  H190  1  0.873100  0.112600  0.514900  1.0  0.1003
  H  H191  1  0.910800  0.960900  0.523800  1.0  0.1226
  H  H192  1  0.841200  0.940600  0.475000  1.0  0.0737
  H  H193  1  0.207700  0.459700  0.868000  1.0  0.1956
  H  H194  1  0.180300  0.291000  0.965700  1.0  0.0877
  H  H195  1  0.122900  0.262900  0.899700  1.0  0.1072
  H  H196  1  0.122100  0.312600  0.820100  1.0  0.11
  H  H197  1  0.155000  0.394800  0.821600  1.0  0.0694
  H  H198  1  0.218400  0.521500  0.871400  1.0  0.1008
  H  H199  1  0.271800  0.552400  0.868400  1.0  0.0943
  H  H200  1  0.230100  0.566800  0.911700  1.0  0.105
  H  H201  1  0.298900  0.590000  0.966500  1.0  0.0927
  H  H202  1  0.373100  0.612600  0.014900  1.0  0.1003
  H  H203  1  0.410800  0.460900  0.023800  1.0  0.1223
  H  H204  1  0.341200  0.440600  0.975000  1.0  0.0737
  H  H205  1  0.132000  0.292300  0.459700  1.0  0.1943
  H  H206  1  0.034300  0.319700  0.291000  1.0  0.0862
  H  H207  1  0.100300  0.377100  0.262900  1.0  0.1001
  H  H208  1  0.179900  0.377900  0.312600  1.0  0.1092
  H  H209  1  0.178400  0.345000  0.394800  1.0  0.0696
  H  H210  1  0.128600  0.281600  0.521500  1.0  0.1033
  H  H211  1  0.131600  0.228200  0.552400  1.0  0.0941
  H  H212  1  0.088300  0.269900  0.566800  1.0  0.1101
  H  H213  1  0.033500  0.201100  0.590000  1.0  0.0928
  H  H214  1  0.985100  0.126900  0.612600  1.0  0.1014
  H  H215  1  0.976200  0.089200  0.460900  1.0  0.1229
  H  H216  1  0.025000  0.158800  0.440600  1.0  0.0767
  H  H217  1  0.632000  0.792300  0.959700  1.0  0.1943
  H  H218  1  0.534300  0.819700  0.791000  1.0  0.086
  H  H219  1  0.600300  0.877100  0.762900  1.0  0.1001
  H  H220  1  0.679900  0.877900  0.812600  1.0  0.1092
  H  H221  1  0.678400  0.845000  0.894800  1.0  0.0696
  H  H222  1  0.628600  0.781600  0.021500  1.0  0.1033
  H  H223  1  0.631600  0.728200  0.052400  1.0  0.0941
  H  H224  1  0.588300  0.769900  0.066800  1.0  0.1101
  H  H225  1  0.533500  0.701100  0.090000  1.0  0.0923
  H  H226  1  0.485100  0.626900  0.112600  1.0  0.1013
  H  H227  1  0.476200  0.589200  0.960900  1.0  0.1229
  H  H228  1  0.525000  0.658800  0.940600  1.0  0.0767
  H  H229  1  0.868000  0.792300  0.040300  1.0  0.1964
  H  H230  1  0.965700  0.819700  0.209000  1.0  0.0853
  H  H231  1  0.899700  0.877100  0.237100  1.0  0.1018
  H  H232  1  0.820100  0.877900  0.187400  1.0  0.1079
  H  H233  1  0.821600  0.845000  0.105200  1.0  0.0686
  H  H234  1  0.871400  0.781600  0.978500  1.0  0.1039
  H  H235  1  0.868400  0.728200  0.947600  1.0  0.0933
  H  H236  1  0.911700  0.769900  0.933200  1.0  0.1091
  H  H237  1  0.966500  0.701100  0.910000  1.0  0.092
  H  H238  1  0.014900  0.626900  0.887400  1.0  0.1025
  H  H239  1  0.023800  0.589200  0.039100  1.0  0.1217
  H  H240  1  0.975000  0.658800  0.059400  1.0  0.0761
  H  H241  1  0.368000  0.292300  0.540300  1.0  0.1964
  H  H242  1  0.465700  0.319700  0.709000  1.0  0.0852
  H  H243  1  0.399700  0.377100  0.737100  1.0  0.0991
  H  H244  1  0.320100  0.377900  0.687400  1.0  0.1079
  H  H245  1  0.321600  0.345000  0.605200  1.0  0.0686
  H  H246  1  0.371400  0.281600  0.478500  1.0  0.1039
  H  H247  1  0.368400  0.228200  0.447600  1.0  0.0933
  H  H248  1  0.411700  0.269900  0.433200  1.0  0.1091
  H  H249  1  0.466500  0.201100  0.410000  1.0  0.092
  H  H250  1  0.514900  0.126900  0.387400  1.0  0.1025
  H  H251  1  0.523800  0.089200  0.539100  1.0  0.1218
  H  H252  1  0.475000  0.158800  0.559400  1.0  0.0761
  H  H253  1  0.632000  0.207700  0.540300  1.0  0.1959
  H  H254  1  0.534300  0.180300  0.709000  1.0  0.0849
  H  H255  1  0.600300  0.122900  0.737100  1.0  0.1022
  H  H256  1  0.679900  0.122100  0.687400  1.0  0.1082
  H  H257  1  0.678400  0.155000  0.605200  1.0  0.0694
  H  H258  1  0.628600  0.218400  0.478500  1.0  0.103
  H  H259  1  0.631600  0.271800  0.447600  1.0  0.0944
  H  H260  1  0.588300  0.230100  0.433200  1.0  0.1116
  H  H261  1  0.533500  0.298900  0.410000  1.0  0.0916
  H  H262  1  0.485100  0.373100  0.387400  1.0  0.1021
  H  H263  1  0.476200  0.410800  0.539100  1.0  0.1233
  H  H264  1  0.525000  0.341200  0.559400  1.0  0.0746
  H  H265  1  0.132000  0.707700  0.040300  1.0  0.1959
  H  H266  1  0.034300  0.680300  0.209000  1.0  0.0849
  H  H267  1  0.100300  0.622900  0.237100  1.0  0.1022
  H  H268  1  0.179900  0.622100  0.187400  1.0  0.1082
  H  H269  1  0.178400  0.655000  0.105200  1.0  0.0694
  H  H270  1  0.128600  0.718400  0.978500  1.0  0.103
  H  H271  1  0.131600  0.771800  0.947600  1.0  0.0944
  H  H272  1  0.088300  0.730100  0.933200  1.0  0.1118
  H  H273  1  0.033500  0.798900  0.910000  1.0  0.0923
  H  H274  1  0.985100  0.873100  0.887400  1.0  0.1024
  H  H275  1  0.976200  0.910800  0.039100  1.0  0.1233
  H  H276  1  0.025000  0.841200  0.059400  1.0  0.0746
  H  H277  1  0.368000  0.707700  0.959700  1.0  0.1953
  H  H278  1  0.465700  0.680300  0.791000  1.0  0.0869
  H  H279  1  0.399700  0.622900  0.762900  1.0  0.1003
  H  H280  1  0.320100  0.622100  0.812600  1.0  0.1097
  H  H281  1  0.321600  0.655000  0.894800  1.0  0.0686
  H  H282  1  0.371400  0.718400  0.021500  1.0  0.1027
  H  H283  1  0.368400  0.771800  0.052400  1.0  0.0939
  H  H284  1  0.411700  0.730100  0.066800  1.0  0.1095
  H  H285  1  0.466500  0.798900  0.090000  1.0  0.0916
  H  H286  1  0.514900  0.873100  0.112600  1.0  0.1017
  H  H287  1  0.523800  0.910800  0.960900  1.0  0.1233
  H  H288  1  0.475000  0.841200  0.940600  1.0  0.0752
  H  H289  1  0.868000  0.207700  0.459700  1.0  0.1953
  H  H290  1  0.965700  0.180300  0.291000  1.0  0.0876
  H  H291  1  0.899700  0.122900  0.262900  1.0  0.1029
  H  H292  1  0.820100  0.122100  0.312600  1.0  0.1097
  H  H293  1  0.821600  0.155000  0.394800  1.0  0.0686
  H  H294  1  0.871400  0.218400  0.521500  1.0  0.1025
  H  H295  1  0.868400  0.271800  0.552400  1.0  0.0939
  H  H296  1  0.911700  0.230100  0.566800  1.0  0.1095
  H  H297  1  0.966500  0.298900  0.590000  1.0  0.0917
  H  H298  1  0.014900  0.373100  0.612600  1.0  0.1017
  H  H299  1  0.023800  0.410800  0.460900  1.0  0.123
  H  H300  1  0.975000  0.341200  0.440600  1.0  0.0752
  C  C301  1  0.312900  0.063000  0.326500  1.0  0.1271
  C  C302  1  0.294300  0.103500  0.358500  1.0  -0.1221
  C  C303  1  0.325300  0.149800  0.361300  1.0  -0.1794
  C  C304  1  0.373100  0.149300  0.339700  1.0  -0.1339
  C  C305  1  0.392200  0.108300  0.310200  1.0  0.4353
  C  C306  1  0.499400  0.071500  0.229800  1.0  0.1232
  C  C307  1  0.538600  0.108300  0.254600  1.0  -0.3662
  C  C308  1  0.512700  0.038300  0.186600  1.0  0.0935
  C  C309  1  0.563800  0.023300  0.177500  1.0  -0.1676
  C  C310  1  0.577500  0.993200  0.133800  1.0  -0.2087
  C  C311  1  0.539900  0.976300  0.102500  1.0  0.1704
  C  C312  1  0.487200  0.988500  0.111600  1.0  -0.2073
  C  C313  1  0.475900  0.017600  0.152300  1.0  -0.0482
  C  C314  1  0.812900  0.563000  0.826500  1.0  0.1271
  C  C315  1  0.794300  0.603500  0.858500  1.0  -0.1221
  C  C316  1  0.825300  0.649800  0.861300  1.0  -0.1794
  C  C317  1  0.873100  0.649300  0.839700  1.0  -0.1339
  C  C318  1  0.892200  0.608300  0.810200  1.0  0.4353
  C  C319  1  0.999400  0.571500  0.729800  1.0  0.1232
  C  C320  1  0.038600  0.608300  0.754600  1.0  -0.3662
  C  C321  1  0.012700  0.538300  0.686600  1.0  0.0935
  C  C322  1  0.063800  0.523300  0.677500  1.0  -0.1688
  C  C323  1  0.077500  0.493200  0.633800  1.0  -0.2091
  C  C324  1  0.039900  0.476300  0.602500  1.0  0.1704
  C  C325  1  0.987200  0.488500  0.611600  1.0  -0.2071
  C  C326  1  0.975900  0.517600  0.652300  1.0  -0.049
  C  C327  1  0.187100  0.937000  0.826500  1.0  0.1187
  C  C328  1  0.205700  0.896500  0.858500  1.0  -0.1231
  C  C329  1  0.174700  0.850200  0.861300  1.0  -0.1684
  C  C330  1  0.126900  0.850700  0.839700  1.0  -0.1344
  C  C331  1  0.107800  0.891700  0.810200  1.0  0.4347
  C  C332  1  0.000600  0.928500  0.729800  1.0  0.1234
  C  C333  1  0.961400  0.891700  0.754600  1.0  -0.3641
  C  C334  1  0.987300  0.961700  0.686600  1.0  0.0925
  C  C335  1  0.936200  0.976700  0.677500  1.0  -0.1693
  C  C336  1  0.922500  0.006800  0.633800  1.0  -0.2074
  C  C337  1  0.960100  0.023700  0.602500  1.0  0.1714
  C  C338  1  0.012800  0.011500  0.611600  1.0  -0.2078
  C  C339  1  0.024100  0.982400  0.652300  1.0  -0.0444
  C  C340  1  0.687100  0.437000  0.326500  1.0  0.1187
  C  C341  1  0.705700  0.396500  0.358500  1.0  -0.1231
  C  C342  1  0.674700  0.350200  0.361300  1.0  -0.1684
  C  C343  1  0.626900  0.350700  0.339700  1.0  -0.1344
  C  C344  1  0.607800  0.391700  0.310200  1.0  0.4347
  C  C345  1  0.500600  0.428500  0.229800  1.0  0.1234
  C  C346  1  0.461400  0.391700  0.254600  1.0  -0.3641
  C  C347  1  0.487300  0.461700  0.186600  1.0  0.0925
  C  C348  1  0.436200  0.476700  0.177500  1.0  -0.1763
  C  C349  1  0.422500  0.506800  0.133800  1.0  -0.2083
  C  C350  1  0.460100  0.523700  0.102500  1.0  0.1714
  C  C351  1  0.512800  0.511500  0.111600  1.0  -0.2078
  C  C352  1  0.524100  0.482400  0.152300  1.0  -0.0442
  C  C353  1  0.687100  0.563000  0.173500  1.0  0.1196
  C  C354  1  0.705700  0.603500  0.141500  1.0  -0.1242
  C  C355  1  0.674700  0.649800  0.138700  1.0  -0.17
  C  C356  1  0.626900  0.649300  0.160300  1.0  -0.1332
  C  C357  1  0.607800  0.608300  0.189800  1.0  0.4355
  C  C358  1  0.500600  0.571500  0.270200  1.0  0.123
  C  C359  1  0.461400  0.608300  0.245400  1.0  -0.3656
  C  C360  1  0.487300  0.538300  0.313400  1.0  0.0936
  C  C361  1  0.436200  0.523300  0.322500  1.0  -0.1675
  C  C362  1  0.422500  0.493200  0.366200  1.0  -0.2081
  C  C363  1  0.460100  0.476300  0.397500  1.0  0.1701
  C  C364  1  0.512800  0.488500  0.388400  1.0  -0.2079
  C  C365  1  0.524100  0.517600  0.347700  1.0  -0.0418
  C  C366  1  0.187100  0.063000  0.673500  1.0  0.1196
  C  C367  1  0.205700  0.103500  0.641500  1.0  -0.1242
  C  C368  1  0.174700  0.149800  0.638700  1.0  -0.17
  C  C369  1  0.126900  0.149300  0.660300  1.0  -0.1332
  C  C370  1  0.107800  0.108300  0.689800  1.0  0.4355
  C  C371  1  0.000600  0.071500  0.770200  1.0  0.123
  C  C372  1  0.961400  0.108300  0.745400  1.0  -0.3656
  C  C373  1  0.987300  0.038300  0.813400  1.0  0.0936
  C  C374  1  0.936200  0.023300  0.822500  1.0  -0.1679
  C  C375  1  0.922500  0.993200  0.866200  1.0  -0.2079
  C  C376  1  0.960100  0.976300  0.897500  1.0  0.1701
  C  C377  1  0.012800  0.988500  0.888400  1.0  -0.2075
  C  C378  1  0.024100  0.017600  0.847700  1.0  -0.0419
  C  C379  1  0.812900  0.437000  0.673500  1.0  0.1264
  C  C380  1  0.794300  0.396500  0.641500  1.0  -0.121
  C  C381  1  0.825300  0.350200  0.638700  1.0  -0.1706
  C  C382  1  0.873100  0.350700  0.660300  1.0  -0.1396
  C  C383  1  0.892200  0.391700  0.689800  1.0  0.4358
  C  C384  1  0.999400  0.428500  0.770200  1.0  0.1243
  C  C385  1  0.038600  0.391700  0.745400  1.0  -0.366
  C  C386  1  0.012700  0.461700  0.813400  1.0  0.0943
  C  C387  1  0.063800  0.476700  0.822500  1.0  -0.1782
  C  C388  1  0.077500  0.506800  0.866200  1.0  -0.2089
  C  C389  1  0.039900  0.523700  0.897500  1.0  0.1693
  C  C390  1  0.987200  0.511500  0.888400  1.0  -0.2091
  C  C391  1  0.975900  0.482400  0.847700  1.0  -0.0475
  C  C392  1  0.312900  0.937000  0.173500  1.0  0.1264
  C  C393  1  0.294300  0.896500  0.141500  1.0  -0.121
  C  C394  1  0.325300  0.850200  0.138700  1.0  -0.1706
  C  C395  1  0.373100  0.850700  0.160300  1.0  -0.1396
  C  C396  1  0.392200  0.891700  0.189800  1.0  0.4358
  C  C397  1  0.499400  0.928500  0.270200  1.0  0.1243
  C  C398  1  0.538600  0.891700  0.245400  1.0  -0.366
  C  C399  1  0.512700  0.961700  0.313400  1.0  0.0943
  C  C400  1  0.563800  0.976700  0.322500  1.0  -0.1722
  C  C401  1  0.577500  0.006800  0.366200  1.0  -0.2078
  C  C402  1  0.539900  0.023700  0.397500  1.0  0.1693
  C  C403  1  0.487200  0.011500  0.388400  1.0  -0.2091
  C  C404  1  0.475900  0.982400  0.347700  1.0  -0.0467
  C  C405  1  0.326500  0.312900  0.063000  1.0  0.1207
  C  C406  1  0.358500  0.294300  0.103500  1.0  -0.1285
  C  C407  1  0.361300  0.325300  0.149800  1.0  -0.1725
  C  C408  1  0.339700  0.373100  0.149300  1.0  -0.1363
  C  C409  1  0.310200  0.392200  0.108300  1.0  0.4362
  C  C410  1  0.229800  0.499400  0.071500  1.0  0.124
  C  C411  1  0.254600  0.538600  0.108300  1.0  -0.3693
  C  C412  1  0.186600  0.512700  0.038300  1.0  0.0933
  C  C413  1  0.177500  0.563800  0.023300  1.0  -0.1711
  C  C414  1  0.133800  0.577500  0.993200  1.0  -0.2042
  C  C415  1  0.102500  0.539900  0.976300  1.0  0.1702
  C  C416  1  0.111600  0.487200  0.988500  1.0  -0.2139
  C  C417  1  0.152300  0.475900  0.017600  1.0  -0.0489
  C  C418  1  0.826500  0.812900  0.563000  1.0  0.1207
  C  C419  1  0.858500  0.794300  0.603500  1.0  -0.1285
  C  C420  1  0.861300  0.825300  0.649800  1.0  -0.1725
  C  C421  1  0.839700  0.873100  0.649300  1.0  -0.1363
  C  C422  1  0.810200  0.892200  0.608300  1.0  0.4362
  C  C423  1  0.729800  0.999400  0.571500  1.0  0.124
  C  C424  1  0.754600  0.038600  0.608300  1.0  -0.3693
  C  C425  1  0.686600  0.012700  0.538300  1.0  0.0933
  C  C426  1  0.677500  0.063800  0.523300  1.0  -0.172
  C  C427  1  0.633800  0.077500  0.493200  1.0  -0.2045
  C  C428  1  0.602500  0.039900  0.476300  1.0  0.1702
  C  C429  1  0.611600  0.987200  0.488500  1.0  -0.2137
  C  C430  1  0.652300  0.975900  0.517600  1.0  -0.0509
  C  C431  1  0.826500  0.187100  0.937000  1.0  0.1152
  C  C432  1  0.858500  0.205700  0.896500  1.0  -0.1237
  C  C433  1  0.861300  0.174700  0.850200  1.0  -0.1708
  C  C434  1  0.839700  0.126900  0.850700  1.0  -0.1401
  C  C435  1  0.810200  0.107800  0.891700  1.0  0.4373
  C  C436  1  0.729800  0.000600  0.928500  1.0  0.1231
  C  C437  1  0.754600  0.961400  0.891700  1.0  -0.3675
  C  C438  1  0.686600  0.987300  0.961700  1.0  0.092
  C  C439  1  0.677500  0.936200  0.976700  1.0  -0.1703
  C  C440  1  0.633800  0.922500  0.006800  1.0  -0.2032
  C  C441  1  0.602500  0.960100  0.023700  1.0  0.1696
  C  C442  1  0.611600  0.012800  0.011500  1.0  -0.2142
  C  C443  1  0.652300  0.024100  0.982400  1.0  -0.0525
  C  C444  1  0.326500  0.687100  0.437000  1.0  0.1152
  C  C445  1  0.358500  0.705700  0.396500  1.0  -0.1237
  C  C446  1  0.361300  0.674700  0.350200  1.0  -0.1708
  C  C447  1  0.339700  0.626900  0.350700  1.0  -0.1401
  C  C448  1  0.310200  0.607800  0.391700  1.0  0.4373
  C  C449  1  0.229800  0.500600  0.428500  1.0  0.1231
  C  C450  1  0.254600  0.461400  0.391700  1.0  -0.3675
  C  C451  1  0.186600  0.487300  0.461700  1.0  0.092
  C  C452  1  0.177500  0.436200  0.476700  1.0  -0.17
  C  C453  1  0.133800  0.422500  0.506800  1.0  -0.2033
  C  C454  1  0.102500  0.460100  0.523700  1.0  0.1696
  C  C455  1  0.111600  0.512800  0.511500  1.0  -0.2142
  C  C456  1  0.152300  0.524100  0.482400  1.0  -0.0506
  C  C457  1  0.173500  0.687100  0.563000  1.0  0.1201
  C  C458  1  0.141500  0.705700  0.603500  1.0  -0.1233
  C  C459  1  0.138700  0.674700  0.649800  1.0  -0.1745
  C  C460  1  0.160300  0.626900  0.649300  1.0  -0.1385
  C  C461  1  0.189800  0.607800  0.608300  1.0  0.4366
  C  C462  1  0.270200  0.500600  0.571500  1.0  0.1232
  C  C463  1  0.245400  0.461400  0.608300  1.0  -0.3676
  C  C464  1  0.313400  0.487300  0.538300  1.0  0.0916
  C  C465  1  0.322500  0.436200  0.523300  1.0  -0.1789
  C  C466  1  0.366200  0.422500  0.493200  1.0  -0.2033
  C  C467  1  0.397500  0.460100  0.476300  1.0  0.1696
  C  C468  1  0.388400  0.512800  0.488500  1.0  -0.2163
  C  C469  1  0.347700  0.524100  0.517600  1.0  -0.047
  C  C470  1  0.673500  0.187100  0.063000  1.0  0.1201
  C  C471  1  0.641500  0.205700  0.103500  1.0  -0.1233
  C  C472  1  0.638700  0.174700  0.149800  1.0  -0.1745
  C  C473  1  0.660300  0.126900  0.149300  1.0  -0.1385
  C  C474  1  0.689800  0.107800  0.108300  1.0  0.4366
  C  C475  1  0.770200  0.000600  0.071500  1.0  0.1232
  C  C476  1  0.745400  0.961400  0.108300  1.0  -0.3676
  C  C477  1  0.813400  0.987300  0.038300  1.0  0.0916
  C  C478  1  0.822500  0.936200  0.023300  1.0  -0.174
  C  C479  1  0.866200  0.922500  0.993200  1.0  -0.2025
  C  C480  1  0.897500  0.960100  0.976300  1.0  0.1696
  C  C481  1  0.888400  0.012800  0.988500  1.0  -0.2167
  C  C482  1  0.847700  0.024100  0.017600  1.0  -0.0482
  C  C483  1  0.673500  0.812900  0.437000  1.0  0.1216
  C  C484  1  0.641500  0.794300  0.396500  1.0  -0.1238
  C  C485  1  0.638700  0.825300  0.350200  1.0  -0.1719
  C  C486  1  0.660300  0.873100  0.350700  1.0  -0.1388
  C  C487  1  0.689800  0.892200  0.391700  1.0  0.4348
  C  C488  1  0.770200  0.999400  0.428500  1.0  0.1219
  C  C489  1  0.745400  0.038600  0.391700  1.0  -0.3678
  C  C490  1  0.813400  0.012700  0.461700  1.0  0.0905
  C  C491  1  0.822500  0.063800  0.476700  1.0  -0.1808
  C  C492  1  0.866200  0.077500  0.506800  1.0  -0.2077
  C  C493  1  0.897500  0.039900  0.523700  1.0  0.1696
  C  C494  1  0.888400  0.987200  0.511500  1.0  -0.2156
  C  C495  1  0.847700  0.975900  0.482400  1.0  -0.0525
  C  C496  1  0.173500  0.312900  0.937000  1.0  0.1216
  C  C497  1  0.141500  0.294300  0.896500  1.0  -0.1238
  C  C498  1  0.138700  0.325300  0.850200  1.0  -0.1719
  C  C499  1  0.160300  0.373100  0.850700  1.0  -0.1388
  C  C500  1  0.189800  0.392200  0.891700  1.0  0.4348
  C  C501  1  0.270200  0.499400  0.928500  1.0  0.1219
  C  C502  1  0.245400  0.538600  0.891700  1.0  -0.3678
  C  C503  1  0.313400  0.512700  0.961700  1.0  0.0905
  C  C504  1  0.322500  0.563800  0.976700  1.0  -0.1746
  C  C505  1  0.366200  0.577500  0.006800  1.0  -0.2038
  C  C506  1  0.397500  0.539900  0.023700  1.0  0.1696
  C  C507  1  0.388400  0.487200  0.011500  1.0  -0.2156
  C  C508  1  0.347700  0.475900  0.982400  1.0  -0.0513
  C  C509  1  0.063000  0.326500  0.312900  1.0  0.1214
  C  C510  1  0.103500  0.358500  0.294300  1.0  -0.1245
  C  C511  1  0.149800  0.361300  0.325300  1.0  -0.1702
  C  C512  1  0.149300  0.339700  0.373100  1.0  -0.1321
  C  C513  1  0.108300  0.310200  0.392200  1.0  0.4349
  C  C514  1  0.071500  0.229800  0.499400  1.0  0.1247
  C  C515  1  0.108300  0.254600  0.538600  1.0  -0.3677
  C  C516  1  0.038300  0.186600  0.512700  1.0  0.0931
  C  C517  1  0.023300  0.177500  0.563800  1.0  -0.1687
  C  C518  1  0.993200  0.133800  0.577500  1.0  -0.2056
  C  C519  1  0.976300  0.102500  0.539900  1.0  0.1702
  C  C520  1  0.988500  0.111600  0.487200  1.0  -0.2086
  C  C521  1  0.017600  0.152300  0.475900  1.0  -0.049
  C  C522  1  0.563000  0.826500  0.812900  1.0  0.1214
  C  C523  1  0.603500  0.858500  0.794300  1.0  -0.1245
  C  C524  1  0.649800  0.861300  0.825300  1.0  -0.1702
  C  C525  1  0.649300  0.839700  0.873100  1.0  -0.1321
  C  C526  1  0.608300  0.810200  0.892200  1.0  0.4349
  C  C527  1  0.571500  0.729800  0.999400  1.0  0.1247
  C  C528  1  0.608300  0.754600  0.038600  1.0  -0.3677
  C  C529  1  0.538300  0.686600  0.012700  1.0  0.0931
  C  C530  1  0.523300  0.677500  0.063800  1.0  -0.1699
  C  C531  1  0.493200  0.633800  0.077500  1.0  -0.2063
  C  C532  1  0.476300  0.602500  0.039900  1.0  0.1702
  C  C533  1  0.488500  0.611600  0.987200  1.0  -0.2083
  C  C534  1  0.517600  0.652300  0.975900  1.0  -0.051
  C  C535  1  0.937000  0.826500  0.187100  1.0  0.1164
  C  C536  1  0.896500  0.858500  0.205700  1.0  -0.1251
  C  C537  1  0.850200  0.861300  0.174700  1.0  -0.1689
  C  C538  1  0.850700  0.839700  0.126900  1.0  -0.1369
  C  C539  1  0.891700  0.810200  0.107800  1.0  0.436
  C  C540  1  0.928500  0.729800  0.000600  1.0  0.1239
  C  C541  1  0.891700  0.754600  0.961400  1.0  -0.3693
  C  C542  1  0.961700  0.686600  0.987300  1.0  0.096
  C  C543  1  0.976700  0.677500  0.936200  1.0  -0.1705
  C  C544  1  0.006800  0.633800  0.922500  1.0  -0.2057
  C  C545  1  0.023700  0.602500  0.960100  1.0  0.1694
  C  C546  1  0.011500  0.611600  0.012800  1.0  -0.2112
  C  C547  1  0.982400  0.652300  0.024100  1.0  -0.0485
  C  C548  1  0.437000  0.326500  0.687100  1.0  0.1164
  C  C549  1  0.396500  0.358500  0.705700  1.0  -0.1251
  C  C550  1  0.350200  0.361300  0.674700  1.0  -0.1689
  C  C551  1  0.350700  0.339700  0.626900  1.0  -0.1369
  C  C552  1  0.391700  0.310200  0.607800  1.0  0.436
  C  C553  1  0.428500  0.229800  0.500600  1.0  0.1239
  C  C554  1  0.391700  0.254600  0.461400  1.0  -0.3693
  C  C555  1  0.461700  0.186600  0.487300  1.0  0.096
  C  C556  1  0.476700  0.177500  0.436200  1.0  -0.178
  C  C557  1  0.506800  0.133800  0.422500  1.0  -0.2066
  C  C558  1  0.523700  0.102500  0.460100  1.0  0.1694
  C  C559  1  0.511500  0.111600  0.512800  1.0  -0.2112
  C  C560  1  0.482400  0.152300  0.524100  1.0  -0.0471
  C  C561  1  0.563000  0.173500  0.687100  1.0  0.1218
  C  C562  1  0.603500  0.141500  0.705700  1.0  -0.125
  C  C563  1  0.649800  0.138700  0.674700  1.0  -0.1671
  C  C564  1  0.649300  0.160300  0.626900  1.0  -0.1346
  C  C565  1  0.608300  0.189800  0.607800  1.0  0.4369
  C  C566  1  0.571500  0.270200  0.500600  1.0  0.1241
  C  C567  1  0.608300  0.245400  0.461400  1.0  -0.3685
  C  C568  1  0.538300  0.313400  0.487300  1.0  0.0936
  C  C569  1  0.523300  0.322500  0.436200  1.0  -0.1687
  C  C570  1  0.493200  0.366200  0.422500  1.0  -0.2067
  C  C571  1  0.476300  0.397500  0.460100  1.0  0.1696
  C  C572  1  0.488500  0.388400  0.512800  1.0  -0.2109
  C  C573  1  0.517600  0.347700  0.524100  1.0  -0.0467
  C  C574  1  0.063000  0.673500  0.187100  1.0  0.1218
  C  C575  1  0.103500  0.641500  0.205700  1.0  -0.125
  C  C576  1  0.149800  0.638700  0.174700  1.0  -0.1671
  C  C577  1  0.149300  0.660300  0.126900  1.0  -0.1346
  C  C578  1  0.108300  0.689800  0.107800  1.0  0.4369
  C  C579  1  0.071500  0.770200  0.000600  1.0  0.1241
  C  C580  1  0.108300  0.745400  0.961400  1.0  -0.3685
  C  C581  1  0.038300  0.813400  0.987300  1.0  0.0936
  C  C582  1  0.023300  0.822500  0.936200  1.0  -0.1692
  C  C583  1  0.993200  0.866200  0.922500  1.0  -0.2067
  C  C584  1  0.976300  0.897500  0.960100  1.0  0.1696
  C  C585  1  0.988500  0.888400  0.012800  1.0  -0.2104
  C  C586  1  0.017600  0.847700  0.024100  1.0  -0.0486
  C  C587  1  0.437000  0.673500  0.812900  1.0  0.1213
  C  C588  1  0.396500  0.641500  0.794300  1.0  -0.1236
  C  C589  1  0.350200  0.638700  0.825300  1.0  -0.1729
  C  C590  1  0.350700  0.660300  0.873100  1.0  -0.1343
  C  C591  1  0.391700  0.689800  0.892200  1.0  0.4358
  C  C592  1  0.428500  0.770200  0.999400  1.0  0.1253
  C  C593  1  0.391700  0.745400  0.038600  1.0  -0.3692
  C  C594  1  0.461700  0.813400  0.012700  1.0  0.0951
  C  C595  1  0.476700  0.822500  0.063800  1.0  -0.1793
  C  C596  1  0.506800  0.866200  0.077500  1.0  -0.2092
  C  C597  1  0.523700  0.897500  0.039900  1.0  0.1693
  C  C598  1  0.511500  0.888400  0.987200  1.0  -0.2106
  C  C599  1  0.482400  0.847700  0.975900  1.0  -0.0503
  C  C600  1  0.937000  0.173500  0.312900  1.0  0.1213
  C  C601  1  0.896500  0.141500  0.294300  1.0  -0.1236
  C  C602  1  0.850200  0.138700  0.325300  1.0  -0.1729
  C  C603  1  0.850700  0.160300  0.373100  1.0  -0.1343
  C  C604  1  0.891700  0.189800  0.392200  1.0  0.4358
  C  C605  1  0.928500  0.270200  0.499400  1.0  0.1253
  C  C606  1  0.891700  0.245400  0.538600  1.0  -0.3692
  C  C607  1  0.961700  0.313400  0.512700  1.0  0.0951
  C  C608  1  0.976700  0.322500  0.563800  1.0  -0.173
  C  C609  1  0.006800  0.366200  0.577500  1.0  -0.2051
  C  C610  1  0.023700  0.397500  0.539900  1.0  0.1693
  C  C611  1  0.011500  0.388400  0.487200  1.0  -0.2106
  C  C612  1  0.982400  0.347700  0.475900  1.0  -0.0488
  N  N613  1  0.361400  0.063900  0.305100  1.0  -0.3801
  N  N614  1  0.436900  0.108000  0.284900  1.0  -0.1727
  N  N615  1  0.449300  0.072200  0.247900  1.0  -0.3048
  N  N616  1  0.861400  0.563900  0.805100  1.0  -0.3801
  N  N617  1  0.936900  0.608000  0.784900  1.0  -0.1727
  N  N618  1  0.949300  0.572200  0.747900  1.0  -0.3048
  N  N619  1  0.138600  0.936100  0.805100  1.0  -0.3764
  N  N620  1  0.063100  0.892000  0.784900  1.0  -0.1712
  N  N621  1  0.050700  0.927800  0.747900  1.0  -0.3019
  N  N622  1  0.638600  0.436100  0.305100  1.0  -0.3764
  N  N623  1  0.563100  0.392000  0.284900  1.0  -0.1712
  N  N624  1  0.550700  0.427800  0.247900  1.0  -0.3019
  N  N625  1  0.638600  0.563900  0.194900  1.0  -0.372
  N  N626  1  0.563100  0.608000  0.215100  1.0  -0.1724
  N  N627  1  0.550700  0.572200  0.252100  1.0  -0.2989
  N  N628  1  0.138600  0.063900  0.694900  1.0  -0.372
  N  N629  1  0.063100  0.108000  0.715100  1.0  -0.1724
  N  N630  1  0.050700  0.072200  0.752100  1.0  -0.2993
  N  N631  1  0.861400  0.436100  0.694900  1.0  -0.3797
  N  N632  1  0.936900  0.392000  0.715100  1.0  -0.1725
  N  N633  1  0.949300  0.427800  0.752100  1.0  -0.305
  N  N634  1  0.361400  0.936100  0.194900  1.0  -0.3797
  N  N635  1  0.436900  0.892000  0.215100  1.0  -0.1725
  N  N636  1  0.449300  0.927800  0.252100  1.0  -0.305
  N  N637  1  0.305100  0.361400  0.063900  1.0  -0.3808
  N  N638  1  0.284900  0.436900  0.108000  1.0  -0.1704
  N  N639  1  0.247900  0.449300  0.072200  1.0  -0.3046
  N  N640  1  0.805100  0.861400  0.563900  1.0  -0.3808
  N  N641  1  0.784900  0.936900  0.608000  1.0  -0.1704
  N  N642  1  0.747900  0.949300  0.572200  1.0  -0.3046
  N  N643  1  0.805100  0.138600  0.936100  1.0  -0.3781
  N  N644  1  0.784900  0.063100  0.892000  1.0  -0.1705
  N  N645  1  0.747900  0.050700  0.927800  1.0  -0.304
  N  N646  1  0.305100  0.638600  0.436100  1.0  -0.3781
  N  N647  1  0.284900  0.563100  0.392000  1.0  -0.1705
  N  N648  1  0.247900  0.550700  0.427800  1.0  -0.3039
  N  N649  1  0.194900  0.638600  0.563900  1.0  -0.3788
  N  N650  1  0.215100  0.563100  0.608000  1.0  -0.1712
  N  N651  1  0.252100  0.550700  0.572200  1.0  -0.3013
  N  N652  1  0.694900  0.138600  0.063900  1.0  -0.3788
  N  N653  1  0.715100  0.063100  0.108000  1.0  -0.1712
  N  N654  1  0.752100  0.050700  0.072200  1.0  -0.3013
  N  N655  1  0.694900  0.861400  0.436100  1.0  -0.3823
  N  N656  1  0.715100  0.936900  0.392000  1.0  -0.1724
  N  N657  1  0.752100  0.949300  0.427800  1.0  -0.3019
  N  N658  1  0.194900  0.361400  0.936100  1.0  -0.3823
  N  N659  1  0.215100  0.436900  0.892000  1.0  -0.1724
  N  N660  1  0.252100  0.449300  0.927800  1.0  -0.3019
  N  N661  1  0.063900  0.305100  0.361400  1.0  -0.383
  N  N662  1  0.108000  0.284900  0.436900  1.0  -0.1691
  N  N663  1  0.072200  0.247900  0.449300  1.0  -0.3058
  N  N664  1  0.563900  0.805100  0.861400  1.0  -0.383
  N  N665  1  0.608000  0.784900  0.936900  1.0  -0.1691
  N  N666  1  0.572200  0.747900  0.949300  1.0  -0.3058
  N  N667  1  0.936100  0.805100  0.138600  1.0  -0.3798
  N  N668  1  0.892000  0.784900  0.063100  1.0  -0.17
  N  N669  1  0.927800  0.747900  0.050700  1.0  -0.3027
  N  N670  1  0.436100  0.305100  0.638600  1.0  -0.3798
  N  N671  1  0.392000  0.284900  0.563100  1.0  -0.17
  N  N672  1  0.427800  0.247900  0.550700  1.0  -0.3029
  N  N673  1  0.563900  0.194900  0.638600  1.0  -0.3814
  N  N674  1  0.608000  0.215100  0.563100  1.0  -0.1705
  N  N675  1  0.572200  0.252100  0.550700  1.0  -0.3037
  N  N676  1  0.063900  0.694900  0.138600  1.0  -0.3814
  N  N677  1  0.108000  0.715100  0.063100  1.0  -0.1705
  N  N678  1  0.072200  0.752100  0.050700  1.0  -0.3037
  N  N679  1  0.436100  0.694900  0.861400  1.0  -0.3814
  N  N680  1  0.392000  0.715100  0.936900  1.0  -0.1696
  N  N681  1  0.427800  0.752100  0.949300  1.0  -0.3037
  N  N682  1  0.936100  0.194900  0.361400  1.0  -0.3814
  N  N683  1  0.892000  0.215100  0.436900  1.0  -0.1696
  N  N684  1  0.927800  0.252100  0.449300  1.0  -0.3037
  N  N685  1  0.556000  0.944000  0.056000  1.0  -0.2073
  N  N686  1  0.056000  0.444000  0.556000  1.0  -0.2073
  N  N687  1  0.944000  0.056000  0.556000  1.0  -0.2064
  N  N688  1  0.444000  0.556000  0.056000  1.0  -0.2064
  N  N689  1  0.444000  0.444000  0.444000  1.0  -0.2055
  N  N690  1  0.944000  0.944000  0.944000  1.0  -0.2055
  N  N691  1  0.056000  0.556000  0.944000  1.0  -0.2066
  N  N692  1  0.556000  0.056000  0.444000  1.0  -0.2066
