# generated using pymatgen
data_Ag3H72(C39N10)2
_symmetry_space_group_name_H-M   'P 1'
_cell_length_a   25.38100000
_cell_length_b   25.38100000
_cell_length_c   25.38100000
_cell_angle_alpha   90.00000000
_cell_angle_beta   90.00000000
_cell_angle_gamma   90.00000000
_symmetry_Int_Tables_number   1
_chemical_formula_structural   Ag3H72(C39N10)2
_chemical_formula_sum   'Ag12 H288 C312 N80'
_cell_volume   16350.31738134
_cell_formula_units_Z   4
loop_
 _symmetry_equiv_pos_site_id
 _symmetry_equiv_pos_as_xyz
  1  'x, y, z'
loop_
 _atom_site_type_symbol
 _atom_site_label
 _atom_site_symmetry_multiplicity
 _atom_site_fract_x
 _atom_site_fract_y
 _atom_site_fract_z
 _atom_site_occupancy
 _atom_site_charge
  Ag  Ag1  1  0.612250  0.000000  0.750000  1.0  0.3229
  Ag  Ag2  1  0.887750  0.000000  0.250000  1.0  0.3233
  Ag  Ag3  1  0.387750  0.500000  0.750000  1.0  0.3233
  Ag  Ag4  1  0.112250  0.500000  0.250000  1.0  0.3229
  Ag  Ag5  1  0.750000  0.612250  0.000000  1.0  0.308
  Ag  Ag6  1  0.250000  0.887750  0.000000  1.0  0.317
  Ag  Ag7  1  0.750000  0.387750  0.500000  1.0  0.317
  Ag  Ag8  1  0.250000  0.112250  0.500000  1.0  0.308
  Ag  Ag9  1  0.000000  0.750000  0.612250  1.0  0.3065
  Ag  Ag10  1  0.000000  0.250000  0.887750  1.0  0.3063
  Ag  Ag11  1  0.500000  0.750000  0.387750  1.0  0.3063
  Ag  Ag12  1  0.500000  0.250000  0.112250  1.0  0.3065
  H  H13  1  0.539500  0.868000  0.709100  1.0  0.1913
  H  H14  1  0.705300  0.967700  0.678500  1.0  0.0697
  H  H15  1  0.737100  0.898300  0.625600  1.0  0.1037
  H  H16  1  0.689000  0.820300  0.625600  1.0  0.0962
  H  H17  1  0.607100  0.818800  0.662000  1.0  0.0843
  H  H18  1  0.474700  0.870300  0.719100  1.0  0.0853
  H  H19  1  0.432600  0.913700  0.732100  1.0  0.097
  H  H20  1  0.445800  0.870000  0.773700  1.0  0.0907
  H  H21  1  0.410000  0.967400  0.798400  1.0  0.0863
  H  H22  1  0.385100  0.016900  0.871300  1.0  0.0857
  H  H23  1  0.536200  0.025800  0.911800  1.0  0.1219
  H  H24  1  0.558600  0.974600  0.842500  1.0  0.0637
  H  H25  1  0.039500  0.368000  0.209100  1.0  0.1913
  H  H26  1  0.205300  0.467700  0.178500  1.0  0.0695
  H  H27  1  0.237100  0.398300  0.125600  1.0  0.1037
  H  H28  1  0.189000  0.320300  0.125600  1.0  0.0962
  H  H29  1  0.107100  0.318800  0.162000  1.0  0.0843
  H  H30  1  0.974700  0.370300  0.219100  1.0  0.0853
  H  H31  1  0.932600  0.413700  0.232100  1.0  0.097
  H  H32  1  0.945800  0.370000  0.273700  1.0  0.0907
  H  H33  1  0.910000  0.467400  0.298400  1.0  0.0863
  H  H34  1  0.885100  0.516900  0.371300  1.0  0.0857
  H  H35  1  0.036200  0.525800  0.411800  1.0  0.1219
  H  H36  1  0.058600  0.474600  0.342500  1.0  0.0637
  H  H37  1  0.960500  0.132000  0.209100  1.0  0.1925
  H  H38  1  0.794700  0.032300  0.178500  1.0  0.0695
  H  H39  1  0.762900  0.101700  0.125600  1.0  0.1036
  H  H40  1  0.811000  0.179700  0.125600  1.0  0.0965
  H  H41  1  0.892900  0.181200  0.162000  1.0  0.0837
  H  H42  1  0.025300  0.129700  0.219100  1.0  0.0856
  H  H43  1  0.067400  0.086300  0.232100  1.0  0.0981
  H  H44  1  0.054200  0.130000  0.273700  1.0  0.0898
  H  H45  1  0.090000  0.032600  0.298400  1.0  0.0869
  H  H46  1  0.114900  0.983100  0.371300  1.0  0.0852
  H  H47  1  0.963800  0.974200  0.411800  1.0  0.1228
  H  H48  1  0.941400  0.025400  0.342500  1.0  0.0634
  H  H49  1  0.460500  0.632000  0.709100  1.0  0.1925
  H  H50  1  0.294700  0.532300  0.678500  1.0  0.0691
  H  H51  1  0.262900  0.601700  0.625600  1.0  0.1036
  H  H52  1  0.311000  0.679700  0.625600  1.0  0.0965
  H  H53  1  0.392900  0.681200  0.662000  1.0  0.0837
  H  H54  1  0.525300  0.629700  0.719100  1.0  0.0856
  H  H55  1  0.567400  0.586300  0.732100  1.0  0.0981
  H  H56  1  0.554200  0.630000  0.773700  1.0  0.0898
  H  H57  1  0.590000  0.532600  0.798400  1.0  0.0869
  H  H58  1  0.614900  0.483100  0.871300  1.0  0.0852
  H  H59  1  0.463800  0.474200  0.911800  1.0  0.1228
  H  H60  1  0.441400  0.525400  0.842500  1.0  0.0634
  H  H61  1  0.460500  0.368000  0.790900  1.0  0.1925
  H  H62  1  0.294700  0.467700  0.821500  1.0  0.0697
  H  H63  1  0.262900  0.398300  0.874400  1.0  0.1042
  H  H64  1  0.311000  0.320300  0.874400  1.0  0.0962
  H  H65  1  0.392900  0.318800  0.838000  1.0  0.084
  H  H66  1  0.525300  0.370300  0.780900  1.0  0.0852
  H  H67  1  0.567400  0.413700  0.767900  1.0  0.0966
  H  H68  1  0.554200  0.370000  0.726300  1.0  0.0904
  H  H69  1  0.590000  0.467400  0.701600  1.0  0.0867
  H  H70  1  0.614900  0.516900  0.628700  1.0  0.0854
  H  H71  1  0.463800  0.525800  0.588200  1.0  0.123
  H  H72  1  0.441400  0.474600  0.657500  1.0  0.0626
  H  H73  1  0.960500  0.868000  0.290900  1.0  0.1925
  H  H74  1  0.794700  0.967700  0.321500  1.0  0.0697
  H  H75  1  0.762900  0.898300  0.374400  1.0  0.1042
  H  H76  1  0.811000  0.820300  0.374400  1.0  0.0962
  H  H77  1  0.892900  0.818800  0.338000  1.0  0.084
  H  H78  1  0.025300  0.870300  0.280900  1.0  0.0852
  H  H79  1  0.067400  0.913700  0.267900  1.0  0.0966
  H  H80  1  0.054200  0.870000  0.226300  1.0  0.0904
  H  H81  1  0.090000  0.967400  0.201600  1.0  0.0867
  H  H82  1  0.114900  0.016900  0.128700  1.0  0.0854
  H  H83  1  0.963800  0.025800  0.088200  1.0  0.123
  H  H84  1  0.941400  0.974600  0.157500  1.0  0.0626
  H  H85  1  0.039500  0.632000  0.290900  1.0  0.1927
  H  H86  1  0.205300  0.532300  0.321500  1.0  0.0695
  H  H87  1  0.237100  0.601700  0.374400  1.0  0.1033
  H  H88  1  0.189000  0.679700  0.374400  1.0  0.096
  H  H89  1  0.107100  0.681200  0.338000  1.0  0.0848
  H  H90  1  0.974700  0.629700  0.280900  1.0  0.0854
  H  H91  1  0.932600  0.586300  0.267900  1.0  0.0966
  H  H92  1  0.945800  0.630000  0.226300  1.0  0.0906
  H  H93  1  0.910000  0.532600  0.201600  1.0  0.0861
  H  H94  1  0.885100  0.483100  0.128700  1.0  0.0858
  H  H95  1  0.036200  0.474200  0.088200  1.0  0.1217
  H  H96  1  0.058600  0.525400  0.157500  1.0  0.0634
  H  H97  1  0.539500  0.132000  0.790900  1.0  0.1927
  H  H98  1  0.705300  0.032300  0.821500  1.0  0.07
  H  H99  1  0.737100  0.101700  0.874400  1.0  0.1033
  H  H100  1  0.689000  0.179700  0.874400  1.0  0.096
  H  H101  1  0.607100  0.181200  0.838000  1.0  0.0848
  H  H102  1  0.474700  0.129700  0.780900  1.0  0.0854
  H  H103  1  0.432600  0.086300  0.767900  1.0  0.0966
  H  H104  1  0.445800  0.130000  0.726300  1.0  0.0906
  H  H105  1  0.410000  0.032600  0.701600  1.0  0.0861
  H  H106  1  0.385100  0.983100  0.628700  1.0  0.0858
  H  H107  1  0.536200  0.974200  0.588200  1.0  0.1217
  H  H108  1  0.558600  0.025400  0.657500  1.0  0.0634
  H  H109  1  0.709100  0.539500  0.868000  1.0  0.1898
  H  H110  1  0.678500  0.705300  0.967700  1.0  0.068
  H  H111  1  0.625600  0.737100  0.898300  1.0  0.1048
  H  H112  1  0.625600  0.689000  0.820300  1.0  0.0967
  H  H113  1  0.662000  0.607100  0.818800  1.0  0.0825
  H  H114  1  0.719100  0.474700  0.870300  1.0  0.0868
  H  H115  1  0.732100  0.432600  0.913700  1.0  0.0962
  H  H116  1  0.773700  0.445800  0.870000  1.0  0.0892
  H  H117  1  0.798400  0.410000  0.967400  1.0  0.0866
  H  H118  1  0.871300  0.385100  0.016900  1.0  0.0852
  H  H119  1  0.911800  0.536200  0.025800  1.0  0.1233
  H  H120  1  0.842500  0.558600  0.974600  1.0  0.0631
  H  H121  1  0.209100  0.039500  0.368000  1.0  0.1898
  H  H122  1  0.178500  0.205300  0.467700  1.0  0.0676
  H  H123  1  0.125600  0.237100  0.398300  1.0  0.1048
  H  H124  1  0.125600  0.189000  0.320300  1.0  0.0967
  H  H125  1  0.162000  0.107100  0.318800  1.0  0.0825
  H  H126  1  0.219100  0.974700  0.370300  1.0  0.0868
  H  H127  1  0.232100  0.932600  0.413700  1.0  0.0962
  H  H128  1  0.273700  0.945800  0.370000  1.0  0.0892
  H  H129  1  0.298400  0.910000  0.467400  1.0  0.0866
  H  H130  1  0.371300  0.885100  0.516900  1.0  0.0852
  H  H131  1  0.411800  0.036200  0.525800  1.0  0.1233
  H  H132  1  0.342500  0.058600  0.474600  1.0  0.0631
  H  H133  1  0.209100  0.960500  0.132000  1.0  0.1896
  H  H134  1  0.178500  0.794700  0.032300  1.0  0.0676
  H  H135  1  0.125600  0.762900  0.101700  1.0  0.1072
  H  H136  1  0.125600  0.811000  0.179700  1.0  0.0971
  H  H137  1  0.162000  0.892900  0.181200  1.0  0.0823
  H  H138  1  0.219100  0.025300  0.129700  1.0  0.089
  H  H139  1  0.232100  0.067400  0.086300  1.0  0.0959
  H  H140  1  0.273700  0.054200  0.130000  1.0  0.0887
  H  H141  1  0.298400  0.090000  0.032600  1.0  0.0869
  H  H142  1  0.371300  0.114900  0.983100  1.0  0.0849
  H  H143  1  0.411800  0.963800  0.974200  1.0  0.124
  H  H144  1  0.342500  0.941400  0.025400  1.0  0.0633
  H  H145  1  0.709100  0.460500  0.632000  1.0  0.1896
  H  H146  1  0.678500  0.294700  0.532300  1.0  0.0672
  H  H147  1  0.625600  0.262900  0.601700  1.0  0.1072
  H  H148  1  0.625600  0.311000  0.679700  1.0  0.0971
  H  H149  1  0.662000  0.392900  0.681200  1.0  0.0823
  H  H150  1  0.719100  0.525300  0.629700  1.0  0.089
  H  H151  1  0.732100  0.567400  0.586300  1.0  0.0959
  H  H152  1  0.773700  0.554200  0.630000  1.0  0.0887
  H  H153  1  0.798400  0.590000  0.532600  1.0  0.0869
  H  H154  1  0.871300  0.614900  0.483100  1.0  0.0849
  H  H155  1  0.911800  0.463800  0.474200  1.0  0.124
  H  H156  1  0.842500  0.441400  0.525400  1.0  0.0633
  H  H157  1  0.790900  0.460500  0.368000  1.0  0.1911
  H  H158  1  0.821500  0.294700  0.467700  1.0  0.0682
  H  H159  1  0.874400  0.262900  0.398300  1.0  0.107
  H  H160  1  0.874400  0.311000  0.320300  1.0  0.0971
  H  H161  1  0.838000  0.392900  0.318800  1.0  0.0819
  H  H162  1  0.780900  0.525300  0.370300  1.0  0.0872
  H  H163  1  0.767900  0.567400  0.413700  1.0  0.0954
  H  H164  1  0.726300  0.554200  0.370000  1.0  0.0905
  H  H165  1  0.701600  0.590000  0.467400  1.0  0.087
  H  H166  1  0.628700  0.614900  0.516900  1.0  0.0842
  H  H167  1  0.588200  0.463800  0.525800  1.0  0.1234
  H  H168  1  0.657500  0.441400  0.474600  1.0  0.0635
  H  H169  1  0.290900  0.960500  0.868000  1.0  0.1911
  H  H170  1  0.321500  0.794700  0.967700  1.0  0.0682
  H  H171  1  0.374400  0.762900  0.898300  1.0  0.107
  H  H172  1  0.374400  0.811000  0.820300  1.0  0.0971
  H  H173  1  0.338000  0.892900  0.818800  1.0  0.0819
  H  H174  1  0.280900  0.025300  0.870300  1.0  0.0872
  H  H175  1  0.267900  0.067400  0.913700  1.0  0.0954
  H  H176  1  0.226300  0.054200  0.870000  1.0  0.0905
  H  H177  1  0.201600  0.090000  0.967400  1.0  0.087
  H  H178  1  0.128700  0.114900  0.016900  1.0  0.0842
  H  H179  1  0.088200  0.963800  0.025800  1.0  0.1234
  H  H180  1  0.157500  0.941400  0.974600  1.0  0.0635
  H  H181  1  0.290900  0.039500  0.632000  1.0  0.1897
  H  H182  1  0.321500  0.205300  0.532300  1.0  0.0669
  H  H183  1  0.374400  0.237100  0.601700  1.0  0.1045
  H  H184  1  0.374400  0.189000  0.679700  1.0  0.0972
  H  H185  1  0.338000  0.107100  0.681200  1.0  0.0829
  H  H186  1  0.280900  0.974700  0.629700  1.0  0.089
  H  H187  1  0.267900  0.932600  0.586300  1.0  0.0965
  H  H188  1  0.226300  0.945800  0.630000  1.0  0.0907
  H  H189  1  0.201600  0.910000  0.532600  1.0  0.0872
  H  H190  1  0.128700  0.885100  0.483100  1.0  0.0846
  H  H191  1  0.088200  0.036200  0.474200  1.0  0.1242
  H  H192  1  0.157500  0.058600  0.525400  1.0  0.064
  H  H193  1  0.790900  0.539500  0.132000  1.0  0.1897
  H  H194  1  0.821500  0.705300  0.032300  1.0  0.0668
  H  H195  1  0.874400  0.737100  0.101700  1.0  0.1045
  H  H196  1  0.874400  0.689000  0.179700  1.0  0.0972
  H  H197  1  0.838000  0.607100  0.181200  1.0  0.0829
  H  H198  1  0.780900  0.474700  0.129700  1.0  0.089
  H  H199  1  0.767900  0.432600  0.086300  1.0  0.0965
  H  H200  1  0.726300  0.445800  0.130000  1.0  0.0907
  H  H201  1  0.701600  0.410000  0.032600  1.0  0.0872
  H  H202  1  0.628700  0.385100  0.983100  1.0  0.0846
  H  H203  1  0.588200  0.536200  0.974200  1.0  0.1242
  H  H204  1  0.657500  0.558600  0.025400  1.0  0.064
  H  H205  1  0.868000  0.709100  0.539500  1.0  0.1918
  H  H206  1  0.967700  0.678500  0.705300  1.0  0.0689
  H  H207  1  0.898300  0.625600  0.737100  1.0  0.1034
  H  H208  1  0.820300  0.625600  0.689000  1.0  0.097
  H  H209  1  0.818800  0.662000  0.607100  1.0  0.0826
  H  H210  1  0.870300  0.719100  0.474700  1.0  0.0861
  H  H211  1  0.913700  0.732100  0.432600  1.0  0.1001
  H  H212  1  0.870000  0.773700  0.445800  1.0  0.0909
  H  H213  1  0.967400  0.798400  0.410000  1.0  0.0889
  H  H214  1  0.016900  0.871300  0.385100  1.0  0.0866
  H  H215  1  0.025800  0.911800  0.536200  1.0  0.123
  H  H216  1  0.974600  0.842500  0.558600  1.0  0.0654
  H  H217  1  0.368000  0.209100  0.039500  1.0  0.1918
  H  H218  1  0.467700  0.178500  0.205300  1.0  0.0686
  H  H219  1  0.398300  0.125600  0.237100  1.0  0.1034
  H  H220  1  0.320300  0.125600  0.189000  1.0  0.097
  H  H221  1  0.318800  0.162000  0.107100  1.0  0.0826
  H  H222  1  0.370300  0.219100  0.974700  1.0  0.0861
  H  H223  1  0.413700  0.232100  0.932600  1.0  0.1001
  H  H224  1  0.370000  0.273700  0.945800  1.0  0.0909
  H  H225  1  0.467400  0.298400  0.910000  1.0  0.0889
  H  H226  1  0.516900  0.371300  0.885100  1.0  0.0866
  H  H227  1  0.525800  0.411800  0.036200  1.0  0.123
  H  H228  1  0.474600  0.342500  0.058600  1.0  0.0654
  H  H229  1  0.132000  0.209100  0.960500  1.0  0.1949
  H  H230  1  0.032300  0.178500  0.794700  1.0  0.0692
  H  H231  1  0.101700  0.125600  0.762900  1.0  0.1017
  H  H232  1  0.179700  0.125600  0.811000  1.0  0.0969
  H  H233  1  0.181200  0.162000  0.892900  1.0  0.0825
  H  H234  1  0.129700  0.219100  0.025300  1.0  0.086
  H  H235  1  0.086300  0.232100  0.067400  1.0  0.1006
  H  H236  1  0.130000  0.273700  0.054200  1.0  0.09
  H  H237  1  0.032600  0.298400  0.090000  1.0  0.0881
  H  H238  1  0.983100  0.371300  0.114900  1.0  0.0862
  H  H239  1  0.974200  0.411800  0.963800  1.0  0.1231
  H  H240  1  0.025400  0.342500  0.941400  1.0  0.0659
  H  H241  1  0.632000  0.709100  0.460500  1.0  0.1949
  H  H242  1  0.532300  0.678500  0.294700  1.0  0.069
  H  H243  1  0.601700  0.625600  0.262900  1.0  0.1017
  H  H244  1  0.679700  0.625600  0.311000  1.0  0.0969
  H  H245  1  0.681200  0.662000  0.392900  1.0  0.0825
  H  H246  1  0.629700  0.719100  0.525300  1.0  0.086
  H  H247  1  0.586300  0.732100  0.567400  1.0  0.1006
  H  H248  1  0.630000  0.773700  0.554200  1.0  0.09
  H  H249  1  0.532600  0.798400  0.590000  1.0  0.0881
  H  H250  1  0.483100  0.871300  0.614900  1.0  0.0862
  H  H251  1  0.474200  0.911800  0.463800  1.0  0.1231
  H  H252  1  0.525400  0.842500  0.441400  1.0  0.0659
  H  H253  1  0.368000  0.790900  0.460500  1.0  0.1923
  H  H254  1  0.467700  0.821500  0.294700  1.0  0.0689
  H  H255  1  0.398300  0.874400  0.262900  1.0  0.1014
  H  H256  1  0.320300  0.874400  0.311000  1.0  0.0968
  H  H257  1  0.318800  0.838000  0.392900  1.0  0.0818
  H  H258  1  0.370300  0.780900  0.525300  1.0  0.0868
  H  H259  1  0.413700  0.767900  0.567400  1.0  0.0994
  H  H260  1  0.370000  0.726300  0.554200  1.0  0.0906
  H  H261  1  0.467400  0.701600  0.590000  1.0  0.0881
  H  H262  1  0.516900  0.628700  0.614900  1.0  0.0863
  H  H263  1  0.525800  0.588200  0.463800  1.0  0.1229
  H  H264  1  0.474600  0.657500  0.441400  1.0  0.0653
  H  H265  1  0.868000  0.290900  0.960500  1.0  0.1923
  H  H266  1  0.967700  0.321500  0.794700  1.0  0.0689
  H  H267  1  0.898300  0.374400  0.762900  1.0  0.1014
  H  H268  1  0.820300  0.374400  0.811000  1.0  0.0968
  H  H269  1  0.818800  0.338000  0.892900  1.0  0.0818
  H  H270  1  0.870300  0.280900  0.025300  1.0  0.0868
  H  H271  1  0.913700  0.267900  0.067400  1.0  0.0994
  H  H272  1  0.870000  0.226300  0.054200  1.0  0.0906
  H  H273  1  0.967400  0.201600  0.090000  1.0  0.0881
  H  H274  1  0.016900  0.128700  0.114900  1.0  0.0863
  H  H275  1  0.025800  0.088200  0.963800  1.0  0.1229
  H  H276  1  0.974600  0.157500  0.941400  1.0  0.0653
  H  H277  1  0.632000  0.290900  0.039500  1.0  0.193
  H  H278  1  0.532300  0.321500  0.205300  1.0  0.0685
  H  H279  1  0.601700  0.374400  0.237100  1.0  0.1031
  H  H280  1  0.679700  0.374400  0.189000  1.0  0.0961
  H  H281  1  0.681200  0.338000  0.107100  1.0  0.0827
  H  H282  1  0.629700  0.280900  0.974700  1.0  0.0861
  H  H283  1  0.586300  0.267900  0.932600  1.0  0.1026
  H  H284  1  0.630000  0.226300  0.945800  1.0  0.0904
  H  H285  1  0.532600  0.201600  0.910000  1.0  0.0886
  H  H286  1  0.483100  0.128700  0.885100  1.0  0.0872
  H  H287  1  0.474200  0.088200  0.036200  1.0  0.1229
  H  H288  1  0.525400  0.157500  0.058600  1.0  0.0646
  H  H289  1  0.132000  0.790900  0.539500  1.0  0.193
  H  H290  1  0.032300  0.821500  0.705300  1.0  0.0686
  H  H291  1  0.101700  0.874400  0.737100  1.0  0.1031
  H  H292  1  0.179700  0.874400  0.689000  1.0  0.0961
  H  H293  1  0.181200  0.838000  0.607100  1.0  0.0827
  H  H294  1  0.129700  0.780900  0.474700  1.0  0.0861
  H  H295  1  0.086300  0.767900  0.432600  1.0  0.1026
  H  H296  1  0.130000  0.726300  0.445800  1.0  0.0904
  H  H297  1  0.032600  0.701600  0.410000  1.0  0.0886
  H  H298  1  0.983100  0.628700  0.385100  1.0  0.0872
  H  H299  1  0.974200  0.588200  0.536200  1.0  0.1229
  H  H300  1  0.025400  0.657500  0.558600  1.0  0.0646
  C  C301  1  0.684600  0.937900  0.674100  1.0  0.1321
  C  C302  1  0.705300  0.895400  0.643500  1.0  -0.1502
  C  C303  1  0.675800  0.850200  0.642100  1.0  -0.1437
  C  C304  1  0.627200  0.849200  0.664900  1.0  -0.1538
  C  C305  1  0.606800  0.891800  0.692100  1.0  0.4288
  C  C306  1  0.502600  0.926400  0.769200  1.0  0.2109
  C  C307  1  0.460100  0.892000  0.746500  1.0  -0.3713
  C  C308  1  0.487500  0.960000  0.814500  1.0  0.0468
  C  C309  1  0.435600  0.977300  0.822600  1.0  -0.1496
  C  C310  1  0.420200  0.008700  0.865200  1.0  -0.1672
  C  C311  1  0.457300  0.025800  0.895700  1.0  0.2061
  C  C312  1  0.510500  0.013100  0.889000  1.0  -0.2703
  C  C313  1  0.523100  0.981800  0.848200  1.0  -0.0391
  C  C314  1  0.184600  0.437900  0.174100  1.0  0.1321
  C  C315  1  0.205300  0.395400  0.143500  1.0  -0.1502
  C  C316  1  0.175800  0.350200  0.142100  1.0  -0.1437
  C  C317  1  0.127200  0.349200  0.164900  1.0  -0.1538
  C  C318  1  0.106800  0.391800  0.192100  1.0  0.4288
  C  C319  1  0.002600  0.426400  0.269200  1.0  0.2109
  C  C320  1  0.960100  0.392000  0.246500  1.0  -0.3713
  C  C321  1  0.987500  0.460000  0.314500  1.0  0.0468
  C  C322  1  0.935600  0.477300  0.322600  1.0  -0.1496
  C  C323  1  0.920200  0.508700  0.365200  1.0  -0.1672
  C  C324  1  0.957300  0.525800  0.395700  1.0  0.2061
  C  C325  1  0.010500  0.513100  0.389000  1.0  -0.2703
  C  C326  1  0.023100  0.481800  0.348200  1.0  -0.0391
  C  C327  1  0.815400  0.062100  0.174100  1.0  0.1306
  C  C328  1  0.794700  0.104600  0.143500  1.0  -0.1494
  C  C329  1  0.824200  0.149800  0.142100  1.0  -0.1449
  C  C330  1  0.872800  0.150800  0.164900  1.0  -0.1546
  C  C331  1  0.893200  0.108200  0.192100  1.0  0.4296
  C  C332  1  0.997400  0.073600  0.269200  1.0  0.2103
  C  C333  1  0.039900  0.108000  0.246500  1.0  -0.3721
  C  C334  1  0.012500  0.040000  0.314500  1.0  0.0479
  C  C335  1  0.064400  0.022700  0.322600  1.0  -0.1496
  C  C336  1  0.079800  0.991300  0.365200  1.0  -0.169
  C  C337  1  0.042700  0.974200  0.395700  1.0  0.2055
  C  C338  1  0.989500  0.986900  0.389000  1.0  -0.2738
  C  C339  1  0.976900  0.018200  0.348200  1.0  -0.0404
  C  C340  1  0.315400  0.562100  0.674100  1.0  0.1306
  C  C341  1  0.294700  0.604600  0.643500  1.0  -0.1494
  C  C342  1  0.324200  0.649800  0.642100  1.0  -0.1449
  C  C343  1  0.372800  0.650800  0.664900  1.0  -0.1546
  C  C344  1  0.393200  0.608200  0.692100  1.0  0.4296
  C  C345  1  0.497400  0.573600  0.769200  1.0  0.2103
  C  C346  1  0.539900  0.608000  0.746500  1.0  -0.3721
  C  C347  1  0.512500  0.540000  0.814500  1.0  0.0479
  C  C348  1  0.564400  0.522700  0.822600  1.0  -0.1496
  C  C349  1  0.579800  0.491300  0.865200  1.0  -0.169
  C  C350  1  0.542700  0.474200  0.895700  1.0  0.2055
  C  C351  1  0.489500  0.486900  0.889000  1.0  -0.2738
  C  C352  1  0.476900  0.518200  0.848200  1.0  -0.0404
  C  C353  1  0.315400  0.437900  0.825900  1.0  0.1329
  C  C354  1  0.294700  0.395400  0.856500  1.0  -0.1497
  C  C355  1  0.324200  0.350200  0.857900  1.0  -0.1446
  C  C356  1  0.372800  0.349200  0.835100  1.0  -0.155
  C  C357  1  0.393200  0.391800  0.807900  1.0  0.4286
  C  C358  1  0.497400  0.426400  0.730800  1.0  0.2118
  C  C359  1  0.539900  0.392000  0.753500  1.0  -0.3723
  C  C360  1  0.512500  0.460000  0.685500  1.0  0.0462
  C  C361  1  0.564400  0.477300  0.677400  1.0  -0.1488
  C  C362  1  0.579800  0.508700  0.634800  1.0  -0.1691
  C  C363  1  0.542700  0.525800  0.604300  1.0  0.2063
  C  C364  1  0.489500  0.513100  0.611000  1.0  -0.2734
  C  C365  1  0.476900  0.481800  0.651800  1.0  -0.0402
  C  C366  1  0.815400  0.937900  0.325900  1.0  0.1329
  C  C367  1  0.794700  0.895400  0.356500  1.0  -0.1497
  C  C368  1  0.824200  0.850200  0.357900  1.0  -0.1446
  C  C369  1  0.872800  0.849200  0.335100  1.0  -0.155
  C  C370  1  0.893200  0.891800  0.307900  1.0  0.4286
  C  C371  1  0.997400  0.926400  0.230800  1.0  0.2118
  C  C372  1  0.039900  0.892000  0.253500  1.0  -0.3723
  C  C373  1  0.012500  0.960000  0.185500  1.0  0.0462
  C  C374  1  0.064400  0.977300  0.177400  1.0  -0.1488
  C  C375  1  0.079800  0.008700  0.134800  1.0  -0.1691
  C  C376  1  0.042700  0.025800  0.104300  1.0  0.2063
  C  C377  1  0.989500  0.013100  0.111000  1.0  -0.2734
  C  C378  1  0.976900  0.981800  0.151800  1.0  -0.0402
  C  C379  1  0.184600  0.562100  0.325900  1.0  0.1311
  C  C380  1  0.205300  0.604600  0.356500  1.0  -0.1495
  C  C381  1  0.175800  0.649800  0.357900  1.0  -0.1446
  C  C382  1  0.127200  0.650800  0.335100  1.0  -0.1519
  C  C383  1  0.106800  0.608200  0.307900  1.0  0.4277
  C  C384  1  0.002600  0.573600  0.230800  1.0  0.2095
  C  C385  1  0.960100  0.608000  0.253500  1.0  -0.3716
  C  C386  1  0.987500  0.540000  0.185500  1.0  0.0485
  C  C387  1  0.935600  0.522700  0.177400  1.0  -0.148
  C  C388  1  0.920200  0.491300  0.134800  1.0  -0.1672
  C  C389  1  0.957300  0.474200  0.104300  1.0  0.2063
  C  C390  1  0.010500  0.486900  0.111000  1.0  -0.2735
  C  C391  1  0.023100  0.518200  0.151800  1.0  -0.0367
  C  C392  1  0.684600  0.062100  0.825900  1.0  0.1311
  C  C393  1  0.705300  0.104600  0.856500  1.0  -0.1495
  C  C394  1  0.675800  0.149800  0.857900  1.0  -0.1446
  C  C395  1  0.627200  0.150800  0.835100  1.0  -0.1519
  C  C396  1  0.606800  0.108200  0.807900  1.0  0.4277
  C  C397  1  0.502600  0.073600  0.730800  1.0  0.2095
  C  C398  1  0.460100  0.108000  0.753500  1.0  -0.3716
  C  C399  1  0.487500  0.040000  0.685500  1.0  0.0485
  C  C400  1  0.435600  0.022700  0.677400  1.0  -0.148
  C  C401  1  0.420200  0.991300  0.634800  1.0  -0.1672
  C  C402  1  0.457300  0.974200  0.604300  1.0  0.2063
  C  C403  1  0.510500  0.986900  0.611000  1.0  -0.2735
  C  C404  1  0.523100  0.018200  0.651800  1.0  -0.0367
  C  C405  1  0.674100  0.684600  0.937900  1.0  0.1287
  C  C406  1  0.643500  0.705300  0.895400  1.0  -0.1481
  C  C407  1  0.642100  0.675800  0.850200  1.0  -0.149
  C  C408  1  0.664900  0.627200  0.849200  1.0  -0.1549
  C  C409  1  0.692100  0.606800  0.891800  1.0  0.4285
  C  C410  1  0.769200  0.502600  0.926400  1.0  0.2133
  C  C411  1  0.746500  0.460100  0.892000  1.0  -0.3735
  C  C412  1  0.814500  0.487500  0.960000  1.0  0.0474
  C  C413  1  0.822600  0.435600  0.977300  1.0  -0.15
  C  C414  1  0.865200  0.420200  0.008700  1.0  -0.1643
  C  C415  1  0.895700  0.457300  0.025800  1.0  0.2065
  C  C416  1  0.889000  0.510500  0.013100  1.0  -0.2822
  C  C417  1  0.848200  0.523100  0.981800  1.0  -0.0403
  C  C418  1  0.174100  0.184600  0.437900  1.0  0.1287
  C  C419  1  0.143500  0.205300  0.395400  1.0  -0.1481
  C  C420  1  0.142100  0.175800  0.350200  1.0  -0.149
  C  C421  1  0.164900  0.127200  0.349200  1.0  -0.1549
  C  C422  1  0.192100  0.106800  0.391800  1.0  0.4285
  C  C423  1  0.269200  0.002600  0.426400  1.0  0.2133
  C  C424  1  0.246500  0.960100  0.392000  1.0  -0.3735
  C  C425  1  0.314500  0.987500  0.460000  1.0  0.0474
  C  C426  1  0.322600  0.935600  0.477300  1.0  -0.15
  C  C427  1  0.365200  0.920200  0.508700  1.0  -0.1643
  C  C428  1  0.395700  0.957300  0.525800  1.0  0.2065
  C  C429  1  0.389000  0.010500  0.513100  1.0  -0.2822
  C  C430  1  0.348200  0.023100  0.481800  1.0  -0.0403
  C  C431  1  0.174100  0.815400  0.062100  1.0  0.1301
  C  C432  1  0.143500  0.794700  0.104600  1.0  -0.15
  C  C433  1  0.142100  0.824200  0.149800  1.0  -0.1483
  C  C434  1  0.164900  0.872800  0.150800  1.0  -0.1548
  C  C435  1  0.192100  0.893200  0.108200  1.0  0.4287
  C  C436  1  0.269200  0.997400  0.073600  1.0  0.2147
  C  C437  1  0.246500  0.039900  0.108000  1.0  -0.3746
  C  C438  1  0.314500  0.012500  0.040000  1.0  0.0468
  C  C439  1  0.322600  0.064400  0.022700  1.0  -0.1488
  C  C440  1  0.365200  0.079800  0.991300  1.0  -0.1639
  C  C441  1  0.395700  0.042700  0.974200  1.0  0.2067
  C  C442  1  0.389000  0.989500  0.986900  1.0  -0.2813
  C  C443  1  0.348200  0.976900  0.018200  1.0  -0.0421
  C  C444  1  0.674100  0.315400  0.562100  1.0  0.1301
  C  C445  1  0.643500  0.294700  0.604600  1.0  -0.15
  C  C446  1  0.642100  0.324200  0.649800  1.0  -0.1483
  C  C447  1  0.664900  0.372800  0.650800  1.0  -0.1548
  C  C448  1  0.692100  0.393200  0.608200  1.0  0.4287
  C  C449  1  0.769200  0.497400  0.573600  1.0  0.2147
  C  C450  1  0.746500  0.539900  0.608000  1.0  -0.3746
  C  C451  1  0.814500  0.512500  0.540000  1.0  0.0468
  C  C452  1  0.822600  0.564400  0.522700  1.0  -0.1488
  C  C453  1  0.865200  0.579800  0.491300  1.0  -0.1639
  C  C454  1  0.895700  0.542700  0.474200  1.0  0.2067
  C  C455  1  0.889000  0.489500  0.486900  1.0  -0.2813
  C  C456  1  0.848200  0.476900  0.518200  1.0  -0.0421
  C  C457  1  0.825900  0.315400  0.437900  1.0  0.1269
  C  C458  1  0.856500  0.294700  0.395400  1.0  -0.1504
  C  C459  1  0.857900  0.324200  0.350200  1.0  -0.1474
  C  C460  1  0.835100  0.372800  0.349200  1.0  -0.1543
  C  C461  1  0.807900  0.393200  0.391800  1.0  0.4289
  C  C462  1  0.730800  0.497400  0.426400  1.0  0.2128
  C  C463  1  0.753500  0.539900  0.392000  1.0  -0.3744
  C  C464  1  0.685500  0.512500  0.460000  1.0  0.0465
  C  C465  1  0.677400  0.564400  0.477300  1.0  -0.1501
  C  C466  1  0.634800  0.579800  0.508700  1.0  -0.1652
  C  C467  1  0.604300  0.542700  0.525800  1.0  0.2051
  C  C468  1  0.611000  0.489500  0.513100  1.0  -0.2845
  C  C469  1  0.651800  0.476900  0.481800  1.0  -0.0445
  C  C470  1  0.325900  0.815400  0.937900  1.0  0.1269
  C  C471  1  0.356500  0.794700  0.895400  1.0  -0.1504
  C  C472  1  0.357900  0.824200  0.850200  1.0  -0.1474
  C  C473  1  0.335100  0.872800  0.849200  1.0  -0.1543
  C  C474  1  0.307900  0.893200  0.891800  1.0  0.4289
  C  C475  1  0.230800  0.997400  0.926400  1.0  0.2128
  C  C476  1  0.253500  0.039900  0.892000  1.0  -0.3744
  C  C477  1  0.185500  0.012500  0.960000  1.0  0.0465
  C  C478  1  0.177400  0.064400  0.977300  1.0  -0.1501
  C  C479  1  0.134800  0.079800  0.008700  1.0  -0.1652
  C  C480  1  0.104300  0.042700  0.025800  1.0  0.2051
  C  C481  1  0.111000  0.989500  0.013100  1.0  -0.2845
  C  C482  1  0.151800  0.976900  0.981800  1.0  -0.0445
  C  C483  1  0.325900  0.184600  0.562100  1.0  0.1285
  C  C484  1  0.356500  0.205300  0.604600  1.0  -0.1486
  C  C485  1  0.357900  0.175800  0.649800  1.0  -0.1491
  C  C486  1  0.335100  0.127200  0.650800  1.0  -0.1558
  C  C487  1  0.307900  0.106800  0.608200  1.0  0.4286
  C  C488  1  0.230800  0.002600  0.573600  1.0  0.2152
  C  C489  1  0.253500  0.960100  0.608000  1.0  -0.3752
  C  C490  1  0.185500  0.987500  0.540000  1.0  0.0477
  C  C491  1  0.177400  0.935600  0.522700  1.0  -0.1492
  C  C492  1  0.134800  0.920200  0.491300  1.0  -0.1655
  C  C493  1  0.104300  0.957300  0.474200  1.0  0.205
  C  C494  1  0.111000  0.010500  0.486900  1.0  -0.2844
  C  C495  1  0.151800  0.023100  0.518200  1.0  -0.0416
  C  C496  1  0.825900  0.684600  0.062100  1.0  0.1285
  C  C497  1  0.856500  0.705300  0.104600  1.0  -0.1486
  C  C498  1  0.857900  0.675800  0.149800  1.0  -0.1491
  C  C499  1  0.835100  0.627200  0.150800  1.0  -0.1558
  C  C500  1  0.807900  0.606800  0.108200  1.0  0.4286
  C  C501  1  0.730800  0.502600  0.073600  1.0  0.2152
  C  C502  1  0.753500  0.460100  0.108000  1.0  -0.3752
  C  C503  1  0.685500  0.487500  0.040000  1.0  0.0477
  C  C504  1  0.677400  0.435600  0.022700  1.0  -0.1492
  C  C505  1  0.634800  0.420200  0.991300  1.0  -0.1655
  C  C506  1  0.604300  0.457300  0.974200  1.0  0.205
  C  C507  1  0.611000  0.510500  0.986900  1.0  -0.2844
  C  C508  1  0.651800  0.523100  0.018200  1.0  -0.0416
  C  C509  1  0.937900  0.674100  0.684600  1.0  0.1292
  C  C510  1  0.895400  0.643500  0.705300  1.0  -0.1478
  C  C511  1  0.850200  0.642100  0.675800  1.0  -0.1493
  C  C512  1  0.849200  0.664900  0.627200  1.0  -0.1545
  C  C513  1  0.891800  0.692100  0.606800  1.0  0.4311
  C  C514  1  0.926400  0.769200  0.502600  1.0  0.2153
  C  C515  1  0.892000  0.746500  0.460100  1.0  -0.3761
  C  C516  1  0.960000  0.814500  0.487500  1.0  0.0482
  C  C517  1  0.977300  0.822600  0.435600  1.0  -0.1491
  C  C518  1  0.008700  0.865200  0.420200  1.0  -0.1659
  C  C519  1  0.025800  0.895700  0.457300  1.0  0.2048
  C  C520  1  0.013100  0.889000  0.510500  1.0  -0.2772
  C  C521  1  0.981800  0.848200  0.523100  1.0  -0.0398
  C  C522  1  0.437900  0.174100  0.184600  1.0  0.1292
  C  C523  1  0.395400  0.143500  0.205300  1.0  -0.1478
  C  C524  1  0.350200  0.142100  0.175800  1.0  -0.1493
  C  C525  1  0.349200  0.164900  0.127200  1.0  -0.1545
  C  C526  1  0.391800  0.192100  0.106800  1.0  0.4311
  C  C527  1  0.426400  0.269200  0.002600  1.0  0.2153
  C  C528  1  0.392000  0.246500  0.960100  1.0  -0.3761
  C  C529  1  0.460000  0.314500  0.987500  1.0  0.0482
  C  C530  1  0.477300  0.322600  0.935600  1.0  -0.1491
  C  C531  1  0.508700  0.365200  0.920200  1.0  -0.1659
  C  C532  1  0.525800  0.395700  0.957300  1.0  0.2048
  C  C533  1  0.513100  0.389000  0.010500  1.0  -0.2772
  C  C534  1  0.481800  0.348200  0.023100  1.0  -0.0398
  C  C535  1  0.062100  0.174100  0.815400  1.0  0.1295
  C  C536  1  0.104600  0.143500  0.794700  1.0  -0.1481
  C  C537  1  0.149800  0.142100  0.824200  1.0  -0.1491
  C  C538  1  0.150800  0.164900  0.872800  1.0  -0.1499
  C  C539  1  0.108200  0.192100  0.893200  1.0  0.4275
  C  C540  1  0.073600  0.269200  0.997400  1.0  0.217
  C  C541  1  0.108000  0.246500  0.039900  1.0  -0.3748
  C  C542  1  0.040000  0.314500  0.012500  1.0  0.0477
  C  C543  1  0.022700  0.322600  0.064400  1.0  -0.1466
  C  C544  1  0.991300  0.365200  0.079800  1.0  -0.1656
  C  C545  1  0.974200  0.395700  0.042700  1.0  0.2059
  C  C546  1  0.986900  0.389000  0.989500  1.0  -0.276
  C  C547  1  0.018200  0.348200  0.976900  1.0  -0.0415
  C  C548  1  0.562100  0.674100  0.315400  1.0  0.1295
  C  C549  1  0.604600  0.643500  0.294700  1.0  -0.1481
  C  C550  1  0.649800  0.642100  0.324200  1.0  -0.1491
  C  C551  1  0.650800  0.664900  0.372800  1.0  -0.1499
  C  C552  1  0.608200  0.692100  0.393200  1.0  0.4275
  C  C553  1  0.573600  0.769200  0.497400  1.0  0.217
  C  C554  1  0.608000  0.746500  0.539900  1.0  -0.3748
  C  C555  1  0.540000  0.814500  0.512500  1.0  0.0477
  C  C556  1  0.522700  0.822600  0.564400  1.0  -0.1466
  C  C557  1  0.491300  0.865200  0.579800  1.0  -0.1656
  C  C558  1  0.474200  0.895700  0.542700  1.0  0.2059
  C  C559  1  0.486900  0.889000  0.489500  1.0  -0.276
  C  C560  1  0.518200  0.848200  0.476900  1.0  -0.0415
  C  C561  1  0.437900  0.825900  0.315400  1.0  0.1279
  C  C562  1  0.395400  0.856500  0.294700  1.0  -0.1498
  C  C563  1  0.350200  0.857900  0.324200  1.0  -0.1497
  C  C564  1  0.349200  0.835100  0.372800  1.0  -0.1504
  C  C565  1  0.391800  0.807900  0.393200  1.0  0.4285
  C  C566  1  0.426400  0.730800  0.497400  1.0  0.2155
  C  C567  1  0.392000  0.753500  0.539900  1.0  -0.3755
  C  C568  1  0.460000  0.685500  0.512500  1.0  0.0491
  C  C569  1  0.477300  0.677400  0.564400  1.0  -0.1475
  C  C570  1  0.508700  0.634800  0.579800  1.0  -0.1646
  C  C571  1  0.525800  0.604300  0.542700  1.0  0.2053
  C  C572  1  0.513100  0.611000  0.489500  1.0  -0.2751
  C  C573  1  0.481800  0.651800  0.476900  1.0  -0.0412
  C  C574  1  0.937900  0.325900  0.815400  1.0  0.1279
  C  C575  1  0.895400  0.356500  0.794700  1.0  -0.1498
  C  C576  1  0.850200  0.357900  0.824200  1.0  -0.1497
  C  C577  1  0.849200  0.335100  0.872800  1.0  -0.1504
  C  C578  1  0.891800  0.307900  0.893200  1.0  0.4285
  C  C579  1  0.926400  0.230800  0.997400  1.0  0.2155
  C  C580  1  0.892000  0.253500  0.039900  1.0  -0.3755
  C  C581  1  0.960000  0.185500  0.012500  1.0  0.0491
  C  C582  1  0.977300  0.177400  0.064400  1.0  -0.1475
  C  C583  1  0.008700  0.134800  0.079800  1.0  -0.1646
  C  C584  1  0.025800  0.104300  0.042700  1.0  0.2053
  C  C585  1  0.013100  0.111000  0.989500  1.0  -0.2751
  C  C586  1  0.981800  0.151800  0.976900  1.0  -0.0412
  C  C587  1  0.562100  0.325900  0.184600  1.0  0.1287
  C  C588  1  0.604600  0.356500  0.205300  1.0  -0.1491
  C  C589  1  0.649800  0.357900  0.175800  1.0  -0.1474
  C  C590  1  0.650800  0.335100  0.127200  1.0  -0.1512
  C  C591  1  0.608200  0.307900  0.106800  1.0  0.4298
  C  C592  1  0.573600  0.230800  0.002600  1.0  0.217
  C  C593  1  0.608000  0.253500  0.960100  1.0  -0.3743
  C  C594  1  0.540000  0.185500  0.987500  1.0  0.0478
  C  C595  1  0.522700  0.177400  0.935600  1.0  -0.1473
  C  C596  1  0.491300  0.134800  0.920200  1.0  -0.1662
  C  C597  1  0.474200  0.104300  0.957300  1.0  0.2057
  C  C598  1  0.486900  0.111000  0.010500  1.0  -0.2745
  C  C599  1  0.518200  0.151800  0.023100  1.0  -0.0421
  C  C600  1  0.062100  0.825900  0.684600  1.0  0.1287
  C  C601  1  0.104600  0.856500  0.705300  1.0  -0.1491
  C  C602  1  0.149800  0.857900  0.675800  1.0  -0.1474
  C  C603  1  0.150800  0.835100  0.627200  1.0  -0.1512
  C  C604  1  0.108200  0.807900  0.606800  1.0  0.4298
  C  C605  1  0.073600  0.730800  0.502600  1.0  0.217
  C  C606  1  0.108000  0.753500  0.460100  1.0  -0.3743
  C  C607  1  0.040000  0.685500  0.487500  1.0  0.0478
  C  C608  1  0.022700  0.677400  0.435600  1.0  -0.1473
  C  C609  1  0.991300  0.634800  0.420200  1.0  -0.1662
  C  C610  1  0.974200  0.604300  0.457300  1.0  0.2057
  C  C611  1  0.986900  0.611000  0.510500  1.0  -0.2745
  C  C612  1  0.018200  0.651800  0.523100  1.0  -0.0421
  N  N613  1  0.637800  0.937000  0.696400  1.0  -0.3877
  N  N614  1  0.562300  0.892000  0.716400  1.0  -0.1875
  N  N615  1  0.550500  0.928100  0.752500  1.0  -0.2544
  N  N616  1  0.137800  0.437000  0.196400  1.0  -0.3877
  N  N617  1  0.062300  0.392000  0.216400  1.0  -0.1875
  N  N618  1  0.050500  0.428100  0.252500  1.0  -0.2544
  N  N619  1  0.862200  0.063000  0.196400  1.0  -0.3875
  N  N620  1  0.937700  0.108000  0.216400  1.0  -0.1894
  N  N621  1  0.949500  0.071900  0.252500  1.0  -0.2564
  N  N622  1  0.362200  0.563000  0.696400  1.0  -0.3875
  N  N623  1  0.437700  0.608000  0.716400  1.0  -0.1894
  N  N624  1  0.449500  0.571900  0.752500  1.0  -0.2564
  N  N625  1  0.362200  0.437000  0.803600  1.0  -0.3859
  N  N626  1  0.437700  0.392000  0.783600  1.0  -0.1887
  N  N627  1  0.449500  0.428100  0.747500  1.0  -0.2569
  N  N628  1  0.862200  0.937000  0.303600  1.0  -0.3859
  N  N629  1  0.937700  0.892000  0.283600  1.0  -0.1887
  N  N630  1  0.949500  0.928100  0.247500  1.0  -0.2569
  N  N631  1  0.137800  0.563000  0.303600  1.0  -0.3866
  N  N632  1  0.062300  0.608000  0.283600  1.0  -0.188
  N  N633  1  0.050500  0.571900  0.247500  1.0  -0.2559
  N  N634  1  0.637800  0.063000  0.803600  1.0  -0.3866
  N  N635  1  0.562300  0.108000  0.783600  1.0  -0.188
  N  N636  1  0.550500  0.071900  0.747500  1.0  -0.2559
  N  N637  1  0.696400  0.637800  0.937000  1.0  -0.3887
  N  N638  1  0.716400  0.562300  0.892000  1.0  -0.1909
  N  N639  1  0.752500  0.550500  0.928100  1.0  -0.2555
  N  N640  1  0.196400  0.137800  0.437000  1.0  -0.3887
  N  N641  1  0.216400  0.062300  0.392000  1.0  -0.1909
  N  N642  1  0.252500  0.050500  0.428100  1.0  -0.2555
  N  N643  1  0.196400  0.862200  0.063000  1.0  -0.3858
  N  N644  1  0.216400  0.937700  0.108000  1.0  -0.1905
  N  N645  1  0.252500  0.949500  0.071900  1.0  -0.2558
  N  N646  1  0.696400  0.362200  0.563000  1.0  -0.3858
  N  N647  1  0.716400  0.437700  0.608000  1.0  -0.1905
  N  N648  1  0.752500  0.449500  0.571900  1.0  -0.2558
  N  N649  1  0.803600  0.362200  0.437000  1.0  -0.3878
  N  N650  1  0.783600  0.437700  0.392000  1.0  -0.1911
  N  N651  1  0.747500  0.449500  0.428100  1.0  -0.2591
  N  N652  1  0.303600  0.862200  0.937000  1.0  -0.3878
  N  N653  1  0.283600  0.937700  0.892000  1.0  -0.1911
  N  N654  1  0.247500  0.949500  0.928100  1.0  -0.2591
  N  N655  1  0.303600  0.137800  0.563000  1.0  -0.3894
  N  N656  1  0.283600  0.062300  0.608000  1.0  -0.1905
  N  N657  1  0.247500  0.050500  0.571900  1.0  -0.2579
  N  N658  1  0.803600  0.637800  0.063000  1.0  -0.3894
  N  N659  1  0.783600  0.562300  0.108000  1.0  -0.1905
  N  N660  1  0.747500  0.550500  0.071900  1.0  -0.2579
  N  N661  1  0.937000  0.696400  0.637800  1.0  -0.3883
  N  N662  1  0.892000  0.716400  0.562300  1.0  -0.1884
  N  N663  1  0.928100  0.752500  0.550500  1.0  -0.2604
  N  N664  1  0.437000  0.196400  0.137800  1.0  -0.3883
  N  N665  1  0.392000  0.216400  0.062300  1.0  -0.1884
  N  N666  1  0.428100  0.252500  0.050500  1.0  -0.2604
  N  N667  1  0.063000  0.196400  0.862200  1.0  -0.3868
  N  N668  1  0.108000  0.216400  0.937700  1.0  -0.186
  N  N669  1  0.071900  0.252500  0.949500  1.0  -0.2592
  N  N670  1  0.563000  0.696400  0.362200  1.0  -0.3868
  N  N671  1  0.608000  0.716400  0.437700  1.0  -0.186
  N  N672  1  0.571900  0.752500  0.449500  1.0  -0.2592
  N  N673  1  0.437000  0.803600  0.362200  1.0  -0.3895
  N  N674  1  0.392000  0.783600  0.437700  1.0  -0.1867
  N  N675  1  0.428100  0.747500  0.449500  1.0  -0.26
  N  N676  1  0.937000  0.303600  0.862200  1.0  -0.3895
  N  N677  1  0.892000  0.283600  0.937700  1.0  -0.1867
  N  N678  1  0.928100  0.247500  0.949500  1.0  -0.26
  N  N679  1  0.563000  0.303600  0.137800  1.0  -0.3879
  N  N680  1  0.608000  0.283600  0.062300  1.0  -0.1873
  N  N681  1  0.571900  0.247500  0.050500  1.0  -0.2604
  N  N682  1  0.063000  0.803600  0.637800  1.0  -0.3879
  N  N683  1  0.108000  0.783600  0.562300  1.0  -0.1873
  N  N684  1  0.071900  0.747500  0.550500  1.0  -0.2604
  N  N685  1  0.443500  0.056500  0.943500  1.0  -0.2104
  N  N686  1  0.943500  0.556500  0.443500  1.0  -0.2104
  N  N687  1  0.056500  0.943500  0.443500  1.0  -0.2115
  N  N688  1  0.556500  0.443500  0.943500  1.0  -0.2115
  N  N689  1  0.556500  0.556500  0.556500  1.0  -0.2131
  N  N690  1  0.056500  0.056500  0.056500  1.0  -0.2131
  N  N691  1  0.943500  0.443500  0.056500  1.0  -0.211
  N  N692  1  0.443500  0.943500  0.556500  1.0  -0.211
