# generated using pymatgen
data_Ag3H66(C39N10)2
_symmetry_space_group_name_H-M   'P 1'
_cell_length_a   25.58240000
_cell_length_b   25.58240000
_cell_length_c   25.58240000
_cell_angle_alpha   90.00000000
_cell_angle_beta   90.00000000
_cell_angle_gamma   90.00000000
_symmetry_Int_Tables_number   1
_chemical_formula_structural   Ag3H66(C39N10)2
_chemical_formula_sum   'Ag12 H264 C312 N80'
_cell_volume   16742.63677612
_cell_formula_units_Z   4
loop_
 _symmetry_equiv_pos_site_id
 _symmetry_equiv_pos_as_xyz
  1  'x, y, z'
loop_
 _atom_site_type_symbol
 _atom_site_label
 _atom_site_symmetry_multiplicity
 _atom_site_fract_x
 _atom_site_fract_y
 _atom_site_fract_z
 _atom_site_occupancy
 _atom_site_charge
  Ag  Ag1  1  0.750000  0.893210  0.500000  1.0  0.488
  Ag  Ag2  1  0.750000  0.106790  0.000000  1.0  0.4844
  Ag  Ag3  1  0.250000  0.393210  0.000000  1.0  0.488
  Ag  Ag4  1  0.250000  0.606790  0.500000  1.0  0.4844
  Ag  Ag5  1  0.500000  0.750000  0.893210  1.0  0.4748
  Ag  Ag6  1  0.000000  0.750000  0.106790  1.0  0.4762
  Ag  Ag7  1  0.000000  0.250000  0.393210  1.0  0.4748
  Ag  Ag8  1  0.500000  0.250000  0.606790  1.0  0.4762
  Ag  Ag9  1  0.893210  0.500000  0.750000  1.0  0.4864
  Ag  Ag10  1  0.106790  0.000000  0.750000  1.0  0.4886
  Ag  Ag11  1  0.393210  0.000000  0.250000  1.0  0.4864
  Ag  Ag12  1  0.606790  0.500000  0.250000  1.0  0.4886
  H  H13  1  0.817900  0.791700  0.536100  1.0  0.068
  H  H14  1  0.869700  0.764600  0.598300  1.0  0.1177
  H  H15  1  0.870300  0.811100  0.673500  1.0  0.083
  H  H16  1  0.837000  0.893400  0.678900  1.0  0.1117
  H  H17  1  0.778700  0.025600  0.629000  1.0  0.1304
  H  H18  1  0.723900  0.052700  0.632900  1.0  0.126
  H  H19  1  0.763800  0.070300  0.589900  1.0  0.1124
  H  H20  1  0.700400  0.097000  0.531200  1.0  0.1071
  H  H21  1  0.629500  0.117800  0.479900  1.0  0.1022
  H  H22  1  0.583900  0.965900  0.470100  1.0  0.1199
  H  H23  1  0.654600  0.943600  0.524800  1.0  0.1054
  H  H24  1  0.317900  0.291700  0.036100  1.0  0.0675
  H  H25  1  0.369700  0.264600  0.098300  1.0  0.1177
  H  H26  1  0.370300  0.311100  0.173500  1.0  0.083
  H  H27  1  0.337000  0.393400  0.178900  1.0  0.1117
  H  H28  1  0.278700  0.525600  0.129000  1.0  0.1304
  H  H29  1  0.223900  0.552700  0.132900  1.0  0.126
  H  H30  1  0.263800  0.570300  0.089900  1.0  0.1124
  H  H31  1  0.200400  0.597000  0.031200  1.0  0.1071
  H  H32  1  0.129500  0.617800  0.979900  1.0  0.1022
  H  H33  1  0.083900  0.465900  0.970100  1.0  0.1199
  H  H34  1  0.154600  0.443600  0.024800  1.0  0.1054
  H  H35  1  0.682100  0.208300  0.036100  1.0  0.0674
  H  H36  1  0.630300  0.235400  0.098300  1.0  0.1171
  H  H37  1  0.629700  0.188900  0.173500  1.0  0.0832
  H  H38  1  0.663000  0.106600  0.178900  1.0  0.111
  H  H39  1  0.721300  0.974400  0.129000  1.0  0.1287
  H  H40  1  0.776100  0.947300  0.132900  1.0  0.1258
  H  H41  1  0.736200  0.929700  0.089900  1.0  0.1136
  H  H42  1  0.799600  0.903000  0.031200  1.0  0.106
  H  H43  1  0.870500  0.882200  0.979900  1.0  0.1032
  H  H44  1  0.916100  0.034100  0.970100  1.0  0.1192
  H  H45  1  0.845400  0.056400  0.024800  1.0  0.1061
  H  H46  1  0.182100  0.708300  0.536100  1.0  0.0674
  H  H47  1  0.130300  0.735400  0.598300  1.0  0.1171
  H  H48  1  0.129700  0.688900  0.673500  1.0  0.0832
  H  H49  1  0.163000  0.606600  0.678900  1.0  0.111
  H  H50  1  0.221300  0.474400  0.629000  1.0  0.1287
  H  H51  1  0.276100  0.447300  0.632900  1.0  0.1258
  H  H52  1  0.236200  0.429700  0.589900  1.0  0.1136
  H  H53  1  0.299600  0.403000  0.531200  1.0  0.106
  H  H54  1  0.370500  0.382200  0.479900  1.0  0.1032
  H  H55  1  0.416100  0.534100  0.470100  1.0  0.1192
  H  H56  1  0.345400  0.556400  0.524800  1.0  0.1061
  H  H57  1  0.182100  0.291700  0.963900  1.0  0.0711
  H  H58  1  0.130300  0.264600  0.901700  1.0  0.1131
  H  H59  1  0.129700  0.311100  0.826500  1.0  0.0828
  H  H60  1  0.163000  0.393400  0.821100  1.0  0.1111
  H  H61  1  0.221300  0.525600  0.871000  1.0  0.1288
  H  H62  1  0.276100  0.552700  0.867100  1.0  0.1252
  H  H63  1  0.236200  0.570300  0.910100  1.0  0.1122
  H  H64  1  0.299600  0.597000  0.968800  1.0  0.1062
  H  H65  1  0.370500  0.617800  0.020100  1.0  0.1024
  H  H66  1  0.416100  0.465900  0.029900  1.0  0.1194
  H  H67  1  0.345400  0.443600  0.975200  1.0  0.1051
  H  H68  1  0.682100  0.791700  0.463900  1.0  0.0685
  H  H69  1  0.630300  0.764600  0.401700  1.0  0.1173
  H  H70  1  0.629700  0.811100  0.326500  1.0  0.0828
  H  H71  1  0.663000  0.893400  0.321100  1.0  0.1111
  H  H72  1  0.721300  0.025600  0.371000  1.0  0.1288
  H  H73  1  0.776100  0.052700  0.367100  1.0  0.1252
  H  H74  1  0.736200  0.070300  0.410100  1.0  0.1122
  H  H75  1  0.799600  0.097000  0.468800  1.0  0.1062
  H  H76  1  0.870500  0.117800  0.520100  1.0  0.1024
  H  H77  1  0.916100  0.965900  0.529900  1.0  0.1194
  H  H78  1  0.845400  0.943600  0.475200  1.0  0.1051
  H  H79  1  0.317900  0.708300  0.463900  1.0  0.0678
  H  H80  1  0.369700  0.735400  0.401700  1.0  0.1173
  H  H81  1  0.370300  0.688900  0.326500  1.0  0.0829
  H  H82  1  0.337000  0.606600  0.321100  1.0  0.1107
  H  H83  1  0.278700  0.474400  0.371000  1.0  0.1294
  H  H84  1  0.223900  0.447300  0.367100  1.0  0.1249
  H  H85  1  0.263800  0.429700  0.410100  1.0  0.1115
  H  H86  1  0.200400  0.403000  0.468800  1.0  0.106
  H  H87  1  0.129500  0.382200  0.520100  1.0  0.1028
  H  H88  1  0.083900  0.534100  0.529900  1.0  0.1193
  H  H89  1  0.154600  0.556400  0.475200  1.0  0.1059
  H  H90  1  0.817900  0.208300  0.963900  1.0  0.0694
  H  H91  1  0.869700  0.235400  0.901700  1.0  0.1125
  H  H92  1  0.870300  0.188900  0.826500  1.0  0.0829
  H  H93  1  0.837000  0.106600  0.821100  1.0  0.1107
  H  H94  1  0.778700  0.974400  0.871000  1.0  0.1294
  H  H95  1  0.723900  0.947300  0.867100  1.0  0.1249
  H  H96  1  0.763800  0.929700  0.910100  1.0  0.1115
  H  H97  1  0.700400  0.903000  0.968800  1.0  0.106
  H  H98  1  0.629500  0.882200  0.020100  1.0  0.1028
  H  H99  1  0.583900  0.034100  0.029900  1.0  0.1193
  H  H100  1  0.654600  0.056400  0.975200  1.0  0.1059
  H  H101  1  0.536100  0.817900  0.791700  1.0  0.0673
  H  H102  1  0.598300  0.869700  0.764600  1.0  0.1147
  H  H103  1  0.673500  0.870300  0.811100  1.0  0.0832
  H  H104  1  0.678900  0.837000  0.893400  1.0  0.112
  H  H105  1  0.629000  0.778700  0.025600  1.0  0.13
  H  H106  1  0.632900  0.723900  0.052700  1.0  0.1256
  H  H107  1  0.589900  0.763800  0.070300  1.0  0.1151
  H  H108  1  0.531200  0.700400  0.097000  1.0  0.1068
  H  H109  1  0.479900  0.629500  0.117800  1.0  0.1045
  H  H110  1  0.470100  0.583900  0.965900  1.0  0.1185
  H  H111  1  0.524800  0.654600  0.943600  1.0  0.1073
  H  H112  1  0.036100  0.317900  0.291700  1.0  0.0659
  H  H113  1  0.098300  0.369700  0.264600  1.0  0.1147
  H  H114  1  0.173500  0.370300  0.311100  1.0  0.0832
  H  H115  1  0.178900  0.337000  0.393400  1.0  0.112
  H  H116  1  0.129000  0.278700  0.525600  1.0  0.13
  H  H117  1  0.132900  0.223900  0.552700  1.0  0.1256
  H  H118  1  0.089900  0.263800  0.570300  1.0  0.1151
  H  H119  1  0.031200  0.200400  0.597000  1.0  0.1068
  H  H120  1  0.979900  0.129500  0.617800  1.0  0.1045
  H  H121  1  0.970100  0.083900  0.465900  1.0  0.1185
  H  H122  1  0.024800  0.154600  0.443600  1.0  0.1073
  H  H123  1  0.036100  0.682100  0.208300  1.0  0.067
  H  H124  1  0.098300  0.630300  0.235400  1.0  0.1153
  H  H125  1  0.173500  0.629700  0.188900  1.0  0.0825
  H  H126  1  0.178900  0.663000  0.106600  1.0  0.1125
  H  H127  1  0.129000  0.721300  0.974400  1.0  0.1297
  H  H128  1  0.132900  0.776100  0.947300  1.0  0.1263
  H  H129  1  0.089900  0.736200  0.929700  1.0  0.1161
  H  H130  1  0.031200  0.799600  0.903000  1.0  0.1071
  H  H131  1  0.979900  0.870500  0.882200  1.0  0.1049
  H  H132  1  0.970100  0.916100  0.034100  1.0  0.1185
  H  H133  1  0.024800  0.845400  0.056400  1.0  0.1065
  H  H134  1  0.536100  0.182100  0.708300  1.0  0.067
  H  H135  1  0.598300  0.130300  0.735400  1.0  0.1153
  H  H136  1  0.673500  0.129700  0.688900  1.0  0.0825
  H  H137  1  0.678900  0.163000  0.606600  1.0  0.1125
  H  H138  1  0.629000  0.221300  0.474400  1.0  0.1297
  H  H139  1  0.632900  0.276100  0.447300  1.0  0.1263
  H  H140  1  0.589900  0.236200  0.429700  1.0  0.1161
  H  H141  1  0.531200  0.299600  0.403000  1.0  0.1071
  H  H142  1  0.479900  0.370500  0.382200  1.0  0.1049
  H  H143  1  0.470100  0.416100  0.534100  1.0  0.1185
  H  H144  1  0.524800  0.345400  0.556400  1.0  0.1065
  H  H145  1  0.963900  0.182100  0.291700  1.0  0.07
  H  H146  1  0.901700  0.130300  0.264600  1.0  0.1107
  H  H147  1  0.826500  0.129700  0.311100  1.0  0.0827
  H  H148  1  0.821100  0.163000  0.393400  1.0  0.1106
  H  H149  1  0.871000  0.221300  0.525600  1.0  0.1296
  H  H150  1  0.867100  0.276100  0.552700  1.0  0.1262
  H  H151  1  0.910100  0.236200  0.570300  1.0  0.1142
  H  H152  1  0.968800  0.299600  0.597000  1.0  0.1071
  H  H153  1  0.020100  0.370500  0.617800  1.0  0.1046
  H  H154  1  0.029900  0.416100  0.465900  1.0  0.1179
  H  H155  1  0.975200  0.345400  0.443600  1.0  0.1067
  H  H156  1  0.463900  0.682100  0.791700  1.0  0.068
  H  H157  1  0.401700  0.630300  0.764600  1.0  0.1147
  H  H158  1  0.326500  0.629700  0.811100  1.0  0.0827
  H  H159  1  0.321100  0.663000  0.893400  1.0  0.1106
  H  H160  1  0.371000  0.721300  0.025600  1.0  0.1296
  H  H161  1  0.367100  0.776100  0.052700  1.0  0.1262
  H  H162  1  0.410100  0.736200  0.070300  1.0  0.1142
  H  H163  1  0.468800  0.799600  0.097000  1.0  0.1071
  H  H164  1  0.520100  0.870500  0.117800  1.0  0.1046
  H  H165  1  0.529900  0.916100  0.965900  1.0  0.1179
  H  H166  1  0.475200  0.845400  0.943600  1.0  0.1067
  H  H167  1  0.463900  0.317900  0.708300  1.0  0.0673
  H  H168  1  0.401700  0.369700  0.735400  1.0  0.1152
  H  H169  1  0.326500  0.370300  0.688900  1.0  0.0826
  H  H170  1  0.321100  0.337000  0.606600  1.0  0.1111
  H  H171  1  0.371000  0.278700  0.474400  1.0  0.1293
  H  H172  1  0.367100  0.223900  0.447300  1.0  0.1256
  H  H173  1  0.410100  0.263800  0.429700  1.0  0.1131
  H  H174  1  0.468800  0.200400  0.403000  1.0  0.107
  H  H175  1  0.520100  0.129500  0.382200  1.0  0.1052
  H  H176  1  0.529900  0.083900  0.534100  1.0  0.1185
  H  H177  1  0.475200  0.154600  0.556400  1.0  0.1079
  H  H178  1  0.963900  0.817900  0.208300  1.0  0.069
  H  H179  1  0.901700  0.869700  0.235400  1.0  0.1109
  H  H180  1  0.826500  0.870300  0.188900  1.0  0.0826
  H  H181  1  0.821100  0.837000  0.106600  1.0  0.1111
  H  H182  1  0.871000  0.778700  0.974400  1.0  0.1293
  H  H183  1  0.867100  0.723900  0.947300  1.0  0.1256
  H  H184  1  0.910100  0.763800  0.929700  1.0  0.1131
  H  H185  1  0.968800  0.700400  0.903000  1.0  0.107
  H  H186  1  0.020100  0.629500  0.882200  1.0  0.1052
  H  H187  1  0.029900  0.583900  0.034100  1.0  0.1185
  H  H188  1  0.975200  0.654600  0.056400  1.0  0.1079
  H  H189  1  0.791700  0.536100  0.817900  1.0  0.0677
  H  H190  1  0.764600  0.598300  0.869700  1.0  0.1154
  H  H191  1  0.811100  0.673500  0.870300  1.0  0.0823
  H  H192  1  0.893400  0.678900  0.837000  1.0  0.1134
  H  H193  1  0.025600  0.629000  0.778700  1.0  0.1286
  H  H194  1  0.052700  0.632900  0.723900  1.0  0.1245
  H  H195  1  0.070300  0.589900  0.763800  1.0  0.1122
  H  H196  1  0.097000  0.531200  0.700400  1.0  0.1061
  H  H197  1  0.117800  0.479900  0.629500  1.0  0.1063
  H  H198  1  0.965900  0.470100  0.583900  1.0  0.1164
  H  H199  1  0.943600  0.524800  0.654600  1.0  0.1063
  H  H200  1  0.291700  0.036100  0.317900  1.0  0.0665
  H  H201  1  0.264600  0.098300  0.369700  1.0  0.1154
  H  H202  1  0.311100  0.173500  0.370300  1.0  0.0823
  H  H203  1  0.393400  0.178900  0.337000  1.0  0.1134
  H  H204  1  0.525600  0.129000  0.278700  1.0  0.1286
  H  H205  1  0.552700  0.132900  0.223900  1.0  0.1245
  H  H206  1  0.570300  0.089900  0.263800  1.0  0.1122
  H  H207  1  0.597000  0.031200  0.200400  1.0  0.1061
  H  H208  1  0.617800  0.979900  0.129500  1.0  0.1063
  H  H209  1  0.465900  0.970100  0.083900  1.0  0.1164
  H  H210  1  0.443600  0.024800  0.154600  1.0  0.1063
  H  H211  1  0.208300  0.036100  0.682100  1.0  0.0681
  H  H212  1  0.235400  0.098300  0.630300  1.0  0.1151
  H  H213  1  0.188900  0.173500  0.629700  1.0  0.0827
  H  H214  1  0.106600  0.178900  0.663000  1.0  0.1125
  H  H215  1  0.974400  0.129000  0.721300  1.0  0.1291
  H  H216  1  0.947300  0.132900  0.776100  1.0  0.1251
  H  H217  1  0.929700  0.089900  0.736200  1.0  0.1138
  H  H218  1  0.903000  0.031200  0.799600  1.0  0.1058
  H  H219  1  0.882200  0.979900  0.870500  1.0  0.107
  H  H220  1  0.034100  0.970100  0.916100  1.0  0.1169
  H  H221  1  0.056400  0.024800  0.845400  1.0  0.1064
  H  H222  1  0.708300  0.536100  0.182100  1.0  0.0681
  H  H223  1  0.735400  0.598300  0.130300  1.0  0.1151
  H  H224  1  0.688900  0.673500  0.129700  1.0  0.0827
  H  H225  1  0.606600  0.678900  0.163000  1.0  0.1125
  H  H226  1  0.474400  0.629000  0.221300  1.0  0.1291
  H  H227  1  0.447300  0.632900  0.276100  1.0  0.1251
  H  H228  1  0.429700  0.589900  0.236200  1.0  0.1138
  H  H229  1  0.403000  0.531200  0.299600  1.0  0.1058
  H  H230  1  0.382200  0.479900  0.370500  1.0  0.107
  H  H231  1  0.534100  0.470100  0.416100  1.0  0.1169
  H  H232  1  0.556400  0.524800  0.345400  1.0  0.1064
  H  H233  1  0.291700  0.963900  0.182100  1.0  0.0698
  H  H234  1  0.264600  0.901700  0.130300  1.0  0.1123
  H  H235  1  0.311100  0.826500  0.129700  1.0  0.0819
  H  H236  1  0.393400  0.821100  0.163000  1.0  0.113
  H  H237  1  0.525600  0.871000  0.221300  1.0  0.1289
  H  H238  1  0.552700  0.867100  0.276100  1.0  0.1255
  H  H239  1  0.570300  0.910100  0.236200  1.0  0.1135
  H  H240  1  0.597000  0.968800  0.299600  1.0  0.1062
  H  H241  1  0.617800  0.020100  0.370500  1.0  0.1062
  H  H242  1  0.465900  0.029900  0.416100  1.0  0.1175
  H  H243  1  0.443600  0.975200  0.345400  1.0  0.1073
  H  H244  1  0.791700  0.463900  0.682100  1.0  0.0681
  H  H245  1  0.764600  0.401700  0.630300  1.0  0.1153
  H  H246  1  0.811100  0.326500  0.629700  1.0  0.0819
  H  H247  1  0.893400  0.321100  0.663000  1.0  0.113
  H  H248  1  0.025600  0.371000  0.721300  1.0  0.1289
  H  H249  1  0.052700  0.367100  0.776100  1.0  0.1255
  H  H250  1  0.070300  0.410100  0.736200  1.0  0.1135
  H  H251  1  0.097000  0.468800  0.799600  1.0  0.1062
  H  H252  1  0.117800  0.520100  0.870500  1.0  0.1062
  H  H253  1  0.965900  0.529900  0.916100  1.0  0.1175
  H  H254  1  0.943600  0.475200  0.845400  1.0  0.1073
  H  H255  1  0.708300  0.463900  0.317900  1.0  0.0691
  H  H256  1  0.735400  0.401700  0.369700  1.0  0.1154
  H  H257  1  0.688900  0.326500  0.370300  1.0  0.0826
  H  H258  1  0.606600  0.321100  0.337000  1.0  0.1131
  H  H259  1  0.474400  0.371000  0.278700  1.0  0.1292
  H  H260  1  0.447300  0.367100  0.223900  1.0  0.1248
  H  H261  1  0.429700  0.410100  0.263800  1.0  0.1132
  H  H262  1  0.403000  0.468800  0.200400  1.0  0.1055
  H  H263  1  0.382200  0.520100  0.129500  1.0  0.1065
  H  H264  1  0.534100  0.529900  0.083900  1.0  0.1166
  H  H265  1  0.556400  0.475200  0.154600  1.0  0.1058
  H  H266  1  0.208300  0.963900  0.817900  1.0  0.0699
  H  H267  1  0.235400  0.901700  0.869700  1.0  0.1113
  H  H268  1  0.188900  0.826500  0.870300  1.0  0.0826
  H  H269  1  0.106600  0.821100  0.837000  1.0  0.1131
  H  H270  1  0.974400  0.871000  0.778700  1.0  0.1292
  H  H271  1  0.947300  0.867100  0.723900  1.0  0.1248
  H  H272  1  0.929700  0.910100  0.763800  1.0  0.1132
  H  H273  1  0.903000  0.968800  0.700400  1.0  0.1055
  H  H274  1  0.882200  0.020100  0.629500  1.0  0.1065
  H  H275  1  0.034100  0.029900  0.583900  1.0  0.1166
  H  H276  1  0.056400  0.975200  0.654600  1.0  0.1058
  C  C277  1  0.824200  0.814400  0.563900  1.0  0.1835
  C  C278  1  0.851900  0.796200  0.601100  1.0  -0.1367
  C  C279  1  0.853900  0.825200  0.644300  1.0  -0.0725
  C  C280  1  0.833700  0.873300  0.648700  1.0  -0.1864
  C  C281  1  0.806300  0.891500  0.602600  1.0  0.3487
  C  C282  1  0.728300  0.001200  0.572300  1.0  0.238
  C  C283  1  0.750700  0.041100  0.609400  1.0  -0.4382
  C  C284  1  0.686800  0.017300  0.540400  1.0  -0.0122
  C  C285  1  0.677400  0.070600  0.521300  1.0  -0.1258
  C  C286  1  0.636000  0.083300  0.489200  1.0  -0.1854
  C  C287  1  0.606800  0.046700  0.472700  1.0  0.1555
  C  C288  1  0.607500  0.990100  0.483400  1.0  -0.1579
  C  C289  1  0.649400  0.978600  0.516600  1.0  -0.0457
  C  C290  1  0.324200  0.314400  0.063900  1.0  0.1835
  C  C291  1  0.351900  0.296200  0.101100  1.0  -0.1367
  C  C292  1  0.353900  0.325200  0.144300  1.0  -0.0725
  C  C293  1  0.333700  0.373300  0.148700  1.0  -0.1864
  C  C294  1  0.306300  0.391500  0.102600  1.0  0.3487
  C  C295  1  0.228300  0.501200  0.072300  1.0  0.238
  C  C296  1  0.250700  0.541100  0.109400  1.0  -0.4382
  C  C297  1  0.186800  0.517300  0.040400  1.0  -0.0122
  C  C298  1  0.177400  0.570600  0.021300  1.0  -0.1258
  C  C299  1  0.136000  0.583300  0.989200  1.0  -0.1854
  C  C300  1  0.106800  0.546700  0.972700  1.0  0.1555
  C  C301  1  0.107500  0.490100  0.983400  1.0  -0.1579
  C  C302  1  0.149400  0.478600  0.016600  1.0  -0.0457
  C  C303  1  0.675800  0.185600  0.063900  1.0  0.1825
  C  C304  1  0.648100  0.203800  0.101100  1.0  -0.1357
  C  C305  1  0.646100  0.174800  0.144300  1.0  -0.0711
  C  C306  1  0.666300  0.126700  0.148700  1.0  -0.1865
  C  C307  1  0.693700  0.108500  0.102600  1.0  0.3492
  C  C308  1  0.771700  0.998800  0.072300  1.0  0.2371
  C  C309  1  0.749300  0.958900  0.109400  1.0  -0.438
  C  C310  1  0.813200  0.982700  0.040400  1.0  -0.013
  C  C311  1  0.822600  0.929400  0.021300  1.0  -0.126
  C  C312  1  0.864000  0.916700  0.989200  1.0  -0.1852
  C  C313  1  0.893200  0.953300  0.972700  1.0  0.156
  C  C314  1  0.892500  0.009900  0.983400  1.0  -0.1539
  C  C315  1  0.850600  0.021400  0.016600  1.0  -0.0495
  C  C316  1  0.175800  0.685600  0.563900  1.0  0.1825
  C  C317  1  0.148100  0.703800  0.601100  1.0  -0.1357
  C  C318  1  0.146100  0.674800  0.644300  1.0  -0.0711
  C  C319  1  0.166300  0.626700  0.648700  1.0  -0.1865
  C  C320  1  0.193700  0.608500  0.602600  1.0  0.3492
  C  C321  1  0.271700  0.498800  0.572300  1.0  0.2371
  C  C322  1  0.249300  0.458900  0.609400  1.0  -0.438
  C  C323  1  0.313200  0.482700  0.540400  1.0  -0.013
  C  C324  1  0.322600  0.429400  0.521300  1.0  -0.126
  C  C325  1  0.364000  0.416700  0.489200  1.0  -0.1852
  C  C326  1  0.393200  0.453300  0.472700  1.0  0.156
  C  C327  1  0.392500  0.509900  0.483400  1.0  -0.1539
  C  C328  1  0.350600  0.521400  0.516600  1.0  -0.0495
  C  C329  1  0.175800  0.314400  0.936100  1.0  0.1811
  C  C330  1  0.148100  0.296200  0.898900  1.0  -0.139
  C  C331  1  0.146100  0.325200  0.855700  1.0  -0.0712
  C  C332  1  0.166300  0.373300  0.851300  1.0  -0.1859
  C  C333  1  0.193700  0.391500  0.897400  1.0  0.3487
  C  C334  1  0.271700  0.501200  0.927700  1.0  0.2373
  C  C335  1  0.249300  0.541100  0.890600  1.0  -0.4372
  C  C336  1  0.313200  0.517300  0.959600  1.0  -0.0128
  C  C337  1  0.322600  0.570600  0.978700  1.0  -0.1267
  C  C338  1  0.364000  0.583300  0.010800  1.0  -0.1834
  C  C339  1  0.393200  0.546700  0.027300  1.0  0.1567
  C  C340  1  0.392500  0.490100  0.016600  1.0  -0.1558
  C  C341  1  0.350600  0.478600  0.983400  1.0  -0.0477
  C  C342  1  0.675800  0.814400  0.436100  1.0  0.1811
  C  C343  1  0.648100  0.796200  0.398900  1.0  -0.139
  C  C344  1  0.646100  0.825200  0.355700  1.0  -0.0712
  C  C345  1  0.666300  0.873300  0.351300  1.0  -0.1859
  C  C346  1  0.693700  0.891500  0.397400  1.0  0.3487
  C  C347  1  0.771700  0.001200  0.427700  1.0  0.2373
  C  C348  1  0.749300  0.041100  0.390600  1.0  -0.4372
  C  C349  1  0.813200  0.017300  0.459600  1.0  -0.0128
  C  C350  1  0.822600  0.070600  0.478700  1.0  -0.1267
  C  C351  1  0.864000  0.083300  0.510800  1.0  -0.1834
  C  C352  1  0.893200  0.046700  0.527300  1.0  0.1567
  C  C353  1  0.892500  0.990100  0.516600  1.0  -0.1558
  C  C354  1  0.850600  0.978600  0.483400  1.0  -0.0477
  C  C355  1  0.324200  0.685600  0.436100  1.0  0.1824
  C  C356  1  0.351900  0.703800  0.398900  1.0  -0.1348
  C  C357  1  0.353900  0.674800  0.355700  1.0  -0.0723
  C  C358  1  0.333700  0.626700  0.351300  1.0  -0.1854
  C  C359  1  0.306300  0.608500  0.397400  1.0  0.3486
  C  C360  1  0.228300  0.498800  0.427700  1.0  0.2382
  C  C361  1  0.250700  0.458900  0.390600  1.0  -0.4384
  C  C362  1  0.186800  0.482700  0.459600  1.0  -0.0129
  C  C363  1  0.177400  0.429400  0.478700  1.0  -0.1265
  C  C364  1  0.136000  0.416700  0.510800  1.0  -0.1857
  C  C365  1  0.106800  0.453300  0.527300  1.0  0.1561
  C  C366  1  0.107500  0.509900  0.516600  1.0  -0.1555
  C  C367  1  0.149400  0.521400  0.483400  1.0  -0.0493
  C  C368  1  0.824200  0.185600  0.936100  1.0  0.1824
  C  C369  1  0.851900  0.203800  0.898900  1.0  -0.1348
  C  C370  1  0.853900  0.174800  0.855700  1.0  -0.0723
  C  C371  1  0.833700  0.126700  0.851300  1.0  -0.1854
  C  C372  1  0.806300  0.108500  0.897400  1.0  0.3486
  C  C373  1  0.728300  0.998800  0.927700  1.0  0.2382
  C  C374  1  0.750700  0.958900  0.890600  1.0  -0.4384
  C  C375  1  0.686800  0.982700  0.959600  1.0  -0.0129
  C  C376  1  0.677400  0.929400  0.978700  1.0  -0.1265
  C  C377  1  0.636000  0.916700  0.010800  1.0  -0.1857
  C  C378  1  0.606800  0.953300  0.027300  1.0  0.1561
  C  C379  1  0.607500  0.009900  0.016600  1.0  -0.1555
  C  C380  1  0.649400  0.021400  0.983400  1.0  -0.0493
  C  C381  1  0.563900  0.824200  0.814400  1.0  0.1847
  C  C382  1  0.601100  0.851900  0.796200  1.0  -0.1301
  C  C383  1  0.644300  0.853900  0.825200  1.0  -0.0736
  C  C384  1  0.648700  0.833700  0.873300  1.0  -0.1849
  C  C385  1  0.602600  0.806300  0.891500  1.0  0.3533
  C  C386  1  0.572300  0.728300  0.001200  1.0  0.24
  C  C387  1  0.609400  0.750700  0.041100  1.0  -0.4365
  C  C388  1  0.540400  0.686800  0.017300  1.0  -0.0115
  C  C389  1  0.521300  0.677400  0.070600  1.0  -0.1242
  C  C390  1  0.489200  0.636000  0.083300  1.0  -0.1844
  C  C391  1  0.472700  0.606800  0.046700  1.0  0.1565
  C  C392  1  0.483400  0.607500  0.990100  1.0  -0.1519
  C  C393  1  0.516600  0.649400  0.978600  1.0  -0.0465
  C  C394  1  0.063900  0.324200  0.314400  1.0  0.1847
  C  C395  1  0.101100  0.351900  0.296200  1.0  -0.1301
  C  C396  1  0.144300  0.353900  0.325200  1.0  -0.0736
  C  C397  1  0.148700  0.333700  0.373300  1.0  -0.1849
  C  C398  1  0.102600  0.306300  0.391500  1.0  0.3533
  C  C399  1  0.072300  0.228300  0.501200  1.0  0.24
  C  C400  1  0.109400  0.250700  0.541100  1.0  -0.4365
  C  C401  1  0.040400  0.186800  0.517300  1.0  -0.0115
  C  C402  1  0.021300  0.177400  0.570600  1.0  -0.1242
  C  C403  1  0.989200  0.136000  0.583300  1.0  -0.1844
  C  C404  1  0.972700  0.106800  0.546700  1.0  0.1565
  C  C405  1  0.983400  0.107500  0.490100  1.0  -0.1519
  C  C406  1  0.016600  0.149400  0.478600  1.0  -0.0465
  C  C407  1  0.063900  0.675800  0.185600  1.0  0.1822
  C  C408  1  0.101100  0.648100  0.203800  1.0  -0.1323
  C  C409  1  0.144300  0.646100  0.174800  1.0  -0.0719
  C  C410  1  0.148700  0.666300  0.126700  1.0  -0.1834
  C  C411  1  0.102600  0.693700  0.108500  1.0  0.3543
  C  C412  1  0.072300  0.771700  0.998800  1.0  0.2398
  C  C413  1  0.109400  0.749300  0.958900  1.0  -0.438
  C  C414  1  0.040400  0.813200  0.982700  1.0  -0.0116
  C  C415  1  0.021300  0.822600  0.929400  1.0  -0.1253
  C  C416  1  0.989200  0.864000  0.916700  1.0  -0.1854
  C  C417  1  0.972700  0.893200  0.953300  1.0  0.1543
  C  C418  1  0.983400  0.892500  0.009900  1.0  -0.1509
  C  C419  1  0.016600  0.850600  0.021400  1.0  -0.0426
  C  C420  1  0.563900  0.175800  0.685600  1.0  0.1822
  C  C421  1  0.601100  0.148100  0.703800  1.0  -0.1323
  C  C422  1  0.644300  0.146100  0.674800  1.0  -0.0719
  C  C423  1  0.648700  0.166300  0.626700  1.0  -0.1834
  C  C424  1  0.602600  0.193700  0.608500  1.0  0.3543
  C  C425  1  0.572300  0.271700  0.498800  1.0  0.2398
  C  C426  1  0.609400  0.249300  0.458900  1.0  -0.438
  C  C427  1  0.540400  0.313200  0.482700  1.0  -0.0116
  C  C428  1  0.521300  0.322600  0.429400  1.0  -0.1253
  C  C429  1  0.489200  0.364000  0.416700  1.0  -0.1854
  C  C430  1  0.472700  0.393200  0.453300  1.0  0.1543
  C  C431  1  0.483400  0.392500  0.509900  1.0  -0.1509
  C  C432  1  0.516600  0.350600  0.521400  1.0  -0.0426
  C  C433  1  0.936100  0.175800  0.314400  1.0  0.1842
  C  C434  1  0.898900  0.148100  0.296200  1.0  -0.1328
  C  C435  1  0.855700  0.146100  0.325200  1.0  -0.0723
  C  C436  1  0.851300  0.166300  0.373300  1.0  -0.1851
  C  C437  1  0.897400  0.193700  0.391500  1.0  0.3524
  C  C438  1  0.927700  0.271700  0.501200  1.0  0.2411
  C  C439  1  0.890600  0.249300  0.541100  1.0  -0.4362
  C  C440  1  0.959600  0.313200  0.517300  1.0  -0.0116
  C  C441  1  0.978700  0.322600  0.570600  1.0  -0.125
  C  C442  1  0.010800  0.364000  0.583300  1.0  -0.1832
  C  C443  1  0.027300  0.393200  0.546700  1.0  0.1559
  C  C444  1  0.016600  0.392500  0.490100  1.0  -0.1513
  C  C445  1  0.983400  0.350600  0.478600  1.0  -0.0461
  C  C446  1  0.436100  0.675800  0.814400  1.0  0.1842
  C  C447  1  0.398900  0.648100  0.796200  1.0  -0.1328
  C  C448  1  0.355700  0.646100  0.825200  1.0  -0.0723
  C  C449  1  0.351300  0.666300  0.873300  1.0  -0.1851
  C  C450  1  0.397400  0.693700  0.891500  1.0  0.3524
  C  C451  1  0.427700  0.771700  0.001200  1.0  0.2411
  C  C452  1  0.390600  0.749300  0.041100  1.0  -0.4362
  C  C453  1  0.459600  0.813200  0.017300  1.0  -0.0116
  C  C454  1  0.478700  0.822600  0.070600  1.0  -0.125
  C  C455  1  0.510800  0.864000  0.083300  1.0  -0.1832
  C  C456  1  0.527300  0.893200  0.046700  1.0  0.1559
  C  C457  1  0.516600  0.892500  0.990100  1.0  -0.1513
  C  C458  1  0.483400  0.850600  0.978600  1.0  -0.0461
  C  C459  1  0.436100  0.324200  0.685600  1.0  0.1849
  C  C460  1  0.398900  0.351900  0.703800  1.0  -0.1328
  C  C461  1  0.355700  0.353900  0.674800  1.0  -0.0724
  C  C462  1  0.351300  0.333700  0.626700  1.0  -0.1837
  C  C463  1  0.397400  0.306300  0.608500  1.0  0.3535
  C  C464  1  0.427700  0.228300  0.498800  1.0  0.2392
  C  C465  1  0.390600  0.250700  0.458900  1.0  -0.4366
  C  C466  1  0.459600  0.186800  0.482700  1.0  -0.0115
  C  C467  1  0.478700  0.177400  0.429400  1.0  -0.126
  C  C468  1  0.510800  0.136000  0.416700  1.0  -0.1841
  C  C469  1  0.527300  0.106800  0.453300  1.0  0.1542
  C  C470  1  0.516600  0.107500  0.509900  1.0  -0.1538
  C  C471  1  0.483400  0.149400  0.521400  1.0  -0.0436
  C  C472  1  0.936100  0.824200  0.185600  1.0  0.1849
  C  C473  1  0.898900  0.851900  0.203800  1.0  -0.1328
  C  C474  1  0.855700  0.853900  0.174800  1.0  -0.0724
  C  C475  1  0.851300  0.833700  0.126700  1.0  -0.1837
  C  C476  1  0.897400  0.806300  0.108500  1.0  0.3535
  C  C477  1  0.927700  0.728300  0.998800  1.0  0.2392
  C  C478  1  0.890600  0.750700  0.958900  1.0  -0.4366
  C  C479  1  0.959600  0.686800  0.982700  1.0  -0.0115
  C  C480  1  0.978700  0.677400  0.929400  1.0  -0.126
  C  C481  1  0.010800  0.636000  0.916700  1.0  -0.1841
  C  C482  1  0.027300  0.606800  0.953300  1.0  0.1542
  C  C483  1  0.016600  0.607500  0.009900  1.0  -0.1538
  C  C484  1  0.983400  0.649400  0.021400  1.0  -0.0436
  C  C485  1  0.814400  0.563900  0.824200  1.0  0.1902
  C  C486  1  0.796200  0.601100  0.851900  1.0  -0.1342
  C  C487  1  0.825200  0.644300  0.853900  1.0  -0.0687
  C  C488  1  0.873300  0.648700  0.833700  1.0  -0.1864
  C  C489  1  0.891500  0.602600  0.806300  1.0  0.3514
  C  C490  1  0.001200  0.572300  0.728300  1.0  0.2381
  C  C491  1  0.041100  0.609400  0.750700  1.0  -0.4354
  C  C492  1  0.017300  0.540400  0.686800  1.0  -0.0116
  C  C493  1  0.070600  0.521300  0.677400  1.0  -0.1242
  C  C494  1  0.083300  0.489200  0.636000  1.0  -0.1868
  C  C495  1  0.046700  0.472700  0.606800  1.0  0.1545
  C  C496  1  0.990100  0.483400  0.607500  1.0  -0.1544
  C  C497  1  0.978600  0.516600  0.649400  1.0  -0.0478
  C  C498  1  0.314400  0.063900  0.324200  1.0  0.1902
  C  C499  1  0.296200  0.101100  0.351900  1.0  -0.1342
  C  C500  1  0.325200  0.144300  0.353900  1.0  -0.0687
  C  C501  1  0.373300  0.148700  0.333700  1.0  -0.1864
  C  C502  1  0.391500  0.102600  0.306300  1.0  0.3514
  C  C503  1  0.501200  0.072300  0.228300  1.0  0.2381
  C  C504  1  0.541100  0.109400  0.250700  1.0  -0.4354
  C  C505  1  0.517300  0.040400  0.186800  1.0  -0.0116
  C  C506  1  0.570600  0.021300  0.177400  1.0  -0.1242
  C  C507  1  0.583300  0.989200  0.136000  1.0  -0.1868
  C  C508  1  0.546700  0.972700  0.106800  1.0  0.1545
  C  C509  1  0.490100  0.983400  0.107500  1.0  -0.1544
  C  C510  1  0.478600  0.016600  0.149400  1.0  -0.0478
  C  C511  1  0.185600  0.063900  0.675800  1.0  0.1883
  C  C512  1  0.203800  0.101100  0.648100  1.0  -0.1334
  C  C513  1  0.174800  0.144300  0.646100  1.0  -0.0676
  C  C514  1  0.126700  0.148700  0.666300  1.0  -0.1859
  C  C515  1  0.108500  0.102600  0.693700  1.0  0.3504
  C  C516  1  0.998800  0.072300  0.771700  1.0  0.2365
  C  C517  1  0.958900  0.109400  0.749300  1.0  -0.4354
  C  C518  1  0.982700  0.040400  0.813200  1.0  -0.011
  C  C519  1  0.929400  0.021300  0.822600  1.0  -0.1249
  C  C520  1  0.916700  0.989200  0.864000  1.0  -0.1875
  C  C521  1  0.953300  0.972700  0.893200  1.0  0.1544
  C  C522  1  0.009900  0.983400  0.892500  1.0  -0.152
  C  C523  1  0.021400  0.016600  0.850600  1.0  -0.0484
  C  C524  1  0.685600  0.563900  0.175800  1.0  0.1883
  C  C525  1  0.703800  0.601100  0.148100  1.0  -0.1334
  C  C526  1  0.674800  0.644300  0.146100  1.0  -0.0676
  C  C527  1  0.626700  0.648700  0.166300  1.0  -0.1859
  C  C528  1  0.608500  0.602600  0.193700  1.0  0.3504
  C  C529  1  0.498800  0.572300  0.271700  1.0  0.2365
  C  C530  1  0.458900  0.609400  0.249300  1.0  -0.4354
  C  C531  1  0.482700  0.540400  0.313200  1.0  -0.011
  C  C532  1  0.429400  0.521300  0.322600  1.0  -0.1249
  C  C533  1  0.416700  0.489200  0.364000  1.0  -0.1875
  C  C534  1  0.453300  0.472700  0.393200  1.0  0.1544
  C  C535  1  0.509900  0.483400  0.392500  1.0  -0.152
  C  C536  1  0.521400  0.516600  0.350600  1.0  -0.0484
  C  C537  1  0.314400  0.936100  0.175800  1.0  0.1894
  C  C538  1  0.296200  0.898900  0.148100  1.0  -0.1337
  C  C539  1  0.325200  0.855700  0.146100  1.0  -0.0689
  C  C540  1  0.373300  0.851300  0.166300  1.0  -0.1863
  C  C541  1  0.391500  0.897400  0.193700  1.0  0.3509
  C  C542  1  0.501200  0.927700  0.271700  1.0  0.2388
  C  C543  1  0.541100  0.890600  0.249300  1.0  -0.436
  C  C544  1  0.517300  0.959600  0.313200  1.0  -0.0107
  C  C545  1  0.570600  0.978700  0.322600  1.0  -0.1249
  C  C546  1  0.583300  0.010800  0.364000  1.0  -0.1866
  C  C547  1  0.546700  0.027300  0.393200  1.0  0.1541
  C  C548  1  0.490100  0.016600  0.392500  1.0  -0.1545
  C  C549  1  0.478600  0.983400  0.350600  1.0  -0.0467
  C  C550  1  0.814400  0.436100  0.675800  1.0  0.1894
  C  C551  1  0.796200  0.398900  0.648100  1.0  -0.1337
  C  C552  1  0.825200  0.355700  0.646100  1.0  -0.0689
  C  C553  1  0.873300  0.351300  0.666300  1.0  -0.1863
  C  C554  1  0.891500  0.397400  0.693700  1.0  0.3509
  C  C555  1  0.001200  0.427700  0.771700  1.0  0.2388
  C  C556  1  0.041100  0.390600  0.749300  1.0  -0.436
  C  C557  1  0.017300  0.459600  0.813200  1.0  -0.0107
  C  C558  1  0.070600  0.478700  0.822600  1.0  -0.1249
  C  C559  1  0.083300  0.510800  0.864000  1.0  -0.1866
  C  C560  1  0.046700  0.527300  0.893200  1.0  0.1541
  C  C561  1  0.990100  0.516600  0.892500  1.0  -0.1545
  C  C562  1  0.978600  0.483400  0.850600  1.0  -0.0467
  C  C563  1  0.685600  0.436100  0.324200  1.0  0.1881
  C  C564  1  0.703800  0.398900  0.351900  1.0  -0.1331
  C  C565  1  0.674800  0.355700  0.353900  1.0  -0.069
  C  C566  1  0.626700  0.351300  0.333700  1.0  -0.186
  C  C567  1  0.608500  0.397400  0.306300  1.0  0.3505
  C  C568  1  0.498800  0.427700  0.228300  1.0  0.2376
  C  C569  1  0.458900  0.390600  0.250700  1.0  -0.4346
  C  C570  1  0.482700  0.459600  0.186800  1.0  -0.0114
  C  C571  1  0.429400  0.478700  0.177400  1.0  -0.1245
  C  C572  1  0.416700  0.510800  0.136000  1.0  -0.1878
  C  C573  1  0.453300  0.527300  0.106800  1.0  0.1554
  C  C574  1  0.509900  0.516600  0.107500  1.0  -0.1528
  C  C575  1  0.521400  0.483400  0.149400  1.0  -0.047
  C  C576  1  0.185600  0.936100  0.824200  1.0  0.1881
  C  C577  1  0.203800  0.898900  0.851900  1.0  -0.1331
  C  C578  1  0.174800  0.855700  0.853900  1.0  -0.069
  C  C579  1  0.126700  0.851300  0.833700  1.0  -0.186
  C  C580  1  0.108500  0.897400  0.806300  1.0  0.3505
  C  C581  1  0.998800  0.927700  0.728300  1.0  0.2376
  C  C582  1  0.958900  0.890600  0.750700  1.0  -0.4346
  C  C583  1  0.982700  0.959600  0.686800  1.0  -0.0114
  C  C584  1  0.929400  0.978700  0.677400  1.0  -0.1245
  C  C585  1  0.916700  0.010800  0.636000  1.0  -0.1878
  C  C586  1  0.953300  0.027300  0.606800  1.0  0.1554
  C  C587  1  0.009900  0.016600  0.607500  1.0  -0.1528
  C  C588  1  0.021400  0.983400  0.649400  1.0  -0.047
  N  N589  1  0.802700  0.862900  0.559600  1.0  -0.3595
  N  N590  1  0.781000  0.938000  0.609200  1.0  -0.3154
  N  N591  1  0.745300  0.952400  0.571100  1.0  -0.2775
  N  N592  1  0.302700  0.362900  0.059600  1.0  -0.3595
  N  N593  1  0.281000  0.438000  0.109200  1.0  -0.3154
  N  N594  1  0.245300  0.452400  0.071100  1.0  -0.2775
  N  N595  1  0.697300  0.137100  0.059600  1.0  -0.3602
  N  N596  1  0.719000  0.062000  0.109200  1.0  -0.3143
  N  N597  1  0.754700  0.047600  0.071100  1.0  -0.2781
  N  N598  1  0.197300  0.637100  0.559600  1.0  -0.3602
  N  N599  1  0.219000  0.562000  0.609200  1.0  -0.3143
  N  N600  1  0.254700  0.547600  0.571100  1.0  -0.2781
  N  N601  1  0.197300  0.362900  0.940400  1.0  -0.3602
  N  N602  1  0.219000  0.438000  0.890800  1.0  -0.3155
  N  N603  1  0.254700  0.452400  0.928900  1.0  -0.2786
  N  N604  1  0.697300  0.862900  0.440400  1.0  -0.3602
  N  N605  1  0.719000  0.938000  0.390800  1.0  -0.3155
  N  N606  1  0.754700  0.952400  0.428900  1.0  -0.2786
  N  N607  1  0.302700  0.637100  0.440400  1.0  -0.3602
  N  N608  1  0.281000  0.562000  0.390800  1.0  -0.3162
  N  N609  1  0.245300  0.547600  0.428900  1.0  -0.2767
  N  N610  1  0.802700  0.137100  0.940400  1.0  -0.3602
  N  N611  1  0.781000  0.062000  0.890800  1.0  -0.3162
  N  N612  1  0.745300  0.047600  0.928900  1.0  -0.2767
  N  N613  1  0.559600  0.802700  0.862900  1.0  -0.3555
  N  N614  1  0.609200  0.781000  0.938000  1.0  -0.3173
  N  N615  1  0.571100  0.745300  0.952400  1.0  -0.279
  N  N616  1  0.059600  0.302700  0.362900  1.0  -0.3555
  N  N617  1  0.109200  0.281000  0.438000  1.0  -0.3173
  N  N618  1  0.071100  0.245300  0.452400  1.0  -0.279
  N  N619  1  0.059600  0.697300  0.137100  1.0  -0.3553
  N  N620  1  0.109200  0.719000  0.062000  1.0  -0.3161
  N  N621  1  0.071100  0.754700  0.047600  1.0  -0.2774
  N  N622  1  0.559600  0.197300  0.637100  1.0  -0.3553
  N  N623  1  0.609200  0.219000  0.562000  1.0  -0.3161
  N  N624  1  0.571100  0.254700  0.547600  1.0  -0.2774
  N  N625  1  0.940400  0.197300  0.362900  1.0  -0.3569
  N  N626  1  0.890800  0.219000  0.438000  1.0  -0.315
  N  N627  1  0.928900  0.254700  0.452400  1.0  -0.2768
  N  N628  1  0.440400  0.697300  0.862900  1.0  -0.3569
  N  N629  1  0.390800  0.719000  0.938000  1.0  -0.315
  N  N630  1  0.428900  0.754700  0.952400  1.0  -0.2768
  N  N631  1  0.440400  0.302700  0.637100  1.0  -0.3556
  N  N632  1  0.390800  0.281000  0.562000  1.0  -0.3132
  N  N633  1  0.428900  0.245300  0.547600  1.0  -0.2782
  N  N634  1  0.940400  0.802700  0.137100  1.0  -0.3556
  N  N635  1  0.890800  0.781000  0.062000  1.0  -0.3132
  N  N636  1  0.928900  0.745300  0.047600  1.0  -0.2782
  N  N637  1  0.862900  0.559600  0.802700  1.0  -0.3537
  N  N638  1  0.938000  0.609200  0.781000  1.0  -0.3151
  N  N639  1  0.952400  0.571100  0.745300  1.0  -0.2769
  N  N640  1  0.362900  0.059600  0.302700  1.0  -0.3537
  N  N641  1  0.438000  0.109200  0.281000  1.0  -0.3151
  N  N642  1  0.452400  0.071100  0.245300  1.0  -0.2769
  N  N643  1  0.137100  0.059600  0.697300  1.0  -0.3543
  N  N644  1  0.062000  0.109200  0.719000  1.0  -0.3136
  N  N645  1  0.047600  0.071100  0.754700  1.0  -0.2787
  N  N646  1  0.637100  0.559600  0.197300  1.0  -0.3543
  N  N647  1  0.562000  0.609200  0.219000  1.0  -0.3136
  N  N648  1  0.547600  0.571100  0.254700  1.0  -0.2787
  N  N649  1  0.362900  0.940400  0.197300  1.0  -0.3549
  N  N650  1  0.438000  0.890800  0.219000  1.0  -0.3114
  N  N651  1  0.452400  0.928900  0.254700  1.0  -0.277
  N  N652  1  0.862900  0.440400  0.697300  1.0  -0.3549
  N  N653  1  0.938000  0.390800  0.719000  1.0  -0.3114
  N  N654  1  0.952400  0.428900  0.754700  1.0  -0.277
  N  N655  1  0.637100  0.440400  0.302700  1.0  -0.3545
  N  N656  1  0.562000  0.390800  0.281000  1.0  -0.3122
  N  N657  1  0.547600  0.428900  0.245300  1.0  -0.2796
  N  N658  1  0.137100  0.940400  0.802700  1.0  -0.3545
  N  N659  1  0.062000  0.890800  0.781000  1.0  -0.3122
  N  N660  1  0.047600  0.928900  0.745300  1.0  -0.2796
  N  N661  1  0.560500  0.060500  0.439500  1.0  -0.1606
  N  N662  1  0.060500  0.560500  0.939500  1.0  -0.1606
  N  N663  1  0.939500  0.939500  0.939500  1.0  -0.1601
  N  N664  1  0.439500  0.439500  0.439500  1.0  -0.1601
  N  N665  1  0.439500  0.560500  0.060500  1.0  -0.1598
  N  N666  1  0.939500  0.060500  0.560500  1.0  -0.1598
  N  N667  1  0.060500  0.439500  0.560500  1.0  -0.1608
  N  N668  1  0.560500  0.939500  0.060500  1.0  -0.1608
