# generated using pymatgen
data_CoH8C13NO5
_symmetry_space_group_name_H-M   'P 1'
_cell_length_a   18.19100000
_cell_length_b   17.17700000
_cell_length_c   13.69230000
_cell_angle_alpha   90.00000000
_cell_angle_beta   129.74100000
_cell_angle_gamma   90.00000000
_symmetry_Int_Tables_number   1
_chemical_formula_structural   CoH8C13NO5
_chemical_formula_sum   'Co8 H64 C104 N8 O40'
_cell_volume   3289.83433112
_cell_formula_units_Z   8
loop_
 _symmetry_equiv_pos_site_id
 _symmetry_equiv_pos_as_xyz
  1  'x, y, z'
loop_
 _atom_site_type_symbol
 _atom_site_label
 _atom_site_symmetry_multiplicity
 _atom_site_fract_x
 _atom_site_fract_y
 _atom_site_fract_z
 _atom_site_occupancy
 _atom_site_charge
  Co  Co1  1  0.500000  0.197340  0.250000  1.0  1.1607
  Co  Co2  1  0.000000  0.697340  0.250000  1.0  1.1607
  Co  Co3  1  0.500000  0.802660  0.750000  1.0  1.1604
  Co  Co4  1  0.000000  0.302660  0.750000  1.0  1.1604
  Co  Co5  1  0.250000  0.250000  0.000000  1.0  1.1766
  Co  Co6  1  0.750000  0.250000  0.500000  1.0  1.1766
  Co  Co7  1  0.750000  0.750000  0.000000  1.0  1.1766
  Co  Co8  1  0.250000  0.750000  0.500000  1.0  1.1766
  H  H9  1  0.208900  0.058700  0.169700  1.0  0.073
  H  H10  1  0.208900  0.950300  0.269100  1.0  0.0966
  H  H11  1  0.463000  0.013700  0.592500  1.0  0.1062
  H  H12  1  0.464400  0.120100  0.491500  1.0  0.102
  H  H13  1  0.469300  0.277900  0.003200  1.0  0.1211
  H  H14  1  0.520000  0.381100  0.953000  1.0  0.1245
  H  H15  1  0.435500  0.526800  0.092400  1.0  0.1316
  H  H16  1  0.385100  0.421800  0.138700  1.0  0.1108
  H  H17  1  0.708900  0.558700  0.169700  1.0  0.073
  H  H18  1  0.708900  0.450300  0.269100  1.0  0.0966
  H  H19  1  0.963000  0.513700  0.592500  1.0  0.1062
  H  H20  1  0.964400  0.620100  0.491500  1.0  0.102
  H  H21  1  0.969300  0.777900  0.003200  1.0  0.1211
  H  H22  1  0.020000  0.881100  0.953000  1.0  0.1245
  H  H23  1  0.935500  0.026800  0.092400  1.0  0.1316
  H  H24  1  0.885100  0.921800  0.138700  1.0  0.1108
  H  H25  1  0.791100  0.058700  0.330300  1.0  0.0729
  H  H26  1  0.791100  0.950300  0.230900  1.0  0.0968
  H  H27  1  0.537000  0.013700  0.907500  1.0  0.1056
  H  H28  1  0.535600  0.120100  0.008500  1.0  0.1022
  H  H29  1  0.530700  0.277900  0.496800  1.0  0.1215
  H  H30  1  0.480000  0.381100  0.547000  1.0  0.1251
  H  H31  1  0.564500  0.526800  0.407600  1.0  0.1312
  H  H32  1  0.614900  0.421800  0.361300  1.0  0.111
  H  H33  1  0.291100  0.558700  0.330300  1.0  0.0729
  H  H34  1  0.291100  0.450300  0.230900  1.0  0.0968
  H  H35  1  0.037000  0.513700  0.907500  1.0  0.1056
  H  H36  1  0.035600  0.620100  0.008500  1.0  0.1022
  H  H37  1  0.030700  0.777900  0.496800  1.0  0.1215
  H  H38  1  0.980000  0.881100  0.547000  1.0  0.1251
  H  H39  1  0.064500  0.026800  0.407600  1.0  0.1312
  H  H40  1  0.114900  0.921800  0.361300  1.0  0.111
  H  H41  1  0.791100  0.941300  0.830300  1.0  0.0731
  H  H42  1  0.791100  0.049700  0.730900  1.0  0.0966
  H  H43  1  0.537000  0.986300  0.407500  1.0  0.1056
  H  H44  1  0.535600  0.879900  0.508500  1.0  0.1018
  H  H45  1  0.530700  0.722100  0.996800  1.0  0.1205
  H  H46  1  0.480000  0.618900  0.047000  1.0  0.1255
  H  H47  1  0.564500  0.473200  0.907600  1.0  0.1313
  H  H48  1  0.614900  0.578200  0.861300  1.0  0.111
  H  H49  1  0.291100  0.441300  0.830300  1.0  0.0731
  H  H50  1  0.291100  0.549700  0.730900  1.0  0.0966
  H  H51  1  0.037000  0.486300  0.407500  1.0  0.1056
  H  H52  1  0.035600  0.379900  0.508500  1.0  0.1018
  H  H53  1  0.030700  0.222100  0.996800  1.0  0.1205
  H  H54  1  0.980000  0.118900  0.047000  1.0  0.1255
  H  H55  1  0.064500  0.973200  0.907600  1.0  0.1313
  H  H56  1  0.114900  0.078200  0.861300  1.0  0.111
  H  H57  1  0.208900  0.941300  0.669700  1.0  0.0729
  H  H58  1  0.208900  0.049700  0.769100  1.0  0.0968
  H  H59  1  0.463000  0.986300  0.092500  1.0  0.1062
  H  H60  1  0.464400  0.879900  0.991500  1.0  0.1021
  H  H61  1  0.469300  0.722100  0.503200  1.0  0.1223
  H  H62  1  0.520000  0.618900  0.453000  1.0  0.1237
  H  H63  1  0.435500  0.473200  0.592400  1.0  0.131
  H  H64  1  0.385100  0.578200  0.638700  1.0  0.1109
  H  H65  1  0.708900  0.441300  0.669700  1.0  0.0729
  H  H66  1  0.708900  0.549700  0.769100  1.0  0.0968
  H  H67  1  0.963000  0.486300  0.092500  1.0  0.1062
  H  H68  1  0.964400  0.379900  0.991500  1.0  0.1021
  H  H69  1  0.969300  0.222100  0.503200  1.0  0.1223
  H  H70  1  0.020000  0.118900  0.453000  1.0  0.1237
  H  H71  1  0.935500  0.973200  0.592400  1.0  0.131
  H  H72  1  0.885100  0.078200  0.638700  1.0  0.1109
  C  C73  1  0.342100  0.166230  0.250600  1.0  0.693
  C  C74  1  0.337800  0.100330  0.319500  1.0  -0.1318
  C  C75  1  0.260900  0.049200  0.254400  1.0  -0.0305
  C  C76  1  0.260700  0.984300  0.314300  1.0  -0.028
  C  C77  1  0.337100  0.969600  0.440900  1.0  -0.1332
  C  C78  1  0.412300  0.021800  0.506700  1.0  -0.0416
  C  C79  1  0.412700  0.086000  0.446100  1.0  -0.0288
  C  C80  1  0.341600  0.896540  0.506200  1.0  0.6785
  C  C81  1  0.463600  0.328400  0.022200  1.0  0.0023
  C  C82  1  0.493400  0.390300  0.991600  1.0  -0.1335
  C  C83  1  0.484500  0.466400  0.017300  1.0  0.0355
  C  C84  1  0.443200  0.476800  0.074000  1.0  -0.1351
  C  C85  1  0.413900  0.414000  0.102800  1.0  -0.0352
  C  C86  1  0.842100  0.666230  0.250600  1.0  0.693
  C  C87  1  0.837800  0.600330  0.319500  1.0  -0.1318
  C  C88  1  0.760900  0.549200  0.254400  1.0  -0.0305
  C  C89  1  0.760700  0.484300  0.314300  1.0  -0.028
  C  C90  1  0.837100  0.469600  0.440900  1.0  -0.1332
  C  C91  1  0.912300  0.521800  0.506700  1.0  -0.0416
  C  C92  1  0.912700  0.586000  0.446100  1.0  -0.0288
  C  C93  1  0.841600  0.396540  0.506200  1.0  0.6785
  C  C94  1  0.963600  0.828400  0.022200  1.0  0.0023
  C  C95  1  0.993400  0.890300  0.991600  1.0  -0.1335
  C  C96  1  0.984500  0.966400  0.017300  1.0  0.0355
  C  C97  1  0.943200  0.976800  0.074000  1.0  -0.1351
  C  C98  1  0.913900  0.914000  0.102800  1.0  -0.0352
  C  C99  1  0.657900  0.166230  0.249400  1.0  0.6933
  C  C100  1  0.662200  0.100330  0.180500  1.0  -0.1314
  C  C101  1  0.739100  0.049200  0.245600  1.0  -0.0309
  C  C102  1  0.739300  0.984300  0.185700  1.0  -0.0283
  C  C103  1  0.662900  0.969600  0.059100  1.0  -0.1335
  C  C104  1  0.587700  0.021800  0.993300  1.0  -0.0409
  C  C105  1  0.587300  0.086000  0.053900  1.0  -0.03
  C  C106  1  0.658400  0.896540  0.993800  1.0  0.6783
  C  C107  1  0.536400  0.328400  0.477800  1.0  0.0023
  C  C108  1  0.506600  0.390300  0.508400  1.0  -0.131
  C  C109  1  0.515500  0.466400  0.482700  1.0  0.0352
  C  C110  1  0.556800  0.476800  0.426000  1.0  -0.1346
  C  C111  1  0.586100  0.414000  0.397200  1.0  -0.0367
  C  C112  1  0.157900  0.666230  0.249400  1.0  0.6933
  C  C113  1  0.162200  0.600330  0.180500  1.0  -0.1314
  C  C114  1  0.239100  0.549200  0.245600  1.0  -0.0309
  C  C115  1  0.239300  0.484300  0.185700  1.0  -0.0283
  C  C116  1  0.162900  0.469600  0.059100  1.0  -0.1335
  C  C117  1  0.087700  0.521800  0.993300  1.0  -0.0409
  C  C118  1  0.087300  0.586000  0.053900  1.0  -0.03
  C  C119  1  0.158400  0.396540  0.993800  1.0  0.6783
  C  C120  1  0.036400  0.828400  0.477800  1.0  0.0023
  C  C121  1  0.006600  0.890300  0.508400  1.0  -0.131
  C  C122  1  0.015500  0.966400  0.482700  1.0  0.0352
  C  C123  1  0.056800  0.976800  0.426000  1.0  -0.1346
  C  C124  1  0.086100  0.914000  0.397200  1.0  -0.0367
  C  C125  1  0.657900  0.833770  0.749400  1.0  0.693
  C  C126  1  0.662200  0.899670  0.680500  1.0  -0.1315
  C  C127  1  0.739100  0.950800  0.745600  1.0  -0.0307
  C  C128  1  0.739300  0.015700  0.685700  1.0  -0.0278
  C  C129  1  0.662900  0.030400  0.559100  1.0  -0.1333
  C  C130  1  0.587700  0.978200  0.493300  1.0  -0.0416
  C  C131  1  0.587300  0.914000  0.553900  1.0  -0.0313
  C  C132  1  0.658400  0.103460  0.493800  1.0  0.6784
  C  C133  1  0.536400  0.671600  0.977800  1.0  0.0005
  C  C134  1  0.506600  0.609700  0.008400  1.0  -0.1313
  C  C135  1  0.515500  0.533600  0.982700  1.0  0.0351
  C  C136  1  0.556800  0.523200  0.926000  1.0  -0.1321
  C  C137  1  0.586100  0.586000  0.897200  1.0  -0.0368
  C  C138  1  0.157900  0.333770  0.749400  1.0  0.693
  C  C139  1  0.162200  0.399670  0.680500  1.0  -0.1315
  C  C140  1  0.239100  0.450800  0.745600  1.0  -0.0307
  C  C141  1  0.239300  0.515700  0.685700  1.0  -0.0278
  C  C142  1  0.162900  0.530400  0.559100  1.0  -0.1333
  C  C143  1  0.087700  0.478200  0.493300  1.0  -0.0416
  C  C144  1  0.087300  0.414000  0.553900  1.0  -0.0313
  C  C145  1  0.158400  0.603460  0.493800  1.0  0.6784
  C  C146  1  0.036400  0.171600  0.977800  1.0  0.0005
  C  C147  1  0.006600  0.109700  0.008400  1.0  -0.1313
  C  C148  1  0.015500  0.033600  0.982700  1.0  0.0351
  C  C149  1  0.056800  0.023200  0.926000  1.0  -0.1321
  C  C150  1  0.086100  0.086000  0.897200  1.0  -0.0368
  C  C151  1  0.342100  0.833770  0.750600  1.0  0.6919
  C  C152  1  0.337800  0.899670  0.819500  1.0  -0.1321
  C  C153  1  0.260900  0.950800  0.754400  1.0  -0.0304
  C  C154  1  0.260700  0.015700  0.814300  1.0  -0.0276
  C  C155  1  0.337100  0.030400  0.940900  1.0  -0.1338
  C  C156  1  0.412300  0.978200  0.006700  1.0  -0.0423
  C  C157  1  0.412700  0.914000  0.946100  1.0  -0.0306
  C  C158  1  0.341600  0.103460  0.006200  1.0  0.6788
  C  C159  1  0.463600  0.671600  0.522200  1.0  0.0034
  C  C160  1  0.493400  0.609700  0.491600  1.0  -0.1343
  C  C161  1  0.484500  0.533600  0.517300  1.0  0.0353
  C  C162  1  0.443200  0.523200  0.574000  1.0  -0.1321
  C  C163  1  0.413900  0.586000  0.602800  1.0  -0.0348
  C  C164  1  0.842100  0.333770  0.750600  1.0  0.6919
  C  C165  1  0.837800  0.399670  0.819500  1.0  -0.1321
  C  C166  1  0.760900  0.450800  0.754400  1.0  -0.0304
  C  C167  1  0.760700  0.515700  0.814300  1.0  -0.0276
  C  C168  1  0.837100  0.530400  0.940900  1.0  -0.1338
  C  C169  1  0.912300  0.478200  0.006700  1.0  -0.0423
  C  C170  1  0.912700  0.414000  0.946100  1.0  -0.0306
  C  C171  1  0.841600  0.603460  0.006200  1.0  0.6788
  C  C172  1  0.963600  0.171600  0.522200  1.0  0.0034
  C  C173  1  0.993400  0.109700  0.491600  1.0  -0.1343
  C  C174  1  0.984500  0.033600  0.517300  1.0  0.0353
  C  C175  1  0.943200  0.023200  0.574000  1.0  -0.1321
  C  C176  1  0.913900  0.086000  0.602800  1.0  -0.0348
  N  N177  1  0.426300  0.340930  0.079700  1.0  0.2819
  N  N178  1  0.926300  0.840930  0.079700  1.0  0.2819
  N  N179  1  0.573700  0.340930  0.420300  1.0  0.2816
  N  N180  1  0.073700  0.840930  0.420300  1.0  0.2816
  N  N181  1  0.573700  0.659070  0.920300  1.0  0.2822
  N  N182  1  0.073700  0.159070  0.920300  1.0  0.2822
  N  N183  1  0.426300  0.659070  0.579700  1.0  0.2826
  N  N184  1  0.926300  0.159070  0.579700  1.0  0.2826
  O  O185  1  0.421560  0.200480  0.310300  1.0  -0.5948
  O  O186  1  0.267870  0.181760  0.139900  1.0  -0.6072
  O  O187  1  0.414100  0.889580  0.621200  1.0  -0.5942
  O  O188  1  0.273450  0.848960  0.439500  1.0  -0.5998
  O  O189  1  0.399840  0.281210  0.113400  1.0  -0.6311
  O  O190  1  0.921560  0.700480  0.310300  1.0  -0.5948
  O  O191  1  0.767870  0.681760  0.139900  1.0  -0.6072
  O  O192  1  0.914100  0.389580  0.621200  1.0  -0.5942
  O  O193  1  0.773450  0.348960  0.439500  1.0  -0.5998
  O  O194  1  0.899840  0.781210  0.113400  1.0  -0.6311
  O  O195  1  0.578440  0.200480  0.189700  1.0  -0.5928
  O  O196  1  0.732130  0.181760  0.360100  1.0  -0.6085
  O  O197  1  0.585900  0.889580  0.878800  1.0  -0.5944
  O  O198  1  0.726550  0.848960  0.060500  1.0  -0.6017
  O  O199  1  0.600160  0.281210  0.386600  1.0  -0.631
  O  O200  1  0.078440  0.700480  0.189700  1.0  -0.5928
  O  O201  1  0.232130  0.681760  0.360100  1.0  -0.6085
  O  O202  1  0.085900  0.389580  0.878800  1.0  -0.5944
  O  O203  1  0.226550  0.348960  0.060500  1.0  -0.6017
  O  O204  1  0.100160  0.781210  0.386600  1.0  -0.631
  O  O205  1  0.578440  0.799520  0.689700  1.0  -0.5933
  O  O206  1  0.732130  0.818240  0.860100  1.0  -0.608
  O  O207  1  0.585900  0.110420  0.378800  1.0  -0.5945
  O  O208  1  0.726550  0.151040  0.560500  1.0  -0.6013
  O  O209  1  0.600160  0.718790  0.886600  1.0  -0.6307
  O  O210  1  0.078440  0.299520  0.689700  1.0  -0.5933
  O  O211  1  0.232130  0.318240  0.860100  1.0  -0.608
  O  O212  1  0.085900  0.610420  0.378800  1.0  -0.5945
  O  O213  1  0.226550  0.651040  0.560500  1.0  -0.6013
  O  O214  1  0.100160  0.218790  0.886600  1.0  -0.6307
  O  O215  1  0.421560  0.799520  0.810300  1.0  -0.5952
  O  O216  1  0.267870  0.818240  0.639900  1.0  -0.6072
  O  O217  1  0.414100  0.110420  0.121200  1.0  -0.5938
  O  O218  1  0.273450  0.151040  0.939500  1.0  -0.6003
  O  O219  1  0.399840  0.718790  0.613400  1.0  -0.6315
  O  O220  1  0.921560  0.299520  0.810300  1.0  -0.5952
  O  O221  1  0.767870  0.318240  0.639900  1.0  -0.6072
  O  O222  1  0.914100  0.610420  0.121200  1.0  -0.5938
  O  O223  1  0.773450  0.651040  0.939500  1.0  -0.6003
  O  O224  1  0.899840  0.218790  0.613400  1.0  -0.6315
