# generated using pymatgen
data_CoH8C13NO5
_symmetry_space_group_name_H-M   'P 1'
_cell_length_a   7.16680000
_cell_length_b   9.85240000
_cell_length_c   12.37220000
_cell_angle_alpha   91.28540000
_cell_angle_beta   106.83600000
_cell_angle_gamma   85.55790000
_symmetry_Int_Tables_number   1
_chemical_formula_structural   CoH8C13NO5
_chemical_formula_sum   'Co2 H16 C26 N2 O10'
_cell_volume   833.64690380
_cell_formula_units_Z   2
loop_
 _symmetry_equiv_pos_site_id
 _symmetry_equiv_pos_as_xyz
  1  'x, y, z'
loop_
 _atom_site_type_symbol
 _atom_site_label
 _atom_site_symmetry_multiplicity
 _atom_site_fract_x
 _atom_site_fract_y
 _atom_site_fract_z
 _atom_site_occupancy
 _atom_site_charge
  Co  Co1  1  0.500000  0.500000  0.500000  1.0  1.1351
  Co  Co2  1  0.000000  0.500000  0.500000  1.0  1.1351
  H  H3  1  0.547800  0.143200  0.634200  1.0  0.0957
  H  H4  1  0.104300  0.087700  0.630400  1.0  0.0998
  H  H5  1  0.501900  0.302300  0.086600  1.0  0.1265
  H  H6  1  0.596900  0.304800  0.280400  1.0  0.129
  H  H7  1  0.086400  0.856800  0.634200  1.0  0.0963
  H  H8  1  0.526100  0.912300  0.630400  1.0  0.0977
  H  H9  1  0.584700  0.697700  0.086600  1.0  0.1288
  H  H10  1  0.683500  0.695200  0.280400  1.0  0.1293
  H  H11  1  0.452200  0.856800  0.365800  1.0  0.0953
  H  H12  1  0.895700  0.912300  0.369600  1.0  0.1
  H  H13  1  0.498100  0.697700  0.913400  1.0  0.1274
  H  H14  1  0.403100  0.695200  0.719600  1.0  0.13
  H  H15  1  0.913600  0.143200  0.365800  1.0  0.0963
  H  H16  1  0.473900  0.087700  0.369600  1.0  0.0973
  H  H17  1  0.415300  0.302300  0.913400  1.0  0.129
  H  H18  1  0.316500  0.304800  0.719600  1.0  0.1281
  C  C19  1  0.826270  0.141500  0.628540  1.0  -0.1264
  C  C20  1  0.655500  0.085800  0.631400  1.0  -0.0468
  C  C21  1  0.987200  0.052900  0.630200  1.0  -0.0601
  C  C22  1  0.828040  0.291700  0.611080  1.0  0.6899
  C  C23  1  0.537500  0.383100  0.124600  1.0  -0.1442
  C  C24  1  0.594790  0.384000  0.240380  1.0  0.001
  C  C25  1  0.802270  0.858500  0.628540  1.0  -0.1256
  C  C26  1  0.975900  0.914200  0.631400  1.0  -0.0477
  C  C27  1  0.643000  0.947100  0.630200  1.0  -0.052
  C  C28  1  0.783040  0.708300  0.611080  1.0  0.6893
  C  C29  1  0.587100  0.616900  0.124600  1.0  -0.142
  C  C30  1  0.645590  0.616000  0.240380  1.0  0.0018
  C  C31  1  0.173730  0.858500  0.371460  1.0  -0.129
  C  C32  1  0.344500  0.914200  0.368600  1.0  -0.0479
  C  C33  1  0.012800  0.947100  0.369800  1.0  -0.0596
  C  C34  1  0.171960  0.708300  0.388920  1.0  0.6905
  C  C35  1  0.462500  0.616900  0.875400  1.0  -0.1403
  C  C36  1  0.405210  0.616000  0.759620  1.0  -0.0011
  C  C37  1  0.197730  0.141500  0.371460  1.0  -0.1256
  C  C38  1  0.024100  0.085800  0.368600  1.0  -0.0484
  C  C39  1  0.357000  0.052900  0.369800  1.0  -0.0522
  C  C40  1  0.216960  0.291700  0.388920  1.0  0.6906
  C  C41  1  0.412900  0.383100  0.875400  1.0  -0.1387
  C  C42  1  0.354410  0.384000  0.759620  1.0  -0.0002
  C  C43  1  0.531400  0.500000  0.062800  1.0  0.0366
  C  C44  1  0.468600  0.500000  0.937200  1.0  0.0356
  N  N45  1  0.647700  0.500000  0.295400  1.0  0.3528
  N  N46  1  0.352300  0.500000  0.704600  1.0  0.3519
  O  O47  1  0.682540  0.366400  0.619280  1.0  -0.6247
  O  O48  1  0.974990  0.330000  0.587180  1.0  -0.6078
  O  O49  1  0.936740  0.633600  0.619280  1.0  -0.6246
  O  O50  1  0.612190  0.670000  0.587180  1.0  -0.6071
  O  O51  1  0.317460  0.633600  0.380720  1.0  -0.6254
  O  O52  1  0.025010  0.670000  0.412820  1.0  -0.6079
  O  O53  1  0.063260  0.366400  0.380720  1.0  -0.627
  O  O54  1  0.387810  0.330000  0.412820  1.0  -0.6076
  O  O55  1  0.704140  0.500000  0.408280  1.0  -0.5983
  O  O56  1  0.295860  0.500000  0.591720  1.0  -0.5988
