# generated using pymatgen
data_GdH6(C2O)6
_symmetry_space_group_name_H-M   'P 1'
_cell_length_a   8.60060000
_cell_length_b   10.17300000
_cell_length_c   11.12500000
_cell_angle_alpha   65.11000000
_cell_angle_beta   71.80000000
_cell_angle_gamma   78.86000000
_symmetry_Int_Tables_number   1
_chemical_formula_structural   GdH6(C2O)6
_chemical_formula_sum   'Gd2 H12 C24 O12'
_cell_volume   836.63150430
_cell_formula_units_Z   2
loop_
 _symmetry_equiv_pos_site_id
 _symmetry_equiv_pos_as_xyz
  1  'x, y, z'
loop_
 _atom_site_type_symbol
 _atom_site_label
 _atom_site_symmetry_multiplicity
 _atom_site_fract_x
 _atom_site_fract_y
 _atom_site_fract_z
 _atom_site_occupancy
 _atom_site_charge
  Gd  Gd1  1  0.131880  0.439420  0.653710  1.0  2.1579
  Gd  Gd2  1  0.868120  0.560580  0.346290  1.0  2.1586
  H  H3  1  0.894500  0.999900  0.695100  1.0  0.0737
  H  H4  1  0.966100  0.210700  0.354400  1.0  0.0697
  H  H5  1  0.510800  0.436800  0.839100  1.0  0.0797
  H  H6  1  0.659200  0.666100  0.929800  1.0  0.0741
  H  H7  1  0.303000  0.109300  0.090900  1.0  0.0888
  H  H8  1  0.645900  0.151700  0.828900  1.0  0.0756
  H  H9  1  0.105500  0.000100  0.304900  1.0  0.0747
  H  H10  1  0.033900  0.789300  0.645600  1.0  0.0715
  H  H11  1  0.489200  0.563200  0.160900  1.0  0.0809
  H  H12  1  0.340800  0.333900  0.070200  1.0  0.0744
  H  H13  1  0.697000  0.890700  0.909100  1.0  0.0897
  H  H14  1  0.354100  0.848300  0.171100  1.0  0.0762
  C  C15  1  0.067900  0.235900  0.552300  1.0  0.7333
  C  C16  1  0.034200  0.114700  0.522900  1.0  -0.0443
  C  C17  1  0.992700  0.984200  0.630500  1.0  -0.112
  C  C18  1  0.042900  0.132700  0.390300  1.0  -0.0995
  C  C19  1  0.821000  0.460000  0.832600  1.0  0.696
  C  C20  1  0.654900  0.481800  0.917700  1.0  -0.0896
  C  C21  1  0.526400  0.409200  0.928500  1.0  -0.1039
  C  C22  1  0.630200  0.569500  0.992300  1.0  -0.115
  C  C23  1  0.325900  0.232000  0.819300  1.0  0.7029
  C  C24  1  0.417700  0.111600  0.910200  1.0  -0.0835
  C  C25  1  0.337800  0.040200  0.048100  1.0  -0.1089
  C  C26  1  0.581200  0.070400  0.862100  1.0  -0.1195
  C  C27  1  0.932100  0.764100  0.447700  1.0  0.7327
  C  C28  1  0.965800  0.885300  0.477100  1.0  -0.0463
  C  C29  1  0.007300  0.015800  0.369500  1.0  -0.1116
  C  C30  1  0.957100  0.867300  0.609700  1.0  -0.1004
  C  C31  1  0.179000  0.540000  0.167400  1.0  0.6967
  C  C32  1  0.345100  0.518200  0.082300  1.0  -0.0903
  C  C33  1  0.473600  0.590800  0.071500  1.0  -0.1051
  C  C34  1  0.369800  0.430500  0.007700  1.0  -0.1181
  C  C35  1  0.674100  0.768000  0.180700  1.0  0.7038
  C  C36  1  0.582300  0.888400  0.089800  1.0  -0.0843
  C  C37  1  0.662200  0.959800  0.951900  1.0  -0.1112
  C  C38  1  0.418800  0.929600  0.137900  1.0  -0.1235
  O  O39  1  0.034600  0.368000  0.479300  1.0  -0.8337
  O  O40  1  0.131900  0.204200  0.647100  1.0  -0.5777
  O  O41  1  0.844300  0.380300  0.764300  1.0  -0.6128
  O  O42  1  0.939100  0.522600  0.825800  1.0  -0.616
  O  O43  1  0.178900  0.264800  0.868500  1.0  -0.6017
  O  O44  1  0.397900  0.300300  0.694400  1.0  -0.6287
  O  O45  1  0.965400  0.632000  0.520700  1.0  -0.8337
  O  O46  1  0.868100  0.795800  0.352900  1.0  -0.5786
  O  O47  1  0.155700  0.619700  0.235700  1.0  -0.6146
  O  O48  1  0.060900  0.477400  0.174200  1.0  -0.6162
  O  O49  1  0.821100  0.735200  0.131500  1.0  -0.5997
  O  O50  1  0.602100  0.699700  0.305600  1.0  -0.6303
