# generated using pymatgen
data_GdH6(C2O)6
_symmetry_space_group_name_H-M   'P 1'
_cell_length_a   8.60660000
_cell_length_b   10.15600000
_cell_length_c   11.16100000
_cell_angle_alpha   65.26000000
_cell_angle_beta   71.76000000
_cell_angle_gamma   78.68000000
_symmetry_Int_Tables_number   1
_chemical_formula_structural   GdH6(C2O)6
_chemical_formula_sum   'Gd2 H12 C24 O12'
_cell_volume   839.09228743
_cell_formula_units_Z   2
loop_
 _symmetry_equiv_pos_site_id
 _symmetry_equiv_pos_as_xyz
  1  'x, y, z'
loop_
 _atom_site_type_symbol
 _atom_site_label
 _atom_site_symmetry_multiplicity
 _atom_site_fract_x
 _atom_site_fract_y
 _atom_site_fract_z
 _atom_site_occupancy
 _atom_site_charge
  Gd  Gd1  1  0.868140  0.560250  0.346710  1.0  2.1051
  Gd  Gd2  1  0.131860  0.439750  0.653290  1.0  2.1052
  H  H3  1  0.928700  0.781400  0.681100  1.0  0.1034
  H  H4  1  0.016700  0.027400  0.280300  1.0  0.1102
  H  H5  1  0.365300  0.884900  0.227300  1.0  0.1006
  H  H6  1  0.771300  0.931200  0.918900  1.0  0.1046
  H  H7  1  0.457500  0.645100  0.122300  1.0  0.0884
  H  H8  1  0.284000  0.383400  0.014800  1.0  0.101
  H  H9  1  0.071300  0.218600  0.318900  1.0  0.104
  H  H10  1  0.983300  0.972600  0.719700  1.0  0.1103
  H  H11  1  0.634700  0.115100  0.772700  1.0  0.0999
  H  H12  1  0.228700  0.068800  0.081100  1.0  0.1045
  H  H13  1  0.542500  0.354900  0.877700  1.0  0.0876
  H  H14  1  0.716000  0.616600  0.985200  1.0  0.1007
  C  C15  1  0.931600  0.765200  0.447400  1.0  0.7378
  C  C16  1  0.967400  0.885600  0.476400  1.0  -0.1248
  C  C17  1  0.957200  0.868800  0.608500  1.0  -0.0705
  C  C18  1  0.010000  0.016400  0.368700  1.0  -0.0552
  C  C19  1  0.674600  0.768000  0.180100  1.0  0.6863
  C  C20  1  0.582600  0.889000  0.088900  1.0  -0.1122
  C  C21  1  0.419900  0.930900  0.136000  1.0  -0.0364
  C  C22  1  0.662000  0.958900  0.951800  1.0  -0.0425
  C  C23  1  0.178900  0.538900  0.169100  1.0  0.684
  C  C24  1  0.345200  0.517700  0.082400  1.0  -0.1205
  C  C25  1  0.474700  0.586700  0.073000  1.0  -0.0474
  C  C26  1  0.370400  0.430200  0.009000  1.0  -0.0506
  C  C27  1  0.068400  0.234800  0.552600  1.0  0.7372
  C  C28  1  0.032600  0.114400  0.523600  1.0  -0.1255
  C  C29  1  0.042800  0.131200  0.391500  1.0  -0.0672
  C  C30  1  0.990000  0.983600  0.631300  1.0  -0.0567
  C  C31  1  0.325400  0.232000  0.819900  1.0  0.6865
  C  C32  1  0.417400  0.111000  0.911100  1.0  -0.113
  C  C33  1  0.580100  0.069100  0.864000  1.0  -0.0327
  C  C34  1  0.338000  0.041100  0.048200  1.0  -0.0449
  C  C35  1  0.821100  0.461100  0.830900  1.0  0.6851
  C  C36  1  0.654800  0.482300  0.917600  1.0  -0.1187
  C  C37  1  0.525300  0.413300  0.927000  1.0  -0.049
  C  C38  1  0.629600  0.569800  0.991000  1.0  -0.0516
  O  O39  1  0.963800  0.633540  0.519440  1.0  -0.8512
  O  O40  1  0.868900  0.797810  0.350900  1.0  -0.6193
  O  O41  1  0.602200  0.700400  0.304520  1.0  -0.7361
  O  O42  1  0.821700  0.735000  0.131050  1.0  -0.6339
  O  O43  1  0.156900  0.618940  0.235840  1.0  -0.6707
  O  O44  1  0.063100  0.476630  0.174990  1.0  -0.6545
  O  O45  1  0.036200  0.366460  0.480560  1.0  -0.8521
  O  O46  1  0.131100  0.202190  0.649100  1.0  -0.6189
  O  O47  1  0.397800  0.299600  0.695480  1.0  -0.7295
  O  O48  1  0.178300  0.265000  0.868950  1.0  -0.6335
  O  O49  1  0.843100  0.381060  0.764160  1.0  -0.6681
  O  O50  1  0.936900  0.523370  0.825010  1.0  -0.6556
