# generated using pymatgen
data_CoH12C16(NO2)2
_symmetry_space_group_name_H-M   'P 1'
_cell_length_a   8.20100000
_cell_length_b   10.49200000
_cell_length_c   11.12500000
_cell_angle_alpha   90.00000000
_cell_angle_beta   95.28000000
_cell_angle_gamma   90.00000000
_symmetry_Int_Tables_number   1
_chemical_formula_structural   CoH12C16(NO2)2
_chemical_formula_sum   'Co2 H24 C32 N4 O8'
_cell_volume   953.18770022
_cell_formula_units_Z   2
loop_
 _symmetry_equiv_pos_site_id
 _symmetry_equiv_pos_as_xyz
  1  'x, y, z'
loop_
 _atom_site_type_symbol
 _atom_site_label
 _atom_site_symmetry_multiplicity
 _atom_site_fract_x
 _atom_site_fract_y
 _atom_site_fract_z
 _atom_site_occupancy
 _atom_site_charge
  Co  Co1  1  0.000000  0.500000  0.000000  1.0  0.7203
  Co  Co2  1  0.500000  0.000000  0.500000  1.0  0.7203
  H  H3  1  0.701600  0.400100  0.900400  1.0  0.1041
  H  H4  1  0.458000  0.465500  0.812300  1.0  0.1205
  H  H5  1  0.637000  0.824100  0.799000  1.0  0.132
  H  H6  1  0.874900  0.748900  0.889100  1.0  0.0884
  H  H7  1  0.268000  0.822100  0.631500  1.0  0.0785
  H  H8  1  0.119100  0.691300  0.760600  1.0  0.0451
  H  H9  1  0.798400  0.900100  0.599600  1.0  0.1044
  H  H10  1  0.042000  0.965500  0.687700  1.0  0.1209
  H  H11  1  0.863000  0.324100  0.701000  1.0  0.1319
  H  H12  1  0.625100  0.248900  0.610900  1.0  0.0887
  H  H13  1  0.232000  0.322100  0.868500  1.0  0.0743
  H  H14  1  0.380900  0.191300  0.739400  1.0  0.0431
  H  H15  1  0.298400  0.599900  0.099600  1.0  0.1034
  H  H16  1  0.542000  0.534500  0.187700  1.0  0.1204
  H  H17  1  0.363000  0.175900  0.201000  1.0  0.1327
  H  H18  1  0.125100  0.251100  0.110900  1.0  0.0884
  H  H19  1  0.732000  0.177900  0.368500  1.0  0.0736
  H  H20  1  0.880900  0.308700  0.239400  1.0  0.0426
  H  H21  1  0.201600  0.099900  0.400400  1.0  0.103
  H  H22  1  0.958000  0.034500  0.312300  1.0  0.1205
  H  H23  1  0.137000  0.675900  0.299000  1.0  0.1329
  H  H24  1  0.374900  0.751100  0.389100  1.0  0.0885
  H  H25  1  0.768000  0.677900  0.131500  1.0  0.0772
  H  H26  1  0.619100  0.808700  0.260600  1.0  0.0446
  C  C27  1  0.685300  0.487300  0.879800  1.0  0.1595
  C  C28  1  0.544600  0.524800  0.828900  1.0  -0.2044
  C  C29  1  0.648600  0.736800  0.820700  1.0  -0.2134
  C  C30  1  0.785400  0.692200  0.872300  1.0  0.1459
  C  C31  1  0.522100  0.652500  0.798900  1.0  0.2255
  C  C32  1  0.370900  0.696900  0.750700  1.0  -0.3535
  C  C33  1  0.372300  0.788300  0.658800  1.0  0.2916
  C  C34  1  0.215600  0.653900  0.799100  1.0  0.3156
  C  C35  1  0.814700  0.987300  0.620200  1.0  0.1598
  C  C36  1  0.955400  0.024800  0.671100  1.0  -0.2005
  C  C37  1  0.851400  0.236800  0.679300  1.0  -0.214
  C  C38  1  0.714600  0.192200  0.627700  1.0  0.1468
  C  C39  1  0.977900  0.152500  0.701100  1.0  0.225
  C  C40  1  0.129100  0.196900  0.749300  1.0  -0.3532
  C  C41  1  0.127700  0.288300  0.841200  1.0  0.2929
  C  C42  1  0.284400  0.153900  0.700900  1.0  0.3197
  C  C43  1  0.314700  0.512700  0.120200  1.0  0.1599
  C  C44  1  0.455400  0.475200  0.171100  1.0  -0.2001
  C  C45  1  0.351400  0.263200  0.179300  1.0  -0.2116
  C  C46  1  0.214600  0.307800  0.127700  1.0  0.1473
  C  C47  1  0.477900  0.347500  0.201100  1.0  0.2254
  C  C48  1  0.629100  0.303100  0.249300  1.0  -0.3545
  C  C49  1  0.627700  0.211700  0.341200  1.0  0.2921
  C  C50  1  0.784400  0.346100  0.200900  1.0  0.3171
  C  C51  1  0.185300  0.012700  0.379800  1.0  0.1593
  C  C52  1  0.044600  0.975200  0.328900  1.0  -0.2018
  C  C53  1  0.148600  0.763200  0.320700  1.0  -0.2114
  C  C54  1  0.285400  0.807800  0.372300  1.0  0.1465
  C  C55  1  0.022100  0.847500  0.298900  1.0  0.2256
  C  C56  1  0.870900  0.803100  0.250700  1.0  -0.3545
  C  C57  1  0.872300  0.711700  0.158800  1.0  0.2904
  C  C58  1  0.715600  0.846100  0.299100  1.0  0.3132
  N  N59  1  0.804900  0.569200  0.902720  1.0  -0.2863
  N  N60  1  0.695100  0.069200  0.597280  1.0  -0.287
  N  N61  1  0.195100  0.430800  0.097280  1.0  -0.2867
  N  N62  1  0.304900  0.930800  0.402720  1.0  -0.2861
  O  O63  1  0.498900  0.835850  0.603060  1.0  -0.4953
  O  O64  1  0.190700  0.575700  0.883020  1.0  -0.5129
  O  O65  1  0.001100  0.335850  0.896940  1.0  -0.497
  O  O66  1  0.309300  0.075700  0.616980  1.0  -0.5154
  O  O67  1  0.501100  0.164150  0.396940  1.0  -0.4968
  O  O68  1  0.809300  0.424300  0.116980  1.0  -0.5135
  O  O69  1  0.998900  0.664150  0.103060  1.0  -0.4948
  O  O70  1  0.690700  0.924300  0.383020  1.0  -0.5143
