# generated using pymatgen
data_Mn2V16H32C40N8ClO38
_symmetry_space_group_name_H-M   'P 1'
_cell_length_a   14.91600000
_cell_length_b   17.26600000
_cell_length_c   17.26600000
_cell_angle_alpha   90.00000000
_cell_angle_beta   90.00000000
_cell_angle_gamma   90.00000000
_symmetry_Int_Tables_number   1
_chemical_formula_structural   Mn2V16H32C40N8ClO38
_chemical_formula_sum   'Mn4 V32 H64 C80 N16 Cl2 O76'
_cell_volume   4446.67970050
_cell_formula_units_Z   2
loop_
 _symmetry_equiv_pos_site_id
 _symmetry_equiv_pos_as_xyz
  1  'x, y, z'
loop_
 _atom_site_type_symbol
 _atom_site_label
 _atom_site_symmetry_multiplicity
 _atom_site_fract_x
 _atom_site_fract_y
 _atom_site_fract_z
 _atom_site_occupancy
 _atom_site_charge
  Mn  Mn1  1  0.750000  0.742780  0.757220  1.0  0.9992
  Mn  Mn2  1  0.750000  0.257220  0.242780  1.0  0.9993
  Mn  Mn3  1  0.250000  0.757220  0.257220  1.0  0.9989
  Mn  Mn4  1  0.250000  0.242780  0.742780  1.0  0.9996
  V  V5  1  0.874220  0.878360  0.890650  1.0  2.2169
  V  V6  1  0.772310  0.937660  0.069980  1.0  2.1366
  V  V7  1  0.913660  0.819060  0.050980  1.0  2.1819
  V  V8  1  0.085050  0.813920  0.969870  1.0  2.1779
  V  V9  1  0.874220  0.121640  0.109350  1.0  2.2173
  V  V10  1  0.772310  0.062340  0.930020  1.0  2.1361
  V  V11  1  0.913660  0.180940  0.949020  1.0  2.1827
  V  V12  1  0.085050  0.186080  0.030130  1.0  2.1792
  V  V13  1  0.125780  0.890650  0.121640  1.0  2.2172
  V  V14  1  0.227690  0.069980  0.062340  1.0  2.1365
  V  V15  1  0.086340  0.050980  0.180940  1.0  2.1829
  V  V16  1  0.914950  0.969870  0.186080  1.0  2.1796
  V  V17  1  0.125780  0.109350  0.878360  1.0  2.2174
  V  V18  1  0.227690  0.930020  0.937660  1.0  2.1379
  V  V19  1  0.086340  0.949020  0.819060  1.0  2.1835
  V  V20  1  0.914950  0.030130  0.813920  1.0  2.1794
  V  V21  1  0.374220  0.378360  0.609350  1.0  2.2171
  V  V22  1  0.272310  0.437660  0.430020  1.0  2.1364
  V  V23  1  0.413660  0.319060  0.449020  1.0  2.1814
  V  V24  1  0.585050  0.313920  0.530130  1.0  2.1782
  V  V25  1  0.374220  0.621640  0.390650  1.0  2.217
  V  V26  1  0.272310  0.562340  0.569980  1.0  2.1363
  V  V27  1  0.413660  0.680940  0.550980  1.0  2.1832
  V  V28  1  0.585050  0.686080  0.469870  1.0  2.1789
  V  V29  1  0.625780  0.390650  0.378360  1.0  2.2172
  V  V30  1  0.727690  0.569980  0.437660  1.0  2.1368
  V  V31  1  0.586340  0.550980  0.319060  1.0  2.1836
  V  V32  1  0.414950  0.469870  0.313920  1.0  2.1794
  V  V33  1  0.625780  0.609350  0.621640  1.0  2.2175
  V  V34  1  0.727690  0.430020  0.562340  1.0  2.1375
  V  V35  1  0.586340  0.449020  0.680940  1.0  2.1829
  V  V36  1  0.414950  0.530130  0.686080  1.0  2.1796
  H  H37  1  0.761700  0.745900  0.577600  1.0  0.0674
  H  H38  1  0.857700  0.757400  0.476200  1.0  0.1225
  H  H39  1  0.942100  0.816300  0.723200  1.0  0.0749
  H  H40  1  0.045400  0.829900  0.624300  1.0  0.119
  H  H41  1  0.240100  0.760200  0.437400  1.0  0.0796
  H  H42  1  0.138500  0.760800  0.538600  1.0  0.1224
  H  H43  1  0.054100  0.828800  0.293200  1.0  0.0775
  H  H44  1  0.949700  0.830600  0.389200  1.0  0.1293
  H  H45  1  0.761700  0.254100  0.422400  1.0  0.0675
  H  H46  1  0.857700  0.242600  0.523800  1.0  0.1239
  H  H47  1  0.942100  0.183700  0.276800  1.0  0.0758
  H  H48  1  0.045400  0.170100  0.375700  1.0  0.1191
  H  H49  1  0.240100  0.239800  0.562600  1.0  0.0795
  H  H50  1  0.138500  0.239200  0.461400  1.0  0.1224
  H  H51  1  0.054100  0.171200  0.706800  1.0  0.0769
  H  H52  1  0.949700  0.169400  0.610800  1.0  0.1285
  H  H53  1  0.238300  0.577600  0.254100  1.0  0.0669
  H  H54  1  0.142300  0.476200  0.242600  1.0  0.1244
  H  H55  1  0.057900  0.723200  0.183700  1.0  0.077
  H  H56  1  0.954600  0.624300  0.170100  1.0  0.1188
  H  H57  1  0.759900  0.437400  0.239800  1.0  0.0796
  H  H58  1  0.861500  0.538600  0.239200  1.0  0.1217
  H  H59  1  0.945900  0.293200  0.171200  1.0  0.0769
  H  H60  1  0.050300  0.389200  0.169400  1.0  0.1291
  H  H61  1  0.238300  0.422400  0.745900  1.0  0.0671
  H  H62  1  0.142300  0.523800  0.757400  1.0  0.1243
  H  H63  1  0.057900  0.276800  0.816300  1.0  0.0767
  H  H64  1  0.954600  0.375700  0.829900  1.0  0.1188
  H  H65  1  0.759900  0.562600  0.760200  1.0  0.0795
  H  H66  1  0.861500  0.461400  0.760800  1.0  0.1221
  H  H67  1  0.945900  0.706800  0.828800  1.0  0.0766
  H  H68  1  0.050300  0.610800  0.830600  1.0  0.1292
  H  H69  1  0.261700  0.245900  0.922400  1.0  0.0677
  H  H70  1  0.357700  0.257400  0.023800  1.0  0.1238
  H  H71  1  0.442100  0.316300  0.776800  1.0  0.0749
  H  H72  1  0.545400  0.329900  0.875700  1.0  0.1197
  H  H73  1  0.740100  0.260200  0.062600  1.0  0.0795
  H  H74  1  0.638500  0.260800  0.961400  1.0  0.1224
  H  H75  1  0.554100  0.328800  0.206800  1.0  0.0769
  H  H76  1  0.449700  0.330600  0.110800  1.0  0.1285
  H  H77  1  0.261700  0.754100  0.077600  1.0  0.0671
  H  H78  1  0.357700  0.742600  0.976200  1.0  0.1227
  H  H79  1  0.442100  0.683700  0.223200  1.0  0.0752
  H  H80  1  0.545400  0.670100  0.124300  1.0  0.1187
  H  H81  1  0.740100  0.739800  0.937400  1.0  0.08
  H  H82  1  0.638500  0.739200  0.038600  1.0  0.1222
  H  H83  1  0.554100  0.671200  0.793200  1.0  0.0775
  H  H84  1  0.449700  0.669400  0.889200  1.0  0.1292
  H  H85  1  0.738300  0.077600  0.245900  1.0  0.0672
  H  H86  1  0.642300  0.976200  0.257400  1.0  0.1245
  H  H87  1  0.557900  0.223200  0.316300  1.0  0.077
  H  H88  1  0.454600  0.124300  0.329900  1.0  0.1189
  H  H89  1  0.259900  0.937400  0.260200  1.0  0.0796
  H  H90  1  0.361500  0.038600  0.260800  1.0  0.122
  H  H91  1  0.445900  0.793200  0.328800  1.0  0.0767
  H  H92  1  0.550300  0.889200  0.330600  1.0  0.1291
  H  H93  1  0.738300  0.922400  0.754100  1.0  0.0667
  H  H94  1  0.642300  0.023800  0.742600  1.0  0.124
  H  H95  1  0.557900  0.776800  0.683700  1.0  0.0768
  H  H96  1  0.454600  0.875700  0.670100  1.0  0.1184
  H  H97  1  0.259900  0.062600  0.739800  1.0  0.0792
  H  H98  1  0.361500  0.961400  0.739200  1.0  0.1216
  H  H99  1  0.445900  0.206800  0.671200  1.0  0.0766
  H  H100  1  0.550300  0.110800  0.669400  1.0  0.1293
  C  C101  1  0.820000  0.762400  0.587400  1.0  0.1841
  C  C102  1  0.877200  0.768900  0.526100  1.0  -0.2025
  C  C103  1  0.925400  0.803600  0.672900  1.0  0.1702
  C  C104  1  0.988100  0.811700  0.613400  1.0  -0.1736
  C  C105  1  0.180800  0.773600  0.427500  1.0  0.1695
  C  C106  1  0.120000  0.774400  0.489000  1.0  -0.1935
  C  C107  1  0.071100  0.813900  0.342800  1.0  0.1841
  C  C108  1  0.008200  0.815800  0.400300  1.0  -0.2006
  C  C109  1  0.032100  0.795500  0.475400  1.0  0.0737
  C  C110  1  0.965200  0.792900  0.538900  1.0  0.1109
  C  C111  1  0.820000  0.237600  0.412600  1.0  0.1833
  C  C112  1  0.877200  0.231100  0.473900  1.0  -0.2031
  C  C113  1  0.925400  0.196400  0.327100  1.0  0.1699
  C  C114  1  0.988100  0.188300  0.386600  1.0  -0.1742
  C  C115  1  0.180800  0.226400  0.572500  1.0  0.1691
  C  C116  1  0.120000  0.225600  0.511000  1.0  -0.1936
  C  C117  1  0.071100  0.186100  0.657200  1.0  0.1846
  C  C118  1  0.008200  0.184200  0.599700  1.0  -0.1962
  C  C119  1  0.032100  0.204500  0.524600  1.0  0.0736
  C  C120  1  0.965200  0.207100  0.461100  1.0  0.1109
  C  C121  1  0.180000  0.587400  0.237600  1.0  0.1822
  C  C122  1  0.122800  0.526100  0.231100  1.0  -0.2033
  C  C123  1  0.074600  0.672900  0.196400  1.0  0.1678
  C  C124  1  0.011900  0.613400  0.188300  1.0  -0.1736
  C  C125  1  0.819200  0.427500  0.226400  1.0  0.1659
  C  C126  1  0.880000  0.489000  0.225600  1.0  -0.1912
  C  C127  1  0.928900  0.342800  0.186100  1.0  0.1826
  C  C128  1  0.991800  0.400300  0.184200  1.0  -0.1992
  C  C129  1  0.967900  0.475400  0.204500  1.0  0.0734
  C  C130  1  0.034800  0.538900  0.207100  1.0  0.1104
  C  C131  1  0.180000  0.412600  0.762400  1.0  0.1828
  C  C132  1  0.122800  0.473900  0.768900  1.0  -0.2042
  C  C133  1  0.074600  0.327100  0.803600  1.0  0.1689
  C  C134  1  0.011900  0.386600  0.811700  1.0  -0.1736
  C  C135  1  0.819200  0.572500  0.773600  1.0  0.1664
  C  C136  1  0.880000  0.511000  0.774400  1.0  -0.1909
  C  C137  1  0.928900  0.657200  0.813900  1.0  0.1831
  C  C138  1  0.991800  0.599700  0.815800  1.0  -0.1996
  C  C139  1  0.967900  0.524600  0.795500  1.0  0.0729
  C  C140  1  0.034800  0.461100  0.792900  1.0  0.1098
  C  C141  1  0.320000  0.262400  0.912600  1.0  0.1835
  C  C142  1  0.377200  0.268900  0.973900  1.0  -0.2033
  C  C143  1  0.425400  0.303600  0.827100  1.0  0.1699
  C  C144  1  0.488100  0.311700  0.886600  1.0  -0.1738
  C  C145  1  0.680800  0.273600  0.072500  1.0  0.1692
  C  C146  1  0.620000  0.274400  0.011000  1.0  -0.1932
  C  C147  1  0.571100  0.313900  0.157200  1.0  0.1838
  C  C148  1  0.508200  0.315800  0.099700  1.0  -0.202
  C  C149  1  0.532100  0.295500  0.024600  1.0  0.0737
  C  C150  1  0.465200  0.292900  0.961100  1.0  0.1106
  C  C151  1  0.320000  0.737600  0.087400  1.0  0.1842
  C  C152  1  0.377200  0.731100  0.026100  1.0  -0.2026
  C  C153  1  0.425400  0.696400  0.172900  1.0  0.1709
  C  C154  1  0.488100  0.688300  0.113400  1.0  -0.1737
  C  C155  1  0.680800  0.726400  0.927500  1.0  0.169
  C  C156  1  0.620000  0.725600  0.989000  1.0  -0.1934
  C  C157  1  0.571100  0.686100  0.842800  1.0  0.1839
  C  C158  1  0.508200  0.684200  0.900300  1.0  -0.2007
  C  C159  1  0.532100  0.704500  0.975400  1.0  0.0735
  C  C160  1  0.465200  0.707100  0.038900  1.0  0.1114
  C  C161  1  0.680000  0.087400  0.262400  1.0  0.1826
  C  C162  1  0.622800  0.026100  0.268900  1.0  -0.2029
  C  C163  1  0.574600  0.172900  0.303600  1.0  0.1684
  C  C164  1  0.511900  0.113400  0.311700  1.0  -0.1756
  C  C165  1  0.319200  0.927500  0.273600  1.0  0.167
  C  C166  1  0.380000  0.989000  0.274400  1.0  -0.1916
  C  C167  1  0.428900  0.842800  0.313900  1.0  0.1827
  C  C168  1  0.491800  0.900300  0.315800  1.0  -0.1995
  C  C169  1  0.467900  0.975400  0.295500  1.0  0.0729
  C  C170  1  0.534800  0.038900  0.292900  1.0  0.1099
  C  C171  1  0.680000  0.912600  0.737600  1.0  0.1824
  C  C172  1  0.622800  0.973900  0.731100  1.0  -0.2039
  C  C173  1  0.574600  0.827100  0.696400  1.0  0.1686
  C  C174  1  0.511900  0.886600  0.688300  1.0  -0.1736
  C  C175  1  0.319200  0.072500  0.726400  1.0  0.1659
  C  C176  1  0.380000  0.011000  0.725600  1.0  -0.1909
  C  C177  1  0.428900  0.157200  0.686100  1.0  0.182
  C  C178  1  0.491800  0.099700  0.684200  1.0  -0.1993
  C  C179  1  0.467900  0.024600  0.704500  1.0  0.0733
  C  C180  1  0.534800  0.961100  0.707100  1.0  0.1101
  N  N181  1  0.842300  0.778100  0.659900  1.0  -0.334
  N  N182  1  0.156900  0.791500  0.354500  1.0  -0.3558
  N  N183  1  0.842300  0.221900  0.340100  1.0  -0.3335
  N  N184  1  0.156900  0.208500  0.645500  1.0  -0.355
  N  N185  1  0.157700  0.659900  0.221900  1.0  -0.3325
  N  N186  1  0.843100  0.354500  0.208500  1.0  -0.3558
  N  N187  1  0.157700  0.340100  0.778100  1.0  -0.3295
  N  N188  1  0.843100  0.645500  0.791500  1.0  -0.3549
  N  N189  1  0.342300  0.278100  0.840100  1.0  -0.3315
  N  N190  1  0.656900  0.291500  0.145500  1.0  -0.3548
  N  N191  1  0.342300  0.721900  0.159900  1.0  -0.3328
  N  N192  1  0.656900  0.708500  0.854500  1.0  -0.3564
  N  N193  1  0.657700  0.159900  0.278100  1.0  -0.333
  N  N194  1  0.343100  0.854500  0.291500  1.0  -0.3548
  N  N195  1  0.657700  0.840100  0.721900  1.0  -0.3318
  N  N196  1  0.343100  0.145500  0.708500  1.0  -0.356
  Cl  Cl197  1  0.000000  0.000000  0.000000  1.0  -0.8791
  Cl  Cl198  1  0.500000  0.500000  0.500000  1.0  -0.8791
  O  O199  1  0.819400  0.817600  0.834800  1.0  -0.7892
  O  O200  1  0.821100  0.871600  0.993000  1.0  -1.1376
  O  O201  1  0.962600  0.816600  0.944600  1.0  -1.2174
  O  O202  1  0.686900  0.900100  0.113800  1.0  -0.6906
  O  O203  1  0.821400  0.979100  0.873600  1.0  -1.2479
  O  O204  1  0.880000  0.881500  0.132700  1.0  -1.14
  O  O205  1  0.963700  0.924700  0.823900  1.0  -1.2191
  O  O206  1  0.877400  0.734000  0.071500  1.0  -0.6939
  O  O207  1  0.119400  0.726700  0.960800  1.0  -0.6815
  O  O208  1  0.819400  0.182400  0.165200  1.0  -0.7896
  O  O209  1  0.821100  0.128400  0.007000  1.0  -1.1373
  O  O210  1  0.962600  0.183400  0.055400  1.0  -1.2172
  O  O211  1  0.686900  0.099900  0.886200  1.0  -0.6906
  O  O212  1  0.821400  0.020900  0.126400  1.0  -1.2479
  O  O213  1  0.880000  0.118500  0.867300  1.0  -1.1412
  O  O214  1  0.963700  0.075300  0.176100  1.0  -1.2197
  O  O215  1  0.877400  0.266000  0.928500  1.0  -0.693
  O  O216  1  0.119400  0.273300  0.039200  1.0  -0.6803
  O  O217  1  0.180600  0.834800  0.182400  1.0  -0.7904
  O  O218  1  0.178900  0.993000  0.128400  1.0  -1.138
  O  O219  1  0.037400  0.944600  0.183400  1.0  -1.2172
  O  O220  1  0.313100  0.113800  0.099900  1.0  -0.6911
  O  O221  1  0.178600  0.873600  0.020900  1.0  -1.2479
  O  O222  1  0.120000  0.132700  0.118500  1.0  -1.1422
  O  O223  1  0.036300  0.823900  0.075300  1.0  -1.2193
  O  O224  1  0.122600  0.071500  0.266000  1.0  -0.6927
  O  O225  1  0.880600  0.960800  0.273300  1.0  -0.6847
  O  O226  1  0.180600  0.165200  0.817600  1.0  -0.7892
  O  O227  1  0.178900  0.007000  0.871600  1.0  -1.1379
  O  O228  1  0.037400  0.055400  0.816600  1.0  -1.2168
  O  O229  1  0.313100  0.886200  0.900100  1.0  -0.6905
  O  O230  1  0.178600  0.126400  0.979100  1.0  -1.2484
  O  O231  1  0.120000  0.867300  0.881500  1.0  -1.1405
  O  O232  1  0.036300  0.176100  0.924700  1.0  -1.2191
  O  O233  1  0.122600  0.928500  0.734000  1.0  -0.6929
  O  O234  1  0.880600  0.039200  0.726700  1.0  -0.6848
  O  O235  1  0.319400  0.317600  0.665200  1.0  -0.7897
  O  O236  1  0.321100  0.371600  0.507000  1.0  -1.1371
  O  O237  1  0.462600  0.316600  0.555400  1.0  -1.2177
  O  O238  1  0.186900  0.400100  0.386200  1.0  -0.6904
  O  O239  1  0.321400  0.479100  0.626400  1.0  -1.248
  O  O240  1  0.380000  0.381500  0.367300  1.0  -1.1405
  O  O241  1  0.463700  0.424700  0.676100  1.0  -1.2197
  O  O242  1  0.377400  0.234000  0.428500  1.0  -0.6932
  O  O243  1  0.619400  0.226700  0.539200  1.0  -0.6811
  O  O244  1  0.319400  0.682400  0.334800  1.0  -0.7889
  O  O245  1  0.321100  0.628400  0.493000  1.0  -1.1379
  O  O246  1  0.462600  0.683400  0.444600  1.0  -1.2169
  O  O247  1  0.186900  0.599900  0.613800  1.0  -0.6907
  O  O248  1  0.321400  0.520900  0.373600  1.0  -1.2479
  O  O249  1  0.380000  0.618500  0.632700  1.0  -1.1412
  O  O250  1  0.463700  0.575300  0.323900  1.0  -1.2192
  O  O251  1  0.377400  0.766000  0.571500  1.0  -0.6926
  O  O252  1  0.619400  0.773300  0.460800  1.0  -0.681
  O  O253  1  0.680600  0.334800  0.317600  1.0  -0.7896
  O  O254  1  0.678900  0.493000  0.371600  1.0  -1.1378
  O  O255  1  0.537400  0.444600  0.316600  1.0  -1.2169
  O  O256  1  0.813100  0.613800  0.400100  1.0  -0.6904
  O  O257  1  0.678600  0.373600  0.479100  1.0  -1.2483
  O  O258  1  0.620000  0.632700  0.381500  1.0  -1.1418
  O  O259  1  0.536300  0.323900  0.424700  1.0  -1.2192
  O  O260  1  0.622600  0.571500  0.234000  1.0  -0.6931
  O  O261  1  0.380600  0.460800  0.226700  1.0  -0.6845
  O  O262  1  0.680600  0.665200  0.682400  1.0  -0.79
  O  O263  1  0.678900  0.507000  0.628400  1.0  -1.138
  O  O264  1  0.537400  0.555400  0.683400  1.0  -1.2173
  O  O265  1  0.813100  0.386200  0.599900  1.0  -0.6909
  O  O266  1  0.678600  0.626400  0.520900  1.0  -1.2478
  O  O267  1  0.620000  0.367300  0.618500  1.0  -1.1404
  O  O268  1  0.536300  0.676100  0.575300  1.0  -1.2193
  O  O269  1  0.622600  0.428500  0.766000  1.0  -0.693
  O  O270  1  0.380600  0.539200  0.773300  1.0  -0.685
  O  O271  1  0.718300  0.000000  0.000000  1.0  -0.801
  O  O272  1  0.281700  0.000000  0.000000  1.0  -0.8003
  O  O273  1  0.218300  0.500000  0.500000  1.0  -0.801
  O  O274  1  0.781700  0.500000  0.500000  1.0  -0.8003
