# generated using pymatgen
data_V16Ni2H32C40N8O38F
_symmetry_space_group_name_H-M   'P 1'
_cell_length_a   14.65330000
_cell_length_b   17.06160000
_cell_length_c   17.06160000
_cell_angle_alpha   90.00000000
_cell_angle_beta   90.00000000
_cell_angle_gamma   90.00000000
_symmetry_Int_Tables_number   1
_chemical_formula_structural   V16Ni2H32C40N8O38F
_chemical_formula_sum   'V32 Ni4 H64 C80 N16 O76 F2'
_cell_volume   4265.54917435
_cell_formula_units_Z   2
loop_
 _symmetry_equiv_pos_site_id
 _symmetry_equiv_pos_as_xyz
  1  'x, y, z'
loop_
 _atom_site_type_symbol
 _atom_site_label
 _atom_site_symmetry_multiplicity
 _atom_site_fract_x
 _atom_site_fract_y
 _atom_site_fract_z
 _atom_site_occupancy
 _atom_site_charge
  V  V1  1  0.871660  0.878750  0.886980  1.0  2.1698
  V  V2  1  0.911230  0.814490  0.047450  1.0  2.1842
  V  V3  1  0.087290  0.811550  0.966200  1.0  2.1746
  V  V4  1  0.769630  0.933700  0.070550  1.0  2.0933
  V  V5  1  0.871660  0.121250  0.113020  1.0  2.1699
  V  V6  1  0.911230  0.185510  0.952550  1.0  2.1846
  V  V7  1  0.087290  0.188450  0.033800  1.0  2.1759
  V  V8  1  0.769630  0.066300  0.929450  1.0  2.0928
  V  V9  1  0.128340  0.886980  0.121250  1.0  2.17
  V  V10  1  0.088770  0.047450  0.185510  1.0  2.1835
  V  V11  1  0.912710  0.966200  0.188450  1.0  2.1743
  V  V12  1  0.230370  0.070550  0.066300  1.0  2.0887
  V  V13  1  0.128340  0.113020  0.878750  1.0  2.1698
  V  V14  1  0.088770  0.952550  0.814490  1.0  2.1841
  V  V15  1  0.912710  0.033800  0.811550  1.0  2.175
  V  V16  1  0.230370  0.929450  0.933700  1.0  2.0904
  V  V17  1  0.371660  0.378750  0.613020  1.0  2.1695
  V  V18  1  0.411230  0.314490  0.452550  1.0  2.1841
  V  V19  1  0.587290  0.311550  0.533800  1.0  2.1749
  V  V20  1  0.269630  0.433700  0.429450  1.0  2.0927
  V  V21  1  0.371660  0.621250  0.386980  1.0  2.1701
  V  V22  1  0.411230  0.685510  0.547450  1.0  2.1845
  V  V23  1  0.587290  0.688450  0.466200  1.0  2.176
  V  V24  1  0.269630  0.566300  0.570550  1.0  2.0932
  V  V25  1  0.628340  0.386980  0.378750  1.0  2.1699
  V  V26  1  0.588770  0.547450  0.314490  1.0  2.1842
  V  V27  1  0.412710  0.466200  0.311550  1.0  2.1748
  V  V28  1  0.730370  0.570550  0.433700  1.0  2.0883
  V  V29  1  0.628340  0.613020  0.621250  1.0  2.1696
  V  V30  1  0.588770  0.452550  0.685510  1.0  2.1834
  V  V31  1  0.412710  0.533800  0.688450  1.0  2.1739
  V  V32  1  0.730370  0.429450  0.566300  1.0  2.0911
  Ni  Ni33  1  0.750000  0.746370  0.753630  1.0  0.6651
  Ni  Ni34  1  0.750000  0.253630  0.246370  1.0  0.6654
  Ni  Ni35  1  0.250000  0.753630  0.253630  1.0  0.6651
  Ni  Ni36  1  0.250000  0.246370  0.746370  1.0  0.6654
  H  H37  1  0.943000  0.818700  0.721600  1.0  0.0711
  H  H38  1  0.047800  0.828900  0.622400  1.0  0.1361
  H  H39  1  0.944200  0.715200  0.820000  1.0  0.068
  H  H40  1  0.754100  0.568300  0.759100  1.0  0.0821
  H  H41  1  0.854100  0.465600  0.767800  1.0  0.1206
  H  H42  1  0.051900  0.618400  0.818800  1.0  0.1196
  H  H43  1  0.756800  0.748600  0.576600  1.0  0.0709
  H  H44  1  0.855900  0.750500  0.473700  1.0  0.1284
  H  H45  1  0.943000  0.181300  0.278400  1.0  0.0712
  H  H46  1  0.047800  0.171100  0.377600  1.0  0.1358
  H  H47  1  0.944200  0.284800  0.180000  1.0  0.0685
  H  H48  1  0.754100  0.431700  0.240900  1.0  0.0823
  H  H49  1  0.854100  0.534400  0.232200  1.0  0.1205
  H  H50  1  0.051900  0.381600  0.181200  1.0  0.1198
  H  H51  1  0.756800  0.251400  0.423400  1.0  0.0705
  H  H52  1  0.855900  0.249500  0.526300  1.0  0.129
  H  H53  1  0.057000  0.721600  0.181300  1.0  0.0703
  H  H54  1  0.952200  0.622400  0.171100  1.0  0.1362
  H  H55  1  0.055800  0.820000  0.284800  1.0  0.0692
  H  H56  1  0.245900  0.759100  0.431700  1.0  0.0816
  H  H57  1  0.145900  0.767800  0.534400  1.0  0.1202
  H  H58  1  0.948100  0.818800  0.381600  1.0  0.121
  H  H59  1  0.243200  0.576600  0.251400  1.0  0.0705
  H  H60  1  0.144100  0.473700  0.249500  1.0  0.1277
  H  H61  1  0.057000  0.278400  0.818700  1.0  0.0707
  H  H62  1  0.952200  0.377600  0.828900  1.0  0.136
  H  H63  1  0.055800  0.180000  0.715200  1.0  0.0697
  H  H64  1  0.245900  0.240900  0.568300  1.0  0.0816
  H  H65  1  0.145900  0.232200  0.465600  1.0  0.1201
  H  H66  1  0.948100  0.181200  0.618400  1.0  0.1209
  H  H67  1  0.243200  0.423400  0.748600  1.0  0.0709
  H  H68  1  0.144100  0.526300  0.750500  1.0  0.1286
  H  H69  1  0.443000  0.318700  0.778400  1.0  0.071
  H  H70  1  0.547800  0.328900  0.877600  1.0  0.1362
  H  H71  1  0.444200  0.215200  0.680000  1.0  0.0681
  H  H72  1  0.254100  0.068300  0.740900  1.0  0.082
  H  H73  1  0.354100  0.965600  0.732200  1.0  0.1207
  H  H74  1  0.551900  0.118400  0.681200  1.0  0.1199
  H  H75  1  0.256800  0.248600  0.923400  1.0  0.0701
  H  H76  1  0.355900  0.250500  0.026300  1.0  0.1291
  H  H77  1  0.443000  0.681300  0.221600  1.0  0.0716
  H  H78  1  0.547800  0.671100  0.122400  1.0  0.1357
  H  H79  1  0.444200  0.784800  0.320000  1.0  0.0683
  H  H80  1  0.254100  0.931700  0.259100  1.0  0.0824
  H  H81  1  0.354100  0.034400  0.267800  1.0  0.1206
  H  H82  1  0.551900  0.881600  0.318800  1.0  0.1197
  H  H83  1  0.256800  0.751400  0.076600  1.0  0.0711
  H  H84  1  0.355900  0.749500  0.973700  1.0  0.1284
  H  H85  1  0.557000  0.221600  0.318700  1.0  0.0701
  H  H86  1  0.452200  0.122400  0.328900  1.0  0.1361
  H  H87  1  0.555800  0.320000  0.215200  1.0  0.0693
  H  H88  1  0.745900  0.259100  0.068300  1.0  0.0815
  H  H89  1  0.645900  0.267800  0.965600  1.0  0.1201
  H  H90  1  0.448100  0.318800  0.118400  1.0  0.1208
  H  H91  1  0.743200  0.076600  0.248600  1.0  0.0709
  H  H92  1  0.644100  0.973700  0.250500  1.0  0.1277
  H  H93  1  0.557000  0.778400  0.681300  1.0  0.0709
  H  H94  1  0.452200  0.877600  0.671100  1.0  0.136
  H  H95  1  0.555800  0.680000  0.784800  1.0  0.0695
  H  H96  1  0.745900  0.740900  0.931700  1.0  0.0822
  H  H97  1  0.645900  0.732200  0.034400  1.0  0.1203
  H  H98  1  0.448100  0.681200  0.881600  1.0  0.121
  H  H99  1  0.743200  0.923400  0.751400  1.0  0.0706
  H  H100  1  0.644100  0.026300  0.749500  1.0  0.1284
  C  C101  1  0.925600  0.804500  0.671200  1.0  0.1627
  C  C102  1  0.989100  0.811000  0.612000  1.0  -0.2063
  C  C103  1  0.963100  0.789900  0.535400  1.0  0.0597
  C  C104  1  0.926800  0.664900  0.805300  1.0  0.1629
  C  C105  1  0.814800  0.578400  0.771200  1.0  0.1656
  C  C106  1  0.874800  0.516600  0.775400  1.0  -0.1887
  C  C107  1  0.032500  0.791200  0.469600  1.0  0.0769
  C  C108  1  0.991600  0.606300  0.806900  1.0  -0.2096
  C  C109  1  0.817100  0.762600  0.586300  1.0  0.1614
  C  C110  1  0.875600  0.765200  0.523400  1.0  -0.2178
  C  C111  1  0.925600  0.195500  0.328800  1.0  0.1627
  C  C112  1  0.989100  0.189000  0.388000  1.0  -0.2056
  C  C113  1  0.963100  0.210100  0.464600  1.0  0.0599
  C  C114  1  0.926800  0.335100  0.194700  1.0  0.1628
  C  C115  1  0.814800  0.421600  0.228800  1.0  0.165
  C  C116  1  0.874800  0.483400  0.224600  1.0  -0.1897
  C  C117  1  0.032500  0.208800  0.530400  1.0  0.0763
  C  C118  1  0.991600  0.393700  0.193100  1.0  -0.2087
  C  C119  1  0.817100  0.237400  0.413700  1.0  0.1615
  C  C120  1  0.875600  0.234800  0.476600  1.0  -0.2167
  C  C121  1  0.074400  0.671200  0.195500  1.0  0.1619
  C  C122  1  0.010900  0.612000  0.189000  1.0  -0.2035
  C  C123  1  0.036900  0.535400  0.210100  1.0  0.059
  C  C124  1  0.073200  0.805300  0.335100  1.0  0.1642
  C  C125  1  0.185200  0.771200  0.421600  1.0  0.1689
  C  C126  1  0.125200  0.775400  0.483400  1.0  -0.1898
  C  C127  1  0.967500  0.469600  0.208800  1.0  0.0777
  C  C128  1  0.008400  0.806900  0.393700  1.0  -0.2095
  C  C129  1  0.182900  0.586300  0.237400  1.0  0.1608
  C  C130  1  0.124400  0.523400  0.234800  1.0  -0.2182
  C  C131  1  0.074400  0.328800  0.804500  1.0  0.1625
  C  C132  1  0.010900  0.388000  0.811000  1.0  -0.2036
  C  C133  1  0.036900  0.464600  0.789900  1.0  0.06
  C  C134  1  0.073200  0.194700  0.664900  1.0  0.1655
  C  C135  1  0.185200  0.228800  0.578400  1.0  0.1685
  C  C136  1  0.125200  0.224600  0.516600  1.0  -0.1905
  C  C137  1  0.967500  0.530400  0.791200  1.0  0.0775
  C  C138  1  0.008400  0.193100  0.606300  1.0  -0.2095
  C  C139  1  0.182900  0.413700  0.762600  1.0  0.1611
  C  C140  1  0.124400  0.476600  0.765200  1.0  -0.2191
  C  C141  1  0.425600  0.304500  0.828800  1.0  0.1629
  C  C142  1  0.489100  0.311000  0.888000  1.0  -0.2063
  C  C143  1  0.463100  0.289900  0.964600  1.0  0.0604
  C  C144  1  0.426800  0.164900  0.694700  1.0  0.163
  C  C145  1  0.314800  0.078400  0.728800  1.0  0.165
  C  C146  1  0.374800  0.016600  0.724600  1.0  -0.1886
  C  C147  1  0.532500  0.291200  0.030400  1.0  0.0767
  C  C148  1  0.491600  0.106300  0.693100  1.0  -0.2091
  C  C149  1  0.317100  0.262600  0.913700  1.0  0.1617
  C  C150  1  0.375600  0.265200  0.976600  1.0  -0.2171
  C  C151  1  0.425600  0.695500  0.171200  1.0  0.1631
  C  C152  1  0.489100  0.689000  0.112000  1.0  -0.2054
  C  C153  1  0.463100  0.710100  0.035400  1.0  0.0592
  C  C154  1  0.426800  0.835100  0.305300  1.0  0.1626
  C  C155  1  0.314800  0.921600  0.271200  1.0  0.1654
  C  C156  1  0.374800  0.983400  0.275400  1.0  -0.1893
  C  C157  1  0.532500  0.708800  0.969600  1.0  0.0764
  C  C158  1  0.491600  0.893700  0.306900  1.0  -0.2093
  C  C159  1  0.317100  0.737400  0.086300  1.0  0.1611
  C  C160  1  0.375600  0.734800  0.023400  1.0  -0.2181
  C  C161  1  0.574400  0.171200  0.304500  1.0  0.1627
  C  C162  1  0.510900  0.112000  0.311000  1.0  -0.2039
  C  C163  1  0.536900  0.035400  0.289900  1.0  0.0596
  C  C164  1  0.573200  0.305300  0.164900  1.0  0.1651
  C  C165  1  0.685200  0.271200  0.078400  1.0  0.1685
  C  C166  1  0.625200  0.275400  0.016600  1.0  -0.19
  C  C167  1  0.467500  0.969600  0.291200  1.0  0.0777
  C  C168  1  0.508400  0.306900  0.106300  1.0  -0.2096
  C  C169  1  0.682900  0.086300  0.262600  1.0  0.1611
  C  C170  1  0.624400  0.023400  0.265200  1.0  -0.2178
  C  C171  1  0.574400  0.828800  0.695500  1.0  0.1621
  C  C172  1  0.510900  0.888000  0.689000  1.0  -0.2032
  C  C173  1  0.536900  0.964600  0.710100  1.0  0.0593
  C  C174  1  0.573200  0.694700  0.835100  1.0  0.1642
  C  C175  1  0.685200  0.728800  0.921600  1.0  0.1689
  C  C176  1  0.625200  0.724600  0.983400  1.0  -0.1898
  C  C177  1  0.467500  0.030400  0.708800  1.0  0.0772
  C  C178  1  0.508400  0.693100  0.893700  1.0  -0.2097
  C  C179  1  0.682900  0.913700  0.737400  1.0  0.161
  C  C180  1  0.624400  0.976600  0.734800  1.0  -0.2196
  N  N181  1  0.840900  0.652900  0.784000  1.0  -0.3098
  N  N182  1  0.840000  0.778700  0.660000  1.0  -0.3075
  N  N183  1  0.840900  0.347100  0.216000  1.0  -0.3112
  N  N184  1  0.840000  0.221300  0.340000  1.0  -0.3081
  N  N185  1  0.159100  0.784000  0.347100  1.0  -0.3099
  N  N186  1  0.160000  0.660000  0.221300  1.0  -0.3059
  N  N187  1  0.159100  0.216000  0.652900  1.0  -0.3084
  N  N188  1  0.160000  0.340000  0.778700  1.0  -0.306
  N  N189  1  0.340900  0.152900  0.716000  1.0  -0.3104
  N  N190  1  0.340000  0.278700  0.840000  1.0  -0.3079
  N  N191  1  0.340900  0.847100  0.284000  1.0  -0.3106
  N  N192  1  0.340000  0.721300  0.160000  1.0  -0.3077
  N  N193  1  0.659100  0.284000  0.152900  1.0  -0.3087
  N  N194  1  0.660000  0.160000  0.278700  1.0  -0.3054
  N  N195  1  0.659100  0.716000  0.847100  1.0  -0.3094
  N  N196  1  0.660000  0.840000  0.721300  1.0  -0.3067
  O  O197  1  0.818400  0.817600  0.829000  1.0  -0.8034
  O  O198  1  0.962300  0.815000  0.940900  1.0  -1.1616
  O  O199  1  0.817200  0.870200  0.990900  1.0  -1.1573
  O  O200  1  0.875800  0.728400  0.067500  1.0  -0.636
  O  O201  1  0.877600  0.878600  0.131600  1.0  -1.0985
  O  O202  1  0.962800  0.928200  0.822100  1.0  -1.1736
  O  O203  1  0.123200  0.723400  0.956500  1.0  -0.6756
  O  O204  1  0.817900  0.981100  0.870200  1.0  -1.1869
  O  O205  1  0.682900  0.894100  0.113600  1.0  -0.6468
  O  O206  1  0.818400  0.182400  0.171000  1.0  -0.8033
  O  O207  1  0.962300  0.185000  0.059100  1.0  -1.1616
  O  O208  1  0.817200  0.129800  0.009100  1.0  -1.1574
  O  O209  1  0.875800  0.271600  0.932500  1.0  -0.6379
  O  O210  1  0.877600  0.121400  0.868400  1.0  -1.0994
  O  O211  1  0.962800  0.071800  0.177900  1.0  -1.1739
  O  O212  1  0.123200  0.276600  0.043500  1.0  -0.6743
  O  O213  1  0.817900  0.018900  0.129800  1.0  -1.1873
  O  O214  1  0.682900  0.105900  0.886400  1.0  -0.6464
  O  O215  1  0.181600  0.829000  0.182400  1.0  -0.8041
  O  O216  1  0.037700  0.940900  0.185000  1.0  -1.162
  O  O217  1  0.182800  0.990900  0.129800  1.0  -1.1573
  O  O218  1  0.124200  0.067500  0.271600  1.0  -0.6386
  O  O219  1  0.122400  0.131600  0.121400  1.0  -1.0996
  O  O220  1  0.037200  0.822100  0.071800  1.0  -1.1743
  O  O221  1  0.876800  0.956500  0.276600  1.0  -0.6774
  O  O222  1  0.182100  0.870200  0.018900  1.0  -1.1881
  O  O223  1  0.317100  0.113600  0.105900  1.0  -0.6472
  O  O224  1  0.181600  0.171000  0.817600  1.0  -0.804
  O  O225  1  0.037700  0.059100  0.815000  1.0  -1.1617
  O  O226  1  0.182800  0.009100  0.870200  1.0  -1.1571
  O  O227  1  0.124200  0.932500  0.728400  1.0  -0.6357
  O  O228  1  0.122400  0.868400  0.878600  1.0  -1.0976
  O  O229  1  0.037200  0.177900  0.928200  1.0  -1.1741
  O  O230  1  0.876800  0.043500  0.723400  1.0  -0.6781
  O  O231  1  0.182100  0.129800  0.981100  1.0  -1.1888
  O  O232  1  0.317100  0.886400  0.894100  1.0  -0.6477
  O  O233  1  0.318400  0.317600  0.671000  1.0  -0.8033
  O  O234  1  0.462300  0.315000  0.559100  1.0  -1.1618
  O  O235  1  0.317200  0.370200  0.509100  1.0  -1.1572
  O  O236  1  0.375800  0.228400  0.432500  1.0  -0.6367
  O  O237  1  0.377600  0.378600  0.368400  1.0  -1.0983
  O  O238  1  0.462800  0.428200  0.677900  1.0  -1.1738
  O  O239  1  0.623200  0.223400  0.543500  1.0  -0.6751
  O  O240  1  0.317900  0.481100  0.629800  1.0  -1.1871
  O  O241  1  0.182900  0.394100  0.386400  1.0  -0.6471
  O  O242  1  0.318400  0.682400  0.329000  1.0  -0.8032
  O  O243  1  0.462300  0.685000  0.440900  1.0  -1.1615
  O  O244  1  0.317200  0.629800  0.490900  1.0  -1.1574
  O  O245  1  0.375800  0.771600  0.567500  1.0  -0.6371
  O  O246  1  0.377600  0.621400  0.631600  1.0  -1.1
  O  O247  1  0.462800  0.571800  0.322100  1.0  -1.1738
  O  O248  1  0.623200  0.776600  0.456500  1.0  -0.6751
  O  O249  1  0.317900  0.518900  0.370200  1.0  -1.187
  O  O250  1  0.182900  0.605900  0.613600  1.0  -0.6463
  O  O251  1  0.681600  0.329000  0.317600  1.0  -0.8038
  O  O252  1  0.537700  0.440900  0.315000  1.0  -1.1617
  O  O253  1  0.682800  0.490900  0.370200  1.0  -1.157
  O  O254  1  0.624200  0.567500  0.228400  1.0  -0.6358
  O  O255  1  0.622400  0.631600  0.378600  1.0  -1.0987
  O  O256  1  0.537200  0.322100  0.428200  1.0  -1.1743
  O  O257  1  0.376800  0.456500  0.223400  1.0  -0.6776
  O  O258  1  0.682100  0.370200  0.481100  1.0  -1.1885
  O  O259  1  0.817100  0.613600  0.394100  1.0  -0.6466
  O  O260  1  0.681600  0.671000  0.682400  1.0  -0.8042
  O  O261  1  0.537700  0.559100  0.685000  1.0  -1.1621
  O  O262  1  0.682800  0.509100  0.629800  1.0  -1.1575
  O  O263  1  0.624200  0.432500  0.771600  1.0  -0.639
  O  O264  1  0.622400  0.368400  0.621400  1.0  -1.098
  O  O265  1  0.537200  0.677900  0.571800  1.0  -1.1741
  O  O266  1  0.376800  0.543500  0.776600  1.0  -0.6775
  O  O267  1  0.682100  0.629800  0.518900  1.0  -1.1882
  O  O268  1  0.817100  0.386400  0.605900  1.0  -0.648
  O  O269  1  0.716500  0.000000  0.000000  1.0  -0.7622
  O  O270  1  0.283500  0.000000  0.000000  1.0  -0.7617
  O  O271  1  0.216500  0.500000  0.500000  1.0  -0.7622
  O  O272  1  0.783500  0.500000  0.500000  1.0  -0.7617
  F  F273  1  0.000000  0.000000  0.000000  1.0  -0.7139
  F  F274  1  0.500000  0.500000  0.500000  1.0  -0.7139
