# generated using pymatgen
data_Mn2V16H32C40N8ClO38
_symmetry_space_group_name_H-M   'P 1'
_cell_length_a   14.91600000
_cell_length_b   17.26600000
_cell_length_c   17.26600000
_cell_angle_alpha   90.00000000
_cell_angle_beta   90.00000000
_cell_angle_gamma   90.00000000
_symmetry_Int_Tables_number   1
_chemical_formula_structural   Mn2V16H32C40N8ClO38
_chemical_formula_sum   'Mn4 V32 H64 C80 N16 Cl2 O76'
_cell_volume   4446.67970050
_cell_formula_units_Z   2
loop_
 _symmetry_equiv_pos_site_id
 _symmetry_equiv_pos_as_xyz
  1  'x, y, z'
loop_
 _atom_site_type_symbol
 _atom_site_label
 _atom_site_symmetry_multiplicity
 _atom_site_fract_x
 _atom_site_fract_y
 _atom_site_fract_z
 _atom_site_occupancy
 _atom_site_charge
  Mn  Mn1  1  0.750000  0.742750  0.757250  1.0  1.0338
  Mn  Mn2  1  0.750000  0.257250  0.242750  1.0  1.0336
  Mn  Mn3  1  0.250000  0.757250  0.257250  1.0  1.0334
  Mn  Mn4  1  0.250000  0.242750  0.742750  1.0  1.0339
  V  V5  1  0.874230  0.878380  0.890630  1.0  2.235
  V  V6  1  0.772320  0.937710  0.069700  1.0  2.1486
  V  V7  1  0.913640  0.819110  0.051050  1.0  2.1883
  V  V8  1  0.085060  0.813920  0.969980  1.0  2.1953
  V  V9  1  0.874230  0.121620  0.109370  1.0  2.2353
  V  V10  1  0.772320  0.062290  0.930300  1.0  2.1485
  V  V11  1  0.913640  0.180890  0.948950  1.0  2.189
  V  V12  1  0.085060  0.186080  0.030020  1.0  2.1964
  V  V13  1  0.125770  0.890630  0.121620  1.0  2.2352
  V  V14  1  0.227680  0.069700  0.062290  1.0  2.1473
  V  V15  1  0.086360  0.051050  0.180890  1.0  2.1892
  V  V16  1  0.914940  0.969980  0.186080  1.0  2.1967
  V  V17  1  0.125770  0.109370  0.878380  1.0  2.2355
  V  V18  1  0.227680  0.930300  0.937710  1.0  2.1477
  V  V19  1  0.086360  0.948950  0.819110  1.0  2.189
  V  V20  1  0.914940  0.030020  0.813920  1.0  2.1965
  V  V21  1  0.374230  0.378380  0.609370  1.0  2.2351
  V  V22  1  0.272320  0.437710  0.430300  1.0  2.1484
  V  V23  1  0.413640  0.319110  0.448950  1.0  2.1881
  V  V24  1  0.585060  0.313920  0.530020  1.0  2.1959
  V  V25  1  0.374230  0.621620  0.390630  1.0  2.2351
  V  V26  1  0.272320  0.562290  0.569700  1.0  2.1485
  V  V27  1  0.413640  0.680890  0.551050  1.0  2.1892
  V  V28  1  0.585060  0.686080  0.469980  1.0  2.1961
  V  V29  1  0.625770  0.390630  0.378380  1.0  2.2353
  V  V30  1  0.727680  0.569700  0.437710  1.0  2.1476
  V  V31  1  0.586360  0.551050  0.319110  1.0  2.1891
  V  V32  1  0.414940  0.469980  0.313920  1.0  2.1964
  V  V33  1  0.625770  0.609370  0.621620  1.0  2.2354
  V  V34  1  0.727680  0.430300  0.562290  1.0  2.1476
  V  V35  1  0.586360  0.448950  0.680890  1.0  2.1892
  V  V36  1  0.414940  0.530020  0.686080  1.0  2.1967
  H  H37  1  0.761700  0.747100  0.577700  1.0  0.0748
  H  H38  1  0.859500  0.755500  0.476100  1.0  0.1373
  H  H39  1  0.942700  0.815500  0.723100  1.0  0.0835
  H  H40  1  0.045100  0.830900  0.624900  1.0  0.128
  H  H41  1  0.239400  0.759400  0.437100  1.0  0.081
  H  H42  1  0.141400  0.763500  0.538800  1.0  0.1393
  H  H43  1  0.055100  0.830100  0.293000  1.0  0.0849
  H  H44  1  0.949500  0.829600  0.388000  1.0  0.1372
  H  H45  1  0.761700  0.252900  0.422300  1.0  0.0745
  H  H46  1  0.859500  0.244500  0.523900  1.0  0.1371
  H  H47  1  0.942700  0.184500  0.276900  1.0  0.0845
  H  H48  1  0.045100  0.169100  0.375100  1.0  0.1285
  H  H49  1  0.239400  0.240600  0.562900  1.0  0.0812
  H  H50  1  0.141400  0.236500  0.461200  1.0  0.1392
  H  H51  1  0.055100  0.169900  0.707000  1.0  0.0844
  H  H52  1  0.949500  0.170400  0.612000  1.0  0.1367
  H  H53  1  0.238300  0.577700  0.252900  1.0  0.073
  H  H54  1  0.140500  0.476100  0.244500  1.0  0.1372
  H  H55  1  0.057300  0.723100  0.184500  1.0  0.0827
  H  H56  1  0.954900  0.624900  0.169100  1.0  0.1281
  H  H57  1  0.760600  0.437100  0.240600  1.0  0.081
  H  H58  1  0.858600  0.538800  0.236500  1.0  0.1395
  H  H59  1  0.944900  0.293000  0.169900  1.0  0.0843
  H  H60  1  0.050500  0.388000  0.170400  1.0  0.1377
  H  H61  1  0.238300  0.422300  0.747100  1.0  0.0735
  H  H62  1  0.140500  0.523900  0.755500  1.0  0.1372
  H  H63  1  0.057300  0.276900  0.815500  1.0  0.0825
  H  H64  1  0.954900  0.375100  0.830900  1.0  0.1283
  H  H65  1  0.760600  0.562900  0.759400  1.0  0.0812
  H  H66  1  0.858600  0.461200  0.763500  1.0  0.1396
  H  H67  1  0.944900  0.707000  0.830100  1.0  0.0836
  H  H68  1  0.050500  0.612000  0.829600  1.0  0.1373
  H  H69  1  0.261700  0.247100  0.922300  1.0  0.0745
  H  H70  1  0.359500  0.255500  0.023900  1.0  0.1373
  H  H71  1  0.442700  0.315500  0.776900  1.0  0.0843
  H  H72  1  0.545100  0.330900  0.875100  1.0  0.1289
  H  H73  1  0.739400  0.259400  0.062900  1.0  0.0808
  H  H74  1  0.641400  0.263500  0.961200  1.0  0.1391
  H  H75  1  0.555100  0.330100  0.207000  1.0  0.0842
  H  H76  1  0.449500  0.329600  0.112000  1.0  0.1365
  H  H77  1  0.261700  0.752900  0.077700  1.0  0.0747
  H  H78  1  0.359500  0.744500  0.976100  1.0  0.1372
  H  H79  1  0.442700  0.684500  0.223100  1.0  0.0838
  H  H80  1  0.545100  0.669100  0.124900  1.0  0.128
  H  H81  1  0.739400  0.740600  0.937100  1.0  0.0817
  H  H82  1  0.641400  0.736500  0.038800  1.0  0.1392
  H  H83  1  0.555100  0.669900  0.793000  1.0  0.085
  H  H84  1  0.449500  0.670400  0.888000  1.0  0.1373
  H  H85  1  0.738300  0.077700  0.247100  1.0  0.0734
  H  H86  1  0.640500  0.976100  0.255500  1.0  0.1372
  H  H87  1  0.557300  0.223100  0.315500  1.0  0.0827
  H  H88  1  0.454900  0.124900  0.330900  1.0  0.1282
  H  H89  1  0.260600  0.937100  0.259400  1.0  0.0812
  H  H90  1  0.358600  0.038800  0.263500  1.0  0.1396
  H  H91  1  0.444900  0.793000  0.330100  1.0  0.0843
  H  H92  1  0.550500  0.888000  0.329600  1.0  0.1375
  H  H93  1  0.738300  0.922300  0.752900  1.0  0.0731
  H  H94  1  0.640500  0.023900  0.744500  1.0  0.1371
  H  H95  1  0.557300  0.776900  0.684500  1.0  0.0825
  H  H96  1  0.454900  0.875100  0.669100  1.0  0.1281
  H  H97  1  0.260600  0.062900  0.740600  1.0  0.0808
  H  H98  1  0.358600  0.961200  0.736500  1.0  0.1391
  H  H99  1  0.444900  0.207000  0.669900  1.0  0.0836
  H  H100  1  0.550500  0.112000  0.670400  1.0  0.1377
  C  C101  1  0.820300  0.762500  0.587500  1.0  0.1993
  C  C102  1  0.878400  0.768100  0.525900  1.0  -0.1867
  C  C103  1  0.926100  0.803200  0.672700  1.0  0.1805
  C  C104  1  0.988000  0.812000  0.614000  1.0  -0.1807
  C  C105  1  0.180200  0.773600  0.427700  1.0  0.1943
  C  C106  1  0.121900  0.775400  0.489100  1.0  -0.1784
  C  C107  1  0.071400  0.814300  0.342500  1.0  0.1801
  C  C108  1  0.008200  0.815500  0.399600  1.0  -0.1845
  C  C109  1  0.031800  0.795700  0.475400  1.0  0.1057
  C  C110  1  0.965000  0.792700  0.538700  1.0  0.1044
  C  C111  1  0.820300  0.237500  0.412500  1.0  0.1997
  C  C112  1  0.878400  0.231900  0.474100  1.0  -0.1864
  C  C113  1  0.926100  0.196800  0.327300  1.0  0.1808
  C  C114  1  0.988000  0.188000  0.386000  1.0  -0.1809
  C  C115  1  0.180200  0.226400  0.572300  1.0  0.1935
  C  C116  1  0.121900  0.224600  0.510900  1.0  -0.1787
  C  C117  1  0.071400  0.185700  0.657500  1.0  0.1808
  C  C118  1  0.008200  0.184500  0.600400  1.0  -0.185
  C  C119  1  0.031800  0.204300  0.524600  1.0  0.1058
  C  C120  1  0.965000  0.207300  0.461300  1.0  0.1043
  C  C121  1  0.179700  0.587500  0.237500  1.0  0.1982
  C  C122  1  0.121600  0.525900  0.231900  1.0  -0.1864
  C  C123  1  0.073900  0.672700  0.196800  1.0  0.1778
  C  C124  1  0.012000  0.614000  0.188000  1.0  -0.1816
  C  C125  1  0.819800  0.427700  0.226400  1.0  0.1916
  C  C126  1  0.878100  0.489100  0.224600  1.0  -0.1765
  C  C127  1  0.928600  0.342500  0.185700  1.0  0.1785
  C  C128  1  0.991800  0.399600  0.184500  1.0  -0.1824
  C  C129  1  0.968200  0.475400  0.204300  1.0  0.1047
  C  C130  1  0.035000  0.538700  0.207300  1.0  0.1039
  C  C131  1  0.179700  0.412500  0.762500  1.0  0.1987
  C  C132  1  0.121600  0.474100  0.768100  1.0  -0.1875
  C  C133  1  0.073900  0.327300  0.803200  1.0  0.1784
  C  C134  1  0.012000  0.386000  0.812000  1.0  -0.182
  C  C135  1  0.819800  0.572300  0.773600  1.0  0.1922
  C  C136  1  0.878100  0.510900  0.775400  1.0  -0.1758
  C  C137  1  0.928600  0.657500  0.814300  1.0  0.1789
  C  C138  1  0.991800  0.600400  0.815500  1.0  -0.1837
  C  C139  1  0.968200  0.524600  0.795700  1.0  0.1048
  C  C140  1  0.035000  0.461300  0.792700  1.0  0.1038
  C  C141  1  0.320300  0.262500  0.912500  1.0  0.1998
  C  C142  1  0.378400  0.268100  0.974100  1.0  -0.1867
  C  C143  1  0.426100  0.303200  0.827300  1.0  0.1807
  C  C144  1  0.488000  0.312000  0.886000  1.0  -0.1813
  C  C145  1  0.680200  0.273600  0.072300  1.0  0.1936
  C  C146  1  0.621900  0.275400  0.010900  1.0  -0.1783
  C  C147  1  0.571400  0.314300  0.157500  1.0  0.18
  C  C148  1  0.508200  0.315500  0.100400  1.0  -0.185
  C  C149  1  0.531800  0.295700  0.024600  1.0  0.1059
  C  C150  1  0.465000  0.292700  0.961300  1.0  0.1043
  C  C151  1  0.320300  0.737500  0.087500  1.0  0.1992
  C  C152  1  0.378400  0.731900  0.025900  1.0  -0.1868
  C  C153  1  0.426100  0.696800  0.172700  1.0  0.1812
  C  C154  1  0.488000  0.688000  0.114000  1.0  -0.1802
  C  C155  1  0.680200  0.726400  0.927700  1.0  0.194
  C  C156  1  0.621900  0.724600  0.989100  1.0  -0.1784
  C  C157  1  0.571400  0.685700  0.842500  1.0  0.1802
  C  C158  1  0.508200  0.684500  0.899600  1.0  -0.1844
  C  C159  1  0.531800  0.704300  0.975400  1.0  0.1056
  C  C160  1  0.465000  0.707300  0.038700  1.0  0.1046
  C  C161  1  0.679700  0.087500  0.262500  1.0  0.1987
  C  C162  1  0.621600  0.025900  0.268100  1.0  -0.1862
  C  C163  1  0.573900  0.172700  0.303200  1.0  0.1781
  C  C164  1  0.512000  0.114000  0.312000  1.0  -0.1819
  C  C165  1  0.319800  0.927700  0.273600  1.0  0.1919
  C  C166  1  0.378100  0.989100  0.275400  1.0  -0.1768
  C  C167  1  0.428600  0.842500  0.314300  1.0  0.1786
  C  C168  1  0.491800  0.899600  0.315500  1.0  -0.1833
  C  C169  1  0.468200  0.975400  0.295700  1.0  0.1045
  C  C170  1  0.535000  0.038700  0.292700  1.0  0.1039
  C  C171  1  0.679700  0.912500  0.737500  1.0  0.1982
  C  C172  1  0.621600  0.974100  0.731900  1.0  -0.1873
  C  C173  1  0.573900  0.827300  0.696800  1.0  0.1785
  C  C174  1  0.512000  0.886000  0.688000  1.0  -0.1811
  C  C175  1  0.319800  0.072300  0.726400  1.0  0.1919
  C  C176  1  0.378100  0.010900  0.724600  1.0  -0.1757
  C  C177  1  0.428600  0.157500  0.685700  1.0  0.179
  C  C178  1  0.491800  0.100400  0.684500  1.0  -0.1829
  C  C179  1  0.468200  0.024600  0.704300  1.0  0.1048
  C  C180  1  0.535000  0.961300  0.707300  1.0  0.104
  N  N181  1  0.843200  0.777700  0.659600  1.0  -0.3625
  N  N182  1  0.843700  0.645300  0.791300  1.0  -0.372
  N  N183  1  0.843200  0.222300  0.340400  1.0  -0.3647
  N  N184  1  0.843700  0.354700  0.208700  1.0  -0.3713
  N  N185  1  0.156800  0.659600  0.222300  1.0  -0.3617
  N  N186  1  0.156300  0.791300  0.354700  1.0  -0.3726
  N  N187  1  0.156800  0.340400  0.777700  1.0  -0.3609
  N  N188  1  0.156300  0.208700  0.645300  1.0  -0.3711
  N  N189  1  0.343200  0.277700  0.840400  1.0  -0.3648
  N  N190  1  0.343700  0.145300  0.708700  1.0  -0.3724
  N  N191  1  0.343200  0.722300  0.159600  1.0  -0.3619
  N  N192  1  0.343700  0.854700  0.291300  1.0  -0.3712
  N  N193  1  0.656800  0.159600  0.277700  1.0  -0.3611
  N  N194  1  0.656300  0.291300  0.145300  1.0  -0.371
  N  N195  1  0.656800  0.840400  0.722300  1.0  -0.3613
  N  N196  1  0.656300  0.708700  0.854700  1.0  -0.3729
  Cl  Cl197  1  0.000000  0.000000  0.000000  1.0  -0.8788
  Cl  Cl198  1  0.500000  0.500000  0.500000  1.0  -0.8788
  O  O199  1  0.819700  0.817600  0.834800  1.0  -0.8188
  O  O200  1  0.820800  0.871800  0.993400  1.0  -1.2557
  O  O201  1  0.962800  0.816600  0.944300  1.0  -1.2212
  O  O202  1  0.686500  0.900500  0.113200  1.0  -0.6854
  O  O203  1  0.821800  0.979300  0.873900  1.0  -1.258
  O  O204  1  0.880300  0.881700  0.132900  1.0  -1.1424
  O  O205  1  0.963500  0.924500  0.824200  1.0  -1.2289
  O  O206  1  0.878200  0.734000  0.071800  1.0  -0.6894
  O  O207  1  0.119500  0.726600  0.961600  1.0  -0.6888
  O  O208  1  0.819700  0.182400  0.165200  1.0  -0.8194
  O  O209  1  0.820800  0.128200  0.006600  1.0  -1.2551
  O  O210  1  0.962800  0.183400  0.055700  1.0  -1.2209
  O  O211  1  0.686500  0.099500  0.886800  1.0  -0.6852
  O  O212  1  0.821800  0.020700  0.126100  1.0  -1.2581
  O  O213  1  0.880300  0.118300  0.867100  1.0  -1.1437
  O  O214  1  0.963500  0.075500  0.175800  1.0  -1.2291
  O  O215  1  0.878200  0.266000  0.928200  1.0  -0.6894
  O  O216  1  0.119500  0.273400  0.038400  1.0  -0.688
  O  O217  1  0.180300  0.834800  0.182400  1.0  -0.8192
  O  O218  1  0.179200  0.993400  0.128200  1.0  -1.2553
  O  O219  1  0.037200  0.944300  0.183400  1.0  -1.2209
  O  O220  1  0.313500  0.113200  0.099500  1.0  -0.6861
  O  O221  1  0.178200  0.873900  0.020700  1.0  -1.258
  O  O222  1  0.119700  0.132900  0.118300  1.0  -1.1444
  O  O223  1  0.036500  0.824200  0.075500  1.0  -1.2294
  O  O224  1  0.121800  0.071800  0.266000  1.0  -0.688
  O  O225  1  0.880500  0.961600  0.273400  1.0  -0.6909
  O  O226  1  0.180300  0.165200  0.817600  1.0  -0.8193
  O  O227  1  0.179200  0.006600  0.871800  1.0  -1.2552
  O  O228  1  0.037200  0.055700  0.816600  1.0  -1.2206
  O  O229  1  0.313500  0.886800  0.900500  1.0  -0.6854
  O  O230  1  0.178200  0.126100  0.979300  1.0  -1.2585
  O  O231  1  0.119700  0.867100  0.881700  1.0  -1.1429
  O  O232  1  0.036500  0.175800  0.924500  1.0  -1.2287
  O  O233  1  0.121800  0.928200  0.734000  1.0  -0.6882
  O  O234  1  0.880500  0.038400  0.726600  1.0  -0.691
  O  O235  1  0.319700  0.317600  0.665200  1.0  -0.8191
  O  O236  1  0.320800  0.371800  0.506600  1.0  -1.2554
  O  O237  1  0.462800  0.316600  0.555700  1.0  -1.2215
  O  O238  1  0.186500  0.400500  0.386800  1.0  -0.6854
  O  O239  1  0.321800  0.479300  0.626100  1.0  -1.258
  O  O240  1  0.380300  0.381700  0.367100  1.0  -1.1431
  O  O241  1  0.463500  0.424500  0.675800  1.0  -1.2293
  O  O242  1  0.378200  0.234000  0.428200  1.0  -0.6894
  O  O243  1  0.619500  0.226600  0.538400  1.0  -0.6883
  O  O244  1  0.319700  0.682400  0.334800  1.0  -0.819
  O  O245  1  0.320800  0.628200  0.493400  1.0  -1.2554
  O  O246  1  0.462800  0.683400  0.444300  1.0  -1.2206
  O  O247  1  0.186500  0.599500  0.613200  1.0  -0.6854
  O  O248  1  0.321800  0.520700  0.373900  1.0  -1.2582
  O  O249  1  0.380300  0.618300  0.632900  1.0  -1.1434
  O  O250  1  0.463500  0.575500  0.324200  1.0  -1.2287
  O  O251  1  0.378200  0.766000  0.571800  1.0  -0.689
  O  O252  1  0.619500  0.773400  0.461600  1.0  -0.6886
  O  O253  1  0.680300  0.334800  0.317600  1.0  -0.8191
  O  O254  1  0.679200  0.493400  0.371800  1.0  -1.2551
  O  O255  1  0.537200  0.444300  0.316600  1.0  -1.2207
  O  O256  1  0.813500  0.613200  0.400500  1.0  -0.6854
  O  O257  1  0.678200  0.373900  0.479300  1.0  -1.2585
  O  O258  1  0.619700  0.632900  0.381700  1.0  -1.144
  O  O259  1  0.536500  0.324200  0.424500  1.0  -1.229
  O  O260  1  0.621800  0.571800  0.234000  1.0  -0.6884
  O  O261  1  0.380500  0.461600  0.226600  1.0  -0.6911
  O  O262  1  0.680300  0.665200  0.682400  1.0  -0.8196
  O  O263  1  0.679200  0.506600  0.628200  1.0  -1.2552
  O  O264  1  0.537200  0.555700  0.683400  1.0  -1.221
  O  O265  1  0.813500  0.386800  0.599500  1.0  -0.6858
  O  O266  1  0.678200  0.626100  0.520700  1.0  -1.2578
  O  O267  1  0.619700  0.367100  0.618300  1.0  -1.1428
  O  O268  1  0.536500  0.675800  0.575500  1.0  -1.2291
  O  O269  1  0.621800  0.428200  0.766000  1.0  -0.6885
  O  O270  1  0.380500  0.538400  0.773400  1.0  -0.6908
  O  O271  1  0.719100  0.000000  0.000000  1.0  -0.8752
  O  O272  1  0.280900  0.000000  0.000000  1.0  -0.8738
  O  O273  1  0.219100  0.500000  0.500000  1.0  -0.8752
  O  O274  1  0.780900  0.500000  0.500000  1.0  -0.8738
