# generated using pymatgen
data_V16Co2H32C40N8ClO38
_symmetry_space_group_name_H-M   'P 1'
_cell_length_a   14.62500000
_cell_length_b   17.06600000
_cell_length_c   17.06600000
_cell_angle_alpha   90.00000000
_cell_angle_beta   90.00000000
_cell_angle_gamma   90.00000000
_symmetry_Int_Tables_number   1
_chemical_formula_structural   V16Co2H32C40N8ClO38
_chemical_formula_sum   'V32 Co4 H64 C80 N16 Cl2 O76'
_cell_volume   4259.50720650
_cell_formula_units_Z   2
loop_
 _symmetry_equiv_pos_site_id
 _symmetry_equiv_pos_as_xyz
  1  'x, y, z'
loop_
 _atom_site_type_symbol
 _atom_site_label
 _atom_site_symmetry_multiplicity
 _atom_site_fract_x
 _atom_site_fract_y
 _atom_site_fract_z
 _atom_site_occupancy
 _atom_site_charge
  V  V1  1  0.372490  0.610420  0.620790  1.0  2.2523
  V  V2  1  0.586100  0.532140  0.686910  1.0  2.2174
  V  V3  1  0.411900  0.448580  0.682000  1.0  2.237
  V  V4  1  0.266590  0.429030  0.564540  1.0  2.145
  V  V5  1  0.372490  0.389580  0.379210  1.0  2.2524
  V  V6  1  0.586100  0.467860  0.313090  1.0  2.2183
  V  V7  1  0.411900  0.551420  0.318000  1.0  2.2373
  V  V8  1  0.266590  0.570970  0.435460  1.0  2.1445
  V  V9  1  0.627510  0.620790  0.389580  1.0  2.2524
  V  V10  1  0.413900  0.686910  0.467860  1.0  2.2181
  V  V11  1  0.588100  0.682000  0.551420  1.0  2.2378
  V  V12  1  0.733410  0.564540  0.570970  1.0  2.1445
  V  V13  1  0.627510  0.379210  0.610420  1.0  2.252
  V  V14  1  0.413900  0.313090  0.532140  1.0  2.2143
  V  V15  1  0.588100  0.318000  0.448580  1.0  2.2362
  V  V16  1  0.733410  0.435460  0.429030  1.0  2.1447
  V  V17  1  0.872490  0.110420  0.879210  1.0  2.2525
  V  V18  1  0.086100  0.032140  0.813090  1.0  2.2183
  V  V19  1  0.911900  0.948580  0.818000  1.0  2.2366
  V  V20  1  0.766590  0.929030  0.935460  1.0  2.1447
  V  V21  1  0.872490  0.889580  0.120790  1.0  2.2525
  V  V22  1  0.086100  0.967860  0.186910  1.0  2.2173
  V  V23  1  0.911900  0.051420  0.182000  1.0  2.2371
  V  V24  1  0.766590  0.070970  0.064540  1.0  2.1446
  V  V25  1  0.127510  0.120790  0.110420  1.0  2.2521
  V  V26  1  0.913900  0.186910  0.032140  1.0  2.2185
  V  V27  1  0.088100  0.182000  0.948580  1.0  2.2375
  V  V28  1  0.233410  0.064540  0.929030  1.0  2.1445
  V  V29  1  0.127510  0.879210  0.889580  1.0  2.2521
  V  V30  1  0.913900  0.813090  0.967860  1.0  2.2138
  V  V31  1  0.088100  0.818000  0.051420  1.0  2.2366
  V  V32  1  0.233410  0.935460  0.070970  1.0  2.1449
  Co  Co33  1  0.250000  0.745250  0.754750  1.0  0.7236
  Co  Co34  1  0.250000  0.254750  0.245250  1.0  0.7235
  Co  Co35  1  0.750000  0.754750  0.254750  1.0  0.7235
  Co  Co36  1  0.750000  0.245250  0.745250  1.0  0.7236
  H  H37  1  0.449700  0.685200  0.786000  1.0  0.0888
  H  H38  1  0.553300  0.681900  0.883100  1.0  0.134
  H  H39  1  0.353800  0.727500  0.037700  1.0  0.1339
  H  H40  1  0.252500  0.741300  0.931600  1.0  0.0906
  H  H41  1  0.554600  0.684700  0.223100  1.0  0.0861
  H  H42  1  0.452600  0.670400  0.123200  1.0  0.1309
  H  H43  1  0.643800  0.747700  0.975700  1.0  0.1396
  H  H44  1  0.736700  0.758800  0.076800  1.0  0.0674
  H  H45  1  0.449700  0.314800  0.214000  1.0  0.0885
  H  H46  1  0.553300  0.318100  0.116900  1.0  0.1336
  H  H47  1  0.353800  0.272500  0.962300  1.0  0.1345
  H  H48  1  0.252500  0.258700  0.068400  1.0  0.0908
  H  H49  1  0.554600  0.315300  0.776900  1.0  0.086
  H  H50  1  0.452600  0.329600  0.876800  1.0  0.1311
  H  H51  1  0.643800  0.252300  0.024300  1.0  0.1389
  H  H52  1  0.736700  0.241200  0.923200  1.0  0.0678
  H  H53  1  0.550300  0.786000  0.314800  1.0  0.0888
  H  H54  1  0.446700  0.883100  0.318100  1.0  0.138
  H  H55  1  0.646200  0.037700  0.272500  1.0  0.1326
  H  H56  1  0.747500  0.931600  0.258700  1.0  0.0914
  H  H57  1  0.445400  0.223100  0.315300  1.0  0.0854
  H  H58  1  0.547400  0.123200  0.329600  1.0  0.1327
  H  H59  1  0.356200  0.975700  0.252300  1.0  0.1389
  H  H60  1  0.263300  0.076800  0.241200  1.0  0.0661
  H  H61  1  0.550300  0.214000  0.685200  1.0  0.0886
  H  H62  1  0.446700  0.116900  0.681900  1.0  0.1381
  H  H63  1  0.646200  0.962300  0.727500  1.0  0.134
  H  H64  1  0.747500  0.068400  0.741300  1.0  0.0914
  H  H65  1  0.445400  0.776900  0.684700  1.0  0.0859
  H  H66  1  0.547400  0.876800  0.670400  1.0  0.1322
  H  H67  1  0.356200  0.024300  0.747700  1.0  0.1386
  H  H68  1  0.263300  0.923200  0.758800  1.0  0.0662
  H  H69  1  0.949700  0.185200  0.714000  1.0  0.0888
  H  H70  1  0.053300  0.181900  0.616900  1.0  0.1335
  H  H71  1  0.853800  0.227500  0.462300  1.0  0.1345
  H  H72  1  0.752500  0.241300  0.568400  1.0  0.0908
  H  H73  1  0.054600  0.184700  0.276900  1.0  0.0861
  H  H74  1  0.952600  0.170400  0.376800  1.0  0.1307
  H  H75  1  0.143800  0.247700  0.524300  1.0  0.1391
  H  H76  1  0.236700  0.258800  0.423200  1.0  0.0678
  H  H77  1  0.949700  0.814800  0.286000  1.0  0.0883
  H  H78  1  0.053300  0.818100  0.383100  1.0  0.1345
  H  H79  1  0.853800  0.772500  0.537700  1.0  0.1341
  H  H80  1  0.752500  0.758700  0.431600  1.0  0.0904
  H  H81  1  0.054600  0.815300  0.723100  1.0  0.0856
  H  H82  1  0.952600  0.829600  0.623200  1.0  0.1312
  H  H83  1  0.143800  0.752300  0.475700  1.0  0.1392
  H  H84  1  0.236700  0.741200  0.576800  1.0  0.0675
  H  H85  1  0.050300  0.286000  0.185200  1.0  0.0888
  H  H86  1  0.946700  0.383100  0.181900  1.0  0.1382
  H  H87  1  0.146200  0.537700  0.227500  1.0  0.1326
  H  H88  1  0.247500  0.431600  0.241300  1.0  0.0914
  H  H89  1  0.945400  0.723100  0.184700  1.0  0.085
  H  H90  1  0.047400  0.623200  0.170400  1.0  0.1325
  H  H91  1  0.856200  0.475700  0.247700  1.0  0.1388
  H  H92  1  0.763300  0.576800  0.258800  1.0  0.0656
  H  H93  1  0.050300  0.714000  0.814800  1.0  0.0884
  H  H94  1  0.946700  0.616900  0.818100  1.0  0.1378
  H  H95  1  0.146200  0.462300  0.772500  1.0  0.1338
  H  H96  1  0.247500  0.568400  0.758700  1.0  0.0914
  H  H97  1  0.945400  0.276900  0.815300  1.0  0.086
  H  H98  1  0.047400  0.376800  0.829600  1.0  0.1326
  H  H99  1  0.856200  0.524300  0.752300  1.0  0.1389
  H  H100  1  0.763300  0.423200  0.741200  1.0  0.0664
  C  C101  1  0.430200  0.695900  0.836800  1.0  0.161
  C  C102  1  0.492700  0.693700  0.895000  1.0  -0.1699
  C  C103  1  0.468500  0.708500  0.971300  1.0  0.1006
  C  C104  1  0.374800  0.722100  0.986500  1.0  -0.1661
  C  C105  1  0.313100  0.727500  0.922400  1.0  0.1654
  C  C106  1  0.573300  0.696800  0.172400  1.0  0.1656
  C  C107  1  0.510900  0.689300  0.112500  1.0  -0.1872
  C  C108  1  0.534100  0.709400  0.037300  1.0  0.1096
  C  C109  1  0.623300  0.734600  0.025600  1.0  -0.173
  C  C110  1  0.678200  0.739800  0.086700  1.0  0.1859
  C  C111  1  0.430200  0.304100  0.163200  1.0  0.1611
  C  C112  1  0.492700  0.306300  0.105000  1.0  -0.1705
  C  C113  1  0.468500  0.291500  0.028700  1.0  0.1017
  C  C114  1  0.374800  0.277900  0.013500  1.0  -0.1644
  C  C115  1  0.313100  0.272500  0.077600  1.0  0.1647
  C  C116  1  0.573300  0.303200  0.827600  1.0  0.165
  C  C117  1  0.510900  0.310700  0.887500  1.0  -0.1872
  C  C118  1  0.534100  0.290600  0.962700  1.0  0.1094
  C  C119  1  0.623300  0.265400  0.974400  1.0  -0.1713
  C  C120  1  0.678200  0.260200  0.913300  1.0  0.1855
  C  C121  1  0.569800  0.836800  0.304100  1.0  0.1604
  C  C122  1  0.507300  0.895000  0.306300  1.0  -0.1716
  C  C123  1  0.531500  0.971300  0.291500  1.0  0.1019
  C  C124  1  0.625200  0.986500  0.277900  1.0  -0.1658
  C  C125  1  0.686900  0.922400  0.272500  1.0  0.1652
  C  C126  1  0.426700  0.172400  0.303200  1.0  0.1647
  C  C127  1  0.489100  0.112500  0.310700  1.0  -0.1872
  C  C128  1  0.465900  0.037300  0.290600  1.0  0.1106
  C  C129  1  0.376700  0.025600  0.265400  1.0  -0.1718
  C  C130  1  0.321800  0.086700  0.260200  1.0  0.1842
  C  C131  1  0.569800  0.163200  0.695900  1.0  0.1605
  C  C132  1  0.507300  0.105000  0.693700  1.0  -0.1709
  C  C133  1  0.531500  0.028700  0.708500  1.0  0.1011
  C  C134  1  0.625200  0.013500  0.722100  1.0  -0.1648
  C  C135  1  0.686900  0.077600  0.727500  1.0  0.1651
  C  C136  1  0.426700  0.827600  0.696800  1.0  0.1636
  C  C137  1  0.489100  0.887500  0.689300  1.0  -0.187
  C  C138  1  0.465900  0.962700  0.709400  1.0  0.1106
  C  C139  1  0.376700  0.974400  0.734600  1.0  -0.1729
  C  C140  1  0.321800  0.913300  0.739800  1.0  0.1839
  C  C141  1  0.930200  0.195900  0.663200  1.0  0.1615
  C  C142  1  0.992700  0.193700  0.605000  1.0  -0.1699
  C  C143  1  0.968500  0.208500  0.528700  1.0  0.1011
  C  C144  1  0.874800  0.222100  0.513500  1.0  -0.1641
  C  C145  1  0.813100  0.227500  0.577600  1.0  0.1647
  C  C146  1  0.073300  0.196800  0.327600  1.0  0.1651
  C  C147  1  0.010900  0.189300  0.387500  1.0  -0.1875
  C  C148  1  0.034100  0.209400  0.462700  1.0  0.1091
  C  C149  1  0.123300  0.234600  0.474400  1.0  -0.1716
  C  C150  1  0.178200  0.239800  0.413300  1.0  0.1856
  C  C151  1  0.930200  0.804100  0.336800  1.0  0.161
  C  C152  1  0.992700  0.806300  0.395000  1.0  -0.1703
  C  C153  1  0.968500  0.791500  0.471300  1.0  0.1012
  C  C154  1  0.874800  0.777900  0.486500  1.0  -0.1658
  C  C155  1  0.813100  0.772500  0.422400  1.0  0.1652
  C  C156  1  0.073300  0.803200  0.672400  1.0  0.1651
  C  C157  1  0.010900  0.810700  0.612500  1.0  -0.1871
  C  C158  1  0.034100  0.790600  0.537300  1.0  0.1097
  C  C159  1  0.123300  0.765400  0.525600  1.0  -0.1728
  C  C160  1  0.178200  0.760200  0.586700  1.0  0.1857
  C  C161  1  0.069800  0.336800  0.195900  1.0  0.1602
  C  C162  1  0.007300  0.395000  0.193700  1.0  -0.1711
  C  C163  1  0.031500  0.471300  0.208500  1.0  0.1017
  C  C164  1  0.125200  0.486500  0.222100  1.0  -0.166
  C  C165  1  0.186900  0.422400  0.227500  1.0  0.165
  C  C166  1  0.926700  0.672400  0.196800  1.0  0.1638
  C  C167  1  0.989100  0.612500  0.189300  1.0  -0.1871
  C  C168  1  0.965900  0.537300  0.209400  1.0  0.1107
  C  C169  1  0.876700  0.525600  0.234600  1.0  -0.1717
  C  C170  1  0.821800  0.586700  0.239800  1.0  0.1841
  C  C171  1  0.069800  0.663200  0.804100  1.0  0.1605
  C  C172  1  0.007300  0.605000  0.806300  1.0  -0.1712
  C  C173  1  0.031500  0.528700  0.791500  1.0  0.1014
  C  C174  1  0.125200  0.513500  0.777900  1.0  -0.1645
  C  C175  1  0.186900  0.577600  0.772500  1.0  0.1652
  C  C176  1  0.926700  0.327600  0.803200  1.0  0.1642
  C  C177  1  0.989100  0.387500  0.810700  1.0  -0.1872
  C  C178  1  0.965900  0.462700  0.790600  1.0  0.1107
  C  C179  1  0.876700  0.474400  0.765400  1.0  -0.1723
  C  C180  1  0.821800  0.413300  0.760200  1.0  0.1841
  N  N181  1  0.341000  0.712900  0.848200  1.0  -0.2826
  N  N182  1  0.340300  0.838600  0.720800  1.0  -0.2797
  N  N183  1  0.341000  0.287100  0.151800  1.0  -0.2821
  N  N184  1  0.340300  0.161400  0.279200  1.0  -0.2783
  N  N185  1  0.659000  0.848200  0.287100  1.0  -0.282
  N  N186  1  0.659700  0.720800  0.161400  1.0  -0.2764
  N  N187  1  0.659000  0.151800  0.712900  1.0  -0.2823
  N  N188  1  0.659700  0.279200  0.838600  1.0  -0.2759
  N  N189  1  0.841000  0.212900  0.651800  1.0  -0.2824
  N  N190  1  0.840300  0.338600  0.779200  1.0  -0.2785
  N  N191  1  0.841000  0.787100  0.348200  1.0  -0.2826
  N  N192  1  0.840300  0.661400  0.220800  1.0  -0.2794
  N  N193  1  0.159000  0.348200  0.212900  1.0  -0.2837
  N  N194  1  0.159700  0.220800  0.338600  1.0  -0.2756
  N  N195  1  0.159000  0.651800  0.787100  1.0  -0.2807
  N  N196  1  0.159700  0.779200  0.661400  1.0  -0.2766
  Cl  Cl197  1  0.000000  0.000000  0.000000  1.0  -0.8293
  Cl  Cl198  1  0.500000  0.500000  0.500000  1.0  -0.8293
  O  O199  1  0.317300  0.668200  0.681100  1.0  -0.8124
  O  O200  1  0.461300  0.557000  0.685400  1.0  -1.2249
  O  O201  1  0.324300  0.505400  0.624400  1.0  -1.2984
  O  O202  1  0.463600  0.677300  0.574500  1.0  -1.2477
  O  O203  1  0.320100  0.625200  0.517900  1.0  -1.2745
  O  O204  1  0.374800  0.430600  0.767600  1.0  -0.7012
  O  O205  1  0.177600  0.386700  0.599700  1.0  -0.6872
  O  O206  1  0.621100  0.539600  0.774200  1.0  -0.6905
  O  O207  1  0.622400  0.621100  0.634800  1.0  -1.1537
  O  O208  1  0.317300  0.331800  0.318900  1.0  -0.8118
  O  O209  1  0.461300  0.443000  0.314600  1.0  -1.2245
  O  O210  1  0.324300  0.494600  0.375600  1.0  -1.2986
  O  O211  1  0.463600  0.322700  0.425500  1.0  -1.2472
  O  O212  1  0.320100  0.374800  0.482100  1.0  -1.2752
  O  O213  1  0.374800  0.569400  0.232400  1.0  -0.6995
  O  O214  1  0.177600  0.613300  0.400300  1.0  -0.6862
  O  O215  1  0.621100  0.460400  0.225800  1.0  -0.6899
  O  O216  1  0.622400  0.378900  0.365200  1.0  -1.1519
  O  O217  1  0.682700  0.681100  0.331800  1.0  -0.8132
  O  O218  1  0.538700  0.685400  0.443000  1.0  -1.2243
  O  O219  1  0.675700  0.624400  0.494600  1.0  -1.2981
  O  O220  1  0.536400  0.574500  0.322700  1.0  -1.2467
  O  O221  1  0.679900  0.517900  0.374800  1.0  -1.274
  O  O222  1  0.625200  0.767600  0.569400  1.0  -0.6962
  O  O223  1  0.822400  0.599700  0.613300  1.0  -0.6869
  O  O224  1  0.378900  0.774200  0.460400  1.0  -0.6903
  O  O225  1  0.377600  0.634800  0.378900  1.0  -1.1542
  O  O226  1  0.682700  0.318900  0.668200  1.0  -0.8122
  O  O227  1  0.538700  0.314600  0.557000  1.0  -1.2251
  O  O228  1  0.675700  0.375600  0.505400  1.0  -1.298
  O  O229  1  0.536400  0.425500  0.677300  1.0  -1.2468
  O  O230  1  0.679900  0.482100  0.625200  1.0  -1.2747
  O  O231  1  0.625200  0.232400  0.430600  1.0  -0.6983
  O  O232  1  0.822400  0.400300  0.386700  1.0  -0.6859
  O  O233  1  0.378900  0.225800  0.539600  1.0  -0.689
  O  O234  1  0.377600  0.365200  0.621100  1.0  -1.1519
  O  O235  1  0.817300  0.168200  0.818900  1.0  -0.8114
  O  O236  1  0.961300  0.057000  0.814600  1.0  -1.2244
  O  O237  1  0.824300  0.005400  0.875600  1.0  -1.2985
  O  O238  1  0.963600  0.177300  0.925500  1.0  -1.2472
  O  O239  1  0.820100  0.125200  0.982100  1.0  -1.2748
  O  O240  1  0.874800  0.930600  0.732400  1.0  -0.7005
  O  O241  1  0.677600  0.886700  0.900300  1.0  -0.6867
  O  O242  1  0.121100  0.039600  0.725800  1.0  -0.6901
  O  O243  1  0.122400  0.121100  0.865200  1.0  -1.1535
  O  O244  1  0.817300  0.831800  0.181100  1.0  -0.8115
  O  O245  1  0.961300  0.943000  0.185400  1.0  -1.2248
  O  O246  1  0.824300  0.994600  0.124400  1.0  -1.2987
  O  O247  1  0.963600  0.822700  0.074500  1.0  -1.2476
  O  O248  1  0.820100  0.874800  0.017900  1.0  -1.2749
  O  O249  1  0.874800  0.069400  0.267600  1.0  -0.7006
  O  O250  1  0.677600  0.113300  0.099700  1.0  -0.6869
  O  O251  1  0.121100  0.960400  0.274200  1.0  -0.6905
  O  O252  1  0.122400  0.878900  0.134800  1.0  -1.1519
  O  O253  1  0.182700  0.181100  0.168200  1.0  -0.8122
  O  O254  1  0.038700  0.185400  0.057000  1.0  -1.2248
  O  O255  1  0.175700  0.124400  0.005400  1.0  -1.298
  O  O256  1  0.036400  0.074500  0.177300  1.0  -1.2471
  O  O257  1  0.179900  0.017900  0.125200  1.0  -1.274
  O  O258  1  0.125200  0.267600  0.930600  1.0  -0.6967
  O  O259  1  0.322400  0.099700  0.886700  1.0  -0.6864
  O  O260  1  0.878900  0.274200  0.039600  1.0  -0.6897
  O  O261  1  0.877600  0.134800  0.121100  1.0  -1.1541
  O  O262  1  0.182700  0.818900  0.831800  1.0  -0.8122
  O  O263  1  0.038700  0.814600  0.943000  1.0  -1.2246
  O  O264  1  0.175700  0.875600  0.994600  1.0  -1.298
  O  O265  1  0.036400  0.925500  0.822700  1.0  -1.2463
  O  O266  1  0.179900  0.982100  0.874800  1.0  -1.2748
  O  O267  1  0.125200  0.732400  0.069400  1.0  -0.6981
  O  O268  1  0.322400  0.900300  0.113300  1.0  -0.6863
  O  O269  1  0.878900  0.725800  0.960400  1.0  -0.6893
  O  O270  1  0.877600  0.865200  0.878900  1.0  -1.1518
  O  O271  1  0.198600  0.500000  0.500000  1.0  -0.849
  O  O272  1  0.801400  0.500000  0.500000  1.0  -0.8502
  O  O273  1  0.698600  0.000000  0.000000  1.0  -0.849
  O  O274  1  0.301400  0.000000  0.000000  1.0  -0.8502
