# generated using pymatgen
data_V8NiH16C20N4O13
_symmetry_space_group_name_H-M   'P 1'
_cell_length_a   17.09100000
_cell_length_b   17.09100000
_cell_length_c   14.61100000
_cell_angle_alpha   90.00000000
_cell_angle_beta   90.00000000
_cell_angle_gamma   90.00000000
_symmetry_Int_Tables_number   1
_chemical_formula_structural   V8NiH16C20N4O13
_chemical_formula_sum   'V32 Ni4 H64 C80 N16 O52'
_cell_volume   4267.90642769
_cell_formula_units_Z   4
loop_
 _symmetry_equiv_pos_site_id
 _symmetry_equiv_pos_as_xyz
  1  'x, y, z'
loop_
 _atom_site_type_symbol
 _atom_site_label
 _atom_site_symmetry_multiplicity
 _atom_site_fract_x
 _atom_site_fract_y
 _atom_site_fract_z
 _atom_site_occupancy
 _atom_site_charge
  V  V1  1  0.378710  0.386820  0.628100  1.0  1.9055
  V  V2  1  0.685440  0.452660  0.588690  1.0  1.358
  V  V3  1  0.533210  0.311330  0.587040  1.0  1.2896
  V  V4  1  0.566270  0.428940  0.730170  1.0  1.2889
  V  V5  1  0.621290  0.613180  0.628100  1.0  1.9077
  V  V6  1  0.314560  0.547340  0.588690  1.0  1.3575
  V  V7  1  0.466790  0.688670  0.587040  1.0  1.3006
  V  V8  1  0.433730  0.571060  0.730170  1.0  1.2884
  V  V9  1  0.386820  0.621290  0.371900  1.0  1.9055
  V  V10  1  0.452660  0.314560  0.411310  1.0  1.3342
  V  V11  1  0.311330  0.466790  0.412960  1.0  1.3109
  V  V12  1  0.428940  0.433730  0.269830  1.0  1.2952
  V  V13  1  0.613180  0.378710  0.371900  1.0  1.9075
  V  V14  1  0.547340  0.685440  0.411310  1.0  1.3484
  V  V15  1  0.688670  0.533210  0.412960  1.0  1.3087
  V  V16  1  0.571060  0.566270  0.269830  1.0  1.2934
  V  V17  1  0.878710  0.113180  0.128100  1.0  1.9058
  V  V18  1  0.185440  0.047340  0.088690  1.0  1.3579
  V  V19  1  0.033210  0.188670  0.087040  1.0  1.3014
  V  V20  1  0.066270  0.071060  0.230170  1.0  1.2883
  V  V21  1  0.121290  0.886820  0.128100  1.0  1.9077
  V  V22  1  0.814560  0.952660  0.088690  1.0  1.3575
  V  V23  1  0.966790  0.811330  0.087040  1.0  1.2891
  V  V24  1  0.933730  0.928940  0.230170  1.0  1.2889
  V  V25  1  0.886820  0.878710  0.871900  1.0  1.9052
  V  V26  1  0.952660  0.185440  0.911310  1.0  1.3475
  V  V27  1  0.811330  0.033210  0.912960  1.0  1.3099
  V  V28  1  0.928940  0.066270  0.769830  1.0  1.2947
  V  V29  1  0.113180  0.121290  0.871900  1.0  1.9076
  V  V30  1  0.047340  0.814560  0.911310  1.0  1.3346
  V  V31  1  0.188670  0.966790  0.912960  1.0  1.3097
  V  V32  1  0.071060  0.933730  0.769830  1.0  1.2941
  Ni  Ni33  1  0.246390  0.253610  0.750000  1.0  0.6618
  Ni  Ni34  1  0.753610  0.746390  0.750000  1.0  0.6622
  Ni  Ni35  1  0.253610  0.753610  0.250000  1.0  0.6624
  Ni  Ni36  1  0.746390  0.246390  0.250000  1.0  0.6615
  H  H37  1  0.068900  0.261500  0.745400  1.0  0.0662
  H  H38  1  0.965400  0.267400  0.647700  1.0  0.1193
  H  H39  1  0.214800  0.318500  0.555500  1.0  0.0599
  H  H40  1  0.777600  0.318400  0.444500  1.0  0.0803
  H  H41  1  0.877900  0.330500  0.547100  1.0  0.1117
  H  H42  1  0.923900  0.249300  0.255300  1.0  0.0657
  H  H43  1  0.026900  0.254800  0.355000  1.0  0.1234
  H  H44  1  0.118000  0.318100  0.447300  1.0  0.1117
  H  H45  1  0.931100  0.738500  0.745400  1.0  0.0659
  H  H46  1  0.034600  0.732600  0.647700  1.0  0.1194
  H  H47  1  0.785200  0.681500  0.555500  1.0  0.0597
  H  H48  1  0.222400  0.681600  0.444500  1.0  0.0811
  H  H49  1  0.122100  0.669500  0.547100  1.0  0.1115
  H  H50  1  0.076100  0.750700  0.255300  1.0  0.0657
  H  H51  1  0.973100  0.745200  0.355000  1.0  0.1236
  H  H52  1  0.882000  0.681900  0.447300  1.0  0.1112
  H  H53  1  0.261500  0.931100  0.254600  1.0  0.0657
  H  H54  1  0.267400  0.034600  0.352300  1.0  0.119
  H  H55  1  0.318500  0.785200  0.444500  1.0  0.0629
  H  H56  1  0.318400  0.222400  0.555500  1.0  0.0819
  H  H57  1  0.330500  0.122100  0.452900  1.0  0.1122
  H  H58  1  0.249300  0.076100  0.744700  1.0  0.065
  H  H59  1  0.254800  0.973100  0.645000  1.0  0.1238
  H  H60  1  0.318100  0.882000  0.552700  1.0  0.1117
  H  H61  1  0.738500  0.068900  0.254600  1.0  0.0657
  H  H62  1  0.732600  0.965400  0.352300  1.0  0.1191
  H  H63  1  0.681500  0.214800  0.444500  1.0  0.063
  H  H64  1  0.681600  0.777600  0.555500  1.0  0.0825
  H  H65  1  0.669500  0.877900  0.452900  1.0  0.1124
  H  H66  1  0.750700  0.923900  0.744700  1.0  0.065
  H  H67  1  0.745200  0.026900  0.645000  1.0  0.1238
  H  H68  1  0.681900  0.118000  0.552700  1.0  0.1119
  H  H69  1  0.568900  0.238500  0.245400  1.0  0.067
  H  H70  1  0.465400  0.232600  0.147700  1.0  0.1193
  H  H71  1  0.714800  0.181500  0.055500  1.0  0.0596
  H  H72  1  0.277600  0.181600  0.944500  1.0  0.0804
  H  H73  1  0.377900  0.169500  0.047100  1.0  0.1118
  H  H74  1  0.423900  0.250700  0.755300  1.0  0.0654
  H  H75  1  0.526900  0.245200  0.855000  1.0  0.1234
  H  H76  1  0.618000  0.181900  0.947300  1.0  0.1115
  H  H77  1  0.431100  0.761500  0.245400  1.0  0.0653
  H  H78  1  0.534600  0.767400  0.147700  1.0  0.1194
  H  H79  1  0.285200  0.818500  0.055500  1.0  0.0602
  H  H80  1  0.722400  0.818400  0.944500  1.0  0.0808
  H  H81  1  0.622100  0.830500  0.047100  1.0  0.1117
  H  H82  1  0.576100  0.749300  0.755300  1.0  0.0659
  H  H83  1  0.473100  0.754800  0.855000  1.0  0.1234
  H  H84  1  0.382000  0.818100  0.947300  1.0  0.1113
  H  H85  1  0.761500  0.568900  0.754600  1.0  0.0656
  H  H86  1  0.767400  0.465400  0.852300  1.0  0.1191
  H  H87  1  0.818500  0.714800  0.944500  1.0  0.0623
  H  H88  1  0.818400  0.277600  0.055500  1.0  0.0825
  H  H89  1  0.830500  0.377900  0.952900  1.0  0.1122
  H  H90  1  0.749300  0.423900  0.244700  1.0  0.065
  H  H91  1  0.754800  0.526900  0.145000  1.0  0.1239
  H  H92  1  0.818100  0.618000  0.052700  1.0  0.1117
  H  H93  1  0.238500  0.431100  0.754600  1.0  0.0656
  H  H94  1  0.232600  0.534600  0.852300  1.0  0.1189
  H  H95  1  0.181500  0.285200  0.944500  1.0  0.0636
  H  H96  1  0.181600  0.722400  0.055500  1.0  0.0824
  H  H97  1  0.169500  0.622100  0.952900  1.0  0.1123
  H  H98  1  0.250700  0.576100  0.244700  1.0  0.0651
  H  H99  1  0.245200  0.473100  0.145000  1.0  0.1238
  H  H100  1  0.181900  0.382000  0.052700  1.0  0.1119
  C  C101  1  0.078600  0.272600  0.684100  1.0  0.1794
  C  C102  1  0.015800  0.275800  0.625900  1.0  -0.2203
  C  C103  1  0.028600  0.292100  0.532700  1.0  0.0701
  C  C104  1  0.164400  0.304800  0.573100  1.0  0.1631
  C  C105  1  0.828000  0.304600  0.426600  1.0  0.1396
  C  C106  1  0.888100  0.311700  0.488600  1.0  -0.1838
  C  C107  1  0.963500  0.291000  0.465000  1.0  0.0632
  C  C108  1  0.914200  0.263300  0.315700  1.0  0.1662
  C  C109  1  0.976700  0.267400  0.374700  1.0  -0.2035
  C  C110  1  0.105700  0.306800  0.507900  1.0  -0.2315
  C  C111  1  0.921400  0.727400  0.684100  1.0  0.1792
  C  C112  1  0.984200  0.724200  0.625900  1.0  -0.2204
  C  C113  1  0.971400  0.707900  0.532700  1.0  0.0698
  C  C114  1  0.835600  0.695200  0.573100  1.0  0.1631
  C  C115  1  0.172000  0.695400  0.426600  1.0  0.1409
  C  C116  1  0.111900  0.688300  0.488600  1.0  -0.1814
  C  C117  1  0.036500  0.709000  0.465000  1.0  0.064
  C  C118  1  0.085800  0.736700  0.315700  1.0  0.1663
  C  C119  1  0.023300  0.732600  0.374700  1.0  -0.2051
  C  C120  1  0.894300  0.693200  0.507900  1.0  -0.2309
  C  C121  1  0.272600  0.921400  0.315900  1.0  0.1786
  C  C122  1  0.275800  0.984200  0.374100  1.0  -0.2204
  C  C123  1  0.292100  0.971400  0.467300  1.0  0.0699
  C  C124  1  0.304800  0.835600  0.426900  1.0  0.1641
  C  C125  1  0.304600  0.172000  0.573400  1.0  0.1399
  C  C126  1  0.311700  0.111900  0.511400  1.0  -0.1847
  C  C127  1  0.291000  0.036500  0.535000  1.0  0.0634
  C  C128  1  0.263300  0.085800  0.684300  1.0  0.1631
  C  C129  1  0.267400  0.023300  0.625300  1.0  -0.2053
  C  C130  1  0.306800  0.894300  0.492100  1.0  -0.2322
  C  C131  1  0.727400  0.078600  0.315900  1.0  0.1775
  C  C132  1  0.724200  0.015800  0.374100  1.0  -0.2206
  C  C133  1  0.707900  0.028600  0.467300  1.0  0.0698
  C  C134  1  0.695200  0.164400  0.426900  1.0  0.1645
  C  C135  1  0.695400  0.828000  0.573400  1.0  0.1395
  C  C136  1  0.688300  0.888100  0.511400  1.0  -0.1837
  C  C137  1  0.709000  0.963500  0.535000  1.0  0.0646
  C  C138  1  0.736700  0.914200  0.684300  1.0  0.1647
  C  C139  1  0.732600  0.976700  0.625300  1.0  -0.2049
  C  C140  1  0.693200  0.105700  0.492100  1.0  -0.2331
  C  C141  1  0.578600  0.227400  0.184100  1.0  0.1791
  C  C142  1  0.515800  0.224200  0.125900  1.0  -0.2206
  C  C143  1  0.528600  0.207900  0.032700  1.0  0.0698
  C  C144  1  0.664400  0.195200  0.073100  1.0  0.1627
  C  C145  1  0.328000  0.195400  0.926600  1.0  0.1399
  C  C146  1  0.388100  0.188300  0.988600  1.0  -0.1833
  C  C147  1  0.463500  0.209000  0.965000  1.0  0.0631
  C  C148  1  0.414200  0.236700  0.815700  1.0  0.1663
  C  C149  1  0.476700  0.232600  0.874700  1.0  -0.2046
  C  C150  1  0.605700  0.193200  0.007900  1.0  -0.2301
  C  C151  1  0.421400  0.772600  0.184100  1.0  0.1795
  C  C152  1  0.484200  0.775800  0.125900  1.0  -0.2201
  C  C153  1  0.471400  0.792100  0.032700  1.0  0.07
  C  C154  1  0.335600  0.804800  0.073100  1.0  0.1629
  C  C155  1  0.672000  0.804600  0.926600  1.0  0.1409
  C  C156  1  0.611900  0.811700  0.988600  1.0  -0.1819
  C  C157  1  0.536500  0.791000  0.965000  1.0  0.0644
  C  C158  1  0.585800  0.763300  0.815700  1.0  0.1662
  C  C159  1  0.523300  0.767400  0.874700  1.0  -0.2042
  C  C160  1  0.394300  0.806800  0.007900  1.0  -0.2322
  C  C161  1  0.772600  0.578600  0.815900  1.0  0.1769
  C  C162  1  0.775800  0.515800  0.874100  1.0  -0.2198
  C  C163  1  0.792100  0.528600  0.967300  1.0  0.07
  C  C164  1  0.804800  0.664400  0.926900  1.0  0.165
  C  C165  1  0.804600  0.328000  0.073400  1.0  0.1389
  C  C166  1  0.811700  0.388100  0.011400  1.0  -0.1844
  C  C167  1  0.791000  0.463500  0.035000  1.0  0.0637
  C  C168  1  0.763300  0.414200  0.184300  1.0  0.1636
  C  C169  1  0.767400  0.476700  0.125300  1.0  -0.2053
  C  C170  1  0.806800  0.605700  0.992100  1.0  -0.2321
  C  C171  1  0.227400  0.421400  0.815900  1.0  0.1793
  C  C172  1  0.224200  0.484200  0.874100  1.0  -0.2214
  C  C173  1  0.207900  0.471400  0.967300  1.0  0.0699
  C  C174  1  0.195200  0.335600  0.926900  1.0  0.1637
  C  C175  1  0.195400  0.672000  0.073400  1.0  0.14
  C  C176  1  0.188300  0.611900  0.011400  1.0  -0.1841
  C  C177  1  0.209000  0.536500  0.035000  1.0  0.0642
  C  C178  1  0.236700  0.585800  0.184300  1.0  0.1641
  C  C179  1  0.232600  0.523300  0.125300  1.0  -0.2043
  C  C180  1  0.193200  0.394300  0.992100  1.0  -0.2335
  N  N181  1  0.152400  0.284300  0.659100  1.0  -0.3221
  N  N182  1  0.278300  0.160200  0.659800  1.0  -0.3224
  N  N183  1  0.847600  0.715700  0.659100  1.0  -0.3227
  N  N184  1  0.721700  0.839800  0.659800  1.0  -0.3221
  N  N185  1  0.284300  0.847600  0.340900  1.0  -0.3278
  N  N186  1  0.160200  0.721700  0.340200  1.0  -0.318
  N  N187  1  0.715700  0.152400  0.340900  1.0  -0.3274
  N  N188  1  0.839800  0.278300  0.340200  1.0  -0.3196
  N  N189  1  0.652400  0.215700  0.159100  1.0  -0.3218
  N  N190  1  0.778300  0.339800  0.159800  1.0  -0.3223
  N  N191  1  0.347600  0.784300  0.159100  1.0  -0.3227
  N  N192  1  0.221700  0.660200  0.159800  1.0  -0.3223
  N  N193  1  0.784300  0.652400  0.840900  1.0  -0.327
  N  N194  1  0.660200  0.778300  0.840200  1.0  -0.3183
  N  N195  1  0.215700  0.347600  0.840900  1.0  -0.3285
  N  N196  1  0.339800  0.221700  0.840200  1.0  -0.3197
  O  O197  1  0.480900  0.370700  0.682000  1.0  -1.0249
  O  O198  1  0.620400  0.369200  0.623400  1.0  -0.9732
  O  O199  1  0.368900  0.490800  0.682200  1.0  -1.036
  O  O200  1  0.313500  0.440500  0.538900  1.0  -0.9882
  O  O201  1  0.427100  0.320300  0.537000  1.0  -1.0262
  O  O202  1  0.318800  0.328300  0.681800  1.0  -0.8064
  O  O203  1  0.519100  0.629300  0.682000  1.0  -1.0265
  O  O204  1  0.379600  0.630800  0.623400  1.0  -0.9767
  O  O205  1  0.631100  0.509200  0.682200  1.0  -1.0361
  O  O206  1  0.686500  0.559500  0.538900  1.0  -0.9874
  O  O207  1  0.572900  0.679700  0.537000  1.0  -1.0267
  O  O208  1  0.681200  0.671700  0.681800  1.0  -0.8061
  O  O209  1  0.370700  0.519100  0.318000  1.0  -1.0237
  O  O210  1  0.369200  0.379600  0.376600  1.0  -0.9768
  O  O211  1  0.490800  0.631100  0.317800  1.0  -1.0356
  O  O212  1  0.440500  0.686500  0.461100  1.0  -0.9897
  O  O213  1  0.320300  0.572900  0.463000  1.0  -1.0251
  O  O214  1  0.328300  0.681200  0.318200  1.0  -0.8059
  O  O215  1  0.629300  0.480900  0.318000  1.0  -1.0242
  O  O216  1  0.630800  0.620400  0.376600  1.0  -0.9754
  O  O217  1  0.509200  0.368900  0.317800  1.0  -1.0378
  O  O218  1  0.559500  0.313500  0.461100  1.0  -0.9889
  O  O219  1  0.679700  0.427100  0.463000  1.0  -1.0262
  O  O220  1  0.671700  0.318800  0.318200  1.0  -0.8057
  O  O221  1  0.980900  0.129300  0.182000  1.0  -1.0248
  O  O222  1  0.120400  0.130800  0.123400  1.0  -0.9745
  O  O223  1  0.868900  0.009200  0.182200  1.0  -1.0361
  O  O224  1  0.813500  0.059500  0.038900  1.0  -0.9879
  O  O225  1  0.927100  0.179700  0.037000  1.0  -1.0264
  O  O226  1  0.818800  0.171700  0.181800  1.0  -0.8065
  O  O227  1  0.019100  0.870700  0.182000  1.0  -1.0266
  O  O228  1  0.879600  0.869200  0.123400  1.0  -0.9755
  O  O229  1  0.131100  0.990800  0.182200  1.0  -1.0361
  O  O230  1  0.186500  0.940500  0.038900  1.0  -0.988
  O  O231  1  0.072900  0.820300  0.037000  1.0  -1.0262
  O  O232  1  0.181200  0.828300  0.181800  1.0  -0.8061
  O  O233  1  0.870700  0.980900  0.818000  1.0  -1.0243
  O  O234  1  0.869200  0.120400  0.876600  1.0  -0.9773
  O  O235  1  0.990800  0.868900  0.817800  1.0  -1.0358
  O  O236  1  0.940500  0.813500  0.961100  1.0  -0.989
  O  O237  1  0.820300  0.927100  0.963000  1.0  -1.0258
  O  O238  1  0.828300  0.818800  0.818200  1.0  -0.806
  O  O239  1  0.129300  0.019100  0.818000  1.0  -1.0237
  O  O240  1  0.130800  0.879600  0.876600  1.0  -0.9745
  O  O241  1  0.009200  0.131100  0.817800  1.0  -1.0378
  O  O242  1  0.059500  0.186500  0.961100  1.0  -0.9898
  O  O243  1  0.179700  0.072900  0.963000  1.0  -1.0254
  O  O244  1  0.171700  0.181200  0.818200  1.0  -0.8057
  O  O245  1  0.500000  0.500000  0.782400  1.0  -0.7193
  O  O246  1  0.500000  0.500000  0.217600  1.0  -0.7175
  O  O247  1  0.000000  0.000000  0.282400  1.0  -0.7193
  O  O248  1  0.000000  0.000000  0.717600  1.0  -0.7175
