# generated using pymatgen
data_Eu2H40C52O19
_symmetry_space_group_name_H-M   'P 1'
_cell_length_a   7.10910000
_cell_length_b   14.53990000
_cell_length_c   16.77540000
_cell_angle_alpha   104.11900000
_cell_angle_beta   102.23300000
_cell_angle_gamma   90.00000000
_symmetry_Int_Tables_number   1
_chemical_formula_structural   Eu2H40C52O19
_chemical_formula_sum   'Eu2 H40 C52 O19'
_cell_volume   1640.98877987
_cell_formula_units_Z   1
loop_
 _symmetry_equiv_pos_site_id
 _symmetry_equiv_pos_as_xyz
  1  'x, y, z'
loop_
 _atom_site_type_symbol
 _atom_site_label
 _atom_site_symmetry_multiplicity
 _atom_site_fract_x
 _atom_site_fract_y
 _atom_site_fract_z
 _atom_site_occupancy
 _atom_site_charge
  Eu  Eu1  1  0.509070  0.968820  0.502560  1.0  2.1319
  Eu  Eu2  1  0.006510  0.031180  0.497440  1.0  2.13
  H  H3  1  0.287400  0.527000  0.100400  1.0  0.0706
  H  H4  1  0.309700  0.433800  0.033000  1.0  0.07
  H  H5  1  0.889800  0.495000  0.113800  1.0  0.0723
  H  H6  1  0.914900  0.428200  0.175800  1.0  0.0762
  H  H7  1  0.376000  0.345600  0.132200  1.0  0.0725
  H  H8  1  0.360000  0.434000  0.205800  1.0  0.0703
  H  H9  1  0.952500  0.287600  0.070600  1.0  0.0795
  H  H10  1  0.890300  0.353600  0.009200  1.0  0.0583
  H  H11  1  0.587200  0.340200  0.251400  1.0  0.1188
  H  H12  1  0.789000  0.262300  0.338000  1.0  0.0962
  H  H13  1  0.337400  0.127200  0.372800  1.0  0.1026
  H  H14  1  0.135400  0.203000  0.283400  1.0  0.1074
  H  H15  1  0.261000  0.209800  0.865600  1.0  0.1107
  H  H16  1  0.118300  0.119500  0.732000  1.0  0.1068
  H  H17  1  0.611400  0.127300  0.798800  1.0  0.1019
  H  H18  1  0.757100  0.215400  0.934000  1.0  0.1283
  H  H19  1  0.708500  0.562100  0.203200  1.0  0.1172
  H  H20  1  0.561900  0.683500  0.280600  1.0  0.0967
  H  H21  1  0.073200  0.790000  0.424000  1.0  0.0944
  H  H22  1  0.222200  0.671700  0.343400  1.0  0.1199
  H  H23  1  0.187000  0.473000  0.899600  1.0  0.0716
  H  H24  1  0.276700  0.566200  0.967000  1.0  0.0755
  H  H25  1  0.776000  0.505000  0.886200  1.0  0.0726
  H  H26  1  0.739100  0.571800  0.824200  1.0  0.0765
  H  H27  1  0.243800  0.654400  0.867800  1.0  0.0724
  H  H28  1  0.154200  0.566000  0.794200  1.0  0.071
  H  H29  1  0.881900  0.712400  0.929400  1.0  0.0794
  H  H30  1  0.881100  0.646400  0.990800  1.0  0.0589
  H  H31  1  0.335800  0.659800  0.748600  1.0  0.1207
  H  H32  1  0.451000  0.737700  0.662000  1.0  0.0961
  H  H33  1  0.964600  0.872800  0.627200  1.0  0.1027
  H  H34  1  0.852000  0.797000  0.716600  1.0  0.108
  H  H35  1  0.395400  0.790200  0.134400  1.0  0.11
  H  H36  1  0.386300  0.880500  0.268000  1.0  0.1073
  H  H37  1  0.812600  0.872700  0.201200  1.0  0.0997
  H  H38  1  0.823100  0.784600  0.066000  1.0  0.1261
  H  H39  1  0.505300  0.437900  0.796800  1.0  0.1163
  H  H40  1  0.281300  0.316500  0.719400  1.0  0.0955
  H  H41  1  0.649200  0.210000  0.576000  1.0  0.0942
  H  H42  1  0.878800  0.328300  0.656600  1.0  0.1173
  C  C43  1  0.122000  0.413100  0.106400  1.0  -0.0118
  C  C44  1  0.218000  0.471500  0.060400  1.0  0.0557
  C  C45  1  0.983400  0.469100  0.152400  1.0  0.0633
  C  C46  1  0.288700  0.379700  0.164800  1.0  0.0615
  C  C47  1  0.000200  0.329900  0.041800  1.0  0.0719
  C  C48  1  0.341400  0.277700  0.258200  1.0  0.3277
  C  C49  1  0.536300  0.296600  0.274600  1.0  -0.2952
  C  C50  1  0.656400  0.249300  0.326800  1.0  -0.0198
  C  C51  1  0.588100  0.184600  0.362200  1.0  -0.1492
  C  C52  1  0.388800  0.168400  0.347600  1.0  -0.0941
  C  C53  1  0.268200  0.215000  0.294400  1.0  -0.1588
  C  C54  1  0.022000  0.222800  0.911600  1.0  0.2503
  C  C55  1  0.129600  0.193200  0.852200  1.0  -0.1702
  C  C56  1  0.044800  0.138600  0.772400  1.0  -0.0454
  C  C57  1  0.849200  0.112900  0.753000  1.0  -0.1314
  C  C58  1  0.743100  0.142900  0.812200  1.0  -0.0366
  C  C59  1  0.829700  0.197100  0.893200  1.0  -0.2588
  C  C60  1  0.747700  0.058800  0.666800  1.0  0.6589
  C  C61  1  0.979800  0.608400  0.261600  1.0  0.2773
  C  C62  1  0.783000  0.609100  0.246000  1.0  -0.2525
  C  C63  1  0.695200  0.680000  0.294400  1.0  -0.0156
  C  C64  1  0.802900  0.745400  0.362400  1.0  -0.114
  C  C65  1  0.999500  0.744200  0.379600  1.0  -0.0326
  C  C66  1  0.088900  0.674300  0.330400  1.0  -0.1491
  C  C67  1  0.702000  0.822900  0.412000  1.0  0.6864
  C  C68  1  0.721900  0.135200  0.416000  1.0  0.6662
  C  C69  1  0.015600  0.586900  0.893600  1.0  -0.013
  C  C70  1  0.157600  0.528500  0.939600  1.0  0.0543
  C  C71  1  0.831000  0.530900  0.847600  1.0  0.0629
  C  C72  1  0.123900  0.620300  0.835200  1.0  0.0623
  C  C73  1  0.958400  0.670100  0.958200  1.0  0.0726
  C  C74  1  0.083200  0.722300  0.741800  1.0  0.3263
  C  C75  1  0.261700  0.703400  0.725400  1.0  -0.293
  C  C76  1  0.329600  0.750700  0.673200  1.0  -0.0196
  C  C77  1  0.225900  0.815400  0.637800  1.0  -0.1513
  C  C78  1  0.041200  0.831600  0.652400  1.0  -0.0913
  C  C79  1  0.973800  0.785000  0.705600  1.0  -0.1556
  C  C80  1  0.110400  0.777200  0.088400  1.0  0.2499
  C  C81  1  0.277400  0.806800  0.147800  1.0  -0.1705
  C  C82  1  0.272400  0.861400  0.227600  1.0  -0.0438
  C  C83  1  0.096200  0.887100  0.247000  1.0  -0.1313
  C  C84  1  0.930900  0.857100  0.187800  1.0  -0.0374
  C  C85  1  0.936500  0.802900  0.106800  1.0  -0.2575
  C  C86  1  0.080900  0.941200  0.333200  1.0  0.6607
  C  C87  1  0.718200  0.391600  0.738400  1.0  0.2765
  C  C88  1  0.537000  0.390900  0.754000  1.0  -0.2552
  C  C89  1  0.400800  0.320000  0.705600  1.0  -0.0135
  C  C90  1  0.440500  0.254600  0.637600  1.0  -0.1142
  C  C91  1  0.619900  0.255800  0.620400  1.0  -0.0347
  C  C92  1  0.758500  0.325700  0.669600  1.0  -0.1494
  C  C93  1  0.290000  0.177100  0.588000  1.0  0.6862
  C  C94  1  0.305900  0.864800  0.584000  1.0  0.6682
  O  O95  1  0.831100  0.040500  0.604800  1.0  -0.8068
  O  O96  1  0.580420  0.033300  0.654840  1.0  -0.6193
  O  O97  1  0.900500  0.159300  0.435200  1.0  -0.617
  O  O98  1  0.659400  0.066400  0.440400  1.0  -0.7452
  O  O99  1  0.802100  0.888900  0.471200  1.0  -0.7585
  O  O100  1  0.523900  0.823400  0.396200  1.0  -0.6429
  O  O101  1  0.211300  0.318000  0.207400  1.0  -0.2826
  O  O102  1  0.088800  0.544500  0.218400  1.0  -0.2736
  O  O103  1  0.114600  0.279300  0.987200  1.0  -0.2824
  O  O104  1  0.226300  0.959500  0.395200  1.0  -0.8058
  O  O105  1  0.925580  0.966700  0.345160  1.0  -0.6205
  O  O106  1  0.465300  0.840700  0.564800  1.0  -0.6183
  O  O107  1  0.219000  0.933600  0.559600  1.0  -0.747
  O  O108  1  0.330900  0.111100  0.528800  1.0  -0.7574
  O  O109  1  0.127700  0.176600  0.603800  1.0  -0.642
  O  O110  1  0.003900  0.682000  0.792600  1.0  -0.2833
  O  O111  1  0.870400  0.455500  0.781600  1.0  -0.2727
  O  O112  1  0.127400  0.720700  0.012800  1.0  -0.2853
  O  O113  1  0.077400  0.500000  0.000000  1.0  -0.3168
