# generated using pymatgen
data_Cu3H6C12N6O7
_symmetry_space_group_name_H-M   'P 1'
_cell_length_a   21.33360000
_cell_length_b   21.33360000
_cell_length_c   21.33360000
_cell_angle_alpha   60.00000000
_cell_angle_beta   60.00000000
_cell_angle_gamma   60.00000000
_symmetry_Int_Tables_number   1
_chemical_formula_structural   Cu3H6C12N6O7
_chemical_formula_sum   'Cu24 H48 C96 N48 O56'
_cell_volume   6865.58338062
_cell_formula_units_Z   8
loop_
 _symmetry_equiv_pos_site_id
 _symmetry_equiv_pos_as_xyz
  1  'x, y, z'
loop_
 _atom_site_type_symbol
 _atom_site_label
 _atom_site_symmetry_multiplicity
 _atom_site_fract_x
 _atom_site_fract_y
 _atom_site_fract_z
 _atom_site_occupancy
 _atom_site_charge
  Cu  Cu1  1  0.022360  0.649200  0.125740  1.0  0.8921
  Cu  Cu2  1  0.649200  0.022360  0.202700  1.0  0.8925
  Cu  Cu3  1  0.125740  0.202700  0.022360  1.0  0.8922
  Cu  Cu4  1  0.202700  0.125740  0.649200  1.0  0.8914
  Cu  Cu5  1  0.022360  0.125740  0.202700  1.0  0.8935
  Cu  Cu6  1  0.649200  0.202700  0.125740  1.0  0.892
  Cu  Cu7  1  0.125740  0.022360  0.649200  1.0  0.8925
  Cu  Cu8  1  0.202700  0.649200  0.022360  1.0  0.892
  Cu  Cu9  1  0.022360  0.202700  0.649200  1.0  0.8933
  Cu  Cu10  1  0.649200  0.125740  0.022360  1.0  0.8926
  Cu  Cu11  1  0.125740  0.649200  0.202700  1.0  0.8922
  Cu  Cu12  1  0.202700  0.022360  0.125740  1.0  0.8908
  Cu  Cu13  1  0.522360  0.149200  0.702700  1.0  0.8921
  Cu  Cu14  1  0.149200  0.522360  0.625740  1.0  0.8925
  Cu  Cu15  1  0.625740  0.702700  0.149200  1.0  0.8914
  Cu  Cu16  1  0.702700  0.625740  0.522360  1.0  0.8922
  Cu  Cu17  1  0.522360  0.625740  0.149200  1.0  0.8928
  Cu  Cu18  1  0.149200  0.702700  0.522360  1.0  0.8923
  Cu  Cu19  1  0.625740  0.522360  0.702700  1.0  0.893
  Cu  Cu20  1  0.702700  0.149200  0.625740  1.0  0.8921
  Cu  Cu21  1  0.522360  0.702700  0.625740  1.0  0.8927
  Cu  Cu22  1  0.149200  0.625740  0.702700  1.0  0.8923
  Cu  Cu23  1  0.625740  0.149200  0.522360  1.0  0.8926
  Cu  Cu24  1  0.702700  0.522360  0.149200  1.0  0.8914
  H  H25  1  0.872800  0.639400  0.278400  1.0  0.1125
  H  H26  1  0.988400  0.661400  0.363000  1.0  0.1101
  H  H27  1  0.639400  0.872800  0.209400  1.0  0.1133
  H  H28  1  0.661400  0.988400  0.987200  1.0  0.1106
  H  H29  1  0.278400  0.209400  0.872800  1.0  0.1149
  H  H30  1  0.363000  0.987200  0.988400  1.0  0.1125
  H  H31  1  0.209400  0.278400  0.639400  1.0  0.1135
  H  H32  1  0.987200  0.363000  0.661400  1.0  0.1116
  H  H33  1  0.872800  0.278400  0.209400  1.0  0.1138
  H  H34  1  0.988400  0.363000  0.987200  1.0  0.1115
  H  H35  1  0.639400  0.209400  0.278400  1.0  0.1151
  H  H36  1  0.661400  0.987200  0.363000  1.0  0.112
  H  H37  1  0.278400  0.872800  0.639400  1.0  0.1134
  H  H38  1  0.363000  0.988400  0.661400  1.0  0.1114
  H  H39  1  0.209400  0.639400  0.872800  1.0  0.1135
  H  H40  1  0.987200  0.661400  0.988400  1.0  0.1115
  H  H41  1  0.872800  0.209400  0.639400  1.0  0.1155
  H  H42  1  0.988400  0.987200  0.661400  1.0  0.1114
  H  H43  1  0.639400  0.278400  0.872800  1.0  0.1143
  H  H44  1  0.661400  0.363000  0.988400  1.0  0.1084
  H  H45  1  0.278400  0.639400  0.209400  1.0  0.1132
  H  H46  1  0.363000  0.661400  0.987200  1.0  0.1095
  H  H47  1  0.209400  0.872800  0.278400  1.0  0.1144
  H  H48  1  0.987200  0.988400  0.363000  1.0  0.1111
  H  H49  1  0.372800  0.139400  0.709400  1.0  0.1127
  H  H50  1  0.488400  0.161400  0.487200  1.0  0.1108
  H  H51  1  0.139400  0.372800  0.778400  1.0  0.1131
  H  H52  1  0.161400  0.488400  0.863000  1.0  0.1102
  H  H53  1  0.778400  0.709400  0.139400  1.0  0.1151
  H  H54  1  0.863000  0.487200  0.161400  1.0  0.1126
  H  H55  1  0.709400  0.778400  0.372800  1.0  0.1135
  H  H56  1  0.487200  0.863000  0.488400  1.0  0.1117
  H  H57  1  0.372800  0.778400  0.139400  1.0  0.1131
  H  H58  1  0.488400  0.863000  0.161400  1.0  0.1117
  H  H59  1  0.139400  0.709400  0.372800  1.0  0.1149
  H  H60  1  0.161400  0.487200  0.488400  1.0  0.1111
  H  H61  1  0.778400  0.372800  0.709400  1.0  0.1142
  H  H62  1  0.863000  0.488400  0.487200  1.0  0.1108
  H  H63  1  0.709400  0.139400  0.778400  1.0  0.1136
  H  H64  1  0.487200  0.161400  0.863000  1.0  0.1121
  H  H65  1  0.372800  0.709400  0.778400  1.0  0.1153
  H  H66  1  0.488400  0.487200  0.863000  1.0  0.1113
  H  H67  1  0.139400  0.778400  0.709400  1.0  0.1131
  H  H68  1  0.161400  0.863000  0.487200  1.0  0.1095
  H  H69  1  0.778400  0.139400  0.372800  1.0  0.1145
  H  H70  1  0.863000  0.161400  0.488400  1.0  0.1085
  H  H71  1  0.709400  0.372800  0.139400  1.0  0.1144
  H  H72  1  0.487200  0.488400  0.161400  1.0  0.1111
  C  C73  1  0.841100  0.648700  0.420300  1.0  0.648
  C  C74  1  0.905700  0.651100  0.347900  1.0  -0.1151
  C  C75  1  0.911200  0.644800  0.283800  1.0  0.0512
  C  C76  1  0.974700  0.656900  0.329700  1.0  0.0593
  C  C77  1  0.648700  0.841100  0.089900  1.0  0.6468
  C  C78  1  0.651100  0.905700  0.095300  1.0  -0.1147
  C  C79  1  0.644800  0.911200  0.160200  1.0  0.0502
  C  C80  1  0.656900  0.974700  0.038700  1.0  0.058
  C  C81  1  0.420300  0.089900  0.841100  1.0  0.6471
  C  C82  1  0.347900  0.095300  0.905700  1.0  -0.1131
  C  C83  1  0.283800  0.160200  0.911200  1.0  0.0496
  C  C84  1  0.329700  0.038700  0.974700  1.0  0.0591
  C  C85  1  0.089900  0.420300  0.648700  1.0  0.6483
  C  C86  1  0.095300  0.347900  0.651100  1.0  -0.1138
  C  C87  1  0.160200  0.283800  0.644800  1.0  0.0494
  C  C88  1  0.038700  0.329700  0.656900  1.0  0.0592
  C  C89  1  0.841100  0.420300  0.089900  1.0  0.6477
  C  C90  1  0.905700  0.347900  0.095300  1.0  -0.1155
  C  C91  1  0.911200  0.283800  0.160200  1.0  0.0519
  C  C92  1  0.974700  0.329700  0.038700  1.0  0.0583
  C  C93  1  0.648700  0.089900  0.420300  1.0  0.6495
  C  C94  1  0.651100  0.095300  0.347900  1.0  -0.1147
  C  C95  1  0.644800  0.160200  0.283800  1.0  0.0481
  C  C96  1  0.656900  0.038700  0.329700  1.0  0.0585
  C  C97  1  0.420300  0.841100  0.648700  1.0  0.6474
  C  C98  1  0.347900  0.905700  0.651100  1.0  -0.1144
  C  C99  1  0.283800  0.911200  0.644800  1.0  0.0513
  C  C100  1  0.329700  0.974700  0.656900  1.0  0.0581
  C  C101  1  0.089900  0.648700  0.841100  1.0  0.6488
  C  C102  1  0.095300  0.651100  0.905700  1.0  -0.1128
  C  C103  1  0.160200  0.644800  0.911200  1.0  0.0497
  C  C104  1  0.038700  0.656900  0.974700  1.0  0.0596
  C  C105  1  0.841100  0.089900  0.648700  1.0  0.648
  C  C106  1  0.905700  0.095300  0.651100  1.0  -0.1143
  C  C107  1  0.911200  0.160200  0.644800  1.0  0.0491
  C  C108  1  0.974700  0.038700  0.656900  1.0  0.0593
  C  C109  1  0.648700  0.420300  0.841100  1.0  0.6475
  C  C110  1  0.651100  0.347900  0.905700  1.0  -0.1151
  C  C111  1  0.644800  0.283800  0.911200  1.0  0.0485
  C  C112  1  0.656900  0.329700  0.974700  1.0  0.0594
  C  C113  1  0.420300  0.648700  0.089900  1.0  0.6469
  C  C114  1  0.347900  0.651100  0.095300  1.0  -0.1129
  C  C115  1  0.283800  0.644800  0.160200  1.0  0.0494
  C  C116  1  0.329700  0.656900  0.038700  1.0  0.0604
  C  C117  1  0.089900  0.841100  0.420300  1.0  0.6481
  C  C118  1  0.095300  0.905700  0.347900  1.0  -0.1147
  C  C119  1  0.160200  0.911200  0.283800  1.0  0.0505
  C  C120  1  0.038700  0.974700  0.329700  1.0  0.0583
  C  C121  1  0.341100  0.148700  0.589900  1.0  0.6475
  C  C122  1  0.405700  0.151100  0.595300  1.0  -0.1146
  C  C123  1  0.411200  0.144800  0.660200  1.0  0.0505
  C  C124  1  0.474700  0.156900  0.538700  1.0  0.0589
  C  C125  1  0.148700  0.341100  0.920300  1.0  0.6481
  C  C126  1  0.151100  0.405700  0.847900  1.0  -0.1145
  C  C127  1  0.144800  0.411200  0.783800  1.0  0.0507
  C  C128  1  0.156900  0.474700  0.829700  1.0  0.0588
  C  C129  1  0.920300  0.589900  0.148700  1.0  0.6477
  C  C130  1  0.847900  0.595300  0.151100  1.0  -0.1133
  C  C131  1  0.783800  0.660200  0.144800  1.0  0.049
  C  C132  1  0.829700  0.538700  0.156900  1.0  0.0589
  C  C133  1  0.589900  0.920300  0.341100  1.0  0.648
  C  C134  1  0.595300  0.847900  0.405700  1.0  -0.1137
  C  C135  1  0.660200  0.783800  0.411200  1.0  0.0498
  C  C136  1  0.538700  0.829700  0.474700  1.0  0.0593
  C  C137  1  0.341100  0.920300  0.148700  1.0  0.6482
  C  C138  1  0.405700  0.847900  0.151100  1.0  -0.1157
  C  C139  1  0.411200  0.783800  0.144800  1.0  0.0515
  C  C140  1  0.474700  0.829700  0.156900  1.0  0.0584
  C  C141  1  0.148700  0.589900  0.341100  1.0  0.6484
  C  C142  1  0.151100  0.595300  0.405700  1.0  -0.1142
  C  C143  1  0.144800  0.660200  0.411200  1.0  0.0487
  C  C144  1  0.156900  0.538700  0.474700  1.0  0.0584
  C  C145  1  0.920300  0.341100  0.589900  1.0  0.6462
  C  C146  1  0.847900  0.405700  0.595300  1.0  -0.1142
  C  C147  1  0.783800  0.411200  0.660200  1.0  0.0516
  C  C148  1  0.829700  0.474700  0.538700  1.0  0.0581
  C  C149  1  0.589900  0.148700  0.920300  1.0  0.6488
  C  C150  1  0.595300  0.151100  0.847900  1.0  -0.1139
  C  C151  1  0.660200  0.144800  0.783800  1.0  0.0492
  C  C152  1  0.538700  0.156900  0.829700  1.0  0.0597
  C  C153  1  0.341100  0.589900  0.920300  1.0  0.6483
  C  C154  1  0.405700  0.595300  0.847900  1.0  -0.1141
  C  C155  1  0.411200  0.660200  0.783800  1.0  0.0495
  C  C156  1  0.474700  0.538700  0.829700  1.0  0.059
  C  C157  1  0.148700  0.920300  0.589900  1.0  0.6478
  C  C158  1  0.151100  0.847900  0.595300  1.0  -0.115
  C  C159  1  0.144800  0.783800  0.660200  1.0  0.0491
  C  C160  1  0.156900  0.829700  0.538700  1.0  0.0604
  C  C161  1  0.920300  0.148700  0.341100  1.0  0.6469
  C  C162  1  0.847900  0.151100  0.405700  1.0  -0.1132
  C  C163  1  0.783800  0.144800  0.411200  1.0  0.0491
  C  C164  1  0.829700  0.156900  0.474700  1.0  0.059
  C  C165  1  0.589900  0.341100  0.148700  1.0  0.6482
  C  C166  1  0.595300  0.405700  0.151100  1.0  -0.115
  C  C167  1  0.660200  0.411200  0.144800  1.0  0.0502
  C  C168  1  0.538700  0.474700  0.156900  1.0  0.0589
  N  N169  1  0.980100  0.647700  0.230100  1.0  -0.2032
  N  N170  1  0.066300  0.655300  0.019300  1.0  -0.2345
  N  N171  1  0.647700  0.980100  0.142100  1.0  -0.2036
  N  N172  1  0.655300  0.066300  0.259100  1.0  -0.2364
  N  N173  1  0.230100  0.142100  0.980100  1.0  -0.2036
  N  N174  1  0.019300  0.259100  0.066300  1.0  -0.2344
  N  N175  1  0.142100  0.230100  0.647700  1.0  -0.1997
  N  N176  1  0.259100  0.019300  0.655300  1.0  -0.2326
  N  N177  1  0.980100  0.230100  0.142100  1.0  -0.1991
  N  N178  1  0.066300  0.019300  0.259100  1.0  -0.235
  N  N179  1  0.647700  0.142100  0.230100  1.0  -0.2046
  N  N180  1  0.655300  0.259100  0.019300  1.0  -0.2347
  N  N181  1  0.230100  0.980100  0.647700  1.0  -0.2033
  N  N182  1  0.019300  0.066300  0.655300  1.0  -0.2321
  N  N183  1  0.142100  0.647700  0.980100  1.0  -0.2038
  N  N184  1  0.259100  0.655300  0.066300  1.0  -0.2368
  N  N185  1  0.980100  0.142100  0.647700  1.0  -0.2013
  N  N186  1  0.066300  0.259100  0.655300  1.0  -0.2348
  N  N187  1  0.647700  0.230100  0.980100  1.0  -0.1995
  N  N188  1  0.655300  0.019300  0.066300  1.0  -0.2318
  N  N189  1  0.230100  0.647700  0.142100  1.0  -0.2048
  N  N190  1  0.019300  0.655300  0.259100  1.0  -0.2341
  N  N191  1  0.142100  0.980100  0.230100  1.0  -0.2016
  N  N192  1  0.259100  0.066300  0.019300  1.0  -0.2331
  N  N193  1  0.480100  0.147700  0.642100  1.0  -0.2022
  N  N194  1  0.566300  0.155300  0.759100  1.0  -0.2364
  N  N195  1  0.147700  0.480100  0.730100  1.0  -0.2043
  N  N196  1  0.155300  0.566300  0.519300  1.0  -0.2334
  N  N197  1  0.730100  0.642100  0.147700  1.0  -0.2033
  N  N198  1  0.519300  0.759100  0.155300  1.0  -0.2326
  N  N199  1  0.642100  0.730100  0.480100  1.0  -0.1993
  N  N200  1  0.759100  0.519300  0.566300  1.0  -0.2336
  N  N201  1  0.480100  0.730100  0.147700  1.0  -0.1995
  N  N202  1  0.566300  0.519300  0.155300  1.0  -0.2329
  N  N203  1  0.147700  0.642100  0.480100  1.0  -0.204
  N  N204  1  0.155300  0.759100  0.566300  1.0  -0.237
  N  N205  1  0.730100  0.480100  0.642100  1.0  -0.2037
  N  N206  1  0.519300  0.566300  0.759100  1.0  -0.2346
  N  N207  1  0.642100  0.147700  0.730100  1.0  -0.2049
  N  N208  1  0.759100  0.155300  0.519300  1.0  -0.2348
  N  N209  1  0.480100  0.642100  0.730100  1.0  -0.2016
  N  N210  1  0.566300  0.759100  0.519300  1.0  -0.2341
  N  N211  1  0.147700  0.730100  0.642100  1.0  -0.1995
  N  N212  1  0.155300  0.519300  0.759100  1.0  -0.2319
  N  N213  1  0.730100  0.147700  0.480100  1.0  -0.2047
  N  N214  1  0.519300  0.155300  0.566300  1.0  -0.2339
  N  N215  1  0.642100  0.480100  0.147700  1.0  -0.2012
  N  N216  1  0.759100  0.566300  0.155300  1.0  -0.2335
  O  O217  1  0.786410  0.633810  0.424590  1.0  -0.5799
  O  O218  1  0.842600  0.656600  0.473400  1.0  -0.448
  O  O219  1  0.633810  0.786410  0.155190  1.0  -0.5767
  O  O220  1  0.656600  0.842600  0.027400  1.0  -0.4442
  O  O221  1  0.424590  0.155190  0.786410  1.0  -0.5787
  O  O222  1  0.473400  0.027400  0.842600  1.0  -0.4467
  O  O223  1  0.155190  0.424590  0.633810  1.0  -0.5776
  O  O224  1  0.027400  0.473400  0.656600  1.0  -0.4481
  O  O225  1  0.786410  0.424590  0.155190  1.0  -0.5789
  O  O226  1  0.842600  0.473400  0.027400  1.0  -0.4473
  O  O227  1  0.633810  0.155190  0.424590  1.0  -0.5791
  O  O228  1  0.656600  0.027400  0.473400  1.0  -0.4454
  O  O229  1  0.424590  0.786410  0.633810  1.0  -0.5767
  O  O230  1  0.473400  0.842600  0.656600  1.0  -0.4542
  O  O231  1  0.155190  0.633810  0.786410  1.0  -0.5773
  O  O232  1  0.027400  0.656600  0.842600  1.0  -0.4545
  O  O233  1  0.786410  0.155190  0.633810  1.0  -0.5785
  O  O234  1  0.842600  0.027400  0.656600  1.0  -0.4457
  O  O235  1  0.633810  0.424590  0.786410  1.0  -0.5803
  O  O236  1  0.656600  0.473400  0.842600  1.0  -0.4485
  O  O237  1  0.424590  0.633810  0.155190  1.0  -0.5801
  O  O238  1  0.473400  0.656600  0.027400  1.0  -0.4517
  O  O239  1  0.155190  0.786410  0.424590  1.0  -0.5749
  O  O240  1  0.027400  0.842600  0.473400  1.0  -0.4521
  O  O241  1  0.286410  0.133810  0.655190  1.0  -0.5788
  O  O242  1  0.342600  0.156600  0.527400  1.0  -0.4449
  O  O243  1  0.133810  0.286410  0.924590  1.0  -0.5776
  O  O244  1  0.156600  0.342600  0.973400  1.0  -0.4495
  O  O245  1  0.924590  0.655190  0.133810  1.0  -0.5786
  O  O246  1  0.973400  0.527400  0.156600  1.0  -0.4472
  O  O247  1  0.655190  0.924590  0.286410  1.0  -0.5773
  O  O248  1  0.527400  0.973400  0.342600  1.0  -0.4496
  O  O249  1  0.286410  0.924590  0.133810  1.0  -0.5794
  O  O250  1  0.342600  0.973400  0.156600  1.0  -0.4462
  O  O251  1  0.133810  0.655190  0.286410  1.0  -0.5788
  O  O252  1  0.156600  0.527400  0.342600  1.0  -0.4479
  O  O253  1  0.924590  0.286410  0.655190  1.0  -0.5761
  O  O254  1  0.973400  0.342600  0.527400  1.0  -0.4534
  O  O255  1  0.655190  0.133810  0.924590  1.0  -0.5778
  O  O256  1  0.527400  0.156600  0.973400  1.0  -0.4542
  O  O257  1  0.286410  0.655190  0.924590  1.0  -0.5783
  O  O258  1  0.342600  0.527400  0.973400  1.0  -0.4471
  O  O259  1  0.133810  0.924590  0.655190  1.0  -0.5805
  O  O260  1  0.156600  0.973400  0.527400  1.0  -0.4482
  O  O261  1  0.924590  0.133810  0.286410  1.0  -0.5801
  O  O262  1  0.973400  0.156600  0.342600  1.0  -0.4557
  O  O263  1  0.655190  0.286410  0.133810  1.0  -0.5752
  O  O264  1  0.527400  0.342600  0.156600  1.0  -0.4538
  O  O265  1  0.128300  0.615100  0.128300  1.0  -0.8868
  O  O266  1  0.615100  0.128300  0.128300  1.0  -0.8896
  O  O267  1  0.128300  0.128300  0.128300  1.0  -0.8853
  O  O268  1  0.128300  0.128300  0.615100  1.0  -0.8856
  O  O269  1  0.628300  0.115100  0.628300  1.0  -0.8868
  O  O270  1  0.115100  0.628300  0.628300  1.0  -0.8896
  O  O271  1  0.628300  0.628300  0.115100  1.0  -0.8856
  O  O272  1  0.628300  0.628300  0.628300  1.0  -0.8853
