# generated using pymatgen
data_Tb2H40C52O19
_symmetry_space_group_name_H-M   'P 1'
_cell_length_a   7.06650000
_cell_length_b   14.52620000
_cell_length_c   16.71090000
_cell_angle_alpha   104.06600000
_cell_angle_beta   102.20600000
_cell_angle_gamma   90.00000000
_symmetry_Int_Tables_number   1
_chemical_formula_structural   Tb2H40C52O19
_chemical_formula_sum   'Tb2 H40 C52 O19'
_cell_volume   1623.92533310
_cell_formula_units_Z   1
loop_
 _symmetry_equiv_pos_site_id
 _symmetry_equiv_pos_as_xyz
  1  'x, y, z'
loop_
 _atom_site_type_symbol
 _atom_site_label
 _atom_site_symmetry_multiplicity
 _atom_site_fract_x
 _atom_site_fract_y
 _atom_site_fract_z
 _atom_site_occupancy
 _atom_site_charge
  Tb  Tb1  1  0.507720  0.969520  0.502680  1.0  2.2749
  Tb  Tb2  1  0.005040  0.030480  0.497320  1.0  2.274
  H  H3  1  0.292100  0.527000  0.101000  1.0  0.0658
  H  H4  1  0.315100  0.433900  0.033200  1.0  0.0663
  H  H5  1  0.891400  0.495700  0.113200  1.0  0.0584
  H  H6  1  0.914500  0.429000  0.175800  1.0  0.0641
  H  H7  1  0.381500  0.346000  0.133600  1.0  0.0662
  H  H8  1  0.362500  0.433900  0.207200  1.0  0.0601
  H  H9  1  0.959600  0.286700  0.071400  1.0  0.0749
  H  H10  1  0.894000  0.352500  0.009600  1.0  0.0529
  H  H11  1  0.595200  0.341200  0.252600  1.0  0.1165
  H  H12  1  0.797400  0.261100  0.339200  1.0  0.0913
  H  H13  1  0.337000  0.125400  0.370800  1.0  0.0994
  H  H14  1  0.136100  0.205800  0.286200  1.0  0.1061
  H  H15  1  0.269400  0.208700  0.866600  1.0  0.1176
  H  H16  1  0.125700  0.116700  0.732600  1.0  0.0976
  H  H17  1  0.615000  0.127800  0.799800  1.0  0.1003
  H  H18  1  0.756800  0.219800  0.932200  1.0  0.1247
  H  H19  1  0.713000  0.563300  0.203400  1.0  0.1048
  H  H20  1  0.561900  0.684200  0.281400  1.0  0.1025
  H  H21  1  0.079200  0.788300  0.428200  1.0  0.0899
  H  H22  1  0.230300  0.675500  0.342000  1.0  0.1178
  H  H23  1  0.191100  0.473000  0.899000  1.0  0.0682
  H  H24  1  0.281900  0.566100  0.966800  1.0  0.0716
  H  H25  1  0.778200  0.504300  0.886800  1.0  0.0585
  H  H26  1  0.738700  0.571000  0.824200  1.0  0.0651
  H  H27  1  0.247900  0.654000  0.866400  1.0  0.0663
  H  H28  1  0.155300  0.566100  0.792800  1.0  0.0606
  H  H29  1  0.888200  0.713300  0.928600  1.0  0.0759
  H  H30  1  0.884400  0.647500  0.990400  1.0  0.0525
  H  H31  1  0.342600  0.658800  0.747400  1.0  0.1188
  H  H32  1  0.458200  0.738900  0.660800  1.0  0.0905
  H  H33  1  0.966200  0.874600  0.629200  1.0  0.0993
  H  H34  1  0.849900  0.794200  0.713800  1.0  0.1063
  H  H35  1  0.402800  0.791300  0.133400  1.0  0.1172
  H  H36  1  0.393100  0.883300  0.267400  1.0  0.0982
  H  H37  1  0.815200  0.872200  0.200200  1.0  0.0981
  H  H38  1  0.824600  0.780200  0.067800  1.0  0.1226
  H  H39  1  0.509600  0.436700  0.796600  1.0  0.1042
  H  H40  1  0.280500  0.315800  0.718600  1.0  0.1011
  H  H41  1  0.651000  0.211700  0.571800  1.0  0.0899
  H  H42  1  0.888300  0.324500  0.658000  1.0  0.1151
  C  C43  1  0.127570  0.413000  0.106740  1.0  -0.012
  C  C44  1  0.222600  0.471400  0.060800  1.0  0.0632
  C  C45  1  0.984500  0.469800  0.152400  1.0  0.0627
  C  C46  1  0.292000  0.379500  0.165600  1.0  0.0777
  C  C47  1  0.005800  0.329300  0.042200  1.0  0.063
  C  C48  1  0.345800  0.276800  0.258200  1.0  0.3145
  C  C49  1  0.543600  0.297000  0.275200  1.0  -0.2759
  C  C50  1  0.664000  0.248500  0.327600  1.0  -0.0383
  C  C51  1  0.592800  0.183600  0.362400  1.0  -0.1472
  C  C52  1  0.389900  0.167800  0.346800  1.0  -0.0788
  C  C53  1  0.269900  0.215500  0.295400  1.0  -0.2274
  C  C54  1  0.024800  0.223800  0.911400  1.0  0.273
  C  C55  1  0.137100  0.192800  0.852800  1.0  -0.1634
  C  C56  1  0.051100  0.137500  0.772600  1.0  -0.022
  C  C57  1  0.853000  0.113700  0.752400  1.0  -0.154
  C  C58  1  0.747100  0.144400  0.812800  1.0  -0.012
  C  C59  1  0.831400  0.199500  0.892200  1.0  -0.2932
  C  C60  1  0.751000  0.059500  0.666400  1.0  0.6753
  C  C61  1  0.986100  0.608600  0.262600  1.0  0.2952
  C  C62  1  0.787500  0.610200  0.246800  1.0  -0.2326
  C  C63  1  0.696100  0.681100  0.295000  1.0  -0.0579
  C  C64  1  0.807000  0.747000  0.363000  1.0  -0.1314
  C  C65  1  0.005600  0.744600  0.381800  1.0  -0.0329
  C  C66  1  0.095800  0.676100  0.330600  1.0  -0.1465
  C  C67  1  0.708200  0.823600  0.412200  1.0  0.6525
  C  C68  1  0.728500  0.134200  0.416000  1.0  0.6852
  C  C69  1  0.020830  0.587000  0.893260  1.0  -0.0144
  C  C70  1  0.161800  0.528600  0.939200  1.0  0.0617
  C  C71  1  0.832100  0.530200  0.847600  1.0  0.0629
  C  C72  1  0.126400  0.620500  0.834400  1.0  0.0794
  C  C73  1  0.963600  0.670700  0.957800  1.0  0.0635
  C  C74  1  0.087600  0.723200  0.741800  1.0  0.3144
  C  C75  1  0.268400  0.703000  0.724800  1.0  -0.2735
  C  C76  1  0.336400  0.751500  0.672400  1.0  -0.0381
  C  C77  1  0.230400  0.816400  0.637600  1.0  -0.1483
  C  C78  1  0.043100  0.832200  0.653200  1.0  -0.0778
  C  C79  1  0.974500  0.784500  0.704600  1.0  -0.2254
  C  C80  1  0.113400  0.776200  0.088600  1.0  0.273
  C  C81  1  0.284300  0.807200  0.147200  1.0  -0.163
  C  C82  1  0.278500  0.862500  0.227400  1.0  -0.0203
  C  C83  1  0.100600  0.886300  0.247600  1.0  -0.1534
  C  C84  1  0.934300  0.855600  0.187200  1.0  -0.0091
  C  C85  1  0.939200  0.800500  0.107800  1.0  -0.2931
  C  C86  1  0.084600  0.940500  0.333600  1.0  0.6772
  C  C87  1  0.723500  0.391400  0.737400  1.0  0.2936
  C  C88  1  0.540700  0.389800  0.753200  1.0  -0.2336
  C  C89  1  0.401100  0.318900  0.705000  1.0  -0.0569
  C  C90  1  0.444000  0.253000  0.637000  1.0  -0.132
  C  C91  1  0.623800  0.255400  0.618200  1.0  -0.0345
  C  C92  1  0.765200  0.323900  0.669400  1.0  -0.1483
  C  C93  1  0.296000  0.176400  0.587800  1.0  0.6482
  C  C94  1  0.312500  0.865800  0.584000  1.0  0.6876
  O  O95  1  0.838610  0.040900  0.606220  1.0  -0.7789
  O  O96  1  0.579300  0.034500  0.653400  1.0  -0.6286
  O  O97  1  0.907290  0.156700  0.433580  1.0  -0.6069
  O  O98  1  0.665380  0.066500  0.441560  1.0  -0.7542
  O  O99  1  0.806430  0.889400  0.472260  1.0  -0.7766
  O  O100  1  0.527350  0.824700  0.397300  1.0  -0.6332
  O  O101  1  0.216190  0.317900  0.207580  1.0  -0.2857
  O  O102  1  0.090130  0.544500  0.218260  1.0  -0.271
  O  O103  1  0.120340  0.280000  0.987680  1.0  -0.2928
  O  O104  1  0.232390  0.959100  0.393780  1.0  -0.7775
  O  O105  1  0.925900  0.965500  0.346600  1.0  -0.631
  O  O106  1  0.473710  0.843300  0.566420  1.0  -0.6078
  O  O107  1  0.223820  0.933500  0.558440  1.0  -0.7544
  O  O108  1  0.334170  0.110600  0.527740  1.0  -0.7777
  O  O109  1  0.130050  0.175300  0.602700  1.0  -0.6335
  O  O110  1  0.008610  0.682100  0.792420  1.0  -0.285
  O  O111  1  0.871870  0.455500  0.781740  1.0  -0.2714
  O  O112  1  0.132660  0.720000  0.012320  1.0  -0.294
  O  O113  1  0.080100  0.500000  0.000000  1.0  -0.3225
