# generated using pymatgen
data_La2H40C52O19
_symmetry_space_group_name_H-M   'P 1'
_cell_length_a   7.39330000
_cell_length_b   14.34900000
_cell_length_c   16.97540000
_cell_angle_alpha   104.15400000
_cell_angle_beta   102.57800000
_cell_angle_gamma   90.00000000
_symmetry_Int_Tables_number   1
_chemical_formula_structural   La2H40C52O19
_chemical_formula_sum   'La2 H40 C52 O19'
_cell_volume   1701.58169410
_cell_formula_units_Z   1
loop_
 _symmetry_equiv_pos_site_id
 _symmetry_equiv_pos_as_xyz
  1  'x, y, z'
loop_
 _atom_site_type_symbol
 _atom_site_label
 _atom_site_symmetry_multiplicity
 _atom_site_fract_x
 _atom_site_fract_y
 _atom_site_fract_z
 _atom_site_occupancy
 _atom_site_charge
  La  La1  1  0.507390  0.963770  0.501320  1.0  2.1357
  La  La2  1  0.006070  0.036230  0.498680  1.0  2.1357
  H  H3  1  0.280800  0.527000  0.098800  1.0  0.0779
  H  H4  1  0.301600  0.433400  0.031200  1.0  0.0688
  H  H5  1  0.898000  0.492100  0.110400  1.0  0.0689
  H  H6  1  0.922800  0.424000  0.171400  1.0  0.0678
  H  H7  1  0.368800  0.343700  0.130600  1.0  0.0698
  H  H8  1  0.351200  0.433100  0.203000  1.0  0.0673
  H  H9  1  0.966800  0.281000  0.068800  1.0  0.0793
  H  H10  1  0.899400  0.347700  0.008400  1.0  0.0593
  H  H11  1  0.574100  0.341900  0.248400  1.0  0.1217
  H  H12  1  0.776000  0.268800  0.338200  1.0  0.1077
  H  H13  1  0.344200  0.127300  0.371600  1.0  0.1138
  H  H14  1  0.147300  0.199400  0.282400  1.0  0.1142
  H  H15  1  0.252000  0.210600  0.862800  1.0  0.1287
  H  H16  1  0.108000  0.118900  0.730600  1.0  0.0989
  H  H17  1  0.629100  0.118800  0.802400  1.0  0.1038
  H  H18  1  0.772600  0.206400  0.934600  1.0  0.1344
  H  H19  1  0.725900  0.556000  0.198400  1.0  0.124
  H  H20  1  0.581400  0.672200  0.276000  1.0  0.0997
  H  H21  1  0.071000  0.790400  0.417600  1.0  0.0911
  H  H22  1  0.220500  0.675600  0.335600  1.0  0.126
  H  H23  1  0.182000  0.473000  0.901200  1.0  0.0785
  H  H24  1  0.270400  0.566600  0.968800  1.0  0.0737
  H  H25  1  0.787600  0.507900  0.889600  1.0  0.0685
  H  H26  1  0.751400  0.576000  0.828600  1.0  0.068
  H  H27  1  0.238200  0.656300  0.869400  1.0  0.07
  H  H28  1  0.148200  0.566900  0.797000  1.0  0.0682
  H  H29  1  0.898000  0.719000  0.931200  1.0  0.0788
  H  H30  1  0.891000  0.652300  0.991600  1.0  0.0589
  H  H31  1  0.325700  0.658100  0.751600  1.0  0.1233
  H  H32  1  0.437800  0.731200  0.661800  1.0  0.1083
  H  H33  1  0.972600  0.872700  0.628400  1.0  0.1133
  H  H34  1  0.864900  0.800600  0.717600  1.0  0.1137
  H  H35  1  0.389200  0.789400  0.137200  1.0  0.1279
  H  H36  1  0.377400  0.881100  0.269400  1.0  0.0999
  H  H37  1  0.826700  0.881200  0.197600  1.0  0.1027
  H  H38  1  0.838000  0.793600  0.065400  1.0  0.1327
  H  H39  1  0.527500  0.444000  0.801600  1.0  0.1252
  H  H40  1  0.305400  0.327800  0.724000  1.0  0.0974
  H  H41  1  0.653400  0.209600  0.582400  1.0  0.0908
  H  H42  1  0.884900  0.324400  0.664400  1.0  0.1248
  C  C43  1  0.124800  0.410500  0.104000  1.0  -0.0102
  C  C44  1  0.213700  0.470900  0.058800  1.0  0.0579
  C  C45  1  0.988300  0.466100  0.148800  1.0  0.0723
  C  C46  1  0.283700  0.377600  0.162400  1.0  0.0795
  C  C47  1  0.008200  0.324700  0.040000  1.0  0.0759
  C  C48  1  0.342300  0.275500  0.255600  1.0  0.3269
  C  C49  1  0.528100  0.298100  0.272600  1.0  -0.2557
  C  C50  1  0.648900  0.254400  0.327000  1.0  -0.0286
  C  C51  1  0.583100  0.191100  0.364000  1.0  -0.1464
  C  C52  1  0.391800  0.170000  0.347000  1.0  -0.0734
  C  C53  1  0.274700  0.212900  0.293400  1.0  -0.1276
  C  C54  1  0.021700  0.218700  0.908800  1.0  0.2368
  C  C55  1  0.126300  0.192200  0.850200  1.0  -0.2063
  C  C56  1  0.039400  0.137100  0.771200  1.0  -0.0139
  C  C57  1  0.852300  0.108900  0.752400  1.0  -0.1513
  C  C58  1  0.755000  0.136600  0.814200  1.0  -0.0121
  C  C59  1  0.839300  0.190200  0.893000  1.0  -0.276
  C  C60  1  0.754600  0.053800  0.668800  1.0  0.6977
  C  C61  1  0.986700  0.605100  0.258000  1.0  0.3069
  C  C62  1  0.796000  0.603700  0.241600  1.0  -0.2848
  C  C63  1  0.710200  0.672300  0.289000  1.0  -0.0179
  C  C64  1  0.810200  0.742800  0.357000  1.0  -0.1055
  C  C65  1  0.001300  0.743600  0.373400  1.0  -0.0055
  C  C66  1  0.091600  0.674800  0.324200  1.0  -0.2147
  C  C67  1  0.712400  0.817500  0.406200  1.0  0.6854
  C  C68  1  0.716300  0.143700  0.418600  1.0  0.6833
  C  C69  1  0.020800  0.589500  0.896000  1.0  -0.0116
  C  C70  1  0.154900  0.529100  0.941200  1.0  0.0573
  C  C71  1  0.839500  0.533900  0.851200  1.0  0.0739
  C  C72  1  0.121300  0.622400  0.837600  1.0  0.0797
  C  C73  1  0.968200  0.675300  0.960000  1.0  0.0764
  C  C74  1  0.086700  0.724500  0.744400  1.0  0.3263
  C  C75  1  0.255500  0.701900  0.727400  1.0  -0.2541
  C  C76  1  0.321900  0.745600  0.673000  1.0  -0.0292
  C  C77  1  0.219100  0.808900  0.636000  1.0  -0.1456
  C  C78  1  0.044800  0.830000  0.653000  1.0  -0.0729
  C  C79  1  0.981300  0.787100  0.706600  1.0  -0.1267
  C  C80  1  0.112900  0.781300  0.091200  1.0  0.2338
  C  C81  1  0.276100  0.807800  0.149800  1.0  -0.2066
  C  C82  1  0.268200  0.862900  0.228800  1.0  -0.0127
  C  C83  1  0.099900  0.891100  0.247600  1.0  -0.1487
  C  C84  1  0.940800  0.863400  0.185800  1.0  -0.0083
  C  C85  1  0.946300  0.809800  0.107000  1.0  -0.2736
  C  C86  1  0.085800  0.946200  0.331200  1.0  0.6993
  C  C87  1  0.728700  0.394900  0.742000  1.0  0.3051
  C  C88  1  0.554400  0.396300  0.758400  1.0  -0.2848
  C  C89  1  0.421200  0.327700  0.711000  1.0  -0.0135
  C  C90  1  0.453200  0.257200  0.643000  1.0  -0.1059
  C  C91  1  0.627900  0.256400  0.626600  1.0  -0.0071
  C  C92  1  0.767400  0.325200  0.675800  1.0  -0.2143
  C  C93  1  0.306200  0.182500  0.593800  1.0  0.6865
  C  C94  1  0.297700  0.856300  0.581400  1.0  0.6875
  O  O95  1  0.832290  0.042400  0.607780  1.0  -0.7998
  O  O96  1  0.593270  0.022200  0.657940  1.0  -0.6107
  O  O97  1  0.883000  0.173900  0.442600  1.0  -0.6804
  O  O98  1  0.660350  0.071900  0.440100  1.0  -0.8216
  O  O99  1  0.806970  0.883900  0.465340  1.0  -0.7889
  O  O100  1  0.540630  0.815400  0.390460  1.0  -0.6531
  O  O101  1  0.213100  0.315400  0.204200  1.0  -0.2744
  O  O102  1  0.088350  0.542300  0.214500  1.0  -0.2742
  O  O103  1  0.115950  0.275600  0.985100  1.0  -0.2875
  O  O104  1  0.224510  0.957600  0.392220  1.0  -0.8025
  O  O105  1  0.935330  0.977800  0.342060  1.0  -0.6116
  O  O106  1  0.440400  0.826100  0.557400  1.0  -0.6813
  O  O107  1  0.220250  0.928100  0.559900  1.0  -0.8223
  O  O108  1  0.341630  0.116100  0.534660  1.0  -0.7876
  O  O109  1  0.150170  0.184600  0.609540  1.0  -0.6548
  O  O110  1  0.008900  0.684600  0.795800  1.0  -0.2762
  O  O111  1  0.873850  0.457700  0.785500  1.0  -0.2755
  O  O112  1  0.130850  0.724400  0.014900  1.0  -0.2871
  O  O113  1  0.077500  0.500000  0.000000  1.0  -0.3324
