# generated using pymatgen
data_ZnH12(C3O)6
_symmetry_space_group_name_H-M   'P 1'
_cell_length_a   22.07200000
_cell_length_b   22.07200000
_cell_length_c   22.07200000
_cell_angle_alpha   90.00000000
_cell_angle_beta   90.00000000
_cell_angle_gamma   90.00000000
_symmetry_Int_Tables_number   1
_chemical_formula_structural   ZnH12(C3O)6
_chemical_formula_sum   'Zn12 H144 C216 O72'
_cell_volume   10752.88651725
_cell_formula_units_Z   12
loop_
 _symmetry_equiv_pos_site_id
 _symmetry_equiv_pos_as_xyz
  1  'x, y, z'
loop_
 _atom_site_type_symbol
 _atom_site_label
 _atom_site_symmetry_multiplicity
 _atom_site_fract_x
 _atom_site_fract_y
 _atom_site_fract_z
 _atom_site_occupancy
 _atom_site_charge
  Zn  Zn1  1  0.592540  0.907460  0.592540  1.0  0.935
  Zn  Zn2  1  0.907460  0.592540  0.592540  1.0  0.9353
  Zn  Zn3  1  0.907460  0.907460  0.907460  1.0  0.9342
  Zn  Zn4  1  0.592540  0.592540  0.907460  1.0  0.9362
  Zn  Zn5  1  0.407460  0.092540  0.407460  1.0  0.9342
  Zn  Zn6  1  0.092540  0.407460  0.407460  1.0  0.9363
  Zn  Zn7  1  0.092540  0.092540  0.092540  1.0  0.9375
  Zn  Zn8  1  0.407460  0.407460  0.092540  1.0  0.9334
  Zn  Zn9  1  0.500000  0.000000  0.500000  1.0  1.0786
  Zn  Zn10  1  0.000000  0.500000  0.500000  1.0  1.0786
  Zn  Zn11  1  0.000000  0.000000  0.000000  1.0  1.0786
  Zn  Zn12  1  0.500000  0.500000  0.000000  1.0  1.0786
  H  H13  1  0.535600  0.747500  0.503500  1.0  0.1312
  H  H14  1  0.446100  0.693800  0.354500  1.0  0.1308
  H  H15  1  0.438100  0.793900  0.325600  1.0  0.1032
  H  H16  1  0.481000  0.869500  0.381500  1.0  0.1256
  H  H17  1  0.429800  0.609200  0.420100  1.0  0.0807
  H  H18  1  0.489900  0.598200  0.382800  1.0  0.0776
  H  H19  1  0.964400  0.752500  0.503500  1.0  0.1316
  H  H20  1  0.053900  0.806200  0.354500  1.0  0.1311
  H  H21  1  0.061900  0.706100  0.325600  1.0  0.1047
  H  H22  1  0.019000  0.630500  0.381500  1.0  0.1261
  H  H23  1  0.070200  0.890800  0.420100  1.0  0.0809
  H  H24  1  0.010100  0.901800  0.382800  1.0  0.0772
  H  H25  1  0.964400  0.747500  0.996500  1.0  0.1314
  H  H26  1  0.053900  0.693800  0.145500  1.0  0.1312
  H  H27  1  0.061900  0.793900  0.174400  1.0  0.103
  H  H28  1  0.019000  0.869500  0.118500  1.0  0.1249
  H  H29  1  0.070200  0.609200  0.079900  1.0  0.0799
  H  H30  1  0.010100  0.598200  0.117200  1.0  0.0781
  H  H31  1  0.535600  0.752500  0.996500  1.0  0.132
  H  H32  1  0.446100  0.806200  0.145500  1.0  0.1316
  H  H33  1  0.438100  0.706100  0.174400  1.0  0.1041
  H  H34  1  0.481000  0.630500  0.118500  1.0  0.1256
  H  H35  1  0.429800  0.890800  0.079900  1.0  0.0804
  H  H36  1  0.489900  0.901800  0.117200  1.0  0.0781
  H  H37  1  0.503500  0.535600  0.747500  1.0  0.1317
  H  H38  1  0.354500  0.446100  0.693800  1.0  0.1318
  H  H39  1  0.325600  0.438100  0.793900  1.0  0.105
  H  H40  1  0.381500  0.481000  0.869500  1.0  0.1239
  H  H41  1  0.420100  0.429800  0.609200  1.0  0.0829
  H  H42  1  0.382800  0.489900  0.598200  1.0  0.0768
  H  H43  1  0.503500  0.964400  0.752500  1.0  0.1307
  H  H44  1  0.354500  0.053900  0.806200  1.0  0.1309
  H  H45  1  0.325600  0.061900  0.706100  1.0  0.1071
  H  H46  1  0.381500  0.019000  0.630500  1.0  0.1239
  H  H47  1  0.420100  0.070200  0.890800  1.0  0.0843
  H  H48  1  0.382800  0.010100  0.901800  1.0  0.0773
  H  H49  1  0.996500  0.964400  0.747500  1.0  0.1315
  H  H50  1  0.145500  0.053900  0.693800  1.0  0.1316
  H  H51  1  0.174400  0.061900  0.793900  1.0  0.1049
  H  H52  1  0.118500  0.019000  0.869500  1.0  0.1225
  H  H53  1  0.079900  0.070200  0.609200  1.0  0.0839
  H  H54  1  0.117200  0.010100  0.598200  1.0  0.0774
  H  H55  1  0.996500  0.535600  0.752500  1.0  0.1311
  H  H56  1  0.145500  0.446100  0.806200  1.0  0.1315
  H  H57  1  0.174400  0.438100  0.706100  1.0  0.1062
  H  H58  1  0.118500  0.481000  0.630500  1.0  0.1235
  H  H59  1  0.079900  0.429800  0.890800  1.0  0.0845
  H  H60  1  0.117200  0.489900  0.901800  1.0  0.077
  H  H61  1  0.747500  0.503500  0.535600  1.0  0.1322
  H  H62  1  0.693800  0.354500  0.446100  1.0  0.1328
  H  H63  1  0.793900  0.325600  0.438100  1.0  0.106
  H  H64  1  0.869500  0.381500  0.481000  1.0  0.1252
  H  H65  1  0.609200  0.420100  0.429800  1.0  0.0811
  H  H66  1  0.598200  0.382800  0.489900  1.0  0.0768
  H  H67  1  0.752500  0.503500  0.964400  1.0  0.1315
  H  H68  1  0.806200  0.354500  0.053900  1.0  0.133
  H  H69  1  0.706100  0.325600  0.061900  1.0  0.1073
  H  H70  1  0.630500  0.381500  0.019000  1.0  0.1261
  H  H71  1  0.890800  0.420100  0.070200  1.0  0.0804
  H  H72  1  0.901800  0.382800  0.010100  1.0  0.077
  H  H73  1  0.747500  0.996500  0.964400  1.0  0.1317
  H  H74  1  0.693800  0.145500  0.053900  1.0  0.1323
  H  H75  1  0.793900  0.174400  0.061900  1.0  0.1056
  H  H76  1  0.869500  0.118500  0.019000  1.0  0.1249
  H  H77  1  0.609200  0.079900  0.070200  1.0  0.0805
  H  H78  1  0.598200  0.117200  0.010100  1.0  0.0753
  H  H79  1  0.752500  0.996500  0.535600  1.0  0.1318
  H  H80  1  0.806200  0.145500  0.446100  1.0  0.1323
  H  H81  1  0.706100  0.174400  0.438100  1.0  0.1062
  H  H82  1  0.630500  0.118500  0.481000  1.0  0.126
  H  H83  1  0.890800  0.079900  0.429800  1.0  0.081
  H  H84  1  0.901800  0.117200  0.489900  1.0  0.0754
  H  H85  1  0.464400  0.252500  0.496500  1.0  0.1313
  H  H86  1  0.553900  0.306200  0.645500  1.0  0.1308
  H  H87  1  0.561900  0.206100  0.674400  1.0  0.1034
  H  H88  1  0.519000  0.130500  0.618500  1.0  0.1255
  H  H89  1  0.570200  0.390800  0.579900  1.0  0.0798
  H  H90  1  0.510100  0.401800  0.617200  1.0  0.0778
  H  H91  1  0.035600  0.247500  0.496500  1.0  0.1322
  H  H92  1  0.946100  0.193800  0.645500  1.0  0.1318
  H  H93  1  0.938100  0.293900  0.674400  1.0  0.1035
  H  H94  1  0.981000  0.369500  0.618500  1.0  0.1248
  H  H95  1  0.929800  0.109200  0.579900  1.0  0.0806
  H  H96  1  0.989900  0.098200  0.617200  1.0  0.0784
  H  H97  1  0.035600  0.252500  0.003500  1.0  0.1311
  H  H98  1  0.946100  0.306200  0.854500  1.0  0.1311
  H  H99  1  0.938100  0.206100  0.825600  1.0  0.1031
  H  H100  1  0.981000  0.130500  0.881500  1.0  0.1261
  H  H101  1  0.929800  0.390800  0.920100  1.0  0.0804
  H  H102  1  0.989900  0.401800  0.882800  1.0  0.0772
  H  H103  1  0.464400  0.247500  0.003500  1.0  0.1316
  H  H104  1  0.553900  0.193800  0.854500  1.0  0.1311
  H  H105  1  0.561900  0.293900  0.825600  1.0  0.1033
  H  H106  1  0.519000  0.369500  0.881500  1.0  0.1257
  H  H107  1  0.570200  0.109200  0.920100  1.0  0.0813
  H  H108  1  0.510100  0.098200  0.882800  1.0  0.0777
  H  H109  1  0.496500  0.464400  0.252500  1.0  0.1311
  H  H110  1  0.645500  0.553900  0.306200  1.0  0.1311
  H  H111  1  0.674400  0.561900  0.206100  1.0  0.1062
  H  H112  1  0.618500  0.519000  0.130500  1.0  0.123
  H  H113  1  0.579900  0.570200  0.390800  1.0  0.084
  H  H114  1  0.617200  0.510100  0.401800  1.0  0.0776
  H  H115  1  0.496500  0.035600  0.247500  1.0  0.1317
  H  H116  1  0.645500  0.946100  0.193800  1.0  0.1317
  H  H117  1  0.674400  0.938100  0.293900  1.0  0.1047
  H  H118  1  0.618500  0.981000  0.369500  1.0  0.1236
  H  H119  1  0.579900  0.929800  0.109200  1.0  0.0845
  H  H120  1  0.617200  0.989900  0.098200  1.0  0.0768
  H  H121  1  0.003500  0.035600  0.252500  1.0  0.1308
  H  H122  1  0.854500  0.946100  0.306200  1.0  0.1317
  H  H123  1  0.825600  0.938100  0.206100  1.0  0.1055
  H  H124  1  0.881500  0.981000  0.130500  1.0  0.1239
  H  H125  1  0.920100  0.929800  0.390800  1.0  0.0829
  H  H126  1  0.882800  0.989900  0.401800  1.0  0.0767
  H  H127  1  0.003500  0.464400  0.247500  1.0  0.1313
  H  H128  1  0.854500  0.553900  0.193800  1.0  0.1314
  H  H129  1  0.825600  0.561900  0.293900  1.0  0.1048
  H  H130  1  0.881500  0.519000  0.369500  1.0  0.1236
  H  H131  1  0.920100  0.570200  0.109200  1.0  0.0843
  H  H132  1  0.882800  0.510100  0.098200  1.0  0.0771
  H  H133  1  0.252500  0.496500  0.464400  1.0  0.1315
  H  H134  1  0.306200  0.645500  0.553900  1.0  0.1323
  H  H135  1  0.206100  0.674400  0.561900  1.0  0.1057
  H  H136  1  0.130500  0.618500  0.519000  1.0  0.126
  H  H137  1  0.390800  0.579900  0.570200  1.0  0.08
  H  H138  1  0.401800  0.617200  0.510100  1.0  0.0753
  H  H139  1  0.247500  0.496500  0.035600  1.0  0.1321
  H  H140  1  0.193800  0.645500  0.946100  1.0  0.1325
  H  H141  1  0.293900  0.674400  0.938100  1.0  0.106
  H  H142  1  0.369500  0.618500  0.981000  1.0  0.1249
  H  H143  1  0.109200  0.579900  0.929800  1.0  0.0811
  H  H144  1  0.098200  0.617200  0.989900  1.0  0.0751
  H  H145  1  0.252500  0.003500  0.035600  1.0  0.1321
  H  H146  1  0.306200  0.854500  0.946100  1.0  0.1328
  H  H147  1  0.206100  0.825600  0.938100  1.0  0.1055
  H  H148  1  0.130500  0.881500  0.981000  1.0  0.1261
  H  H149  1  0.390800  0.920100  0.929800  1.0  0.0809
  H  H150  1  0.401800  0.882800  0.989900  1.0  0.0769
  H  H151  1  0.247500  0.003500  0.464400  1.0  0.1316
  H  H152  1  0.193800  0.854500  0.553900  1.0  0.1327
  H  H153  1  0.293900  0.825600  0.561900  1.0  0.1064
  H  H154  1  0.369500  0.881500  0.519000  1.0  0.125
  H  H155  1  0.109200  0.920100  0.570200  1.0  0.0809
  H  H156  1  0.098200  0.882800  0.510100  1.0  0.0771
  C  C157  1  0.511730  0.815110  0.448980  1.0  -0.1479
  C  C158  1  0.516520  0.756650  0.467090  1.0  -0.0946
  C  C159  1  0.492830  0.709960  0.431110  1.0  0.3082
  C  C160  1  0.463000  0.724100  0.378300  1.0  -0.2576
  C  C161  1  0.458600  0.784200  0.361200  1.0  -0.1153
  C  C162  1  0.483200  0.829510  0.394700  1.0  -0.0717
  C  C163  1  0.536620  0.864540  0.488460  1.0  0.6996
  C  C164  1  0.473260  0.603280  0.423210  1.0  0.0504
  C  C165  1  0.487860  0.549200  0.462630  1.0  -0.0111
  C  C166  1  0.988270  0.684890  0.448980  1.0  -0.1453
  C  C167  1  0.983480  0.743350  0.467090  1.0  -0.0955
  C  C168  1  0.007170  0.790040  0.431110  1.0  0.3138
  C  C169  1  0.037000  0.775900  0.378300  1.0  -0.2579
  C  C170  1  0.041400  0.715800  0.361200  1.0  -0.1144
  C  C171  1  0.016800  0.670490  0.394700  1.0  -0.0703
  C  C172  1  0.963380  0.635460  0.488460  1.0  0.7001
  C  C173  1  0.026740  0.896720  0.423210  1.0  0.0507
  C  C174  1  0.012140  0.950800  0.462630  1.0  -0.0118
  C  C175  1  0.988270  0.815110  0.051020  1.0  -0.1431
  C  C176  1  0.983480  0.756650  0.032910  1.0  -0.0947
  C  C177  1  0.007170  0.709960  0.068890  1.0  0.3075
  C  C178  1  0.037000  0.724100  0.121700  1.0  -0.2554
  C  C179  1  0.041400  0.784200  0.138800  1.0  -0.115
  C  C180  1  0.016800  0.829510  0.105300  1.0  -0.0714
  C  C181  1  0.963380  0.864540  0.011540  1.0  0.7001
  C  C182  1  0.026740  0.603280  0.076790  1.0  0.0481
  C  C183  1  0.012140  0.549200  0.037370  1.0  -0.0115
  C  C184  1  0.511730  0.684890  0.051020  1.0  -0.1466
  C  C185  1  0.516520  0.743350  0.032910  1.0  -0.0965
  C  C186  1  0.492830  0.790040  0.068890  1.0  0.3145
  C  C187  1  0.463000  0.775900  0.121700  1.0  -0.2575
  C  C188  1  0.458600  0.715800  0.138800  1.0  -0.1184
  C  C189  1  0.483200  0.670490  0.105300  1.0  -0.0713
  C  C190  1  0.536620  0.635460  0.011540  1.0  0.7005
  C  C191  1  0.473260  0.896720  0.076790  1.0  0.0485
  C  C192  1  0.487860  0.950800  0.037370  1.0  -0.0115
  C  C193  1  0.448980  0.511730  0.815110  1.0  -0.1459
  C  C194  1  0.467090  0.516520  0.756650  1.0  -0.095
  C  C195  1  0.431110  0.492830  0.709960  1.0  0.3104
  C  C196  1  0.378300  0.463000  0.724100  1.0  -0.2577
  C  C197  1  0.361200  0.458600  0.784200  1.0  -0.1168
  C  C198  1  0.394700  0.483200  0.829510  1.0  -0.0717
  C  C199  1  0.488460  0.536620  0.864540  1.0  0.6985
  C  C200  1  0.423210  0.473260  0.603280  1.0  0.0549
  C  C201  1  0.462630  0.487860  0.549200  1.0  -0.0101
  C  C202  1  0.448980  0.988270  0.684890  1.0  -0.1465
  C  C203  1  0.467090  0.983480  0.743350  1.0  -0.0945
  C  C204  1  0.431110  0.007170  0.790040  1.0  0.3161
  C  C205  1  0.378300  0.037000  0.775900  1.0  -0.2577
  C  C206  1  0.361200  0.041400  0.715800  1.0  -0.1171
  C  C207  1  0.394700  0.016800  0.670490  1.0  -0.0724
  C  C208  1  0.488460  0.963380  0.635460  1.0  0.6982
  C  C209  1  0.423210  0.026740  0.896720  1.0  0.0536
  C  C210  1  0.462630  0.012140  0.950800  1.0  -0.0109
  C  C211  1  0.051020  0.988270  0.815110  1.0  -0.142
  C  C212  1  0.032910  0.983480  0.756650  1.0  -0.0946
  C  C213  1  0.068890  0.007170  0.709960  1.0  0.3104
  C  C214  1  0.121700  0.037000  0.724100  1.0  -0.2573
  C  C215  1  0.138800  0.041400  0.784200  1.0  -0.112
  C  C216  1  0.105300  0.016800  0.829510  1.0  -0.0719
  C  C217  1  0.011540  0.963380  0.864540  1.0  0.6984
  C  C218  1  0.076790  0.026740  0.603280  1.0  0.0526
  C  C219  1  0.037370  0.012140  0.549200  1.0  -0.0107
  C  C220  1  0.051020  0.511730  0.684890  1.0  -0.1413
  C  C221  1  0.032910  0.516520  0.743350  1.0  -0.0954
  C  C222  1  0.068890  0.492830  0.790040  1.0  0.3171
  C  C223  1  0.121700  0.463000  0.775900  1.0  -0.2561
  C  C224  1  0.138800  0.458600  0.715800  1.0  -0.1141
  C  C225  1  0.105300  0.483200  0.670490  1.0  -0.0738
  C  C226  1  0.011540  0.536620  0.635460  1.0  0.6976
  C  C227  1  0.076790  0.473260  0.896720  1.0  0.0531
  C  C228  1  0.037370  0.487860  0.950800  1.0  -0.0103
  C  C229  1  0.815110  0.448980  0.511730  1.0  -0.1432
  C  C230  1  0.756650  0.467090  0.516520  1.0  -0.0958
  C  C231  1  0.709960  0.431110  0.492830  1.0  0.31
  C  C232  1  0.724100  0.378300  0.463000  1.0  -0.258
  C  C233  1  0.784200  0.361200  0.458600  1.0  -0.1179
  C  C234  1  0.829510  0.394700  0.483200  1.0  -0.0706
  C  C235  1  0.864540  0.488460  0.536620  1.0  0.6999
  C  C236  1  0.603280  0.423210  0.473260  1.0  0.0514
  C  C237  1  0.549200  0.462630  0.487860  1.0  -0.0115
  C  C238  1  0.684890  0.448980  0.988270  1.0  -0.1447
  C  C239  1  0.743350  0.467090  0.983480  1.0  -0.0961
  C  C240  1  0.790040  0.431110  0.007170  1.0  0.3145
  C  C241  1  0.775900  0.378300  0.037000  1.0  -0.2581
  C  C242  1  0.715800  0.361200  0.041400  1.0  -0.1205
  C  C243  1  0.670490  0.394700  0.016800  1.0  -0.0707
  C  C244  1  0.635460  0.488460  0.963380  1.0  0.7013
  C  C245  1  0.896720  0.423210  0.026740  1.0  0.0521
  C  C246  1  0.950800  0.462630  0.012140  1.0  -0.0116
  C  C247  1  0.815110  0.051020  0.988270  1.0  -0.1408
  C  C248  1  0.756650  0.032910  0.983480  1.0  -0.0952
  C  C249  1  0.709960  0.068890  0.007170  1.0  0.3092
  C  C250  1  0.724100  0.121700  0.037000  1.0  -0.2583
  C  C251  1  0.784200  0.138800  0.041400  1.0  -0.1169
  C  C252  1  0.829510  0.105300  0.016800  1.0  -0.0708
  C  C253  1  0.864540  0.011540  0.963380  1.0  0.7001
  C  C254  1  0.603280  0.076790  0.026740  1.0  0.0518
  C  C255  1  0.549200  0.037370  0.012140  1.0  -0.0124
  C  C256  1  0.684890  0.051020  0.511730  1.0  -0.1445
  C  C257  1  0.743350  0.032910  0.516520  1.0  -0.0955
  C  C258  1  0.790040  0.068890  0.492830  1.0  0.3157
  C  C259  1  0.775900  0.121700  0.463000  1.0  -0.2584
  C  C260  1  0.715800  0.138800  0.458600  1.0  -0.1181
  C  C261  1  0.670490  0.105300  0.483200  1.0  -0.0714
  C  C262  1  0.635460  0.011540  0.536620  1.0  0.6994
  C  C263  1  0.896720  0.076790  0.473260  1.0  0.0527
  C  C264  1  0.950800  0.037370  0.487860  1.0  -0.0116
  C  C265  1  0.488270  0.184890  0.551020  1.0  -0.1458
  C  C266  1  0.483480  0.243350  0.532910  1.0  -0.0955
  C  C267  1  0.507170  0.290040  0.568890  1.0  0.3135
  C  C268  1  0.537000  0.275900  0.621700  1.0  -0.2551
  C  C269  1  0.541400  0.215800  0.638800  1.0  -0.1158
  C  C270  1  0.516800  0.170490  0.605300  1.0  -0.0715
  C  C271  1  0.463380  0.135460  0.511540  1.0  0.7006
  C  C272  1  0.526740  0.396720  0.576790  1.0  0.0487
  C  C273  1  0.512140  0.450800  0.537370  1.0  -0.0116
  C  C274  1  0.011730  0.315110  0.551020  1.0  -0.1477
  C  C275  1  0.016520  0.256650  0.532910  1.0  -0.0958
  C  C276  1  0.992830  0.209960  0.568890  1.0  0.3081
  C  C277  1  0.963000  0.224100  0.621700  1.0  -0.2569
  C  C278  1  0.958600  0.284200  0.638800  1.0  -0.1182
  C  C279  1  0.983200  0.329510  0.605300  1.0  -0.0713
  C  C280  1  0.036620  0.364540  0.511540  1.0  0.6987
  C  C281  1  0.973260  0.103280  0.576790  1.0  0.0479
  C  C282  1  0.987860  0.049200  0.537370  1.0  -0.0108
  C  C283  1  0.011730  0.184890  0.948980  1.0  -0.148
  C  C284  1  0.016520  0.243350  0.967090  1.0  -0.0951
  C  C285  1  0.992830  0.290040  0.931110  1.0  0.315
  C  C286  1  0.963000  0.275900  0.878300  1.0  -0.258
  C  C287  1  0.958600  0.215800  0.861200  1.0  -0.1156
  C  C288  1  0.983200  0.170490  0.894700  1.0  -0.0696
  C  C289  1  0.036620  0.135460  0.988460  1.0  0.7017
  C  C290  1  0.973260  0.396720  0.923210  1.0  0.0509
  C  C291  1  0.987860  0.450800  0.962630  1.0  -0.0118
  C  C292  1  0.488270  0.315110  0.948980  1.0  -0.1457
  C  C293  1  0.483480  0.256650  0.967090  1.0  -0.0953
  C  C294  1  0.507170  0.209960  0.931110  1.0  0.3075
  C  C295  1  0.537000  0.224100  0.878300  1.0  -0.258
  C  C296  1  0.541400  0.284200  0.861200  1.0  -0.1136
  C  C297  1  0.516800  0.329510  0.894700  1.0  -0.0719
  C  C298  1  0.463380  0.364540  0.988460  1.0  0.6994
  C  C299  1  0.526740  0.103280  0.923210  1.0  0.0502
  C  C300  1  0.512140  0.049200  0.962630  1.0  -0.0117
  C  C301  1  0.551020  0.488270  0.184890  1.0  -0.1453
  C  C302  1  0.532910  0.483480  0.243350  1.0  -0.0944
  C  C303  1  0.568890  0.507170  0.290040  1.0  0.3164
  C  C304  1  0.621700  0.537000  0.275900  1.0  -0.2571
  C  C305  1  0.638800  0.541400  0.215800  1.0  -0.1136
  C  C306  1  0.605300  0.516800  0.170490  1.0  -0.0737
  C  C307  1  0.511540  0.463380  0.135460  1.0  0.6973
  C  C308  1  0.576790  0.526740  0.396720  1.0  0.0523
  C  C309  1  0.537370  0.512140  0.450800  1.0  -0.0096
  C  C310  1  0.551020  0.011730  0.315110  1.0  -0.1436
  C  C311  1  0.532910  0.016520  0.256650  1.0  -0.0952
  C  C312  1  0.568890  0.992830  0.209960  1.0  0.3108
  C  C313  1  0.621700  0.963000  0.224100  1.0  -0.2565
  C  C314  1  0.638800  0.958600  0.284200  1.0  -0.1128
  C  C315  1  0.605300  0.983200  0.329510  1.0  -0.0719
  C  C316  1  0.511540  0.036620  0.364540  1.0  0.6985
  C  C317  1  0.576790  0.973260  0.103280  1.0  0.0537
  C  C318  1  0.537370  0.987860  0.049200  1.0  -0.0089
  C  C319  1  0.948980  0.011730  0.184890  1.0  -0.1474
  C  C320  1  0.967090  0.016520  0.243350  1.0  -0.0952
  C  C321  1  0.931110  0.992830  0.290040  1.0  0.3166
  C  C322  1  0.878300  0.963000  0.275900  1.0  -0.2579
  C  C323  1  0.861200  0.958600  0.215800  1.0  -0.1176
  C  C324  1  0.894700  0.983200  0.170490  1.0  -0.0726
  C  C325  1  0.988460  0.036620  0.135460  1.0  0.7
  C  C326  1  0.923210  0.973260  0.396720  1.0  0.0546
  C  C327  1  0.962630  0.987860  0.450800  1.0  -0.0111
  C  C328  1  0.948980  0.488270  0.315110  1.0  -0.1477
  C  C329  1  0.967090  0.483480  0.256650  1.0  -0.0948
  C  C330  1  0.931110  0.507170  0.209960  1.0  0.3103
  C  C331  1  0.878300  0.537000  0.224100  1.0  -0.2574
  C  C332  1  0.861200  0.541400  0.284200  1.0  -0.1164
  C  C333  1  0.894700  0.516800  0.329510  1.0  -0.0716
  C  C334  1  0.988460  0.463380  0.364540  1.0  0.698
  C  C335  1  0.923210  0.526740  0.103280  1.0  0.054
  C  C336  1  0.962630  0.512140  0.049200  1.0  -0.01
  C  C337  1  0.184890  0.551020  0.488270  1.0  -0.1448
  C  C338  1  0.243350  0.532910  0.483480  1.0  -0.0951
  C  C339  1  0.290040  0.568890  0.507170  1.0  0.3142
  C  C340  1  0.275900  0.621700  0.537000  1.0  -0.2588
  C  C341  1  0.215800  0.638800  0.541400  1.0  -0.1184
  C  C342  1  0.170490  0.605300  0.516800  1.0  -0.0717
  C  C343  1  0.135460  0.511540  0.463380  1.0  0.6997
  C  C344  1  0.396720  0.576790  0.526740  1.0  0.0527
  C  C345  1  0.450800  0.537370  0.512140  1.0  -0.0115
  C  C346  1  0.315110  0.551020  0.011730  1.0  -0.1441
  C  C347  1  0.256650  0.532910  0.016520  1.0  -0.096
  C  C348  1  0.209960  0.568890  0.992830  1.0  0.311
  C  C349  1  0.224100  0.621700  0.963000  1.0  -0.2582
  C  C350  1  0.284200  0.638800  0.958600  1.0  -0.1164
  C  C351  1  0.329510  0.605300  0.983200  1.0  -0.0704
  C  C352  1  0.364540  0.511540  0.036620  1.0  0.6998
  C  C353  1  0.103280  0.576790  0.973260  1.0  0.0518
  C  C354  1  0.049200  0.537370  0.987860  1.0  -0.0111
  C  C355  1  0.184890  0.948980  0.011730  1.0  -0.1445
  C  C356  1  0.243350  0.967090  0.016520  1.0  -0.0952
  C  C357  1  0.290040  0.931110  0.992830  1.0  0.3156
  C  C358  1  0.275900  0.878300  0.963000  1.0  -0.2581
  C  C359  1  0.215800  0.861200  0.958600  1.0  -0.119
  C  C360  1  0.170490  0.894700  0.983200  1.0  -0.0708
  C  C361  1  0.135460  0.988460  0.036620  1.0  0.7009
  C  C362  1  0.396720  0.923210  0.973260  1.0  0.0521
  C  C363  1  0.450800  0.962630  0.987860  1.0  -0.0117
  C  C364  1  0.315110  0.948980  0.488270  1.0  -0.143
  C  C365  1  0.256650  0.967090  0.483480  1.0  -0.0962
  C  C366  1  0.209960  0.931110  0.507170  1.0  0.3088
  C  C367  1  0.224100  0.878300  0.537000  1.0  -0.2578
  C  C368  1  0.284200  0.861200  0.541400  1.0  -0.1191
  C  C369  1  0.329510  0.894700  0.516800  1.0  -0.0705
  C  C370  1  0.364540  0.988460  0.463380  1.0  0.7008
  C  C371  1  0.103280  0.923210  0.526740  1.0  0.0516
  C  C372  1  0.049200  0.962630  0.512140  1.0  -0.0128
  O  O373  1  0.534580  0.917550  0.470550  1.0  -0.5997
  O  O374  1  0.559240  0.847700  0.538760  1.0  -0.6252
  O  O375  1  0.501400  0.653400  0.453780  1.0  -0.2913
  O  O376  1  0.965420  0.582450  0.470550  1.0  -0.5973
  O  O377  1  0.940760  0.652300  0.538760  1.0  -0.6227
  O  O378  1  0.998600  0.846600  0.453780  1.0  -0.2905
  O  O379  1  0.965420  0.917550  0.029450  1.0  -0.6011
  O  O380  1  0.940760  0.847700  0.961240  1.0  -0.6215
  O  O381  1  0.998600  0.653400  0.046220  1.0  -0.2914
  O  O382  1  0.534580  0.582450  0.029450  1.0  -0.5979
  O  O383  1  0.559240  0.652300  0.961240  1.0  -0.6249
  O  O384  1  0.501400  0.846600  0.046220  1.0  -0.2935
  O  O385  1  0.470550  0.534580  0.917550  1.0  -0.6003
  O  O386  1  0.538760  0.559240  0.847700  1.0  -0.6171
  O  O387  1  0.453780  0.501400  0.653400  1.0  -0.2907
  O  O388  1  0.470550  0.965420  0.582450  1.0  -0.5998
  O  O389  1  0.538760  0.940760  0.652300  1.0  -0.619
  O  O390  1  0.453780  0.998600  0.846600  1.0  -0.2915
  O  O391  1  0.029450  0.965420  0.917550  1.0  -0.5967
  O  O392  1  0.961240  0.940760  0.847700  1.0  -0.6171
  O  O393  1  0.046220  0.998600  0.653400  1.0  -0.2907
  O  O394  1  0.029450  0.534580  0.582450  1.0  -0.5965
  O  O395  1  0.961240  0.559240  0.652300  1.0  -0.6182
  O  O396  1  0.046220  0.501400  0.846600  1.0  -0.2909
  O  O397  1  0.917550  0.470550  0.534580  1.0  -0.5983
  O  O398  1  0.847700  0.538760  0.559240  1.0  -0.6193
  O  O399  1  0.653400  0.453780  0.501400  1.0  -0.2931
  O  O400  1  0.582450  0.470550  0.965420  1.0  -0.5935
  O  O401  1  0.652300  0.538760  0.940760  1.0  -0.6192
  O  O402  1  0.846600  0.453780  0.998600  1.0  -0.2932
  O  O403  1  0.917550  0.029450  0.965420  1.0  -0.5963
  O  O404  1  0.847700  0.961240  0.940760  1.0  -0.6179
  O  O405  1  0.653400  0.046220  0.998600  1.0  -0.294
  O  O406  1  0.582450  0.029450  0.534580  1.0  -0.5957
  O  O407  1  0.652300  0.961240  0.559240  1.0  -0.6205
  O  O408  1  0.846600  0.046220  0.501400  1.0  -0.2946
  O  O409  1  0.465420  0.082450  0.529450  1.0  -0.5981
  O  O410  1  0.440760  0.152300  0.461240  1.0  -0.6242
  O  O411  1  0.498600  0.346600  0.546220  1.0  -0.292
  O  O412  1  0.034580  0.417550  0.529450  1.0  -0.6
  O  O413  1  0.059240  0.347700  0.461240  1.0  -0.6215
  O  O414  1  0.001400  0.153400  0.546220  1.0  -0.2926
  O  O415  1  0.034580  0.082450  0.970550  1.0  -0.5982
  O  O416  1  0.059240  0.152300  0.038760  1.0  -0.6228
  O  O417  1  0.001400  0.346600  0.953780  1.0  -0.2913
  O  O418  1  0.465420  0.417550  0.970550  1.0  -0.6011
  O  O419  1  0.440760  0.347700  0.038760  1.0  -0.6249
  O  O420  1  0.498600  0.153400  0.953780  1.0  -0.2903
  O  O421  1  0.529450  0.465420  0.082450  1.0  -0.5966
  O  O422  1  0.461240  0.440760  0.152300  1.0  -0.6194
  O  O423  1  0.546220  0.498600  0.346600  1.0  -0.2919
  O  O424  1  0.529450  0.034580  0.417550  1.0  -0.5967
  O  O425  1  0.461240  0.059240  0.347700  1.0  -0.6179
  O  O426  1  0.546220  0.001400  0.153400  1.0  -0.2908
  O  O427  1  0.970550  0.034580  0.082450  1.0  -0.5984
  O  O428  1  0.038760  0.059240  0.152300  1.0  -0.6173
  O  O429  1  0.953780  0.001400  0.346600  1.0  -0.2922
  O  O430  1  0.970550  0.465420  0.417550  1.0  -0.6015
  O  O431  1  0.038760  0.440760  0.347700  1.0  -0.6164
  O  O432  1  0.953780  0.498600  0.153400  1.0  -0.2904
  O  O433  1  0.082450  0.529450  0.465420  1.0  -0.5943
  O  O434  1  0.152300  0.461240  0.440760  1.0  -0.6184
  O  O435  1  0.346600  0.546220  0.498600  1.0  -0.2931
  O  O436  1  0.417550  0.529450  0.034580  1.0  -0.5981
  O  O437  1  0.347700  0.461240  0.059240  1.0  -0.6196
  O  O438  1  0.153400  0.546220  0.001400  1.0  -0.2941
  O  O439  1  0.082450  0.970550  0.034580  1.0  -0.5958
  O  O440  1  0.152300  0.038760  0.059240  1.0  -0.6193
  O  O441  1  0.346600  0.953780  0.001400  1.0  -0.2934
  O  O442  1  0.417550  0.970550  0.465420  1.0  -0.5968
  O  O443  1  0.347700  0.038760  0.440760  1.0  -0.6196
  O  O444  1  0.153400  0.953780  0.498600  1.0  -0.2938
