# generated using pymatgen
data_Tb2NiH32C56(N2O5)4
_symmetry_space_group_name_H-M   'P 1'
_cell_length_a   10.23470000
_cell_length_b   10.86080000
_cell_length_c   13.74520000
_cell_angle_alpha   79.05300000
_cell_angle_beta   78.74500000
_cell_angle_gamma   86.32600000
_symmetry_Int_Tables_number   1
_chemical_formula_structural   Tb2NiH32C56(N2O5)4
_chemical_formula_sum   'Tb2 Ni1 H32 C56 N8 O20'
_cell_volume   1470.64510053
_cell_formula_units_Z   1
loop_
 _symmetry_equiv_pos_site_id
 _symmetry_equiv_pos_as_xyz
  1  'x, y, z'
loop_
 _atom_site_type_symbol
 _atom_site_label
 _atom_site_symmetry_multiplicity
 _atom_site_fract_x
 _atom_site_fract_y
 _atom_site_fract_z
 _atom_site_occupancy
 _atom_site_charge
  Tb  Tb1  1  0.319280  0.922470  0.297100  1.0  2.1538
  Tb  Tb2  1  0.680720  0.077530  0.702900  1.0  2.1515
  Ni  Ni3  1  0.000000  0.500000  0.500000  1.0  0.4654
  H  H4  1  0.326400  0.669200  0.154100  1.0  0.12
  H  H5  1  0.346400  0.329700  0.076400  1.0  0.1205
  H  H6  1  0.282100  0.359800  0.368300  1.0  0.12
  H  H7  1  0.346300  0.772600  0.851100  1.0  0.1285
  H  H8  1  0.353900  0.880600  0.691600  1.0  0.0797
  H  H9  1  0.365900  0.574300  0.584600  1.0  0.0812
  H  H10  1  0.355400  0.454600  0.742600  1.0  0.1272
  H  H11  1  0.824100  0.911500  0.281400  1.0  0.1133
  H  H12  1  0.696600  0.851600  0.036400  1.0  0.1214
  H  H13  1  0.088400  0.842200  0.039500  1.0  0.1161
  H  H14  1  0.018200  0.828900  0.715300  1.0  0.1348
  H  H15  1  0.033200  0.746900  0.571300  1.0  0.0893
  H  H16  1  0.013700  0.407600  0.723800  1.0  0.0826
  H  H17  1  0.010300  0.477600  0.869900  1.0  0.1314
  H  H18  1  0.376700  0.646100  0.982500  1.0  0.3216
  H  H19  1  0.879500  0.839100  0.881800  1.0  0.2959
  H  H20  1  0.673600  0.330800  0.845900  1.0  0.1202
  H  H21  1  0.653600  0.670300  0.923600  1.0  0.1194
  H  H22  1  0.717900  0.640200  0.631700  1.0  0.121
  H  H23  1  0.653700  0.227400  0.148900  1.0  0.1287
  H  H24  1  0.646100  0.119400  0.308400  1.0  0.0788
  H  H25  1  0.634100  0.425700  0.415400  1.0  0.0814
  H  H26  1  0.644600  0.545400  0.257400  1.0  0.1268
  H  H27  1  0.175900  0.088500  0.718600  1.0  0.113
  H  H28  1  0.303400  0.148400  0.963600  1.0  0.1219
  H  H29  1  0.911600  0.157800  0.960500  1.0  0.1162
  H  H30  1  0.981800  0.171100  0.284700  1.0  0.1355
  H  H31  1  0.966800  0.253100  0.428700  1.0  0.0892
  H  H32  1  0.986300  0.592400  0.276200  1.0  0.0822
  H  H33  1  0.989700  0.522400  0.130100  1.0  0.1316
  H  H34  1  0.623300  0.353900  0.017500  1.0  0.3203
  H  H35  1  0.120500  0.160900  0.118200  1.0  0.2969
  C  C36  1  0.298000  0.526700  0.273800  1.0  -0.1358
  C  C37  1  0.321100  0.582500  0.172300  1.0  -0.1071
  C  C38  1  0.336200  0.509500  0.098200  1.0  0.2114
  C  C39  1  0.334800  0.379600  0.125600  1.0  -0.1389
  C  C40  1  0.316100  0.325200  0.226700  1.0  -0.1135
  C  C41  1  0.296400  0.397600  0.300700  1.0  -0.0214
  C  C42  1  0.313300  0.185400  0.253200  1.0  0.6645
  C  C43  1  0.266600  0.605900  0.354700  1.0  0.774
  C  C44  1  0.334800  0.517100  0.918900  1.0  0.5381
  C  C45  1  0.348200  0.599700  0.816900  1.0  -0.0184
  C  C46  1  0.349000  0.729400  0.798400  1.0  -0.1921
  C  C47  1  0.353900  0.793500  0.702300  1.0  0.1959
  C  C48  1  0.360500  0.614500  0.639400  1.0  0.1736
  C  C49  1  0.354800  0.541600  0.734300  1.0  -0.1565
  C  C50  1  0.974200  0.879200  0.168100  1.0  -0.1476
  C  C51  1  0.842000  0.894900  0.216100  1.0  -0.0067
  C  C52  1  0.738100  0.885800  0.167500  1.0  -0.1269
  C  C53  1  0.766000  0.857200  0.069900  1.0  -0.0874
  C  C54  1  0.896600  0.837300  0.023600  1.0  0.2101
  C  C55  1  0.000600  0.851400  0.072000  1.0  -0.1124
  C  C56  1  0.091100  0.890900  0.216800  1.0  0.6614
  C  C57  1  0.593600  0.901900  0.215400  1.0  0.6647
  C  C58  1  0.006100  0.703600  0.908200  1.0  0.5217
  C  C59  1  0.009200  0.661000  0.809800  1.0  0.0168
  C  C60  1  0.017500  0.742600  0.718700  1.0  -0.1986
  C  C61  1  0.024900  0.692200  0.632900  1.0  0.1807
  C  C62  1  0.015200  0.493600  0.721900  1.0  0.1737
  C  C63  1  0.011400  0.534700  0.810100  1.0  -0.124
  C  C64  1  0.702000  0.473300  0.726200  1.0  -0.1322
  C  C65  1  0.678900  0.417500  0.827700  1.0  -0.107
  C  C66  1  0.663800  0.490500  0.901800  1.0  0.2112
  C  C67  1  0.665200  0.620400  0.874400  1.0  -0.1384
  C  C68  1  0.683900  0.674800  0.773300  1.0  -0.1147
  C  C69  1  0.703600  0.602400  0.699300  1.0  -0.0187
  C  C70  1  0.686700  0.814600  0.746800  1.0  0.6653
  C  C71  1  0.733400  0.394100  0.645300  1.0  0.7757
  C  C72  1  0.665200  0.482900  0.081100  1.0  0.5384
  C  C73  1  0.651800  0.400300  0.183100  1.0  -0.0174
  C  C74  1  0.651000  0.270600  0.201600  1.0  -0.1895
  C  C75  1  0.646100  0.206500  0.297700  1.0  0.1974
  C  C76  1  0.639500  0.385500  0.360600  1.0  0.1734
  C  C77  1  0.645200  0.458400  0.265700  1.0  -0.1569
  C  C78  1  0.025800  0.120800  0.831900  1.0  -0.1469
  C  C79  1  0.158000  0.105100  0.783900  1.0  -0.0068
  C  C80  1  0.261900  0.114200  0.832500  1.0  -0.1274
  C  C81  1  0.234000  0.142800  0.930100  1.0  -0.087
  C  C82  1  0.103400  0.162700  0.976400  1.0  0.2106
  C  C83  1  0.999400  0.148600  0.928000  1.0  -0.1134
  C  C84  1  0.908900  0.109100  0.783200  1.0  0.6601
  C  C85  1  0.406400  0.098100  0.784600  1.0  0.6652
  C  C86  1  0.993900  0.296400  0.091800  1.0  0.5216
  C  C87  1  0.990800  0.339000  0.190200  1.0  0.0176
  C  C88  1  0.982500  0.257400  0.281300  1.0  -0.1962
  C  C89  1  0.975100  0.307800  0.367100  1.0  0.1828
  C  C90  1  0.984800  0.506400  0.278100  1.0  0.1726
  C  C91  1  0.988600  0.465300  0.189900  1.0  -0.126
  N  N92  1  0.352900  0.569300  0.996400  1.0  -0.4032
  N  N93  1  0.358500  0.738700  0.622800  1.0  -0.4245
  N  N94  1  0.920400  0.799800  0.928100  1.0  -0.4047
  N  N95  1  0.020800  0.570300  0.633000  1.0  -0.3625
  N  N96  1  0.647100  0.430700  0.003600  1.0  -0.4038
  N  N97  1  0.641500  0.261300  0.377200  1.0  -0.4225
  N  N98  1  0.079600  0.200200  0.071900  1.0  -0.4044
  N  N99  1  0.979200  0.429700  0.367000  1.0  -0.3682
  O  O100  1  0.192300  0.563300  0.435500  1.0  -0.6117
  O  O101  1  0.318900  0.712200  0.335800  1.0  -0.7473
  O  O102  1  0.328700  0.129500  0.338300  1.0  -0.6612
  O  O103  1  0.293200  0.122800  0.189900  1.0  -0.6414
  O  O104  1  0.308800  0.408900  0.926300  1.0  -0.4642
  O  O105  1  0.073300  0.905300  0.308400  1.0  -0.7027
  O  O106  1  0.207400  0.885000  0.166700  1.0  -0.6301
  O  O107  1  0.560300  0.900900  0.308400  1.0  -0.6752
  O  O108  1  0.504600  0.915000  0.162300  1.0  -0.6548
  O  O109  1  0.075900  0.649000  0.966700  1.0  -0.4881
  O  O110  1  0.807700  0.436700  0.564500  1.0  -0.6138
  O  O111  1  0.681100  0.287800  0.664200  1.0  -0.7493
  O  O112  1  0.671300  0.870500  0.661700  1.0  -0.6609
  O  O113  1  0.706800  0.877200  0.810100  1.0  -0.6397
  O  O114  1  0.691200  0.591100  0.073700  1.0  -0.4663
  O  O115  1  0.926700  0.094700  0.691600  1.0  -0.7055
  O  O116  1  0.792600  0.115000  0.833300  1.0  -0.6279
  O  O117  1  0.439700  0.099100  0.691600  1.0  -0.672
  O  O118  1  0.495400  0.085000  0.837700  1.0  -0.6559
  O  O119  1  0.924100  0.351000  0.033300  1.0  -0.4883
