# generated using pymatgen
data_Cu2P3H32C40N9(OF6)3
_symmetry_space_group_name_H-M   'P 1'
_cell_length_a   13.47790000
_cell_length_b   13.47790000
_cell_length_c   11.10850000
_cell_angle_alpha   93.04760000
_cell_angle_beta   93.04760000
_cell_angle_gamma   69.23250000
_symmetry_Int_Tables_number   1
_chemical_formula_structural   Cu2P3H32C40N9(OF6)3
_chemical_formula_sum   'Cu2 P3 H32 C40 N9 O3 F18'
_cell_volume   1882.85066505
_cell_formula_units_Z   1
loop_
 _symmetry_equiv_pos_site_id
 _symmetry_equiv_pos_as_xyz
  1  'x, y, z'
loop_
 _atom_site_type_symbol
 _atom_site_label
 _atom_site_symmetry_multiplicity
 _atom_site_fract_x
 _atom_site_fract_y
 _atom_site_fract_z
 _atom_site_occupancy
 _atom_site_charge
  Cu  Cu1  1  0.277750  0.722250  0.000000  1.0  0.7274
  Cu  Cu2  1  0.722250  0.277750  0.000000  1.0  0.7262
  P  P3  1  0.000000  0.000000  0.000000  1.0  1.6954
  P  P4  1  0.631600  0.631600  0.660000  1.0  1.6193
  P  P5  1  0.368400  0.368400  0.340000  1.0  1.6201
  H  H6  1  0.340800  0.570600  0.792300  1.0  0.1051
  H  H7  1  0.347600  0.569600  0.579000  1.0  0.1197
  H  H8  1  0.190000  0.887000  0.597500  1.0  0.1253
  H  H9  1  0.195300  0.881900  0.807600  1.0  0.1136
  H  H10  1  0.472000  0.730800  0.898900  1.0  0.0983
  H  H11  1  0.565900  0.847300  0.891100  1.0  0.1225
  H  H12  1  0.354900  0.051700  0.114600  1.0  0.1305
  H  H13  1  0.266700  0.930900  0.115300  1.0  0.0987
  H  H14  1  0.429400  0.659200  0.207700  1.0  0.1001
  H  H15  1  0.430400  0.652400  0.421000  1.0  0.1183
  H  H16  1  0.113000  0.810000  0.402500  1.0  0.1266
  H  H17  1  0.118100  0.804700  0.192400  1.0  0.113
  H  H18  1  0.269200  0.528000  0.101100  1.0  0.1031
  H  H19  1  0.152700  0.434100  0.108900  1.0  0.1194
  H  H20  1  0.948300  0.645100  0.885400  1.0  0.1286
  H  H21  1  0.069100  0.733300  0.884700  1.0  0.0977
  H  H22  1  0.659200  0.429400  0.207700  1.0  0.1015
  H  H23  1  0.652400  0.430400  0.421000  1.0  0.1195
  H  H24  1  0.810000  0.113000  0.402500  1.0  0.1253
  H  H25  1  0.804700  0.118100  0.192400  1.0  0.1132
  H  H26  1  0.528000  0.269200  0.101100  1.0  0.1051
  H  H27  1  0.434100  0.152700  0.108900  1.0  0.1193
  H  H28  1  0.645100  0.948300  0.885400  1.0  0.1304
  H  H29  1  0.733300  0.069100  0.884700  1.0  0.0982
  H  H30  1  0.570600  0.340800  0.792300  1.0  0.1041
  H  H31  1  0.569600  0.347600  0.579000  1.0  0.1182
  H  H32  1  0.887000  0.190000  0.597500  1.0  0.1261
  H  H33  1  0.881900  0.195300  0.807600  1.0  0.1135
  H  H34  1  0.730800  0.472000  0.898900  1.0  0.0973
  H  H35  1  0.847300  0.565900  0.891100  1.0  0.1228
  H  H36  1  0.051700  0.354900  0.114600  1.0  0.1303
  H  H37  1  0.930900  0.266700  0.115300  1.0  0.0987
  C  C38  1  0.311500  0.636900  0.751400  1.0  0.1643
  C  C39  1  0.313700  0.635900  0.625300  1.0  -0.141
  C  C40  1  0.267900  0.729900  0.566900  1.0  0.0921
  C  C41  1  0.225000  0.819600  0.636800  1.0  -0.1679
  C  C42  1  0.227100  0.816500  0.759800  1.0  0.1492
  C  C43  1  0.447800  0.797800  0.944100  1.0  0.161
  C  C44  1  0.503000  0.867400  0.939000  1.0  -0.0879
  C  C45  1  0.470400  0.961800  0.001000  1.0  0.0791
  C  C46  1  0.382100  0.984300  0.068900  1.0  -0.0673
  C  C47  1  0.329200  0.914000  0.068900  1.0  0.1525
  C  C48  1  0.363100  0.688500  0.248600  1.0  0.1608
  C  C49  1  0.364100  0.686300  0.374700  1.0  -0.1417
  C  C50  1  0.270100  0.732100  0.433100  1.0  0.0918
  C  C51  1  0.180400  0.775000  0.363200  1.0  -0.1703
  C  C52  1  0.183500  0.772900  0.240200  1.0  0.1543
  C  C53  1  0.202200  0.552200  0.055900  1.0  0.1583
  C  C54  1  0.132600  0.497000  0.061000  1.0  -0.0859
  C  C55  1  0.038200  0.529600  0.999000  1.0  0.0766
  C  C56  1  0.015700  0.617900  0.931100  1.0  -0.0616
  C  C57  1  0.086000  0.670800  0.931100  1.0  0.1542
  C  C58  1  0.688500  0.363100  0.248600  1.0  0.1599
  C  C59  1  0.686300  0.364100  0.374700  1.0  -0.1454
  C  C60  1  0.732100  0.270100  0.433100  1.0  0.0913
  C  C61  1  0.775000  0.180400  0.363200  1.0  -0.1696
  C  C62  1  0.772900  0.183500  0.240200  1.0  0.1506
  C  C63  1  0.552200  0.202200  0.055900  1.0  0.1587
  C  C64  1  0.497000  0.132600  0.061000  1.0  -0.0806
  C  C65  1  0.529600  0.038200  0.999000  1.0  0.0767
  C  C66  1  0.617900  0.015700  0.931100  1.0  -0.0682
  C  C67  1  0.670800  0.086000  0.931100  1.0  0.152
  C  C68  1  0.636900  0.311500  0.751400  1.0  0.1667
  C  C69  1  0.635900  0.313700  0.625300  1.0  -0.1366
  C  C70  1  0.729900  0.267900  0.566900  1.0  0.0921
  C  C71  1  0.819600  0.225000  0.636800  1.0  -0.1671
  C  C72  1  0.816500  0.227100  0.759800  1.0  0.151
  C  C73  1  0.797800  0.447800  0.944100  1.0  0.1614
  C  C74  1  0.867400  0.503000  0.939000  1.0  -0.0849
  C  C75  1  0.961800  0.470400  0.001000  1.0  0.0782
  C  C76  1  0.984300  0.382100  0.068900  1.0  -0.0653
  C  C77  1  0.914000  0.329200  0.068900  1.0  0.1553
  N  N78  1  0.270800  0.725400  0.817400  1.0  -0.2829
  N  N79  1  0.360900  0.821300  0.006700  1.0  -0.2769
  N  N80  1  0.274600  0.729200  0.182600  1.0  -0.2878
  N  N81  1  0.178700  0.639100  0.993300  1.0  -0.2814
  N  N82  1  0.729200  0.274600  0.182600  1.0  -0.2885
  N  N83  1  0.639100  0.178700  0.993300  1.0  -0.2828
  N  N84  1  0.725400  0.270800  0.817400  1.0  -0.2821
  N  N85  1  0.821300  0.360900  0.006700  1.0  -0.2759
  N  N86  1  0.486200  0.486200  0.981000  1.0  -0.0102
  O  O87  1  0.428400  0.571600  0.000000  1.0  -0.6156
  O  O88  1  0.571600  0.428400  0.000000  1.0  -0.611
  O  O89  1  0.434100  0.434100  0.927500  1.0  -0.5846
  F  F90  1  0.731000  0.524400  0.662900  1.0  -0.4077
  F  F91  1  0.475600  0.269000  0.337100  1.0  -0.412
  F  F92  1  0.269000  0.475600  0.337100  1.0  -0.4084
  F  F93  1  0.524400  0.731000  0.662900  1.0  -0.41
  F  F94  1  0.102700  0.897300  0.000000  1.0  -0.4194
  F  F95  1  0.897300  0.102700  0.000000  1.0  -0.4204
  F  F96  1  0.582100  0.582100  0.757500  1.0  -0.4028
  F  F97  1  0.583900  0.583900  0.556100  1.0  -0.3779
  F  F98  1  0.682000  0.682000  0.570900  1.0  -0.375
  F  F99  1  0.675900  0.675900  0.772900  1.0  -0.4244
  F  F100  1  0.417900  0.417900  0.242500  1.0  -0.4095
  F  F101  1  0.416100  0.416100  0.443900  1.0  -0.3766
  F  F102  1  0.318000  0.318000  0.429100  1.0  -0.3768
  F  F103  1  0.324100  0.324100  0.227100  1.0  -0.4299
  F  F104  1  0.972900  0.972900  0.117500  1.0  -0.4045
  F  F105  1  0.063100  0.063100  0.057000  1.0  -0.4191
  F  F106  1  0.027100  0.027100  0.882500  1.0  -0.4061
  F  F107  1  0.936900  0.936900  0.943000  1.0  -0.4192
