# generated using pymatgen
data_AgH18(C4N)4
_symmetry_space_group_name_H-M   'P 1'
_cell_length_a   11.54000000
_cell_length_b   11.54000000
_cell_length_c   14.94300000
_cell_angle_alpha   90.00000000
_cell_angle_beta   90.00000000
_cell_angle_gamma   90.00000000
_symmetry_Int_Tables_number   1
_chemical_formula_structural   AgH18(C4N)4
_chemical_formula_sum   'Ag4 H72 C64 N16'
_cell_volume   1989.98321880
_cell_formula_units_Z   4
loop_
 _symmetry_equiv_pos_site_id
 _symmetry_equiv_pos_as_xyz
  1  'x, y, z'
loop_
 _atom_site_type_symbol
 _atom_site_label
 _atom_site_symmetry_multiplicity
 _atom_site_fract_x
 _atom_site_fract_y
 _atom_site_fract_z
 _atom_site_occupancy
 _atom_site_charge
  Ag  Ag1  1  0.000000  0.000000  0.146000  1.0  0.2927
  Ag  Ag2  1  0.500000  0.500000  0.646000  1.0  0.2927
  Ag  Ag3  1  0.000000  0.500000  0.896000  1.0  0.3796
  Ag  Ag4  1  0.500000  0.000000  0.396000  1.0  0.3796
  H  H5  1  0.865300  0.658500  0.048400  1.0  0.0862
  H  H6  1  0.805700  0.845800  0.080100  1.0  0.1007
  H  H7  1  0.904400  0.942300  0.831900  1.0  0.1179
  H  H8  1  0.966700  0.753100  0.807600  1.0  0.069
  H  H9  1  0.673600  0.121000  0.936900  1.0  0.1132
  H  H10  1  0.750800  0.063300  0.859900  1.0  0.1084
  H  H11  1  0.792500  0.180800  0.906900  1.0  0.1029
  H  H12  1  0.734000  0.205600  0.075100  1.0  0.0802
  H  H13  1  0.867400  0.243900  0.072800  1.0  0.0944
  H  H14  1  0.795900  0.268800  0.218700  1.0  0.0788
  H  H15  1  0.755200  0.135900  0.222100  1.0  0.0914
  H  H16  1  0.890300  0.329900  0.359700  1.0  0.1173
  H  H17  1  0.931600  0.241000  0.435400  1.0  0.1105
  H  H18  1  0.815400  0.216300  0.380100  1.0  0.0942
  H  H19  1  0.155000  0.196200  0.213800  1.0  0.1065
  H  H20  1  0.341000  0.132500  0.245000  1.0  0.083
  H  H21  1  0.247100  0.031700  0.485300  1.0  0.0672
  H  H22  1  0.057200  0.094900  0.460700  1.0  0.1207
  H  H23  1  0.134700  0.341500  0.048400  1.0  0.0855
  H  H24  1  0.194300  0.154200  0.080100  1.0  0.0994
  H  H25  1  0.095600  0.057700  0.831900  1.0  0.1182
  H  H26  1  0.033300  0.246900  0.807600  1.0  0.0684
  H  H27  1  0.326400  0.879000  0.936900  1.0  0.1121
  H  H28  1  0.249200  0.936700  0.859900  1.0  0.1094
  H  H29  1  0.207500  0.819200  0.906900  1.0  0.1027
  H  H30  1  0.266000  0.794400  0.075100  1.0  0.0797
  H  H31  1  0.132600  0.756100  0.072800  1.0  0.0952
  H  H32  1  0.204100  0.731200  0.218700  1.0  0.0769
  H  H33  1  0.244800  0.864100  0.222100  1.0  0.0908
  H  H34  1  0.109700  0.670100  0.359700  1.0  0.1168
  H  H35  1  0.068400  0.759000  0.435400  1.0  0.1108
  H  H36  1  0.184600  0.783700  0.380100  1.0  0.0957
  H  H37  1  0.845000  0.803800  0.213800  1.0  0.1062
  H  H38  1  0.659000  0.867500  0.245000  1.0  0.0832
  H  H39  1  0.752900  0.968300  0.485300  1.0  0.067
  H  H40  1  0.942800  0.905100  0.460700  1.0  0.1212
  H  H41  1  0.365300  0.841500  0.548400  1.0  0.086
  H  H42  1  0.305700  0.654200  0.580100  1.0  0.1001
  H  H43  1  0.404400  0.557700  0.331900  1.0  0.1178
  H  H44  1  0.466700  0.746900  0.307600  1.0  0.0687
  H  H45  1  0.173600  0.379000  0.436900  1.0  0.1132
  H  H46  1  0.250800  0.436700  0.359900  1.0  0.1083
  H  H47  1  0.292500  0.319200  0.406900  1.0  0.1029
  H  H48  1  0.234000  0.294400  0.575100  1.0  0.0802
  H  H49  1  0.367400  0.256100  0.572800  1.0  0.0944
  H  H50  1  0.295900  0.231200  0.718700  1.0  0.0758
  H  H51  1  0.255200  0.364100  0.722100  1.0  0.0912
  H  H52  1  0.390300  0.170100  0.859700  1.0  0.1171
  H  H53  1  0.431600  0.259000  0.935400  1.0  0.1111
  H  H54  1  0.315400  0.283700  0.880100  1.0  0.0939
  H  H55  1  0.655000  0.303800  0.713800  1.0  0.1061
  H  H56  1  0.841000  0.367500  0.745000  1.0  0.0829
  H  H57  1  0.747100  0.468300  0.985300  1.0  0.0671
  H  H58  1  0.557200  0.405100  0.960700  1.0  0.1207
  H  H59  1  0.634700  0.158500  0.548400  1.0  0.0854
  H  H60  1  0.694300  0.345800  0.580100  1.0  0.1
  H  H61  1  0.595600  0.442300  0.331900  1.0  0.1184
  H  H62  1  0.533300  0.253100  0.307600  1.0  0.0685
  H  H63  1  0.826400  0.621000  0.436900  1.0  0.112
  H  H64  1  0.749200  0.563300  0.359900  1.0  0.1093
  H  H65  1  0.707500  0.680800  0.406900  1.0  0.1032
  H  H66  1  0.766000  0.705600  0.575100  1.0  0.0795
  H  H67  1  0.632600  0.743900  0.572800  1.0  0.0955
  H  H68  1  0.704100  0.768800  0.718700  1.0  0.0783
  H  H69  1  0.744800  0.635900  0.722100  1.0  0.0911
  H  H70  1  0.609700  0.829900  0.859700  1.0  0.1168
  H  H71  1  0.568400  0.741000  0.935400  1.0  0.11
  H  H72  1  0.684600  0.716300  0.880100  1.0  0.0959
  H  H73  1  0.345000  0.696200  0.713800  1.0  0.1062
  H  H74  1  0.159000  0.632500  0.745000  1.0  0.0832
  H  H75  1  0.252900  0.531700  0.985300  1.0  0.0673
  H  H76  1  0.442800  0.594900  0.960700  1.0  0.1212
  C  C77  1  0.876300  0.717400  0.004700  1.0  0.1492
  C  C78  1  0.839700  0.829100  0.023600  1.0  -0.1639
  C  C79  1  0.852200  0.915500  0.961700  1.0  0.0133
  C  C80  1  0.898200  0.886100  0.878100  1.0  -0.2331
  C  C81  1  0.934700  0.772600  0.864200  1.0  0.149
  C  C82  1  0.816800  0.037700  0.985200  1.0  0.2194
  C  C83  1  0.752900  0.106600  0.916300  1.0  -0.3909
  C  C84  1  0.812600  0.185600  0.096700  1.0  -0.0311
  C  C85  1  0.814400  0.189500  0.197800  1.0  0.0054
  C  C86  1  0.962400  0.182400  0.308500  1.0  0.2221
  C  C87  1  0.894100  0.248100  0.376800  1.0  -0.3975
  C  C88  1  0.084400  0.148200  0.332800  1.0  -0.0074
  C  C89  1  0.171400  0.161100  0.270000  1.0  -0.191
  C  C90  1  0.282400  0.122900  0.289000  1.0  0.1558
  C  C91  1  0.227800  0.064400  0.428900  1.0  0.1498
  C  C92  1  0.113600  0.101700  0.414700  1.0  -0.2184
  C  C93  1  0.123700  0.282600  0.004700  1.0  0.1497
  C  C94  1  0.160300  0.170900  0.023600  1.0  -0.1653
  C  C95  1  0.147800  0.084500  0.961700  1.0  0.013
  C  C96  1  0.101800  0.113900  0.878100  1.0  -0.233
  C  C97  1  0.065300  0.227400  0.864200  1.0  0.1491
  C  C98  1  0.183200  0.962300  0.985200  1.0  0.2189
  C  C99  1  0.247100  0.893400  0.916300  1.0  -0.3921
  C  C100  1  0.187400  0.814400  0.096700  1.0  -0.0325
  C  C101  1  0.185600  0.810500  0.197800  1.0  0.0042
  C  C102  1  0.037600  0.817600  0.308500  1.0  0.2207
  C  C103  1  0.105900  0.751900  0.376800  1.0  -0.3974
  C  C104  1  0.915600  0.851800  0.332800  1.0  -0.0087
  C  C105  1  0.828600  0.838900  0.270000  1.0  -0.191
  C  C106  1  0.717600  0.877100  0.289000  1.0  0.1565
  C  C107  1  0.772200  0.935600  0.428900  1.0  0.1469
  C  C108  1  0.886400  0.898300  0.414700  1.0  -0.2186
  C  C109  1  0.376300  0.782600  0.504700  1.0  0.1488
  C  C110  1  0.339700  0.670900  0.523600  1.0  -0.1641
  C  C111  1  0.352200  0.584500  0.461700  1.0  0.0128
  C  C112  1  0.398200  0.613900  0.378100  1.0  -0.2335
  C  C113  1  0.434700  0.727400  0.364200  1.0  0.1488
  C  C114  1  0.316800  0.462300  0.485200  1.0  0.2196
  C  C115  1  0.252900  0.393400  0.416300  1.0  -0.3912
  C  C116  1  0.312600  0.314400  0.596700  1.0  -0.0323
  C  C117  1  0.314400  0.310500  0.697800  1.0  0.0054
  C  C118  1  0.462400  0.317600  0.808500  1.0  0.2218
  C  C119  1  0.394100  0.251900  0.876800  1.0  -0.3987
  C  C120  1  0.584400  0.351800  0.832800  1.0  -0.0079
  C  C121  1  0.671400  0.338900  0.770000  1.0  -0.1912
  C  C122  1  0.782400  0.377100  0.789000  1.0  0.1568
  C  C123  1  0.727800  0.435600  0.928900  1.0  0.1486
  C  C124  1  0.613600  0.398300  0.914700  1.0  -0.2187
  C  C125  1  0.623700  0.217400  0.504700  1.0  0.15
  C  C126  1  0.660300  0.329100  0.523600  1.0  -0.1651
  C  C127  1  0.647800  0.415500  0.461700  1.0  0.0133
  C  C128  1  0.601800  0.386100  0.378100  1.0  -0.233
  C  C129  1  0.565300  0.272600  0.364200  1.0  0.1493
  C  C130  1  0.683200  0.537700  0.485200  1.0  0.2189
  C  C131  1  0.747100  0.606600  0.416300  1.0  -0.3919
  C  C132  1  0.687400  0.685600  0.596700  1.0  -0.0318
  C  C133  1  0.685600  0.689500  0.697800  1.0  0.004
  C  C134  1  0.537600  0.682400  0.808500  1.0  0.2214
  C  C135  1  0.605900  0.748100  0.876800  1.0  -0.3969
  C  C136  1  0.415600  0.648200  0.832800  1.0  -0.0085
  C  C137  1  0.328600  0.661100  0.770000  1.0  -0.1907
  C  C138  1  0.217600  0.622900  0.789000  1.0  0.156
  C  C139  1  0.272200  0.564400  0.928900  1.0  0.1482
  C  C140  1  0.386400  0.601700  0.914700  1.0  -0.2184
  N  N141  1  0.927200  0.689600  0.926200  1.0  -0.3808
  N  N142  1  0.844600  0.070700  0.063400  1.0  -0.3889
  N  N143  1  0.929500  0.155600  0.230000  1.0  -0.3636
  N  N144  1  0.310400  0.072700  0.367200  1.0  -0.3679
  N  N145  1  0.072800  0.310400  0.926200  1.0  -0.3798
  N  N146  1  0.155400  0.929300  0.063400  1.0  -0.3898
  N  N147  1  0.070500  0.844400  0.230000  1.0  -0.3635
  N  N148  1  0.689600  0.927300  0.367200  1.0  -0.3682
  N  N149  1  0.427200  0.810400  0.426200  1.0  -0.3796
  N  N150  1  0.344600  0.429300  0.563400  1.0  -0.3898
  N  N151  1  0.429500  0.344400  0.730000  1.0  -0.3632
  N  N152  1  0.810400  0.427300  0.867200  1.0  -0.3689
  N  N153  1  0.572800  0.189600  0.426200  1.0  -0.3817
  N  N154  1  0.655400  0.570700  0.563400  1.0  -0.3888
  N  N155  1  0.570500  0.655600  0.730000  1.0  -0.364
  N  N156  1  0.189600  0.572700  0.867200  1.0  -0.3679
