# generated using pymatgen
data_LaH2C5O6
_symmetry_space_group_name_H-M   'P 1'
_cell_length_a   9.16640000
_cell_length_b   9.16640000
_cell_length_c   14.96900000
_cell_angle_alpha   79.96640000
_cell_angle_beta   79.96670000
_cell_angle_gamma   115.52900000
_symmetry_Int_Tables_number   1
_chemical_formula_structural   LaH2C5O6
_chemical_formula_sum   'La4 H8 C20 O24'
_cell_volume   1072.69428808
_cell_formula_units_Z   4
loop_
 _symmetry_equiv_pos_site_id
 _symmetry_equiv_pos_as_xyz
  1  'x, y, z'
loop_
 _atom_site_type_symbol
 _atom_site_label
 _atom_site_symmetry_multiplicity
 _atom_site_fract_x
 _atom_site_fract_y
 _atom_site_fract_z
 _atom_site_occupancy
 _atom_site_charge
  La  La1  1  0.259160  0.509160  0.481680  1.0  2.1528
  La  La2  1  0.490840  0.740840  0.018320  1.0  2.153
  La  La3  1  0.740840  0.490840  0.518320  1.0  2.153
  La  La4  1  0.509160  0.259160  0.981680  1.0  2.1528
  H  H5  1  0.308000  0.868000  0.570000  1.0  0.1244
  H  H6  1  0.122000  0.062000  0.570000  1.0  0.1245
  H  H7  1  0.132000  0.692000  0.930000  1.0  0.1245
  H  H8  1  0.938000  0.878000  0.930000  1.0  0.126
  H  H9  1  0.692000  0.132000  0.430000  1.0  0.1238
  H  H10  1  0.878000  0.938000  0.430000  1.0  0.1246
  H  H11  1  0.868000  0.308000  0.070000  1.0  0.1255
  H  H12  1  0.062000  0.122000  0.070000  1.0  0.1267
  C  C13  1  0.059170  0.751370  0.558260  1.0  0.7436
  C  C14  1  0.212840  0.894440  0.564320  1.0  -0.1077
  C  C15  1  0.382570  0.190370  0.558260  1.0  0.743
  C  C16  1  0.222840  0.041240  0.564320  1.0  -0.1092
  C  C17  1  0.248630  0.940830  0.941740  1.0  0.7434
  C  C18  1  0.105560  0.787160  0.935680  1.0  -0.1083
  C  C19  1  0.809630  0.617430  0.941740  1.0  0.7426
  C  C20  1  0.958760  0.777160  0.935680  1.0  -0.1094
  C  C21  1  0.940830  0.248630  0.441740  1.0  0.7427
  C  C22  1  0.787160  0.105560  0.435680  1.0  -0.1092
  C  C23  1  0.617430  0.809630  0.441740  1.0  0.7435
  C  C24  1  0.777160  0.958760  0.435680  1.0  -0.1081
  C  C25  1  0.751370  0.059170  0.058260  1.0  0.7431
  C  C26  1  0.894440  0.212840  0.064320  1.0  -0.1099
  C  C27  1  0.190370  0.382570  0.058260  1.0  0.7434
  C  C28  1  0.041240  0.222840  0.064320  1.0  -0.108
  C  C29  1  0.324600  0.675400  0.250000  1.0  0.5764
  C  C30  1  0.425400  0.574600  0.250000  1.0  0.5766
  C  C31  1  0.675400  0.324600  0.750000  1.0  0.5766
  C  C32  1  0.574600  0.425400  0.750000  1.0  0.5764
  O  O33  1  0.238410  0.661190  0.328400  1.0  -0.6101
  O  O34  1  0.076290  0.634510  0.532600  1.0  -0.8248
  O  O35  1  0.917800  0.748020  0.575580  1.0  -0.6887
  O  O36  1  0.433190  0.510410  0.328400  1.0  -0.6115
  O  O37  1  0.391110  0.332890  0.532600  1.0  -0.8234
  O  O38  1  0.506620  0.176400  0.575580  1.0  -0.6881
  O  O39  1  0.338810  0.761590  0.171600  1.0  -0.612
  O  O40  1  0.365490  0.923710  0.967400  1.0  -0.8258
  O  O41  1  0.251980  0.082200  0.924420  1.0  -0.6882
  O  O42  1  0.489590  0.566810  0.171600  1.0  -0.6135
  O  O43  1  0.667110  0.608890  0.967400  1.0  -0.8229
  O  O44  1  0.823600  0.493380  0.924420  1.0  -0.6891
  O  O45  1  0.761590  0.338810  0.671600  1.0  -0.6119
  O  O46  1  0.923710  0.365490  0.467400  1.0  -0.8237
  O  O47  1  0.082200  0.251980  0.424420  1.0  -0.6891
  O  O48  1  0.566810  0.489590  0.671600  1.0  -0.6126
  O  O49  1  0.608890  0.667110  0.467400  1.0  -0.8223
  O  O50  1  0.493380  0.823600  0.424420  1.0  -0.6887
  O  O51  1  0.661190  0.238410  0.828400  1.0  -0.6096
  O  O52  1  0.634510  0.076290  0.032600  1.0  -0.8236
  O  O53  1  0.748020  0.917800  0.075580  1.0  -0.6865
  O  O54  1  0.510410  0.433190  0.828400  1.0  -0.6118
  O  O55  1  0.332890  0.391110  0.032600  1.0  -0.8257
  O  O56  1  0.176400  0.506620  0.075580  1.0  -0.6894
