# generated using pymatgen
data_ZnH10C21Br2NO4
_symmetry_space_group_name_H-M   'P 1'
_cell_length_a   14.08280000
_cell_length_b   21.45180000
_cell_length_c   28.25180000
_cell_angle_alpha   90.00000000
_cell_angle_beta   90.00000000
_cell_angle_gamma   93.56000000
_symmetry_Int_Tables_number   1
_chemical_formula_structural   ZnH10C21Br2NO4
_chemical_formula_sum   'Zn12 H120 C252 Br24 N12 O48'
_cell_volume   8518.43895630
_cell_formula_units_Z   12
loop_
 _symmetry_equiv_pos_site_id
 _symmetry_equiv_pos_as_xyz
  1  'x, y, z'
loop_
 _atom_site_type_symbol
 _atom_site_label
 _atom_site_symmetry_multiplicity
 _atom_site_fract_x
 _atom_site_fract_y
 _atom_site_fract_z
 _atom_site_occupancy
 _atom_site_charge
  Zn  Zn1  1  0.890930  0.745220  0.309980  1.0  0.9398
  Zn  Zn2  1  0.103580  0.754660  0.310250  1.0  0.9189
  Zn  Zn3  1  0.109070  0.254780  0.809980  1.0  0.939
  Zn  Zn4  1  0.896420  0.245340  0.810250  1.0  0.918
  Zn  Zn5  1  0.204370  0.113080  0.484630  1.0  0.9425
  Zn  Zn6  1  0.416470  0.121500  0.485940  1.0  0.905
  Zn  Zn7  1  0.200960  0.609780  0.986570  1.0  0.9176
  Zn  Zn8  1  0.412160  0.623540  0.984630  1.0  0.9079
  Zn  Zn9  1  0.795630  0.886920  0.984630  1.0  0.9428
  Zn  Zn10  1  0.583530  0.878500  0.985940  1.0  0.9055
  Zn  Zn11  1  0.799040  0.390220  0.486570  1.0  0.9185
  Zn  Zn12  1  0.587840  0.376460  0.484630  1.0  0.9076
  H  H13  1  0.136400  0.642500  0.428100  1.0  0.1236
  H  H14  1  0.848400  0.610700  0.429500  1.0  0.1321
  H  H15  1  0.861900  0.556700  0.499700  1.0  0.0857
  H  H16  1  0.866500  0.433000  0.620400  1.0  0.0953
  H  H17  1  0.859000  0.362400  0.685000  1.0  0.1211
  H  H18  1  0.142800  0.400000  0.707000  1.0  0.1046
  H  H19  1  0.144000  0.885300  0.430600  1.0  0.1234
  H  H20  1  0.856900  0.860100  0.427100  1.0  0.1313
  H  H21  1  0.134500  0.947000  0.497100  1.0  0.0923
  H  H22  1  0.133400  0.079100  0.613200  1.0  0.1263
  H  H23  1  0.858400  0.099200  0.706900  1.0  0.1121
  H  H24  1  0.142000  0.139700  0.681800  1.0  0.1005
  H  H25  1  0.737800  0.792500  0.248600  1.0  0.1182
  H  H26  1  0.728200  0.707100  0.372900  1.0  0.1139
  H  H27  1  0.576200  0.796500  0.248200  1.0  0.1071
  H  H28  1  0.564500  0.715100  0.377300  1.0  0.1168
  H  H29  1  0.421900  0.712500  0.248500  1.0  0.1235
  H  H30  1  0.426400  0.797900  0.376800  1.0  0.1344
  H  H31  1  0.264200  0.797700  0.371600  1.0  0.094
  H  H32  1  0.259000  0.711300  0.250900  1.0  0.0971
  H  H33  1  0.863600  0.357500  0.928100  1.0  0.1234
  H  H34  1  0.151600  0.389300  0.929500  1.0  0.1319
  H  H35  1  0.138100  0.443300  0.999700  1.0  0.0859
  H  H36  1  0.133500  0.567000  0.120400  1.0  0.0949
  H  H37  1  0.141000  0.637600  0.185000  1.0  0.121
  H  H38  1  0.857200  0.600000  0.207000  1.0  0.1052
  H  H39  1  0.856000  0.114700  0.930600  1.0  0.1235
  H  H40  1  0.143100  0.139900  0.927100  1.0  0.1308
  H  H41  1  0.865500  0.053000  0.997100  1.0  0.0921
  H  H42  1  0.866600  0.920900  0.113200  1.0  0.1267
  H  H43  1  0.141600  0.900800  0.206900  1.0  0.1113
  H  H44  1  0.858000  0.860300  0.181800  1.0  0.1005
  H  H45  1  0.262200  0.207500  0.748600  1.0  0.1186
  H  H46  1  0.271800  0.292900  0.872900  1.0  0.113
  H  H47  1  0.423800  0.203500  0.748200  1.0  0.1064
  H  H48  1  0.435500  0.284900  0.877300  1.0  0.1165
  H  H49  1  0.578100  0.287500  0.748500  1.0  0.1234
  H  H50  1  0.573600  0.202100  0.876800  1.0  0.135
  H  H51  1  0.735800  0.202300  0.871600  1.0  0.0945
  H  H52  1  0.741000  0.288700  0.750900  1.0  0.0973
  H  H53  1  0.570000  0.061600  0.538000  1.0  0.0732
  H  H54  1  0.730900  0.057100  0.541700  1.0  0.1224
  H  H55  1  0.871300  0.059400  0.431100  1.0  0.1366
  H  H56  1  0.886100  0.178400  0.542100  1.0  0.1118
  H  H57  1  0.052200  0.174200  0.539500  1.0  0.0891
  H  H58  1  0.036000  0.055200  0.432500  1.0  0.1052
  H  H59  1  0.453600  0.986400  0.597600  1.0  0.1184
  H  H60  1  0.166700  0.967700  0.588700  1.0  0.1095
  H  H61  1  0.446700  0.929100  0.668800  1.0  0.1257
  H  H62  1  0.160300  0.780100  0.791700  1.0  0.1185
  H  H63  1  0.160800  0.722300  0.860700  1.0  0.1235
  H  H64  1  0.447300  0.760000  0.871300  1.0  0.1119
  H  H65  1  0.447300  0.274300  0.586200  1.0  0.1113
  H  H66  1  0.173400  0.225900  0.613500  1.0  0.0936
  H  H67  1  0.177600  0.285700  0.680700  1.0  0.1184
  H  H68  1  0.168800  0.418400  0.798300  1.0  0.1079
  H  H69  1  0.160300  0.478900  0.867200  1.0  0.1125
  H  H70  1  0.451600  0.490200  0.876000  1.0  0.1065
  H  H71  1  0.435400  0.790300  0.077300  1.0  0.1038
  H  H72  1  0.173900  0.721200  0.113000  1.0  0.1111
  H  H73  1  0.179800  0.782000  0.182200  1.0  0.1059
  H  H74  1  0.171500  0.913600  0.300100  1.0  0.128
  H  H75  1  0.168100  0.971900  0.371000  1.0  0.0825
  H  H76  1  0.447500  0.021700  0.359200  1.0  0.1312
  H  H77  1  0.459800  0.507200  0.106700  1.0  0.1069
  H  H78  1  0.179400  0.456400  0.092000  1.0  0.0915
  H  H79  1  0.190700  0.385000  0.151400  1.0  0.1328
  H  H80  1  0.228700  0.239600  0.270400  1.0  0.1205
  H  H81  1  0.214700  0.189100  0.343500  1.0  0.1136
  H  H82  1  0.434700  0.298900  0.393600  1.0  0.1085
  H  H83  1  0.554100  0.533300  0.960700  1.0  0.1112
  H  H84  1  0.584700  0.710500  0.998100  1.0  0.109
  H  H85  1  0.747200  0.707900  0.995200  1.0  0.1107
  H  H86  1  0.720700  0.528100  0.955700  1.0  0.1268
  H  H87  1  0.878900  0.672100  0.039800  1.0  0.1152
  H  H88  1  0.869600  0.548400  0.931400  1.0  0.1346
  H  H89  1  0.036000  0.549300  0.934200  1.0  0.093
  H  H90  1  0.043500  0.669500  0.040600  1.0  0.1019
  H  H91  1  0.588100  0.202900  0.460900  1.0  0.0824
  H  H92  1  0.747300  0.205700  0.464000  1.0  0.1214
  H  H93  1  0.430000  0.938400  0.038000  1.0  0.073
  H  H94  1  0.269100  0.942900  0.041700  1.0  0.1228
  H  H95  1  0.128700  0.940600  0.931100  1.0  0.1365
  H  H96  1  0.113900  0.821600  0.042100  1.0  0.1127
  H  H97  1  0.947800  0.825800  0.039500  1.0  0.0893
  H  H98  1  0.964000  0.944800  0.932500  1.0  0.1049
  H  H99  1  0.546400  0.013600  0.097600  1.0  0.1185
  H  H100  1  0.833300  0.032300  0.088700  1.0  0.1093
  H  H101  1  0.553300  0.070900  0.168800  1.0  0.1259
  H  H102  1  0.839700  0.219900  0.291700  1.0  0.1188
  H  H103  1  0.839200  0.277700  0.360700  1.0  0.1232
  H  H104  1  0.552700  0.240000  0.371300  1.0  0.1123
  H  H105  1  0.552700  0.725700  0.086200  1.0  0.1113
  H  H106  1  0.826600  0.774100  0.113500  1.0  0.0934
  H  H107  1  0.822400  0.714300  0.180700  1.0  0.1189
  H  H108  1  0.831200  0.581600  0.298300  1.0  0.1082
  H  H109  1  0.839700  0.521100  0.367200  1.0  0.1124
  H  H110  1  0.548400  0.509800  0.376000  1.0  0.1064
  H  H111  1  0.564600  0.209700  0.577300  1.0  0.1043
  H  H112  1  0.826100  0.278800  0.613000  1.0  0.1113
  H  H113  1  0.820200  0.218000  0.682200  1.0  0.1044
  H  H114  1  0.828500  0.086400  0.800100  1.0  0.1281
  H  H115  1  0.831900  0.028100  0.871000  1.0  0.0828
  H  H116  1  0.552500  0.978300  0.859200  1.0  0.1321
  H  H117  1  0.540200  0.492800  0.606700  1.0  0.1062
  H  H118  1  0.820600  0.543600  0.592000  1.0  0.0921
  H  H119  1  0.809300  0.615000  0.651400  1.0  0.1326
  H  H120  1  0.771300  0.760400  0.770400  1.0  0.1218
  H  H121  1  0.785300  0.810900  0.843500  1.0  0.1143
  H  H122  1  0.565300  0.701100  0.893600  1.0  0.1085
  H  H123  1  0.445900  0.466700  0.460700  1.0  0.1107
  H  H124  1  0.415300  0.289500  0.498100  1.0  0.1092
  H  H125  1  0.252800  0.292100  0.495200  1.0  0.1104
  H  H126  1  0.279300  0.471900  0.455700  1.0  0.127
  H  H127  1  0.121100  0.327900  0.539800  1.0  0.1161
  H  H128  1  0.130400  0.451600  0.431400  1.0  0.1344
  H  H129  1  0.964000  0.450700  0.434200  1.0  0.0924
  H  H130  1  0.956500  0.330500  0.540600  1.0  0.1017
  H  H131  1  0.411900  0.797100  0.960900  1.0  0.083
  H  H132  1  0.252700  0.794300  0.964000  1.0  0.1216
  C  C133  1  0.005500  0.168000  0.742800  1.0  0.7026
  C  C134  1  0.984200  0.671300  0.377600  1.0  0.6818
  C  C135  1  0.992000  0.632600  0.422800  1.0  -0.122
  C  C136  1  0.080400  0.625600  0.443300  1.0  -0.0246
  C  C137  1  0.909000  0.606200  0.443500  1.0  -0.1053
  C  C138  1  0.087300  0.593600  0.486400  1.0  -0.0475
  C  C139  1  0.918300  0.573600  0.484800  1.0  -0.083
  C  C140  1  0.002900  0.563700  0.505900  1.0  0.0083
  C  C141  1  0.008400  0.527700  0.548900  1.0  -0.0546
  C  C142  1  0.009800  0.494500  0.582200  1.0  0.077
  C  C143  1  0.009700  0.455600  0.621900  1.0  0.053
  C  C144  1  0.091300  0.444500  0.647000  1.0  -0.0836
  C  C145  1  0.923100  0.425400  0.637100  1.0  -0.1305
  C  C146  1  0.917400  0.384100  0.676500  1.0  -0.0629
  C  C147  1  0.086900  0.405500  0.689100  1.0  -0.0345
  C  C148  1  0.001100  0.376500  0.702700  1.0  -0.1025
  C  C149  1  0.999300  0.331300  0.743900  1.0  0.6968
  C  C150  1  0.006700  0.829700  0.378200  1.0  0.6872
  C  C151  1  0.001600  0.868500  0.422000  1.0  -0.1466
  C  C152  1  0.083600  0.893000  0.443500  1.0  -0.0672
  C  C153  1  0.913600  0.877100  0.441600  1.0  -0.0488
  C  C154  1  0.910000  0.911900  0.483800  1.0  -0.0335
  C  C155  1  0.077700  0.928600  0.483400  1.0  -0.0887
  C  C156  1  0.993600  0.938400  0.504000  1.0  0.0231
  C  C157  1  0.987200  0.977500  0.547000  1.0  -0.0062
  C  C158  1  0.986400  0.010300  0.579400  1.0  0.0695
  C  C159  1  0.991700  0.049800  0.620800  1.0  -0.001
  C  C160  1  0.078800  0.082300  0.632500  1.0  -0.1962
  C  C161  1  0.911500  0.057000  0.649900  1.0  -0.0978
  C  C162  1  0.914100  0.094400  0.688600  1.0  -0.0512
  C  C163  1  0.082800  0.119100  0.673200  1.0  -0.0544
  C  C164  1  0.004300  0.127100  0.701500  1.0  -0.1152
  C  C165  1  0.701400  0.775700  0.274400  1.0  0.1335
  C  C166  1  0.696000  0.726200  0.347800  1.0  0.1526
  C  C167  1  0.605700  0.777900  0.274500  1.0  -0.1237
  C  C168  1  0.598000  0.729500  0.349800  1.0  -0.1736
  C  C169  1  0.547400  0.753700  0.311700  1.0  0.0773
  C  C170  1  0.444200  0.756600  0.311800  1.0  0.1056
  C  C171  1  0.391100  0.730400  0.274700  1.0  -0.1799
  C  C172  1  0.394100  0.781100  0.349700  1.0  -0.2335
  C  C173  1  0.298200  0.779800  0.346400  1.0  0.1716
  C  C174  1  0.294700  0.730400  0.276100  1.0  0.1692
  C  C175  1  0.994500  0.832000  0.242800  1.0  0.7016
  C  C176  1  0.015800  0.328700  0.877600  1.0  0.6815
  C  C177  1  0.008000  0.367400  0.922800  1.0  -0.124
  C  C178  1  0.919600  0.374400  0.943300  1.0  -0.0237
  C  C179  1  0.091000  0.393800  0.943500  1.0  -0.1057
  C  C180  1  0.912700  0.406400  0.986400  1.0  -0.0464
  C  C181  1  0.081700  0.426400  0.984800  1.0  -0.0824
  C  C182  1  0.997100  0.436300  0.005900  1.0  0.0069
  C  C183  1  0.991600  0.472300  0.048900  1.0  -0.0597
  C  C184  1  0.990200  0.505500  0.082200  1.0  0.0783
  C  C185  1  0.990300  0.544400  0.121900  1.0  0.0504
  C  C186  1  0.908700  0.555500  0.147000  1.0  -0.0857
  C  C187  1  0.076900  0.574600  0.137100  1.0  -0.131
  C  C188  1  0.082600  0.615900  0.176500  1.0  -0.0633
  C  C189  1  0.913100  0.594500  0.189100  1.0  -0.0328
  C  C190  1  0.998900  0.623500  0.202700  1.0  -0.1036
  C  C191  1  0.000700  0.668700  0.243900  1.0  0.6973
  C  C192  1  0.993300  0.170300  0.878200  1.0  0.6879
  C  C193  1  0.998400  0.131500  0.922000  1.0  -0.1449
  C  C194  1  0.916400  0.107000  0.943500  1.0  -0.0672
  C  C195  1  0.086400  0.122900  0.941600  1.0  -0.0502
  C  C196  1  0.090000  0.088100  0.983800  1.0  -0.0332
  C  C197  1  0.922300  0.071400  0.983400  1.0  -0.0891
  C  C198  1  0.006400  0.061600  0.004000  1.0  0.0238
  C  C199  1  0.012800  0.022500  0.047000  1.0  -0.0053
  C  C200  1  0.013600  0.989700  0.079400  1.0  0.073
  C  C201  1  0.008300  0.950200  0.120800  1.0  -1e-04
  C  C202  1  0.921200  0.917700  0.132500  1.0  -0.1961
  C  C203  1  0.088500  0.943000  0.149900  1.0  -0.0957
  C  C204  1  0.085900  0.905600  0.188600  1.0  -0.05
  C  C205  1  0.917200  0.880900  0.173200  1.0  -0.0536
  C  C206  1  0.995700  0.872900  0.201500  1.0  -0.114
  C  C207  1  0.298600  0.224300  0.774400  1.0  0.1339
  C  C208  1  0.304000  0.273800  0.847800  1.0  0.1523
  C  C209  1  0.394300  0.222100  0.774500  1.0  -0.1228
  C  C210  1  0.402000  0.270500  0.849800  1.0  -0.172
  C  C211  1  0.452600  0.246300  0.811700  1.0  0.0769
  C  C212  1  0.555800  0.243400  0.811800  1.0  0.1055
  C  C213  1  0.608900  0.269600  0.774700  1.0  -0.1822
  C  C214  1  0.605900  0.218900  0.849700  1.0  -0.2351
  C  C215  1  0.701800  0.220200  0.846400  1.0  0.1733
  C  C216  1  0.705300  0.269600  0.776100  1.0  0.1682
  C  C217  1  0.606500  0.086800  0.516200  1.0  0.1635
  C  C218  1  0.703100  0.083300  0.519200  1.0  -0.2029
  C  C219  1  0.756500  0.118600  0.489100  1.0  0.1017
  C  C220  1  0.863900  0.119400  0.490000  1.0  0.0397
  C  C221  1  0.908400  0.082200  0.454000  1.0  -0.112
  C  C222  1  0.914900  0.152900  0.519400  1.0  -0.125
  C  C223  1  0.014900  0.150600  0.517100  1.0  0.1925
  C  C224  1  0.005800  0.081400  0.454300  1.0  0.1776
  C  C225  1  0.311700  0.031700  0.549300  1.0  0.6864
  C  C226  1  0.308100  0.985900  0.590700  1.0  -0.1137
  C  C227  1  0.394400  0.971900  0.611100  1.0  -0.0589
  C  C228  1  0.223100  0.960100  0.605600  1.0  -0.0111
  C  C229  1  0.219200  0.923800  0.644300  1.0  0.0647
  C  C230  1  0.390200  0.936200  0.651800  1.0  -0.0694
  C  C231  1  0.301700  0.910600  0.668000  1.0  -0.0382
  C  C232  1  0.300200  0.870300  0.710800  1.0  -0.0151
  C  C233  1  0.301200  0.843300  0.747900  1.0  -0.0558
  C  C234  1  0.300100  0.806900  0.790100  1.0  -0.0013
  C  C235  1  0.218700  0.776600  0.808100  1.0  -0.0833
  C  C236  1  0.385700  0.801900  0.815400  1.0  -0.0224
  C  C237  1  0.218700  0.741400  0.848900  1.0  -0.0722
  C  C238  1  0.388700  0.764800  0.855500  1.0  -0.0293
  C  C239  1  0.303300  0.734000  0.872700  1.0  -0.1443
  C  C240  1  0.305500  0.695800  0.915200  1.0  0.6657
  C  C241  1  0.309300  0.198100  0.552300  1.0  0.6795
  C  C242  1  0.311100  0.242600  0.594300  1.0  -0.1157
  C  C243  1  0.392600  0.276600  0.605600  1.0  -0.0261
  C  C244  1  0.231200  0.248100  0.622200  1.0  -0.0023
  C  C245  1  0.232700  0.284100  0.661500  1.0  -0.1414
  C  C246  1  0.396100  0.314700  0.645600  1.0  -0.0299
  C  C247  1  0.317400  0.319500  0.673600  1.0  -0.0277
  C  C248  1  0.320200  0.357700  0.716200  1.0  -0.0422
  C  C249  1  0.319000  0.386400  0.751900  1.0  0.0345
  C  C250  1  0.315900  0.421200  0.794900  1.0  -0.0181
  C  C251  1  0.399700  0.443800  0.820000  1.0  -0.0244
  C  C252  1  0.225400  0.434000  0.813700  1.0  -0.1127
  C  C253  1  0.220400  0.469600  0.854700  1.0  -0.0224
  C  C254  1  0.394800  0.476900  0.859900  1.0  0.0003
  C  C255  1  0.306200  0.492300  0.878200  1.0  -0.1527
  C  C256  1  0.302300  0.534100  0.920900  1.0  0.6934
  C  C257  1  0.305100  0.702200  0.049500  1.0  0.6863
  C  C258  1  0.306700  0.747200  0.090400  1.0  -0.1498
  C  C259  1  0.384300  0.787800  0.099300  1.0  -0.0263
  C  C260  1  0.229500  0.746800  0.120100  1.0  -0.0457
  C  C261  1  0.232300  0.784100  0.161100  1.0  -0.0828
  C  C262  1  0.389700  0.823900  0.138100  1.0  -0.0414
  C  C263  1  0.312300  0.824600  0.171000  1.0  -0.0088
  C  C264  1  0.316900  0.861600  0.212400  1.0  0.0479
  C  C265  1  0.318700  0.893000  0.246500  1.0  -0.0444
  C  C266  1  0.315600  0.930700  0.288200  1.0  -0.0054
  C  C267  1  0.393600  0.964400  0.307500  1.0  -0.0143
  C  C268  1  0.228000  0.934600  0.312000  1.0  -0.1619
  C  C269  1  0.226400  0.970900  0.354200  1.0  -0.0186
  C  C270  1  0.391400  0.000000  0.347700  1.0  -0.0829
  C  C271  1  0.303000  0.003800  0.371700  1.0  -0.1391
  C  C272  1  0.300900  0.039700  0.416000  1.0  0.7022
  C  C273  1  0.314000  0.536100  0.052000  1.0  0.7003
  C  C274  1  0.317500  0.489200  0.091700  1.0  -0.1436
  C  C275  1  0.404500  0.482600  0.116000  1.0  0.0022
  C  C276  1  0.238900  0.452500  0.107200  1.0  0.0235
  C  C277  1  0.244400  0.411600  0.142900  1.0  -0.105
  C  C278  1  0.409500  0.442400  0.151900  1.0  0.0044
  C  C279  1  0.333400  0.408700  0.168400  1.0  0.0244
  C  C280  1  0.333800  0.368100  0.209900  1.0  -0.0348
  C  C281  1  0.338600  0.338200  0.245500  1.0  0.0011
  C  C282  1  0.335300  0.304400  0.288200  1.0  -0.038
  C  C283  1  0.398000  0.320400  0.326500  1.0  -0.0457
  C  C284  1  0.269600  0.253200  0.295600  1.0  -0.0871
  C  C285  1  0.262900  0.221600  0.338900  1.0  -0.0796
  C  C286  1  0.392200  0.287200  0.368600  1.0  -0.0546
  C  C287  1  0.326500  0.237500  0.375200  1.0  -0.1353
  C  C288  1  0.323500  0.199900  0.419300  1.0  0.6959
  C  C289  1  0.594600  0.568600  0.969000  1.0  0.1616
  C  C290  1  0.612300  0.672200  0.991100  1.0  0.1424
  C  C291  1  0.708700  0.670400  0.990500  1.0  -0.1736
  C  C292  1  0.693600  0.564500  0.967400  1.0  -0.1633
  C  C293  1  0.751000  0.615500  0.983300  1.0  0.0978
  C  C294  1  0.858300  0.613200  0.985300  1.0  0.0394
  C  C295  1  0.909800  0.647200  0.017500  1.0  -0.1538
  C  C296  1  0.904600  0.574200  0.953400  1.0  -0.1749
  C  C297  1  0.004000  0.575000  0.955500  1.0  0.1764
  C  C298  1  0.007800  0.645500  0.017800  1.0  0.1626
  C  C299  1  0.617000  0.167400  0.473100  1.0  0.1552
  C  C300  1  0.711300  0.169100  0.473900  1.0  -0.1962
  C  C301  1  0.393500  0.913200  0.016200  1.0  0.1619
  C  C302  1  0.296900  0.916700  0.019200  1.0  -0.206
  C  C303  1  0.243500  0.881400  0.989100  1.0  0.1042
  C  C304  1  0.136100  0.880600  0.990000  1.0  0.0393
  C  C305  1  0.091600  0.917800  0.954000  1.0  -0.1127
  C  C306  1  0.085100  0.847100  0.019400  1.0  -0.124
  C  C307  1  0.985100  0.849400  0.017100  1.0  0.1922
  C  C308  1  0.994200  0.918600  0.954300  1.0  0.1779
  C  C309  1  0.688300  0.968300  0.049300  1.0  0.6862
  C  C310  1  0.691900  0.014100  0.090700  1.0  -0.1137
  C  C311  1  0.605600  0.028100  0.111100  1.0  -0.06
  C  C312  1  0.776900  0.039900  0.105600  1.0  -0.0106
  C  C313  1  0.780800  0.076200  0.144300  1.0  0.061
  C  C314  1  0.609800  0.063800  0.151800  1.0  -0.0702
  C  C315  1  0.698300  0.089400  0.168000  1.0  -0.0372
  C  C316  1  0.699800  0.129700  0.210800  1.0  -0.0157
  C  C317  1  0.698800  0.156700  0.247900  1.0  -0.0569
  C  C318  1  0.699900  0.193100  0.290100  1.0  -0.0046
  C  C319  1  0.781300  0.223400  0.308100  1.0  -0.0828
  C  C320  1  0.614300  0.198100  0.315400  1.0  -0.0238
  C  C321  1  0.781300  0.258600  0.348900  1.0  -0.0695
  C  C322  1  0.611300  0.235200  0.355500  1.0  -0.029
  C  C323  1  0.696700  0.266000  0.372700  1.0  -0.1437
  C  C324  1  0.694500  0.304200  0.415200  1.0  0.667
  C  C325  1  0.690700  0.801900  0.052300  1.0  0.6788
  C  C326  1  0.688900  0.757400  0.094300  1.0  -0.1157
  C  C327  1  0.607400  0.723400  0.105600  1.0  -0.0275
  C  C328  1  0.768800  0.751900  0.122200  1.0  -0.0029
  C  C329  1  0.767300  0.715900  0.161500  1.0  -0.1407
  C  C330  1  0.603900  0.685300  0.145600  1.0  -0.0322
  C  C331  1  0.682600  0.680500  0.173600  1.0  -0.0288
  C  C332  1  0.679800  0.642300  0.216200  1.0  -0.0428
  C  C333  1  0.681000  0.613600  0.251900  1.0  0.0321
  C  C334  1  0.684100  0.578800  0.294900  1.0  -0.0191
  C  C335  1  0.600300  0.556200  0.320000  1.0  -0.0243
  C  C336  1  0.774600  0.566000  0.313700  1.0  -0.1112
  C  C337  1  0.779600  0.530400  0.354700  1.0  -0.0229
  C  C338  1  0.605200  0.523100  0.359900  1.0  -0.0021
  C  C339  1  0.693800  0.507700  0.378200  1.0  -0.1529
  C  C340  1  0.697700  0.465900  0.420900  1.0  0.6918
  C  C341  1  0.694900  0.297800  0.549500  1.0  0.6861
  C  C342  1  0.693300  0.252800  0.590400  1.0  -0.1499
  C  C343  1  0.615700  0.212200  0.599300  1.0  -0.0275
  C  C344  1  0.770500  0.253200  0.620100  1.0  -0.0465
  C  C345  1  0.767700  0.215900  0.661100  1.0  -0.0818
  C  C346  1  0.610300  0.176100  0.638100  1.0  -0.0423
  C  C347  1  0.687700  0.175400  0.671000  1.0  -0.01
  C  C348  1  0.683100  0.138400  0.712400  1.0  0.0492
  C  C349  1  0.681300  0.107000  0.746500  1.0  -0.0442
  C  C350  1  0.684400  0.069300  0.788200  1.0  -0.0069
  C  C351  1  0.606400  0.035600  0.807500  1.0  -0.0137
  C  C352  1  0.772000  0.065400  0.812000  1.0  -0.1611
  C  C353  1  0.773600  0.029100  0.854200  1.0  -0.0199
  C  C354  1  0.608600  0.000000  0.847700  1.0  -0.084
  C  C355  1  0.697000  0.996200  0.871700  1.0  -0.1386
  C  C356  1  0.699100  0.960300  0.916000  1.0  0.701
  C  C357  1  0.686000  0.463900  0.552000  1.0  0.7002
  C  C358  1  0.682500  0.510800  0.591700  1.0  -0.1448
  C  C359  1  0.595500  0.517400  0.616000  1.0  0.0021
  C  C360  1  0.761100  0.547500  0.607200  1.0  0.0267
  C  C361  1  0.755600  0.588400  0.642900  1.0  -0.1047
  C  C362  1  0.590500  0.557600  0.651900  1.0  0.0054
  C  C363  1  0.666667  0.591300  0.668400  1.0  0.0233
  C  C364  1  0.666200  0.631900  0.709900  1.0  -0.0356
  C  C365  1  0.661400  0.661800  0.745500  1.0  0.0011
  C  C366  1  0.664700  0.695600  0.788200  1.0  -0.0376
  C  C367  1  0.602000  0.679600  0.826500  1.0  -0.0446
  C  C368  1  0.730400  0.746800  0.795600  1.0  -0.0859
  C  C369  1  0.737100  0.778400  0.838900  1.0  -0.079
  C  C370  1  0.607800  0.712800  0.868600  1.0  -0.0533
  C  C371  1  0.673500  0.762500  0.875200  1.0  -0.1357
  C  C372  1  0.676500  0.800100  0.919300  1.0  0.6954
  C  C373  1  0.405400  0.431400  0.469000  1.0  0.1608
  C  C374  1  0.387700  0.327800  0.491100  1.0  0.1428
  C  C375  1  0.291300  0.329600  0.490500  1.0  -0.174
  C  C376  1  0.306400  0.435500  0.467400  1.0  -0.1644
  C  C377  1  0.249000  0.384500  0.483300  1.0  0.0986
  C  C378  1  0.141700  0.386800  0.485300  1.0  0.0397
  C  C379  1  0.090200  0.352800  0.517500  1.0  -0.1535
  C  C380  1  0.095400  0.425800  0.453400  1.0  -0.176
  C  C381  1  0.996000  0.425000  0.455500  1.0  0.1768
  C  C382  1  0.992200  0.354500  0.517800  1.0  0.162
  C  C383  1  0.383000  0.832600  0.973100  1.0  0.1575
  C  C384  1  0.288700  0.830900  0.973900  1.0  -0.1964
  Br  Br385  1  0.206030  0.586270  0.514120  1.0  -0.0804
  Br  Br386  1  0.208350  0.481890  0.630120  1.0  -0.0373
  Br  Br387  1  0.790090  0.920560  0.512680  1.0  -0.0475
  Br  Br388  1  0.795030  0.014050  0.633090  1.0  -0.0509
  Br  Br389  1  0.793970  0.413730  0.014120  1.0  -0.0808
  Br  Br390  1  0.791650  0.518110  0.130120  1.0  -0.0385
  Br  Br391  1  0.209910  0.079440  0.012680  1.0  -0.0474
  Br  Br392  1  0.204970  0.985950  0.133090  1.0  -0.05
  Br  Br393  1  0.096470  0.892360  0.667890  1.0  -0.0815
  Br  Br394  1  0.498730  0.839470  0.791980  1.0  -0.054
  Br  Br395  1  0.513000  0.359300  0.661060  1.0  -0.0596
  Br  Br396  1  0.518460  0.424320  0.795190  1.0  -0.0354
  Br  Br397  1  0.498520  0.878790  0.148920  1.0  -0.0525
  Br  Br398  1  0.513120  0.961110  0.275500  1.0  -0.0728
  Br  Br399  1  0.533120  0.452220  0.188970  1.0  -0.1645
  Br  Br400  1  0.488210  0.387920  0.320270  1.0  -0.0559
  Br  Br401  1  0.903530  0.107640  0.167890  1.0  -0.0811
  Br  Br402  1  0.501270  0.160530  0.291980  1.0  -0.0535
  Br  Br403  1  0.487000  0.640700  0.161060  1.0  -0.0597
  Br  Br404  1  0.481540  0.575680  0.295190  1.0  -0.0336
  Br  Br405  1  0.501480  0.121210  0.648920  1.0  -0.0508
  Br  Br406  1  0.486880  0.038890  0.775500  1.0  -0.0718
  Br  Br407  1  0.466880  0.547780  0.688970  1.0  -0.1645
  Br  Br408  1  0.511790  0.612080  0.820270  1.0  -0.0558
  N  N409  1  0.744900  0.749600  0.311300  1.0  -0.2761
  N  N410  1  0.249000  0.755600  0.310800  1.0  -0.3015
  N  N411  1  0.255100  0.250400  0.811300  1.0  -0.2771
  N  N412  1  0.751000  0.244400  0.810800  1.0  -0.3011
  N  N413  1  0.060500  0.117200  0.485100  1.0  -0.3395
  N  N414  1  0.559100  0.119300  0.488100  1.0  -0.3201
  N  N415  1  0.556000  0.621900  0.982000  1.0  -0.2891
  N  N416  1  0.055600  0.609800  0.985800  1.0  -0.3342
  N  N417  1  0.939500  0.882800  0.985100  1.0  -0.3406
  N  N418  1  0.440900  0.880700  0.988100  1.0  -0.3212
  N  N419  1  0.444000  0.378100  0.482000  1.0  -0.288
  N  N420  1  0.944400  0.390200  0.485800  1.0  -0.3333
  O  O421  1  0.906100  0.686800  0.364400  1.0  -0.5514
  O  O422  1  0.062800  0.687100  0.358000  1.0  -0.6112
  O  O423  1  0.919800  0.305600  0.754990  1.0  -0.5773
  O  O424  1  0.077200  0.323400  0.763310  1.0  -0.5852
  O  O425  1  0.929600  0.815500  0.357300  1.0  -0.6049
  O  O426  1  0.087100  0.814600  0.364760  1.0  -0.5693
  O  O427  1  0.929700  0.177300  0.764280  1.0  -0.5866
  O  O428  1  0.085700  0.194300  0.754540  1.0  -0.5792
  O  O429  1  0.093900  0.313200  0.864400  1.0  -0.5512
  O  O430  1  0.937200  0.312900  0.858000  1.0  -0.6101
  O  O431  1  0.080200  0.694400  0.254990  1.0  -0.5742
  O  O432  1  0.922800  0.676600  0.263310  1.0  -0.5844
  O  O433  1  0.070400  0.184500  0.857300  1.0  -0.6041
  O  O434  1  0.912900  0.185400  0.864760  1.0  -0.5692
  O  O435  1  0.070300  0.822700  0.264280  1.0  -0.5876
  O  O436  1  0.914300  0.805700  0.254540  1.0  -0.5802
  O  O437  1  0.231000  0.049300  0.534570  1.0  -0.5899
  O  O438  1  0.391100  0.050200  0.532400  1.0  -0.587
  O  O439  1  0.228400  0.677200  0.935590  1.0  -0.6016
  O  O440  1  0.386400  0.683300  0.930200  1.0  -0.5706
  O  O441  1  0.229000  0.179000  0.537440  1.0  -0.5713
  O  O442  1  0.387500  0.182600  0.537790  1.0  -0.5753
  O  O443  1  0.220000  0.546800  0.934120  1.0  -0.5764
  O  O444  1  0.377300  0.551500  0.940070  1.0  -0.5861
  O  O445  1  0.227200  0.675800  0.038270  1.0  -0.5737
  O  O446  1  0.385300  0.694700  0.030310  1.0  -0.5655
  O  O447  1  0.219000  0.047700  0.433020  1.0  -0.5801
  O  O448  1  0.379100  0.063400  0.431590  1.0  -0.5947
  O  O449  1  0.233700  0.543000  0.035200  1.0  -0.5699
  O  O450  1  0.389900  0.562900  0.039200  1.0  -0.5786
  O  O451  1  0.244900  0.176300  0.433960  1.0  -0.6028
  O  O452  1  0.403700  0.193400  0.438190  1.0  -0.5662
  O  O453  1  0.769000  0.950700  0.034570  1.0  -0.5899
  O  O454  1  0.608900  0.949800  0.032400  1.0  -0.5872
  O  O455  1  0.771600  0.322800  0.435590  1.0  -0.6003
  O  O456  1  0.613600  0.316700  0.430200  1.0  -0.5701
  O  O457  1  0.771000  0.821000  0.037440  1.0  -0.571
  O  O458  1  0.612500  0.817400  0.037790  1.0  -0.5748
  O  O459  1  0.780000  0.453200  0.434120  1.0  -0.5758
  O  O460  1  0.622700  0.448500  0.440070  1.0  -0.5863
  O  O461  1  0.772800  0.324200  0.538270  1.0  -0.5732
  O  O462  1  0.614700  0.305300  0.530310  1.0  -0.5659
  O  O463  1  0.781000  0.952300  0.933020  1.0  -0.5798
  O  O464  1  0.620900  0.936600  0.931590  1.0  -0.595
  O  O465  1  0.766300  0.457000  0.535200  1.0  -0.5709
  O  O466  1  0.610100  0.437100  0.539200  1.0  -0.5776
  O  O467  1  0.755100  0.823700  0.933960  1.0  -0.601
  O  O468  1  0.596300  0.806600  0.938190  1.0  -0.5663
