# generated using pymatgen
data_ZnH16C26(NO2)2
_symmetry_space_group_name_H-M   'P 1'
_cell_length_a   6.17510000
_cell_length_b   14.75080000
_cell_length_c   17.14400000
_cell_angle_alpha   98.64070000
_cell_angle_beta   90.00000000
_cell_angle_gamma   102.08200000
_symmetry_Int_Tables_number   1
_chemical_formula_structural   ZnH16C26(NO2)2
_chemical_formula_sum   'Zn2 H32 C52 N4 O8'
_cell_volume   1508.88518502
_cell_formula_units_Z   2
loop_
 _symmetry_equiv_pos_site_id
 _symmetry_equiv_pos_as_xyz
  1  'x, y, z'
loop_
 _atom_site_type_symbol
 _atom_site_label
 _atom_site_symmetry_multiplicity
 _atom_site_fract_x
 _atom_site_fract_y
 _atom_site_fract_z
 _atom_site_occupancy
 _atom_site_charge
  Zn  Zn1  1  0.580530  0.000000  0.750000  1.0  0.8857
  Zn  Zn2  1  0.419470  0.000000  0.250000  1.0  0.8851
  H  H3  1  0.414400  0.637600  0.651400  1.0  0.1146
  H  H4  1  0.001600  0.820600  0.646200  1.0  0.0913
  H  H5  1  0.149100  0.704000  0.570600  1.0  0.1042
  H  H6  1  0.562800  0.520200  0.578200  1.0  0.1129
  H  H7  1  0.127100  0.898600  0.788500  1.0  0.0809
  H  H8  1  0.574000  0.092200  0.917700  1.0  0.0787
  H  H9  1  0.337100  0.099000  0.020900  1.0  0.1218
  H  H10  1  0.878000  0.901000  0.886600  1.0  0.1183
  H  H11  1  0.776800  0.362400  0.848600  1.0  0.1145
  H  H12  1  0.181000  0.179400  0.853800  1.0  0.0916
  H  H13  1  0.445100  0.296000  0.929400  1.0  0.1041
  H  H14  1  0.042600  0.479800  0.921800  1.0  0.1129
  H  H15  1  0.228500  0.101400  0.711500  1.0  0.0811
  H  H16  1  0.481800  0.907800  0.582300  1.0  0.0782
  H  H17  1  0.238100  0.901000  0.479100  1.0  0.1215
  H  H18  1  0.977000  0.099000  0.613400  1.0  0.1191
  H  H19  1  0.585600  0.362400  0.348600  1.0  0.1146
  H  H20  1  0.998400  0.179400  0.353800  1.0  0.0916
  H  H21  1  0.850900  0.296000  0.429400  1.0  0.1039
  H  H22  1  0.437200  0.479800  0.421800  1.0  0.113
  H  H23  1  0.872900  0.101400  0.211500  1.0  0.0811
  H  H24  1  0.426000  0.907800  0.082300  1.0  0.0782
  H  H25  1  0.662900  0.901000  0.979100  1.0  0.1218
  H  H26  1  0.122000  0.099000  0.113400  1.0  0.1189
  H  H27  1  0.223200  0.637600  0.151400  1.0  0.1146
  H  H28  1  0.819000  0.820600  0.146200  1.0  0.0914
  H  H29  1  0.554900  0.704000  0.070600  1.0  0.1043
  H  H30  1  0.957400  0.520200  0.078200  1.0  0.1129
  H  H31  1  0.771500  0.898600  0.288500  1.0  0.0807
  H  H32  1  0.518200  0.092200  0.417700  1.0  0.0789
  H  H33  1  0.761900  0.099000  0.520900  1.0  0.1217
  H  H34  1  0.023000  0.901000  0.386600  1.0  0.118
  C  C35  1  0.597140  0.818480  0.699900  1.0  0.6415
  C  C36  1  0.696130  0.741060  0.655400  1.0  -0.1309
  C  C37  1  0.563390  0.650780  0.635200  1.0  -0.0757
  C  C38  1  0.912010  0.759620  0.631800  1.0  -0.0373
  C  C39  1  0.000510  0.690020  0.587100  1.0  -0.1121
  C  C40  1  0.651750  0.581500  0.591600  1.0  -0.0989
  C  C41  1  0.871590  0.600380  0.566700  1.0  0.0005
  C  C42  1  0.960530  0.529060  0.519700  1.0  0.0372
  C  C43  1  0.169590  0.939980  0.836500  1.0  0.1724
  C  C44  1  0.430490  0.052580  0.911700  1.0  0.1698
  C  C45  1  0.289820  0.056840  0.973600  1.0  -0.1866
  C  C46  1  0.021100  0.940600  0.894700  1.0  -0.197
  C  C47  1  0.078710  0.999820  0.967100  1.0  0.0873
  C  C48  1  0.778660  0.181520  0.800100  1.0  0.6424
  C  C49  1  0.955070  0.258940  0.844600  1.0  -0.1311
  C  C50  1  0.912610  0.349220  0.864800  1.0  -0.0759
  C  C51  1  0.152390  0.240380  0.868200  1.0  -0.0366
  C  C52  1  0.310490  0.309980  0.912900  1.0  -0.1124
  C  C53  1  0.070250  0.418500  0.908400  1.0  -0.1002
  C  C54  1  0.271210  0.399620  0.933300  1.0  0.0007
  C  C55  1  0.431470  0.470940  0.980300  1.0  0.0363
  C  C56  1  0.229610  0.060020  0.663500  1.0  0.173
  C  C57  1  0.377910  0.947420  0.588300  1.0  0.17
  C  C58  1  0.232980  0.943160  0.526400  1.0  -0.1867
  C  C59  1  0.080500  0.059400  0.605300  1.0  -0.1969
  C  C60  1  0.078890  0.000180  0.532900  1.0  0.0871
  C  C61  1  0.402860  0.181520  0.300100  1.0  0.644
  C  C62  1  0.303870  0.258940  0.344600  1.0  -0.1314
  C  C63  1  0.436610  0.349220  0.364800  1.0  -0.0748
  C  C64  1  0.087990  0.240380  0.368200  1.0  -0.0367
  C  C65  1  0.999490  0.309980  0.412900  1.0  -0.1134
  C  C66  1  0.348250  0.418500  0.408400  1.0  -0.1002
  C  C67  1  0.128410  0.399620  0.433300  1.0  0.0004
  C  C68  1  0.039470  0.470940  0.480300  1.0  0.0332
  C  C69  1  0.830410  0.060020  0.163500  1.0  0.1729
  C  C70  1  0.569510  0.947420  0.088300  1.0  0.1711
  C  C71  1  0.710180  0.943160  0.026400  1.0  -0.1868
  C  C72  1  0.978900  0.059400  0.105300  1.0  -0.1935
  C  C73  1  0.921290  0.000180  0.032900  1.0  0.087
  C  C74  1  0.221340  0.818480  0.199900  1.0  0.6433
  C  C75  1  0.044930  0.741060  0.155400  1.0  -0.1311
  C  C76  1  0.087390  0.650780  0.135200  1.0  -0.0752
  C  C77  1  0.847610  0.759620  0.131800  1.0  -0.0373
  C  C78  1  0.689510  0.690020  0.087100  1.0  -0.1125
  C  C79  1  0.929750  0.581500  0.091600  1.0  -0.099
  C  C80  1  0.728790  0.600380  0.066700  1.0  1e-04
  C  C81  1  0.568530  0.529060  0.019700  1.0  0.0346
  C  C82  1  0.770390  0.939980  0.336500  1.0  0.1726
  C  C83  1  0.622090  0.052580  0.411700  1.0  0.1711
  C  C84  1  0.767020  0.056840  0.473600  1.0  -0.1872
  C  C85  1  0.919500  0.940600  0.394700  1.0  -0.1944
  C  C86  1  0.921110  0.999820  0.467100  1.0  0.0873
  N  N87  1  0.374480  0.995160  0.843300  1.0  -0.3473
  N  N88  1  0.379320  0.004840  0.656700  1.0  -0.347
  N  N89  1  0.625520  0.004840  0.156700  1.0  -0.3485
  N  N90  1  0.620680  0.995160  0.343300  1.0  -0.3484
  O  O91  1  0.730980  0.898960  0.714380  1.0  -0.6051
  O  O92  1  0.401060  0.803720  0.716590  1.0  -0.583
  O  O93  1  0.832020  0.101040  0.785620  1.0  -0.6055
  O  O94  1  0.597340  0.196280  0.783410  1.0  -0.5823
  O  O95  1  0.269020  0.101040  0.285620  1.0  -0.6057
  O  O96  1  0.598940  0.196280  0.283410  1.0  -0.5835
  O  O97  1  0.167980  0.898960  0.214380  1.0  -0.6054
  O  O98  1  0.402660  0.803720  0.216590  1.0  -0.5844
