# generated using pymatgen
data_CoH6(C3N2)2
_symmetry_space_group_name_H-M   'P 1'
_cell_length_a   9.45260000
_cell_length_b   24.34060000
_cell_length_c   24.84700000
_cell_angle_alpha   91.87700000
_cell_angle_beta   90.00000000
_cell_angle_gamma   90.00000000
_symmetry_Int_Tables_number   1
_chemical_formula_structural   CoH6(C3N2)2
_chemical_formula_sum   'Co20 H120 C120 N80'
_cell_volume   5713.77894591
_cell_formula_units_Z   20
loop_
 _symmetry_equiv_pos_site_id
 _symmetry_equiv_pos_as_xyz
  1  'x, y, z'
loop_
 _atom_site_type_symbol
 _atom_site_label
 _atom_site_symmetry_multiplicity
 _atom_site_fract_x
 _atom_site_fract_y
 _atom_site_fract_z
 _atom_site_occupancy
 _atom_site_charge
  Co  Co1  1  0.045570  0.262880  0.679440  1.0  0.7816
  Co  Co2  1  0.259700  0.484310  0.714880  1.0  0.7859
  Co  Co3  1  0.764620  0.469210  0.858100  1.0  0.7786
  Co  Co4  1  0.667470  0.160120  0.516870  1.0  0.772
  Co  Co5  1  0.464150  0.714890  0.681060  1.0  0.7969
  Co  Co6  1  0.545570  0.237120  0.820560  1.0  0.7834
  Co  Co7  1  0.759700  0.015690  0.785120  1.0  0.7881
  Co  Co8  1  0.264620  0.030790  0.641900  1.0  0.7793
  Co  Co9  1  0.167470  0.339880  0.983130  1.0  0.7736
  Co  Co10  1  0.964150  0.785110  0.818940  1.0  0.7968
  Co  Co11  1  0.954430  0.737120  0.320560  1.0  0.7832
  Co  Co12  1  0.740300  0.515690  0.285120  1.0  0.7903
  Co  Co13  1  0.235380  0.530790  0.141900  1.0  0.7774
  Co  Co14  1  0.332530  0.839880  0.483130  1.0  0.7742
  Co  Co15  1  0.535850  0.285110  0.318940  1.0  0.7974
  Co  Co16  1  0.454430  0.762880  0.179440  1.0  0.7812
  Co  Co17  1  0.240300  0.984310  0.214880  1.0  0.788
  Co  Co18  1  0.735380  0.969210  0.358100  1.0  0.7765
  Co  Co19  1  0.832530  0.660120  0.016870  1.0  0.7726
  Co  Co20  1  0.035850  0.214890  0.181060  1.0  0.7976
  H  H21  1  0.781400  0.353000  0.680200  1.0  0.1076
  H  H22  1  0.572700  0.342500  0.738500  1.0  0.0982
  H  H23  1  0.833700  0.218900  0.764800  1.0  0.0682
  H  H24  1  0.299800  0.309300  0.603700  1.0  0.0935
  H  H25  1  0.386700  0.405500  0.613900  1.0  0.1015
  H  H26  1  0.057500  0.388800  0.708700  1.0  0.0632
  H  H27  1  0.991400  0.570100  0.705000  1.0  0.1046
  H  H28  1  0.786500  0.567100  0.767400  1.0  0.086
  H  H29  1  0.056800  0.452000  0.807100  1.0  0.0583
  H  H30  1  0.252600  0.540200  0.599700  1.0  0.1293
  H  H31  1  0.377300  0.632000  0.586100  1.0  0.0978
  H  H32  1  0.369500  0.604400  0.739500  1.0  0.0633
  H  H33  1  0.346700  0.157600  0.680700  1.0  0.0784
  H  H34  1  0.517700  0.212200  0.631700  1.0  0.1019
  H  H35  1  0.458100  0.070800  0.551200  1.0  0.0623
  H  H36  1  0.865800  0.973100  0.476900  1.0  0.0939
  H  H37  1  0.837000  0.052100  0.541400  1.0  0.0956
  H  H38  1  0.635700  0.085500  0.407600  1.0  0.0797
  H  H39  1  0.488900  0.390900  0.871100  1.0  0.0875
  H  H40  1  0.277700  0.397700  0.811400  1.0  0.1002
  H  H41  1  0.563100  0.506000  0.767000  1.0  0.0538
  H  H42  1  0.394200  0.232400  0.506000  1.0  0.0939
  H  H43  1  0.336500  0.287700  0.425300  1.0  0.1067
  H  H44  1  0.693300  0.207600  0.398900  1.0  0.0696
  H  H45  1  0.011600  0.156500  0.501500  1.0  0.1007
  H  H46  1  0.176500  0.198200  0.568700  1.0  0.109
  H  H47  1  0.783200  0.222800  0.619300  1.0  0.0562
  H  H48  1  0.429000  0.835100  0.736300  1.0  0.0882
  H  H49  1  0.227900  0.863500  0.793000  1.0  0.0992
  H  H50  1  0.162700  0.710100  0.740700  1.0  0.0614
  H  H51  1  0.281400  0.147000  0.819800  1.0  0.1081
  H  H52  1  0.072700  0.157500  0.761500  1.0  0.0978
  H  H53  1  0.333700  0.281100  0.735200  1.0  0.0681
  H  H54  1  0.799800  0.190700  0.896300  1.0  0.0932
  H  H55  1  0.886700  0.094500  0.886100  1.0  0.1012
  H  H56  1  0.557500  0.111200  0.791300  1.0  0.0637
  H  H57  1  0.491400  0.929900  0.795000  1.0  0.104
  H  H58  1  0.286500  0.932900  0.732600  1.0  0.0855
  H  H59  1  0.556800  0.048000  0.692900  1.0  0.0567
  H  H60  1  0.752600  0.959800  0.900300  1.0  0.1309
  H  H61  1  0.877300  0.868000  0.913900  1.0  0.0985
  H  H62  1  0.869500  0.895600  0.760500  1.0  0.0649
  H  H63  1  0.846700  0.342400  0.819300  1.0  0.0782
  H  H64  1  0.017700  0.287800  0.868300  1.0  0.102
  H  H65  1  0.958100  0.429200  0.948800  1.0  0.0621
  H  H66  1  0.365800  0.526900  0.023100  1.0  0.0942
  H  H67  1  0.337000  0.447900  0.958600  1.0  0.0973
  H  H68  1  0.135700  0.414500  0.092400  1.0  0.081
  H  H69  1  0.988900  0.109100  0.628900  1.0  0.0877
  H  H70  1  0.777700  0.102300  0.688600  1.0  0.0998
  H  H71  1  0.063100  0.994000  0.733000  1.0  0.0547
  H  H72  1  0.894200  0.267600  0.994000  1.0  0.0949
  H  H73  1  0.836500  0.212300  0.074700  1.0  0.1057
  H  H74  1  0.193300  0.292400  0.101100  1.0  0.0696
  H  H75  1  0.511600  0.343500  0.998500  1.0  0.0997
  H  H76  1  0.676500  0.301800  0.931300  1.0  0.1088
  H  H77  1  0.283200  0.277200  0.880700  1.0  0.0545
  H  H78  1  0.929000  0.664900  0.763700  1.0  0.0885
  H  H79  1  0.727900  0.636500  0.707000  1.0  0.0992
  H  H80  1  0.662700  0.789900  0.759300  1.0  0.0612
  H  H81  1  0.218600  0.647000  0.319800  1.0  0.1082
  H  H82  1  0.427300  0.657500  0.261500  1.0  0.0978
  H  H83  1  0.166300  0.781100  0.235200  1.0  0.0679
  H  H84  1  0.700200  0.690700  0.396300  1.0  0.0932
  H  H85  1  0.613300  0.594500  0.386100  1.0  0.1013
  H  H86  1  0.942500  0.611200  0.291300  1.0  0.0638
  H  H87  1  0.008600  0.429900  0.295000  1.0  0.1042
  H  H88  1  0.213500  0.432900  0.232600  1.0  0.0859
  H  H89  1  0.943200  0.548000  0.192900  1.0  0.0566
  H  H90  1  0.747400  0.459800  0.400300  1.0  0.1304
  H  H91  1  0.622700  0.368000  0.413900  1.0  0.0982
  H  H92  1  0.630500  0.395600  0.260500  1.0  0.065
  H  H93  1  0.653300  0.842400  0.319300  1.0  0.078
  H  H94  1  0.482300  0.787800  0.368300  1.0  0.1021
  H  H95  1  0.541900  0.929200  0.448800  1.0  0.062
  H  H96  1  0.134200  0.026900  0.523100  1.0  0.0925
  H  H97  1  0.163000  0.947900  0.458600  1.0  0.0976
  H  H98  1  0.364300  0.914500  0.592400  1.0  0.0804
  H  H99  1  0.511100  0.609100  0.128900  1.0  0.0882
  H  H100  1  0.722300  0.602300  0.188600  1.0  0.1
  H  H101  1  0.436900  0.494000  0.233000  1.0  0.0549
  H  H102  1  0.605800  0.767600  0.494000  1.0  0.0946
  H  H103  1  0.663500  0.712300  0.574700  1.0  0.106
  H  H104  1  0.306700  0.792400  0.601100  1.0  0.0694
  H  H105  1  0.988400  0.843500  0.498500  1.0  0.1002
  H  H106  1  0.823500  0.801800  0.431300  1.0  0.1083
  H  H107  1  0.216800  0.777200  0.380700  1.0  0.0551
  H  H108  1  0.571000  0.164900  0.263700  1.0  0.089
  H  H109  1  0.772100  0.136500  0.207000  1.0  0.0997
  H  H110  1  0.837300  0.289900  0.259300  1.0  0.0615
  H  H111  1  0.718600  0.853000  0.180200  1.0  0.1078
  H  H112  1  0.927300  0.842500  0.238500  1.0  0.0982
  H  H113  1  0.666300  0.718900  0.264800  1.0  0.0681
  H  H114  1  0.200200  0.809300  0.103700  1.0  0.0933
  H  H115  1  0.113300  0.905500  0.113900  1.0  0.1012
  H  H116  1  0.442500  0.888800  0.208700  1.0  0.0632
  H  H117  1  0.508600  0.070100  0.205000  1.0  0.1042
  H  H118  1  0.713500  0.067100  0.267400  1.0  0.0862
  H  H119  1  0.443200  0.952000  0.307100  1.0  0.0581
  H  H120  1  0.247400  0.040200  0.099700  1.0  0.1298
  H  H121  1  0.122700  0.132000  0.086100  1.0  0.098
  H  H122  1  0.130500  0.104400  0.239500  1.0  0.0632
  H  H123  1  0.153300  0.657600  0.180700  1.0  0.078
  H  H124  1  0.982300  0.712200  0.131700  1.0  0.1023
  H  H125  1  0.041900  0.570800  0.051200  1.0  0.0624
  H  H126  1  0.634200  0.473100  0.976900  1.0  0.092
  H  H127  1  0.663000  0.552100  0.041400  1.0  0.0957
  H  H128  1  0.864300  0.585500  0.907600  1.0  0.0794
  H  H129  1  0.011100  0.890900  0.371100  1.0  0.0881
  H  H130  1  0.222300  0.897700  0.311400  1.0  0.1004
  H  H131  1  0.936900  0.006000  0.267000  1.0  0.054
  H  H132  1  0.105800  0.732400  0.006000  1.0  0.0939
  H  H133  1  0.163500  0.787700  0.925300  1.0  0.1068
  H  H134  1  0.806700  0.707600  0.898900  1.0  0.0688
  H  H135  1  0.488400  0.656500  0.001500  1.0  0.101
  H  H136  1  0.323500  0.698200  0.068700  1.0  0.1084
  H  H137  1  0.716800  0.722800  0.119300  1.0  0.0564
  H  H138  1  0.071000  0.335100  0.236300  1.0  0.089
  H  H139  1  0.272100  0.363500  0.293000  1.0  0.0994
  H  H140  1  0.337300  0.210100  0.240700  1.0  0.0617
  C  C141  1  0.767100  0.324600  0.704900  1.0  -0.0442
  C  C142  1  0.652100  0.318500  0.736900  1.0  0.0059
  C  C143  1  0.795100  0.251600  0.751000  1.0  0.2206
  C  C144  1  0.260500  0.337100  0.626900  1.0  -0.0251
  C  C145  1  0.308600  0.390500  0.632500  1.0  -0.0272
  C  C146  1  0.130800  0.380600  0.683500  1.0  0.2222
  C  C147  1  0.980500  0.545700  0.733700  1.0  -0.0442
  C  C148  1  0.866500  0.543500  0.768000  1.0  -0.0091
  C  C149  1  0.014600  0.481700  0.789000  1.0  0.2331
  C  C150  1  0.303000  0.561900  0.625600  1.0  -0.079
  C  C151  1  0.365000  0.614800  0.619500  1.0  -0.0136
  C  C152  1  0.369700  0.597900  0.701600  1.0  0.2432
  C  C153  1  0.391300  0.146700  0.647800  1.0  0.0012
  C  C154  1  0.485300  0.176600  0.621100  1.0  -0.0255
  C  C155  1  0.451900  0.099700  0.577700  1.0  0.2461
  C  C156  1  0.815200  0.005900  0.470100  1.0  -0.0074
  C  C157  1  0.798500  0.049500  0.506100  1.0  -0.0266
  C  C158  1  0.690700  0.066900  0.433400  1.0  0.2241
  C  C159  1  0.478700  0.415000  0.842100  1.0  -0.0079
  C  C160  1  0.361700  0.418900  0.809000  1.0  -0.0132
  C  C161  1  0.518100  0.477200  0.785400  1.0  0.231
  C  C162  1  0.449500  0.234200  0.474200  1.0  -0.0257
  C  C163  1  0.416100  0.264400  0.429100  1.0  -0.0384
  C  C164  1  0.609300  0.221000  0.415700  1.0  0.2268
  C  C165  1  0.984800  0.175700  0.533900  1.0  -0.0145
  C  C166  1  0.076200  0.198000  0.571100  1.0  -0.0152
  C  C167  1  0.862000  0.211400  0.597900  1.0  0.2351
  C  C168  1  0.349600  0.812800  0.744100  1.0  -0.0021
  C  C169  1  0.239300  0.828400  0.775700  1.0  -0.0276
  C  C170  1  0.204700  0.745100  0.747000  1.0  0.2362
  C  C171  1  0.267100  0.175400  0.795100  1.0  -0.045
  C  C172  1  0.152100  0.181500  0.763100  1.0  0.0058
  C  C173  1  0.295100  0.248400  0.749000  1.0  0.2193
  C  C174  1  0.760500  0.162900  0.873100  1.0  -0.0252
  C  C175  1  0.808600  0.109500  0.867500  1.0  -0.0265
  C  C176  1  0.630800  0.119400  0.816500  1.0  0.2226
  C  C177  1  0.480500  0.954300  0.766300  1.0  -0.0425
  C  C178  1  0.366500  0.956500  0.732000  1.0  -0.0088
  C  C179  1  0.514600  0.018300  0.711000  1.0  0.2315
  C  C180  1  0.803000  0.938100  0.874400  1.0  -0.0698
  C  C181  1  0.865000  0.885200  0.880500  1.0  -0.0145
  C  C182  1  0.869700  0.902100  0.798400  1.0  0.2427
  C  C183  1  0.891300  0.353300  0.852200  1.0  0.0013
  C  C184  1  0.985300  0.323400  0.878900  1.0  -0.0252
  C  C185  1  0.951900  0.400300  0.922300  1.0  0.2449
  C  C186  1  0.315200  0.494100  0.029900  1.0  -0.0068
  C  C187  1  0.298500  0.450500  0.993900  1.0  -0.0273
  C  C188  1  0.190700  0.433100  0.066600  1.0  0.2233
  C  C189  1  0.978700  0.085000  0.657900  1.0  -0.0071
  C  C190  1  0.861700  0.081100  0.691000  1.0  -0.0118
  C  C191  1  0.018100  0.022800  0.714600  1.0  0.2313
  C  C192  1  0.949500  0.265800  0.025800  1.0  -0.0254
  C  C193  1  0.916100  0.235600  0.070900  1.0  -0.0386
  C  C194  1  0.109300  0.279000  0.084300  1.0  0.2267
  C  C195  1  0.484800  0.324300  0.966100  1.0  -0.0146
  C  C196  1  0.576200  0.302000  0.928900  1.0  -0.017
  C  C197  1  0.362000  0.288600  0.902100  1.0  0.2364
  C  C198  1  0.849600  0.687200  0.755900  1.0  -0.0021
  C  C199  1  0.739300  0.671600  0.724300  1.0  -0.0259
  C  C200  1  0.704700  0.754900  0.753000  1.0  0.2358
  C  C201  1  0.232900  0.675400  0.295100  1.0  -0.0455
  C  C202  1  0.347900  0.681500  0.263100  1.0  0.0066
  C  C203  1  0.204900  0.748400  0.249000  1.0  0.2197
  C  C204  1  0.739500  0.662900  0.373100  1.0  -0.0256
  C  C205  1  0.691400  0.609500  0.367500  1.0  -0.0275
  C  C206  1  0.869200  0.619400  0.316500  1.0  0.2226
  C  C207  1  0.019500  0.454300  0.266300  1.0  -0.0434
  C  C208  1  0.133500  0.456500  0.232000  1.0  -0.0077
  C  C209  1  0.985400  0.518300  0.211000  1.0  0.2319
  C  C210  1  0.697000  0.438100  0.374400  1.0  -0.0697
  C  C211  1  0.635000  0.385200  0.380500  1.0  -0.0147
  C  C212  1  0.630300  0.402100  0.298400  1.0  0.2435
  C  C213  1  0.608700  0.853300  0.352200  1.0  0.0024
  C  C214  1  0.514700  0.823400  0.378900  1.0  -0.0256
  C  C215  1  0.548100  0.900300  0.422300  1.0  0.2447
  C  C216  1  0.184800  0.994100  0.529900  1.0  -0.0068
  C  C217  1  0.201500  0.950500  0.493900  1.0  -0.0276
  C  C218  1  0.309300  0.933100  0.566600  1.0  0.2227
  C  C219  1  0.521300  0.585000  0.157900  1.0  -0.0075
  C  C220  1  0.638300  0.581100  0.191000  1.0  -0.0113
  C  C221  1  0.481900  0.522800  0.214600  1.0  0.2321
  C  C222  1  0.550500  0.765800  0.525800  1.0  -0.0252
  C  C223  1  0.583900  0.735600  0.570900  1.0  -0.0385
  C  C224  1  0.390700  0.779000  0.584300  1.0  0.227
  C  C225  1  0.015200  0.824300  0.466100  1.0  -0.0159
  C  C226  1  0.923800  0.802000  0.428900  1.0  -0.0178
  C  C227  1  0.138000  0.788600  0.402100  1.0  0.2368
  C  C228  1  0.650400  0.187200  0.255900  1.0  -0.0031
  C  C229  1  0.760700  0.171600  0.224300  1.0  -0.0265
  C  C230  1  0.795300  0.254900  0.253000  1.0  0.2349
  C  C231  1  0.732900  0.824600  0.204900  1.0  -0.0445
  C  C232  1  0.847900  0.818500  0.236900  1.0  0.0068
  C  C233  1  0.704900  0.751600  0.251000  1.0  0.2212
  C  C234  1  0.239500  0.837100  0.126900  1.0  -0.0246
  C  C235  1  0.191400  0.890500  0.132500  1.0  -0.0274
  C  C236  1  0.369200  0.880600  0.183500  1.0  0.2226
  C  C237  1  0.519500  0.045700  0.233700  1.0  -0.0443
  C  C238  1  0.633500  0.043500  0.268000  1.0  -0.0082
  C  C239  1  0.485400  0.981700  0.289000  1.0  0.2331
  C  C240  1  0.197000  0.061900  0.125600  1.0  -0.0802
  C  C241  1  0.135000  0.114800  0.119500  1.0  -0.0134
  C  C242  1  0.130300  0.097900  0.201600  1.0  0.2438
  C  C243  1  0.108700  0.646700  0.147800  1.0  0.0022
  C  C244  1  0.014700  0.676600  0.121100  1.0  -0.0261
  C  C245  1  0.048100  0.599700  0.077700  1.0  0.246
  C  C246  1  0.684800  0.505900  0.970100  1.0  -0.0072
  C  C247  1  0.701500  0.549500  0.006100  1.0  -0.0271
  C  C248  1  0.809300  0.566900  0.933400  1.0  0.2235
  C  C249  1  0.021300  0.915000  0.342100  1.0  -0.0078
  C  C250  1  0.138300  0.918900  0.309000  1.0  -0.0122
  C  C251  1  0.981900  0.977200  0.285400  1.0  0.2315
  C  C252  1  0.050500  0.734200  0.974200  1.0  -0.0252
  C  C253  1  0.083900  0.764400  0.929100  1.0  -0.0383
  C  C254  1  0.890700  0.721000  0.915700  1.0  0.2277
  C  C255  1  0.515200  0.675700  0.033900  1.0  -0.0142
  C  C256  1  0.423800  0.698000  0.071100  1.0  -0.0163
  C  C257  1  0.638000  0.711400  0.097900  1.0  0.2362
  C  C258  1  0.150400  0.312800  0.244100  1.0  -0.0028
  C  C259  1  0.260700  0.328400  0.275700  1.0  -0.0279
  C  C260  1  0.295300  0.245100  0.247000  1.0  0.2351
  N  N261  1  0.859800  0.282100  0.714400  1.0  -0.4139
  N  N262  1  0.668400  0.273100  0.766100  1.0  -0.4353
  N  N263  1  0.147600  0.330800  0.660000  1.0  -0.4051
  N  N264  1  0.226000  0.417900  0.668700  1.0  -0.4258
  N  N265  1  0.075900  0.506100  0.748400  1.0  -0.4083
  N  N266  1  0.886700  0.502500  0.802400  1.0  -0.4228
  N  N267  1  0.335200  0.549300  0.679700  1.0  -0.4113
  N  N268  1  0.404500  0.637000  0.667900  1.0  -0.4125
  N  N269  1  0.369300  0.097300  0.619700  1.0  -0.418
  N  N270  1  0.527900  0.146400  0.574900  1.0  -0.4395
  N  N271  1  0.748500  0.016800  0.423700  1.0  -0.4245
  N  N272  1  0.718200  0.087900  0.482700  1.0  -0.4003
  N  N273  1  0.577500  0.452200  0.825600  1.0  -0.4109
  N  N274  1  0.387200  0.458400  0.772300  1.0  -0.442
  N  N275  1  0.572100  0.208300  0.465100  1.0  -0.4077
  N  N276  1  0.518400  0.254200  0.391400  1.0  -0.4128
  N  N277  1  0.848800  0.185200  0.550300  1.0  -0.4229
  N  N278  1  0.996100  0.220300  0.613000  1.0  -0.4408
  N  N279  1  0.329400  0.759800  0.725200  1.0  -0.4276
  N  N280  1  0.145700  0.784800  0.778700  1.0  -0.4317
  N  N281  1  0.359800  0.217900  0.785600  1.0  -0.4132
  N  N282  1  0.168400  0.226900  0.733900  1.0  -0.4352
  N  N283  1  0.647600  0.169200  0.840000  1.0  -0.4048
  N  N284  1  0.726000  0.082100  0.831300  1.0  -0.4251
  N  N285  1  0.575900  0.993900  0.751600  1.0  -0.4073
  N  N286  1  0.386700  0.997500  0.697600  1.0  -0.4232
  N  N287  1  0.835200  0.950700  0.820300  1.0  -0.4107
  N  N288  1  0.904500  0.863000  0.832100  1.0  -0.4121
  N  N289  1  0.869300  0.402700  0.880300  1.0  -0.4175
  N  N290  1  0.027900  0.353600  0.925100  1.0  -0.4392
  N  N291  1  0.248500  0.483200  0.076300  1.0  -0.4245
  N  N292  1  0.218200  0.412100  0.017300  1.0  -0.4003
  N  N293  1  0.077500  0.047800  0.674400  1.0  -0.4109
  N  N294  1  0.887200  0.041600  0.727700  1.0  -0.4425
  N  N295  1  0.072100  0.291700  0.034900  1.0  -0.4083
  N  N296  1  0.018400  0.245800  0.108600  1.0  -0.4135
  N  N297  1  0.348800  0.314800  0.949700  1.0  -0.4245
  N  N298  1  0.496100  0.279700  0.887000  1.0  -0.4398
  N  N299  1  0.829400  0.740200  0.774800  1.0  -0.4292
  N  N300  1  0.645700  0.715200  0.721300  1.0  -0.4321
  N  N301  1  0.140200  0.717900  0.285600  1.0  -0.4137
  N  N302  1  0.331600  0.726900  0.233900  1.0  -0.4349
  N  N303  1  0.852400  0.669200  0.340000  1.0  -0.4041
  N  N304  1  0.774000  0.582100  0.331300  1.0  -0.4248
  N  N305  1  0.924100  0.493900  0.251600  1.0  -0.4071
  N  N306  1  0.113300  0.497500  0.197600  1.0  -0.4231
  N  N307  1  0.664800  0.450700  0.320300  1.0  -0.4106
  N  N308  1  0.595500  0.363000  0.332100  1.0  -0.4124
  N  N309  1  0.630700  0.902700  0.380300  1.0  -0.4177
  N  N310  1  0.472100  0.853600  0.425100  1.0  -0.4393
  N  N311  1  0.251500  0.983200  0.576300  1.0  -0.4246
  N  N312  1  0.281800  0.912100  0.517300  1.0  -0.4
  N  N313  1  0.422500  0.547800  0.174400  1.0  -0.4103
  N  N314  1  0.612800  0.541600  0.227700  1.0  -0.4429
  N  N315  1  0.427900  0.791700  0.534900  1.0  -0.4088
  N  N316  1  0.481600  0.745800  0.608600  1.0  -0.4136
  N  N317  1  0.151200  0.814800  0.449700  1.0  -0.4234
  N  N318  1  0.003900  0.779700  0.387000  1.0  -0.4399
  N  N319  1  0.670600  0.240200  0.274800  1.0  -0.4286
  N  N320  1  0.854300  0.215200  0.221300  1.0  -0.4318
  N  N321  1  0.640200  0.782100  0.214400  1.0  -0.4141
  N  N322  1  0.831600  0.773100  0.266100  1.0  -0.4337
  N  N323  1  0.352400  0.830800  0.160000  1.0  -0.4045
  N  N324  1  0.274000  0.917900  0.168700  1.0  -0.4256
  N  N325  1  0.424100  0.006100  0.248400  1.0  -0.4078
  N  N326  1  0.613300  0.002500  0.302400  1.0  -0.4224
  N  N327  1  0.164800  0.049300  0.179700  1.0  -0.4115
  N  N328  1  0.095500  0.137000  0.167900  1.0  -0.4126
  N  N329  1  0.130700  0.597300  0.119700  1.0  -0.4178
  N  N330  1  0.972100  0.646400  0.074900  1.0  -0.4394
  N  N331  1  0.751500  0.516800  0.923700  1.0  -0.4246
  N  N332  1  0.781800  0.587900  0.982700  1.0  -0.4001
  N  N333  1  0.922500  0.952200  0.325600  1.0  -0.4106
  N  N334  1  0.112800  0.958400  0.272300  1.0  -0.4424
  N  N335  1  0.927900  0.708300  0.965100  1.0  -0.4088
  N  N336  1  0.981600  0.754200  0.891400  1.0  -0.4132
  N  N337  1  0.651200  0.685200  0.050300  1.0  -0.4227
  N  N338  1  0.503900  0.720300  0.113000  1.0  -0.441
  N  N339  1  0.170600  0.259800  0.225200  1.0  -0.4271
  N  N340  1  0.354300  0.284800  0.278700  1.0  -0.4313
