# generated using pymatgen
data_CoH6(C3N2)2
_symmetry_space_group_name_H-M   'P 1'
_cell_length_a   9.51820000
_cell_length_b   24.24600000
_cell_length_c   24.68500000
_cell_angle_alpha   90.96000000
_cell_angle_beta   90.00000000
_cell_angle_gamma   90.00000000
_symmetry_Int_Tables_number   1
_chemical_formula_structural   CoH6(C3N2)2
_chemical_formula_sum   'Co20 H120 C120 N80'
_cell_volume   5695.96215000
_cell_formula_units_Z   20
loop_
 _symmetry_equiv_pos_site_id
 _symmetry_equiv_pos_as_xyz
  1  'x, y, z'
loop_
 _atom_site_type_symbol
 _atom_site_label
 _atom_site_symmetry_multiplicity
 _atom_site_fract_x
 _atom_site_fract_y
 _atom_site_fract_z
 _atom_site_occupancy
 _atom_site_charge
  Co  Co1  1  0.958560  0.265790  0.680270  1.0  0.7431
  Co  Co2  1  0.324580  0.160740  0.517060  1.0  0.8162
  Co  Co3  1  0.268850  0.969600  0.361500  1.0  0.8069
  Co  Co4  1  0.737360  0.485960  0.721620  1.0  0.8345
  Co  Co5  1  0.465940  0.284750  0.316460  1.0  0.9395
  Co  Co6  1  0.458560  0.234210  0.819730  1.0  0.745
  Co  Co7  1  0.824580  0.339260  0.982940  1.0  0.8186
  Co  Co8  1  0.768850  0.530400  0.138500  1.0  0.8077
  Co  Co9  1  0.237360  0.014040  0.778380  1.0  0.8365
  Co  Co10  1  0.965940  0.215250  0.183540  1.0  0.9398
  Co  Co11  1  0.041440  0.734210  0.319730  1.0  0.7459
  Co  Co12  1  0.675420  0.839260  0.482940  1.0  0.8183
  Co  Co13  1  0.731150  0.030400  0.638500  1.0  0.8058
  Co  Co14  1  0.262640  0.514040  0.278380  1.0  0.8352
  Co  Co15  1  0.534060  0.715250  0.683540  1.0  0.9444
  Co  Co16  1  0.541440  0.765790  0.180270  1.0  0.7439
  Co  Co17  1  0.175420  0.660740  0.017060  1.0  0.8159
  Co  Co18  1  0.231150  0.469600  0.861500  1.0  0.805
  Co  Co19  1  0.762640  0.985960  0.221620  1.0  0.8335
  Co  Co20  1  0.034060  0.784750  0.816460  1.0  0.9441
  H  H21  1  0.929200  0.387100  0.718400  1.0  0.04
  H  H22  1  0.669900  0.279100  0.733300  1.0  0.051
  H  H23  1  0.926500  0.159500  0.760300  1.0  0.0829
  H  H24  1  0.720300  0.146400  0.817400  1.0  0.0963
  H  H25  1  0.213600  0.220900  0.619900  1.0  0.05
  H  H26  1  0.831500  0.209800  0.568100  1.0  0.0875
  H  H27  1  0.987100  0.170700  0.499400  1.0  0.0905
  H  H28  1  0.353800  0.086600  0.410400  1.0  0.0483
  H  H29  1  0.161800  0.050700  0.541700  1.0  0.0803
  H  H30  1  0.142200  0.972000  0.481200  1.0  0.1034
  H  H31  1  0.526100  0.071700  0.551200  1.0  0.0684
  H  H32  1  0.481000  0.211500  0.629300  1.0  0.0974
  H  H33  1  0.658500  0.158300  0.675800  1.0  0.0778
  H  H34  1  0.437900  0.504500  0.769400  1.0  0.0385
  H  H35  1  0.708600  0.399400  0.819100  1.0  0.0904
  H  H36  1  0.502300  0.390600  0.874900  1.0  0.0838
  H  H37  1  0.942100  0.455900  0.814400  1.0  0.0618
  H  H38  1  0.300500  0.215100  0.400700  1.0  0.0652
  H  H39  1  0.639000  0.607400  0.742000  1.0  0.0449
  H  H40  1  0.671900  0.211800  0.244200  1.0  0.0384
  H  H41  1  0.686000  0.310300  0.617300  1.0  0.0907
  H  H42  1  0.598200  0.404400  0.628200  1.0  0.0936
  H  H43  1  0.008000  0.562500  0.701200  1.0  0.1103
  H  H44  1  0.215600  0.555700  0.758300  1.0  0.0858
  H  H45  1  0.592900  0.237000  0.506500  1.0  0.0915
  H  H46  1  0.647900  0.288900  0.426200  1.0  0.0889
  H  H47  1  0.729700  0.540500  0.605300  1.0  0.0947
  H  H48  1  0.653500  0.636500  0.590800  1.0  0.0938
  H  H49  1  0.891900  0.337600  0.213400  1.0  0.0936
  H  H50  1  0.701200  0.365300  0.273900  1.0  0.0952
  H  H51  1  0.429200  0.112900  0.781600  1.0  0.0403
  H  H52  1  0.169900  0.220900  0.766700  1.0  0.0507
  H  H53  1  0.426500  0.340500  0.739700  1.0  0.0829
  H  H54  1  0.220300  0.353600  0.682600  1.0  0.0971
  H  H55  1  0.713600  0.279100  0.880100  1.0  0.0503
  H  H56  1  0.331500  0.290200  0.931900  1.0  0.0874
  H  H57  1  0.487100  0.329300  0.000600  1.0  0.0901
  H  H58  1  0.853800  0.413400  0.089600  1.0  0.0493
  H  H59  1  0.661800  0.449300  0.958300  1.0  0.0808
  H  H60  1  0.642200  0.528000  0.018800  1.0  0.1036
  H  H61  1  0.026100  0.428300  0.948800  1.0  0.0683
  H  H62  1  0.981000  0.288500  0.870700  1.0  0.0978
  H  H63  1  0.158500  0.341700  0.824200  1.0  0.0773
  H  H64  1  0.937900  0.995500  0.730600  1.0  0.038
  H  H65  1  0.208600  0.100600  0.680900  1.0  0.0901
  H  H66  1  0.002300  0.109400  0.625100  1.0  0.083
  H  H67  1  0.442100  0.044100  0.685600  1.0  0.0601
  H  H68  1  0.800500  0.284900  0.099300  1.0  0.0649
  H  H69  1  0.139000  0.892600  0.758000  1.0  0.0447
  H  H70  1  0.171900  0.288200  0.255800  1.0  0.0387
  H  H71  1  0.186000  0.189700  0.882700  1.0  0.0911
  H  H72  1  0.098200  0.095600  0.871800  1.0  0.0946
  H  H73  1  0.508000  0.937500  0.798800  1.0  0.1101
  H  H74  1  0.715600  0.944300  0.741700  1.0  0.0864
  H  H75  1  0.092900  0.263000  0.993500  1.0  0.0916
  H  H76  1  0.147900  0.211100  0.073800  1.0  0.0887
  H  H77  1  0.229700  0.959500  0.894700  1.0  0.0961
  H  H78  1  0.153500  0.863500  0.909200  1.0  0.0935
  H  H79  1  0.391900  0.162400  0.286600  1.0  0.0937
  H  H80  1  0.201200  0.134700  0.226100  1.0  0.0954
  H  H81  1  0.070800  0.612900  0.281600  1.0  0.0402
  H  H82  1  0.330100  0.720900  0.266700  1.0  0.0511
  H  H83  1  0.073500  0.840500  0.239700  1.0  0.0828
  H  H84  1  0.279700  0.853600  0.182600  1.0  0.0962
  H  H85  1  0.786400  0.779100  0.380100  1.0  0.0495
  H  H86  1  0.168500  0.790200  0.431900  1.0  0.0859
  H  H87  1  0.012900  0.829300  0.500600  1.0  0.0896
  H  H88  1  0.646200  0.913400  0.589600  1.0  0.0492
  H  H89  1  0.838200  0.949300  0.458300  1.0  0.0808
  H  H90  1  0.857800  0.028000  0.518800  1.0  0.1035
  H  H91  1  0.473900  0.928300  0.448800  1.0  0.068
  H  H92  1  0.519000  0.788500  0.370700  1.0  0.0979
  H  H93  1  0.341500  0.841700  0.324200  1.0  0.0775
  H  H94  1  0.562100  0.495500  0.230600  1.0  0.0381
  H  H95  1  0.291400  0.600600  0.180900  1.0  0.0898
  H  H96  1  0.497700  0.609400  0.125100  1.0  0.0835
  H  H97  1  0.057900  0.544100  0.185600  1.0  0.0605
  H  H98  1  0.699500  0.784900  0.599300  1.0  0.0643
  H  H99  1  0.361000  0.392600  0.258000  1.0  0.0447
  H  H100  1  0.328100  0.788200  0.755800  1.0  0.0387
  H  H101  1  0.314000  0.689700  0.382700  1.0  0.0907
  H  H102  1  0.401800  0.595600  0.371800  1.0  0.0942
  H  H103  1  0.992000  0.437500  0.298800  1.0  0.1102
  H  H104  1  0.784400  0.444300  0.241700  1.0  0.0863
  H  H105  1  0.407100  0.763000  0.493500  1.0  0.0919
  H  H106  1  0.352100  0.711100  0.573800  1.0  0.0888
  H  H107  1  0.270300  0.459500  0.394700  1.0  0.0963
  H  H108  1  0.346500  0.363500  0.409200  1.0  0.0938
  H  H109  1  0.108100  0.662400  0.786600  1.0  0.0937
  H  H110  1  0.298800  0.634700  0.726100  1.0  0.0955
  H  H111  1  0.570800  0.887100  0.218400  1.0  0.0397
  H  H112  1  0.830100  0.779100  0.233300  1.0  0.0517
  H  H113  1  0.573500  0.659500  0.260300  1.0  0.0828
  H  H114  1  0.779700  0.646400  0.317400  1.0  0.0978
  H  H115  1  0.286400  0.720900  0.119900  1.0  0.049
  H  H116  1  0.668500  0.709800  0.068100  1.0  0.0851
  H  H117  1  0.512900  0.670700  0.999400  1.0  0.0904
  H  H118  1  0.146200  0.586600  0.910400  1.0  0.0483
  H  H119  1  0.338200  0.550700  0.041700  1.0  0.0806
  H  H120  1  0.357800  0.472000  0.981200  1.0  0.1036
  H  H121  1  0.973900  0.571700  0.051200  1.0  0.0682
  H  H122  1  0.019000  0.711500  0.129300  1.0  0.0974
  H  H123  1  0.841500  0.658300  0.175800  1.0  0.0781
  H  H124  1  0.062100  0.004500  0.269400  1.0  0.0381
  H  H125  1  0.791400  0.899400  0.319100  1.0  0.09
  H  H126  1  0.997700  0.890600  0.374900  1.0  0.0841
  H  H127  1  0.557900  0.955900  0.314400  1.0  0.062
  H  H128  1  0.199500  0.715100  0.900700  1.0  0.0647
  H  H129  1  0.861000  0.107400  0.242000  1.0  0.0448
  H  H130  1  0.828100  0.711800  0.744200  1.0  0.0385
  H  H131  1  0.814000  0.810300  0.117300  1.0  0.0907
  H  H132  1  0.901800  0.904400  0.128200  1.0  0.0938
  H  H133  1  0.492000  0.062500  0.201200  1.0  0.1101
  H  H134  1  0.284400  0.055700  0.258300  1.0  0.0859
  H  H135  1  0.907100  0.737000  0.006500  1.0  0.0918
  H  H136  1  0.852100  0.788900  0.926200  1.0  0.0893
  H  H137  1  0.770300  0.040500  0.105300  1.0  0.0942
  H  H138  1  0.846500  0.136500  0.090800  1.0  0.0937
  H  H139  1  0.608100  0.837600  0.713400  1.0  0.0939
  H  H140  1  0.798800  0.865300  0.773900  1.0  0.0954
  C  C141  1  0.865400  0.381500  0.690300  1.0  0.2048
  C  C142  1  0.709300  0.247300  0.747500  1.0  0.2533
  C  C143  1  0.849000  0.182800  0.761700  1.0  0.0004
  C  C144  1  0.734200  0.175200  0.793600  1.0  -0.0608
  C  C145  1  0.136700  0.213500  0.597700  1.0  0.2334
  C  C146  1  0.928900  0.207900  0.570600  1.0  -0.0275
  C  C147  1  0.015600  0.186000  0.532500  1.0  -0.0321
  C  C148  1  0.302500  0.067700  0.436200  1.0  0.2345
  C  C149  1  0.199600  0.048600  0.507000  1.0  -0.0095
  C  C150  1  0.187800  0.004900  0.473500  1.0  -0.0379
  C  C151  1  0.537100  0.100300  0.576400  1.0  0.2721
  C  C152  1  0.511600  0.176500  0.618800  1.0  0.0024
  C  C153  1  0.610700  0.147100  0.644600  1.0  -0.0208
  C  C154  1  0.481300  0.477000  0.789200  1.0  0.2167
  C  C155  1  0.627300  0.420300  0.815800  1.0  -0.0011
  C  C156  1  0.513400  0.415300  0.846900  1.0  -0.0291
  C  C157  1  0.982800  0.484700  0.795700  1.0  0.2502
  C  C158  1  0.389100  0.222500  0.415000  1.0  0.2205
  C  C159  1  0.631400  0.600100  0.705000  1.0  0.2439
  C  C160  1  0.712200  0.246400  0.249500  1.0  0.2181
  C  C161  1  0.730600  0.338800  0.636300  1.0  -0.0174
  C  C162  1  0.680700  0.390600  0.642900  1.0  -0.0447
  C  C163  1  0.017000  0.541700  0.732300  1.0  -0.0515
  C  C164  1  0.131200  0.537600  0.764500  1.0  0.0204
  C  C165  1  0.543000  0.235900  0.474100  1.0  -0.0338
  C  C166  1  0.574300  0.263900  0.429000  1.0  0.0005
  C  C167  1  0.688800  0.563800  0.631200  1.0  -0.0454
  C  C168  1  0.646800  0.617400  0.623100  1.0  -0.0474
  C  C169  1  0.830400  0.313800  0.230700  1.0  -0.0435
  C  C170  1  0.721500  0.329100  0.263500  1.0  -0.0178
  C  C171  1  0.365400  0.118500  0.809700  1.0  0.2025
  C  C172  1  0.209300  0.252700  0.752500  1.0  0.2541
  C  C173  1  0.349000  0.317200  0.738300  1.0  -0.0003
  C  C174  1  0.234200  0.324800  0.706400  1.0  -0.0592
  C  C175  1  0.636700  0.286500  0.902300  1.0  0.2343
  C  C176  1  0.428900  0.292100  0.929400  1.0  -0.0288
  C  C177  1  0.515600  0.314000  0.967500  1.0  -0.0325
  C  C178  1  0.802500  0.432300  0.063800  1.0  0.2347
  C  C179  1  0.699600  0.451400  0.993000  1.0  -0.0093
  C  C180  1  0.687800  0.495100  0.026500  1.0  -0.0378
  C  C181  1  0.037100  0.399700  0.923600  1.0  0.2726
  C  C182  1  0.011600  0.323500  0.881200  1.0  0.002
  C  C183  1  0.110700  0.352900  0.855400  1.0  -0.0212
  C  C184  1  0.981300  0.023000  0.710800  1.0  0.2155
  C  C185  1  0.127300  0.079700  0.684200  1.0  -0.0009
  C  C186  1  0.013400  0.084700  0.653100  1.0  -0.0296
  C  C187  1  0.482800  0.015300  0.704300  1.0  0.2501
  C  C188  1  0.889100  0.277500  0.085000  1.0  0.22
  C  C189  1  0.131400  0.899900  0.795000  1.0  0.2436
  C  C190  1  0.212200  0.253600  0.250500  1.0  0.2171
  C  C191  1  0.230600  0.161200  0.863700  1.0  -0.016
  C  C192  1  0.180700  0.109400  0.857100  1.0  -0.0453
  C  C193  1  0.517000  0.958300  0.767700  1.0  -0.0513
  C  C194  1  0.631200  0.962400  0.735500  1.0  0.0209
  C  C195  1  0.043000  0.264100  0.025900  1.0  -0.0348
  C  C196  1  0.074300  0.236100  0.071000  1.0  -0.001
  C  C197  1  0.188800  0.936200  0.868800  1.0  -0.0457
  C  C198  1  0.146800  0.882600  0.876900  1.0  -0.0483
  C  C199  1  0.330400  0.186200  0.269300  1.0  -0.0428
  C  C200  1  0.221500  0.170900  0.236500  1.0  -0.0173
  C  C201  1  0.134600  0.618500  0.309700  1.0  0.2026
  C  C202  1  0.290700  0.752700  0.252500  1.0  0.2536
  C  C203  1  0.151000  0.817200  0.238300  1.0  -0.0015
  C  C204  1  0.265800  0.824800  0.206400  1.0  -0.0592
  C  C205  1  0.863300  0.786500  0.402300  1.0  0.235
  C  C206  1  0.071100  0.792100  0.429400  1.0  -0.0281
  C  C207  1  0.984400  0.814000  0.467500  1.0  -0.0322
  C  C208  1  0.697500  0.932300  0.563800  1.0  0.2352
  C  C209  1  0.800400  0.951400  0.493000  1.0  -0.0096
  C  C210  1  0.812200  0.995100  0.526500  1.0  -0.0378
  C  C211  1  0.462900  0.899700  0.423600  1.0  0.273
  C  C212  1  0.488400  0.823500  0.381200  1.0  0.003
  C  C213  1  0.389300  0.852900  0.355400  1.0  -0.0219
  C  C214  1  0.518700  0.523000  0.210800  1.0  0.2153
  C  C215  1  0.372700  0.579700  0.184200  1.0  -0.0015
  C  C216  1  0.486600  0.584700  0.153100  1.0  -0.0294
  C  C217  1  0.017200  0.515300  0.204300  1.0  0.2493
  C  C218  1  0.610900  0.777500  0.585000  1.0  0.2201
  C  C219  1  0.368600  0.399900  0.295000  1.0  0.2438
  C  C220  1  0.287800  0.753600  0.750500  1.0  0.2161
  C  C221  1  0.269400  0.661200  0.363700  1.0  -0.0158
  C  C222  1  0.319300  0.609400  0.357100  1.0  -0.044
  C  C223  1  0.983000  0.458300  0.267700  1.0  -0.0512
  C  C224  1  0.868800  0.462400  0.235500  1.0  0.0186
  C  C225  1  0.457000  0.764100  0.525900  1.0  -0.0345
  C  C226  1  0.425700  0.736100  0.571000  1.0  0.0007
  C  C227  1  0.311200  0.436200  0.368800  1.0  -0.0465
  C  C228  1  0.353200  0.382600  0.376900  1.0  -0.0485
  C  C229  1  0.169600  0.686200  0.769300  1.0  -0.0438
  C  C230  1  0.278500  0.670900  0.736500  1.0  -0.0171
  C  C231  1  0.634600  0.881500  0.190300  1.0  0.2045
  C  C232  1  0.790700  0.747300  0.247500  1.0  0.2532
  C  C233  1  0.651000  0.682800  0.261700  1.0  -0.0012
  C  C234  1  0.765800  0.675200  0.293600  1.0  -0.0605
  C  C235  1  0.363300  0.713500  0.097700  1.0  0.2329
  C  C236  1  0.571100  0.707900  0.070600  1.0  -0.0259
  C  C237  1  0.484400  0.686000  0.032500  1.0  -0.0331
  C  C238  1  0.197500  0.567700  0.936200  1.0  0.2356
  C  C239  1  0.300400  0.548600  0.007000  1.0  -0.0094
  C  C240  1  0.312200  0.504900  0.973500  1.0  -0.0384
  C  C241  1  0.962900  0.600300  0.076400  1.0  0.2719
  C  C242  1  0.988400  0.676500  0.118800  1.0  0.0036
  C  C243  1  0.889300  0.647100  0.144600  1.0  -0.0218
  C  C244  1  0.018700  0.977000  0.289200  1.0  0.2168
  C  C245  1  0.872700  0.920300  0.315800  1.0  -0.0022
  C  C246  1  0.986600  0.915300  0.346900  1.0  -0.0295
  C  C247  1  0.517200  0.984700  0.295700  1.0  0.2493
  C  C248  1  0.110900  0.722500  0.915000  1.0  0.2194
  C  C249  1  0.868600  0.100100  0.205000  1.0  0.2441
  C  C250  1  0.787800  0.746400  0.749500  1.0  0.2169
  C  C251  1  0.769400  0.838800  0.136300  1.0  -0.0181
  C  C252  1  0.819300  0.890600  0.142900  1.0  -0.0451
  C  C253  1  0.483000  0.041700  0.232300  1.0  -0.0517
  C  C254  1  0.368800  0.037600  0.264500  1.0  0.0183
  C  C255  1  0.957000  0.735900  0.974100  1.0  -0.0342
  C  C256  1  0.925700  0.763900  0.929000  1.0  0.0007
  C  C257  1  0.811200  0.063800  0.131200  1.0  -0.0453
  C  C258  1  0.853200  0.117400  0.123100  1.0  -0.0463
  C  C259  1  0.669600  0.813800  0.730700  1.0  -0.0447
  C  C260  1  0.778500  0.829100  0.763500  1.0  -0.0175
  N  N261  1  0.859500  0.334900  0.662530  1.0  -0.4162
  N  N262  1  0.775400  0.420060  0.676000  1.0  -0.4316
  N  N263  1  0.834500  0.229130  0.732490  1.0  -0.4331
  N  N264  1  0.643400  0.217300  0.784340  1.0  -0.4091
  N  N265  1  0.006400  0.226290  0.612470  1.0  -0.4182
  N  N266  1  0.150300  0.189780  0.549800  1.0  -0.4256
  N  N267  1  0.273700  0.088990  0.483800  1.0  -0.4043
  N  N268  1  0.253300  0.016900  0.426930  1.0  -0.4238
  N  N269  1  0.629200  0.098010  0.617330  1.0  -0.4537
  N  N270  1  0.417100  0.452300  0.830370  1.0  -0.4446
  N  N271  1  0.607700  0.460320  0.778630  1.0  -0.4169
  N  N272  1  0.916600  0.508600  0.755600  1.0  -0.4037
  N  N273  1  0.108200  0.503150  0.808060  1.0  -0.4182
  N  N274  1  0.423900  0.205250  0.463610  1.0  -0.4146
  N  N275  1  0.481800  0.250400  0.387100  1.0  -0.4127
  N  N276  1  0.592800  0.638120  0.671700  1.0  -0.3591
  N  N277  1  0.659600  0.550600  0.684260  1.0  -0.3775
  N  N278  1  0.462200  0.146910  0.574420  1.0  -0.4483
  N  N279  1  0.646400  0.284300  0.279100  1.0  -0.4097
  N  N280  1  0.833700  0.257600  0.227700  1.0  -0.4034
  N  N281  1  0.359500  0.165100  0.837470  1.0  -0.4156
  N  N282  1  0.275400  0.079940  0.824000  1.0  -0.4313
  N  N283  1  0.334500  0.270870  0.767510  1.0  -0.4319
  N  N284  1  0.143400  0.282700  0.715660  1.0  -0.4091
  N  N285  1  0.506400  0.273710  0.887530  1.0  -0.419
  N  N286  1  0.650300  0.310220  0.950200  1.0  -0.425
  N  N287  1  0.773700  0.411010  0.016200  1.0  -0.4043
  N  N288  1  0.753300  0.483100  0.073070  1.0  -0.4237
  N  N289  1  0.129200  0.401990  0.882670  1.0  -0.4544
  N  N290  1  0.917100  0.047700  0.669630  1.0  -0.4444
  N  N291  1  0.107700  0.039680  0.721370  1.0  -0.4175
  N  N292  1  0.416600  0.991400  0.744400  1.0  -0.4039
  N  N293  1  0.608200  0.996850  0.691940  1.0  -0.4183
  N  N294  1  0.923900  0.294750  0.036390  1.0  -0.4132
  N  N295  1  0.981800  0.249600  0.112900  1.0  -0.4135
  N  N296  1  0.092800  0.861880  0.828300  1.0  -0.3577
  N  N297  1  0.159600  0.949400  0.815740  1.0  -0.3768
  N  N298  1  0.962200  0.353090  0.925580  1.0  -0.4476
  N  N299  1  0.146400  0.215700  0.220900  1.0  -0.4101
  N  N300  1  0.333700  0.242400  0.272300  1.0  -0.4045
  N  N301  1  0.140500  0.665100  0.337470  1.0  -0.4166
  N  N302  1  0.224600  0.579940  0.324000  1.0  -0.432
  N  N303  1  0.165500  0.770870  0.267510  1.0  -0.4354
  N  N304  1  0.356600  0.782700  0.215660  1.0  -0.4085
  N  N305  1  0.993600  0.773710  0.387530  1.0  -0.418
  N  N306  1  0.849700  0.810220  0.450200  1.0  -0.4261
  N  N307  1  0.726300  0.911010  0.516200  1.0  -0.4041
  N  N308  1  0.746700  0.983100  0.573070  1.0  -0.4237
  N  N309  1  0.370800  0.901990  0.382670  1.0  -0.4544
  N  N310  1  0.582900  0.547700  0.169630  1.0  -0.4443
  N  N311  1  0.392300  0.539680  0.221370  1.0  -0.4182
  N  N312  1  0.083400  0.491400  0.244400  1.0  -0.4047
  N  N313  1  0.891800  0.496850  0.191940  1.0  -0.4181
  N  N314  1  0.576100  0.794750  0.536390  1.0  -0.413
  N  N315  1  0.518200  0.749600  0.612900  1.0  -0.4131
  N  N316  1  0.407200  0.361880  0.328300  1.0  -0.358
  N  N317  1  0.340400  0.449400  0.315740  1.0  -0.3771
  N  N318  1  0.537800  0.853090  0.425580  1.0  -0.4467
  N  N319  1  0.353600  0.715700  0.720900  1.0  -0.4094
  N  N320  1  0.166300  0.742400  0.772300  1.0  -0.4046
  N  N321  1  0.640500  0.834900  0.162530  1.0  -0.4159
  N  N322  1  0.724600  0.920060  0.176000  1.0  -0.4322
  N  N323  1  0.665500  0.729130  0.232490  1.0  -0.436
  N  N324  1  0.856600  0.717300  0.284340  1.0  -0.4083
  N  N325  1  0.493600  0.726290  0.112470  1.0  -0.4179
  N  N326  1  0.349700  0.689780  0.049800  1.0  -0.4252
  N  N327  1  0.226300  0.588990  0.983800  1.0  -0.404
  N  N328  1  0.246700  0.516900  0.926930  1.0  -0.4239
  N  N329  1  0.870800  0.598010  0.117330  1.0  -0.4542
  N  N330  1  0.082900  0.952300  0.330370  1.0  -0.4451
  N  N331  1  0.892300  0.960320  0.278630  1.0  -0.4175
  N  N332  1  0.583400  0.008600  0.255600  1.0  -0.4059
  N  N333  1  0.391800  0.003150  0.308060  1.0  -0.4182
  N  N334  1  0.076100  0.705250  0.963610  1.0  -0.4144
  N  N335  1  0.018200  0.750400  0.887100  1.0  -0.4124
  N  N336  1  0.907200  0.138120  0.171700  1.0  -0.3598
  N  N337  1  0.840400  0.050600  0.184260  1.0  -0.3774
  N  N338  1  0.037800  0.646910  0.074420  1.0  -0.4478
  N  N339  1  0.853600  0.784300  0.779100  1.0  -0.4084
  N  N340  1  0.666300  0.757600  0.727700  1.0  -0.4034
