# generated using pymatgen
data_Zn5H14C26(NO)12
_symmetry_space_group_name_H-M   'P 1'
_cell_length_a   9.86230000
_cell_length_b   13.19490000
_cell_length_c   17.89530000
_cell_angle_alpha   84.08940000
_cell_angle_beta   74.00500000
_cell_angle_gamma   68.05520000
_symmetry_Int_Tables_number   1
_chemical_formula_structural   Zn5H14C26(NO)12
_chemical_formula_sum   'Zn10 H28 C52 N24 O24'
_cell_volume   2076.39738180
_cell_formula_units_Z   2
loop_
 _symmetry_equiv_pos_site_id
 _symmetry_equiv_pos_as_xyz
  1  'x, y, z'
loop_
 _atom_site_type_symbol
 _atom_site_label
 _atom_site_symmetry_multiplicity
 _atom_site_fract_x
 _atom_site_fract_y
 _atom_site_fract_z
 _atom_site_occupancy
 _atom_site_charge
  Zn  Zn1  1  0.525130  0.819280  0.167980  1.0  0.995
  Zn  Zn2  1  0.866730  0.102200  0.194540  1.0  0.86
  Zn  Zn3  1  0.512390  0.180720  0.832020  1.0  0.9948
  Zn  Zn4  1  0.163480  0.897790  0.805450  1.0  0.8615
  Zn  Zn5  1  0.943110  0.319280  0.332020  1.0  0.9949
  Zn  Zn6  1  0.311270  0.602210  0.305450  1.0  0.8631
  Zn  Zn7  1  0.594410  0.680720  0.667980  1.0  0.995
  Zn  Zn8  1  0.218920  0.397800  0.694550  1.0  0.8583
  Zn  Zn9  1  0.020270  0.000000  0.000000  1.0  0.7632
  Zn  Zn10  1  0.270270  0.500000  0.500000  1.0  0.7634
  H  H11  1  0.723700  0.457200  0.118400  1.0  0.0992
  H  H12  1  0.878400  0.614400  0.931000  1.0  0.1077
  H  H13  1  0.022700  0.286600  0.931800  1.0  0.0951
  H  H14  1  0.355900  0.873600  0.034000  1.0  0.0878
  H  H15  1  0.188900  0.984800  0.245200  1.0  0.0863
  H  H16  1  0.803000  0.852600  0.037000  1.0  0.0839
  H  H17  1  0.604800  0.996400  0.236800  1.0  0.0882
  H  H18  1  0.299300  0.542800  0.881600  1.0  0.099
  H  H19  1  0.423800  0.385600  0.069000  1.0  0.1068
  H  H20  1  0.241100  0.713400  0.068200  1.0  0.0948
  H  H21  1  0.263500  0.126400  0.966000  1.0  0.0894
  H  H22  1  0.418900  0.015200  0.754800  1.0  0.0847
  H  H23  1  0.692600  0.147400  0.963000  1.0  0.0825
  H  H24  1  0.838000  0.003600  0.763200  1.0  0.0901
  H  H25  1  0.092100  0.957200  0.381600  1.0  0.0991
  H  H26  1  0.059400  0.114400  0.569000  1.0  0.1069
  H  H27  1  0.204500  0.786600  0.568200  1.0  0.0947
  H  H28  1  0.639900  0.373600  0.466000  1.0  0.0895
  H  H29  1  0.684100  0.484800  0.254800  1.0  0.085
  H  H30  1  0.090000  0.352600  0.463000  1.0  0.0838
  H  H31  1  0.091600  0.496400  0.263200  1.0  0.09
  H  H32  1  0.430900  0.042800  0.618400  1.0  0.0991
  H  H33  1  0.742800  0.885600  0.431000  1.0  0.1077
  H  H34  1  0.559300  0.213400  0.431800  1.0  0.0955
  H  H35  1  0.479500  0.626400  0.534000  1.0  0.088
  H  H36  1  0.423700  0.515200  0.745200  1.0  0.0863
  H  H37  1  0.905600  0.647400  0.537000  1.0  0.0833
  H  H38  1  0.851200  0.503600  0.736800  1.0  0.0883
  C  C39  1  0.877500  0.250000  0.072000  1.0  0.6971
  C  C40  1  0.874490  0.356200  0.031820  1.0  -0.1611
  C  C41  1  0.784010  0.455460  0.068120  1.0  0.0086
  C  C42  1  0.783430  0.552120  0.029620  1.0  -0.1579
  C  C43  1  0.680750  0.660520  0.066580  1.0  0.6743
  C  C44  1  0.877570  0.549400  0.956260  1.0  0.0107
  C  C45  1  0.971790  0.449660  0.919560  1.0  -0.153
  C  C46  1  0.072320  0.449620  0.840340  1.0  0.6427
  C  C47  1  0.965530  0.353320  0.957020  1.0  0.0202
  C  C48  1  0.289310  0.910720  0.078860  1.0  0.2675
  C  C49  1  0.199050  0.970940  0.193560  1.0  0.2887
  C  C50  1  0.776930  0.897880  0.079260  1.0  0.2771
  C  C51  1  0.669180  0.975720  0.187520  1.0  0.2714
  C  C52  1  0.199500  0.750000  0.928000  1.0  0.6965
  C  C53  1  0.262510  0.643800  0.968180  1.0  -0.1618
  C  C54  1  0.307590  0.544540  0.931880  1.0  0.0094
  C  C55  1  0.365170  0.447880  0.970380  1.0  -0.1582
  C  C56  1  0.407850  0.339480  0.933420  1.0  0.6745
  C  C57  1  0.383230  0.450600  0.043740  1.0  0.0117
  C  C58  1  0.341010  0.550340  0.080440  1.0  -0.1534
  C  C59  1  0.362280  0.550380  0.159660  1.0  0.6435
  C  C60  1  0.275870  0.646680  0.042980  1.0  0.0192
  C  C61  1  0.278890  0.089280  0.921140  1.0  0.2674
  C  C62  1  0.363550  0.029060  0.806440  1.0  0.2888
  C  C63  1  0.754070  0.102120  0.920740  1.0  0.2769
  C  C64  1  0.832420  0.024280  0.812480  1.0  0.2731
  C  C65  1  0.199500  0.750000  0.428000  1.0  0.6962
  C  C66  1  0.156310  0.856200  0.468180  1.0  -0.1619
  C  C67  1  0.102130  0.955460  0.431880  1.0  0.0095
  C  C68  1  0.063050  0.052120  0.470380  1.0  -0.1582
  C  C69  1  0.997330  0.160520  0.433420  1.0  0.6736
  C  C70  1  0.083830  0.049400  0.543740  1.0  0.0107
  C  C71  1  0.141350  0.949660  0.580440  1.0  -0.1538
  C  C72  1  0.162660  0.949620  0.659660  1.0  0.6434
  C  C73  1  0.172550  0.853320  0.542980  1.0  0.0199
  C  C74  1  0.618170  0.410720  0.421140  1.0  0.2675
  C  C75  1  0.642610  0.470940  0.306440  1.0  0.2882
  C  C76  1  0.106190  0.397880  0.420740  1.0  0.2776
  C  C77  1  0.106700  0.475720  0.312480  1.0  0.2726
  C  C78  1  0.377500  0.250000  0.572000  1.0  0.697
  C  C79  1  0.480690  0.143800  0.531820  1.0  -0.1609
  C  C80  1  0.489470  0.044540  0.568120  1.0  0.0086
  C  C81  1  0.585550  0.947880  0.529620  1.0  -0.158
  C  C82  1  0.591270  0.839480  0.566580  1.0  0.6755
  C  C83  1  0.676970  0.950600  0.456260  1.0  0.0116
  C  C84  1  0.671450  0.050340  0.419560  1.0  -0.1528
  C  C85  1  0.771940  0.050380  0.340340  1.0  0.6428
  C  C86  1  0.568850  0.146680  0.457020  1.0  0.019
  C  C87  1  0.450030  0.589280  0.578860  1.0  0.2675
  C  C88  1  0.419990  0.529060  0.693560  1.0  0.2893
  C  C89  1  0.924810  0.602120  0.579260  1.0  0.2775
  C  C90  1  0.894900  0.524280  0.687520  1.0  0.272
  N  N91  1  0.089060  0.013800  0.158280  1.0  -0.2592
  N  N92  1  0.148030  0.974280  0.083260  1.0  -0.2125
  N  N93  1  0.327240  0.905180  0.146740  1.0  -0.4942
  N  N94  1  0.773690  0.016620  0.153200  1.0  -0.2526
  N  N95  1  0.843990  0.965180  0.082440  1.0  -0.2191
  N  N96  1  0.665820  0.900900  0.143660  1.0  -0.5096
  N  N97  1  0.261140  0.986200  0.841720  1.0  -0.2593
  N  N98  1  0.205570  0.025720  0.916740  1.0  -0.212
  N  N99  1  0.379160  0.094820  0.853260  1.0  -0.4951
  N  N100  1  0.943510  0.983380  0.846800  1.0  -0.2511
  N  N101  1  0.891610  0.034820  0.917560  1.0  -0.2181
  N  N102  1  0.710380  0.099100  0.856340  1.0  -0.5051
  N  N103  1  0.497340  0.513800  0.341720  1.0  -0.2591
  N  N104  1  0.481290  0.474280  0.416740  1.0  -0.2122
  N  N105  1  0.723980  0.405180  0.353260  1.0  -0.4951
  N  N106  1  0.176890  0.516620  0.346800  1.0  -0.2519
  N  N107  1  0.176430  0.465180  0.417560  1.0  -0.2182
  N  N108  1  0.059480  0.400900  0.356340  1.0  -0.5059
  N  N109  1  0.352860  0.486200  0.658280  1.0  -0.2585
  N  N110  1  0.372310  0.525720  0.583260  1.0  -0.2125
  N  N111  1  0.482420  0.594820  0.646740  1.0  -0.4944
  N  N112  1  0.040310  0.483380  0.653200  1.0  -0.2514
  N  N113  1  0.059170  0.534820  0.582440  1.0  -0.2193
  N  N114  1  0.816720  0.599100  0.643660  1.0  -0.5076
  O  O115  1  0.917340  0.168360  0.031160  1.0  -0.6145
  O  O116  1  0.839120  0.249840  0.146120  1.0  -0.5945
  O  O117  1  0.635740  0.663100  0.140820  1.0  -0.6236
  O  O118  1  0.643380  0.743220  0.026020  1.0  -0.6055
  O  O119  1  0.094230  0.533580  0.813760  1.0  -0.5792
  O  O120  1  0.133980  0.359160  0.801280  1.0  -0.6141
  O  O121  1  0.116860  0.831640  0.968840  1.0  -0.6124
  O  O122  1  0.235080  0.750160  0.853880  1.0  -0.5961
  O  O123  1  0.439660  0.336900  0.859180  1.0  -0.6207
  O  O124  1  0.412620  0.256780  0.973980  1.0  -0.6003
  O  O125  1  0.441570  0.466420  0.186240  1.0  -0.5789
  O  O126  1  0.294420  0.640840  0.198720  1.0  -0.6141
  O  O127  1  0.198500  0.668360  0.468840  1.0  -0.612
  O  O128  1  0.235240  0.749840  0.353880  1.0  -0.5965
  O  O129  1  0.026560  0.163100  0.359180  1.0  -0.6252
  O  O130  1  0.919400  0.243220  0.473980  1.0  -0.6012
  O  O131  1  0.157990  0.033580  0.686240  1.0  -0.5796
  O  O132  1  0.185260  0.859160  0.698720  1.0  -0.614
  O  O133  1  0.335700  0.331640  0.531160  1.0  -0.6143
  O  O134  1  0.338960  0.250160  0.646120  1.0  -0.5938
  O  O135  1  0.548840  0.836900  0.640820  1.0  -0.6274
  O  O136  1  0.636600  0.756780  0.526020  1.0  -0.6056
  O  O137  1  0.877810  0.966420  0.313760  1.0  -0.5789
  O  O138  1  0.743140  0.140840  0.301280  1.0  -0.6136
