# generated using pymatgen
data_SmH12(C7O2)3
_symmetry_space_group_name_H-M   'P 1'
_cell_length_a   8.68760000
_cell_length_b   14.16600000
_cell_length_c   15.14000000
_cell_angle_alpha   115.09300000
_cell_angle_beta   106.67300000
_cell_angle_gamma   90.00000000
_symmetry_Int_Tables_number   1
_chemical_formula_structural   SmH12(C7O2)3
_chemical_formula_sum   'Sm2 H24 C42 O12'
_cell_volume   1600.48508332
_cell_formula_units_Z   2
loop_
 _symmetry_equiv_pos_site_id
 _symmetry_equiv_pos_as_xyz
  1  'x, y, z'
loop_
 _atom_site_type_symbol
 _atom_site_label
 _atom_site_symmetry_multiplicity
 _atom_site_fract_x
 _atom_site_fract_y
 _atom_site_fract_z
 _atom_site_occupancy
 _atom_site_charge
  Sm  Sm1  1  0.505020  0.005490  0.545680  1.0  2.3338
  Sm  Sm2  1  0.959340  0.994510  0.454320  1.0  2.3333
  H  H3  1  0.440700  0.802200  0.670600  1.0  0.1033
  H  H4  1  0.453200  0.645100  0.685200  1.0  0.1052
  H  H5  1  0.979700  0.558700  0.533600  1.0  0.0989
  H  H6  1  0.964900  0.716800  0.520800  1.0  0.0827
  H  H7  1  0.418800  0.530400  0.744400  1.0  0.1105
  H  H8  1  0.461900  0.363500  0.737600  1.0  0.1041
  H  H9  1  0.067400  0.235500  0.487800  1.0  0.0831
  H  H10  1  0.041500  0.396600  0.483600  1.0  0.1159
  H  H11  1  0.397400  0.718400  0.222600  1.0  0.0936
  H  H12  1  0.323900  0.566600  0.070000  1.0  0.1074
  H  H13  1  0.864000  0.572100  0.059800  1.0  0.103
  H  H14  1  0.936000  0.725600  0.210000  1.0  0.1023
  H  H15  1  0.770100  0.197800  0.329400  1.0  0.1042
  H  H16  1  0.768000  0.354900  0.314800  1.0  0.1063
  H  H17  1  0.446100  0.441300  0.466400  1.0  0.0981
  H  H18  1  0.444100  0.283200  0.479200  1.0  0.0813
  H  H19  1  0.674400  0.469600  0.255600  1.0  0.1099
  H  H20  1  0.724300  0.636500  0.262400  1.0  0.1055
  H  H21  1  0.579600  0.764500  0.512200  1.0  0.0836
  H  H22  1  0.557900  0.603400  0.516400  1.0  0.1162
  H  H23  1  0.174800  0.281600  0.777400  1.0  0.0933
  H  H24  1  0.253900  0.433400  0.930000  1.0  0.1066
  H  H25  1  0.804200  0.427900  0.940200  1.0  0.1039
  H  H26  1  0.726000  0.274400  0.790000  1.0  0.1029
  C  C27  1  0.197900  0.871000  0.573000  1.0  0.8252
  C  C28  1  0.205300  0.772800  0.588800  1.0  -0.1563
  C  C29  1  0.347900  0.753000  0.641000  1.0  -0.0328
  C  C30  1  0.355000  0.658000  0.650200  1.0  -0.1528
  C  C31  1  0.217900  0.583200  0.608000  1.0  0.028
  C  C32  1  0.073400  0.606600  0.560400  1.0  -0.1368
  C  C33  1  0.064300  0.701500  0.551400  1.0  -0.0187
  C  C34  1  0.230300  0.479000  0.612800  1.0  0.0449
  C  C35  1  0.352500  0.470300  0.690200  1.0  -0.1484
  C  C36  1  0.376900  0.370000  0.687400  1.0  -0.0392
  C  C37  1  0.271800  0.281900  0.608600  1.0  -0.138
  C  C38  1  0.143100  0.293900  0.536600  1.0  -0.0591
  C  C39  1  0.123800  0.391000  0.535200  1.0  -0.1361
  C  C40  1  0.312400  0.173600  0.599800  1.0  0.7151
  C  C41  1  0.221900  0.835200  0.333000  1.0  0.7814
  C  C42  1  0.175100  0.735000  0.234400  1.0  -0.1519
  C  C43  1  0.288900  0.688600  0.190600  1.0  -0.0255
  C  C44  1  0.244400  0.597000  0.098600  1.0  -0.1363
  C  C45  1  0.082900  0.549500  0.048200  1.0  0.0318
  C  C46  1  0.973100  0.600200  0.092200  1.0  -0.1197
  C  C47  1  0.016100  0.692600  0.183600  1.0  -0.0463
  C  C48  1  0.624900  0.129000  0.427000  1.0  0.823
  C  C49  1  0.616500  0.227200  0.411200  1.0  -0.158
  C  C50  1  0.706900  0.247000  0.359000  1.0  -0.0319
  C  C51  1  0.704800  0.342000  0.349800  1.0  -0.15
  C  C52  1  0.609900  0.416800  0.392000  1.0  0.0254
  C  C53  1  0.513000  0.393400  0.439600  1.0  -0.1365
  C  C54  1  0.512900  0.298500  0.448600  1.0  -0.0187
  C  C55  1  0.617500  0.521000  0.387200  1.0  0.0423
  C  C56  1  0.662300  0.529700  0.309800  1.0  -0.147
  C  C57  1  0.689500  0.630000  0.312600  1.0  -0.0406
  C  C58  1  0.663200  0.718100  0.391400  1.0  -0.1334
  C  C59  1  0.606500  0.706100  0.463400  1.0  -0.054
  C  C60  1  0.588600  0.609000  0.464800  1.0  -0.1361
  C  C61  1  0.712600  0.826400  0.400200  1.0  0.7162
  C  C62  1  0.888900  0.164800  0.667000  1.0  0.7802
  C  C63  1  0.940700  0.265000  0.765600  1.0  -0.1517
  C  C64  1  0.098300  0.311400  0.809400  1.0  -0.024
  C  C65  1  0.145800  0.403000  0.901400  1.0  -0.1368
  C  C66  1  0.034700  0.450500  0.951800  1.0  0.0315
  C  C67  1  0.880900  0.399800  0.907800  1.0  -0.1183
  C  C68  1  0.832500  0.307400  0.816400  1.0  -0.0464
  O  O69  1  0.327100  0.916400  0.584400  1.0  -0.7954
  O  O70  1  0.063600  0.901400  0.552600  1.0  -0.7044
  O  O71  1  0.228000  0.092700  0.519600  1.0  -0.836
  O  O72  1  0.433300  0.169100  0.663600  1.0  -0.6548
  O  O73  1  0.369400  0.870500  0.377400  1.0  -0.6963
  O  O74  1  0.107500  0.875800  0.362200  1.0  -0.7902
  O  O75  1  0.742700  0.083600  0.415600  1.0  -0.7952
  O  O76  1  0.511000  0.098600  0.447400  1.0  -0.706
  O  O77  1  0.708400  0.907300  0.480400  1.0  -0.8377
  O  O78  1  0.769700  0.830900  0.336400  1.0  -0.6557
  O  O79  1  0.992000  0.129500  0.622600  1.0  -0.6928
  O  O80  1  0.745300  0.124200  0.637800  1.0  -0.7886
