# generated using pymatgen
data_EuH12(C7O2)3
_symmetry_space_group_name_H-M   'P 1'
_cell_length_a   8.65500000
_cell_length_b   14.10500000
_cell_length_c   15.10560000
_cell_angle_alpha   115.14400000
_cell_angle_beta   106.64700000
_cell_angle_gamma   90.00000000
_symmetry_Int_Tables_number   1
_chemical_formula_structural   EuH12(C7O2)3
_chemical_formula_sum   'Eu2 H24 C42 O12'
_cell_volume   1583.53911821
_cell_formula_units_Z   2
loop_
 _symmetry_equiv_pos_site_id
 _symmetry_equiv_pos_as_xyz
  1  'x, y, z'
loop_
 _atom_site_type_symbol
 _atom_site_label
 _atom_site_symmetry_multiplicity
 _atom_site_fract_x
 _atom_site_fract_y
 _atom_site_fract_z
 _atom_site_occupancy
 _atom_site_charge
  Eu  Eu1  1  0.505070  0.005510  0.545540  1.0  2.1865
  Eu  Eu2  1  0.959530  0.994490  0.454460  1.0  2.1865
  H  H3  1  0.445200  0.801600  0.664600  1.0  0.1282
  H  H4  1  0.449700  0.646400  0.689600  1.0  0.1065
  H  H5  1  0.977200  0.559200  0.531800  1.0  0.1124
  H  H6  1  0.964400  0.719500  0.524000  1.0  0.0923
  H  H7  1  0.421400  0.531100  0.746400  1.0  0.1336
  H  H8  1  0.457400  0.362600  0.736000  1.0  0.1002
  H  H9  1  0.066500  0.233400  0.485200  1.0  0.1
  H  H10  1  0.047500  0.394900  0.480000  1.0  0.1139
  H  H11  1  0.396400  0.716000  0.228000  1.0  0.0796
  H  H12  1  0.332300  0.568000  0.066800  1.0  0.1518
  H  H13  1  0.858700  0.580600  0.052800  1.0  0.1161
  H  H14  1  0.940900  0.715400  0.218000  1.0  0.0872
  H  H15  1  0.780600  0.198400  0.335400  1.0  0.1282
  H  H16  1  0.760100  0.353600  0.310400  1.0  0.1082
  H  H17  1  0.445400  0.440800  0.468200  1.0  0.1113
  H  H18  1  0.440400  0.280500  0.476000  1.0  0.0921
  H  H19  1  0.675000  0.468900  0.253600  1.0  0.1335
  H  H20  1  0.721400  0.637400  0.264000  1.0  0.1006
  H  H21  1  0.581300  0.766600  0.514800  1.0  0.0999
  H  H22  1  0.567500  0.605100  0.520000  1.0  0.1143
  H  H23  1  0.168400  0.284000  0.772000  1.0  0.0789
  H  H24  1  0.265500  0.432000  0.933200  1.0  0.1518
  H  H25  1  0.805900  0.419400  0.947200  1.0  0.1176
  H  H26  1  0.722900  0.284600  0.782000  1.0  0.0892
  C  C27  1  0.199800  0.872400  0.574600  1.0  0.7372
  C  C28  1  0.201600  0.772000  0.589400  1.0  -0.1129
  C  C29  1  0.351200  0.753900  0.639600  1.0  -0.0675
  C  C30  1  0.353700  0.658200  0.651000  1.0  -0.1114
  C  C31  1  0.219600  0.584000  0.606600  1.0  0.0325
  C  C32  1  0.071600  0.607400  0.559200  1.0  -0.1338
  C  C33  1  0.064600  0.702800  0.553200  1.0  0.004
  C  C34  1  0.228500  0.478400  0.611000  1.0  0.0117
  C  C35  1  0.354200  0.471200  0.692000  1.0  -0.1988
  C  C36  1  0.372200  0.370200  0.686400  1.0  -0.021
  C  C37  1  0.268600  0.282800  0.609400  1.0  -0.1214
  C  C38  1  0.141700  0.292300  0.534600  1.0  -0.084
  C  C39  1  0.126900  0.389700  0.533600  1.0  -0.1054
  C  C40  1  0.308800  0.173100  0.598400  1.0  0.6976
  C  C41  1  0.221800  0.833600  0.332800  1.0  0.7532
  C  C42  1  0.175500  0.735800  0.235400  1.0  -0.1793
  C  C43  1  0.287600  0.687400  0.192200  1.0  0.0002
  C  C44  1  0.252100  0.596200  0.096200  1.0  -0.1601
  C  C45  1  0.079200  0.549100  0.046400  1.0  0.0361
  C  C46  1  0.969200  0.602200  0.088800  1.0  -0.176
  C  C47  1  0.018800  0.688700  0.185800  1.0  -0.0421
  C  C48  1  0.625200  0.127600  0.425400  1.0  0.7343
  C  C49  1  0.612200  0.228000  0.410600  1.0  -0.1143
  C  C50  1  0.711600  0.246100  0.360400  1.0  -0.0651
  C  C51  1  0.702700  0.341800  0.349000  1.0  -0.1119
  C  C52  1  0.613000  0.416000  0.393400  1.0  0.0295
  C  C53  1  0.512400  0.392600  0.440800  1.0  -0.1335
  C  C54  1  0.511400  0.297200  0.446800  1.0  0.006
  C  C55  1  0.617500  0.521600  0.389000  1.0  0.0076
  C  C56  1  0.662200  0.528800  0.308000  1.0  -0.1998
  C  C57  1  0.685800  0.629800  0.313600  1.0  -0.0238
  C  C58  1  0.659200  0.717200  0.390600  1.0  -0.1215
  C  C59  1  0.607100  0.707700  0.465400  1.0  -0.082
  C  C60  1  0.593300  0.610300  0.466400  1.0  -0.1038
  C  C61  1  0.710400  0.826900  0.401600  1.0  0.6981
  C  C62  1  0.889000  0.166400  0.667200  1.0  0.7516
  C  C63  1  0.940100  0.264200  0.764600  1.0  -0.1754
  C  C64  1  0.095400  0.312600  0.807800  1.0  -0.0016
  C  C65  1  0.155900  0.403800  0.903800  1.0  -0.164
  C  C66  1  0.032800  0.450900  0.953600  1.0  0.0358
  C  C67  1  0.880400  0.397800  0.911200  1.0  -0.177
  C  C68  1  0.833000  0.311300  0.814200  1.0  -0.0415
  O  O69  1  0.328700  0.917800  0.583000  1.0  -0.7431
  O  O70  1  0.060400  0.901900  0.553800  1.0  -0.698
  O  O71  1  0.229500  0.094000  0.519200  1.0  -0.7043
  O  O72  1  0.434700  0.169100  0.664000  1.0  -0.6812
  O  O73  1  0.367600  0.871600  0.378000  1.0  -0.6846
  O  O74  1  0.106200  0.876800  0.361600  1.0  -0.7518
  O  O75  1  0.745700  0.082200  0.417000  1.0  -0.7449
  O  O76  1  0.506600  0.098100  0.446200  1.0  -0.7
  O  O77  1  0.710300  0.906000  0.480800  1.0  -0.7032
  O  O78  1  0.770700  0.830900  0.336000  1.0  -0.682
  O  O79  1  0.989600  0.128400  0.622000  1.0  -0.6823
  O  O80  1  0.744600  0.123200  0.638400  1.0  -0.7515
