# generated using pymatgen
data_LaH12(C7O2)3
_symmetry_space_group_name_H-M   'P 1'
_cell_length_a   8.84200000
_cell_length_b   14.31800000
_cell_length_c   14.49800000
_cell_angle_alpha   113.08400000
_cell_angle_beta   107.75400000
_cell_angle_gamma   90.00000000
_symmetry_Int_Tables_number   1
_chemical_formula_structural   LaH12(C7O2)3
_chemical_formula_sum   'La2 H24 C42 O12'
_cell_volume   1593.02338781
_cell_formula_units_Z   2
loop_
 _symmetry_equiv_pos_site_id
 _symmetry_equiv_pos_as_xyz
  1  'x, y, z'
loop_
 _atom_site_type_symbol
 _atom_site_label
 _atom_site_symmetry_multiplicity
 _atom_site_fract_x
 _atom_site_fract_y
 _atom_site_fract_z
 _atom_site_occupancy
 _atom_site_charge
  La  La1  1  0.501590  0.003530  0.548580  1.0  2.1989
  La  La2  1  0.953010  0.996470  0.451420  1.0  2.1996
  H  H3  1  0.440900  0.785300  0.670000  1.0  0.1252
  H  H4  1  0.451600  0.632700  0.681600  1.0  0.1034
  H  H5  1  0.976700  0.554400  0.533000  1.0  0.1055
  H  H6  1  0.963200  0.710000  0.519200  1.0  0.0845
  H  H7  1  0.408200  0.520700  0.752400  1.0  0.1089
  H  H8  1  0.459500  0.358300  0.745400  1.0  0.1074
  H  H9  1  0.081100  0.233500  0.481800  1.0  0.095
  H  H10  1  0.043800  0.391800  0.480200  1.0  0.1059
  H  H11  1  0.382400  0.717000  0.215800  1.0  0.0872
  H  H12  1  0.312800  0.564500  0.074000  1.0  0.1075
  H  H13  1  0.856600  0.564700  0.069800  1.0  0.1151
  H  H14  1  0.929900  0.725500  0.206400  1.0  0.0979
  H  H15  1  0.770900  0.214700  0.330000  1.0  0.1247
  H  H16  1  0.770000  0.367300  0.318400  1.0  0.104
  H  H17  1  0.443700  0.445600  0.467000  1.0  0.1046
  H  H18  1  0.444000  0.290000  0.480800  1.0  0.0831
  H  H19  1  0.655800  0.479300  0.247600  1.0  0.1082
  H  H20  1  0.714100  0.641700  0.254600  1.0  0.1081
  H  H21  1  0.599300  0.766500  0.518200  1.0  0.0951
  H  H22  1  0.563600  0.608200  0.519800  1.0  0.106
  H  H23  1  0.166600  0.283000  0.784200  1.0  0.0869
  H  H24  1  0.238800  0.435500  0.926000  1.0  0.1062
  H  H25  1  0.786800  0.435300  0.930200  1.0  0.116
  H  H26  1  0.723500  0.274500  0.793600  1.0  0.0991
  C  C27  1  0.188300  0.862200  0.574600  1.0  0.7651
  C  C28  1  0.199700  0.761400  0.587600  1.0  -0.1506
  C  C29  1  0.348500  0.738300  0.640600  1.0  -0.0402
  C  C30  1  0.353500  0.647600  0.647400  1.0  -0.1325
  C  C31  1  0.218900  0.574500  0.605800  1.0  0.0538
  C  C32  1  0.069300  0.600000  0.558600  1.0  -0.1319
  C  C33  1  0.061800  0.693200  0.550200  1.0  -0.0077
  C  C34  1  0.231900  0.473900  0.613000  1.0  0.046
  C  C35  1  0.346900  0.462600  0.694600  1.0  -0.1488
  C  C36  1  0.374400  0.365300  0.693000  1.0  -0.0437
  C  C37  1  0.271200  0.279500  0.611000  1.0  -0.1332
  C  C38  1  0.151000  0.291000  0.535000  1.0  -0.0297
  C  C39  1  0.128300  0.386100  0.533800  1.0  -0.1403
  C  C40  1  0.310700  0.173600  0.603800  1.0  0.7076
  C  C41  1  0.211100  0.837800  0.324000  1.0  0.7644
  C  C42  1  0.166200  0.738700  0.226200  1.0  -0.1782
  C  C43  1  0.275300  0.688200  0.184600  1.0  -0.0095
  C  C44  1  0.233400  0.596900  0.098800  1.0  -0.1203
  C  C45  1  0.074200  0.549500  0.046400  1.0  0.0339
  C  C46  1  0.961400  0.597100  0.094800  1.0  -0.1507
  C  C47  1  0.007100  0.691800  0.179600  1.0  -0.0386
  C  C48  1  0.613700  0.137800  0.425400  1.0  0.7619
  C  C49  1  0.612100  0.238600  0.412400  1.0  -0.1536
  C  C50  1  0.707900  0.261700  0.359400  1.0  -0.0408
  C  C51  1  0.706100  0.352400  0.352600  1.0  -0.1317
  C  C52  1  0.613100  0.425500  0.394200  1.0  0.0515
  C  C53  1  0.510700  0.400000  0.441400  1.0  -0.1319
  C  C54  1  0.511600  0.306800  0.449800  1.0  -0.0068
  C  C55  1  0.618900  0.526100  0.387000  1.0  0.0447
  C  C56  1  0.652300  0.537400  0.305400  1.0  -0.1466
  C  C57  1  0.681400  0.634700  0.307000  1.0  -0.044
  C  C58  1  0.660200  0.720500  0.389000  1.0  -0.1317
  C  C59  1  0.616000  0.709000  0.465000  1.0  -0.0291
  C  C60  1  0.594500  0.613900  0.466200  1.0  -0.1379
  C  C61  1  0.706900  0.826400  0.396200  1.0  0.7094
  C  C62  1  0.887100  0.162200  0.676000  1.0  0.7574
  C  C63  1  0.940000  0.261300  0.773800  1.0  -0.1716
  C  C64  1  0.090700  0.311800  0.815400  1.0  -0.0094
  C  C65  1  0.134600  0.403100  0.901200  1.0  -0.1199
  C  C66  1  0.027800  0.450500  0.953600  1.0  0.034
  C  C67  1  0.866600  0.402900  0.905200  1.0  -0.1513
  C  C68  1  0.827500  0.308200  0.820400  1.0  -0.0379
  O  O69  1  0.321400  0.910100  0.589200  1.0  -0.7822
  O  O70  1  0.054400  0.890000  0.550000  1.0  -0.6896
  O  O71  1  0.228800  0.095800  0.523800  1.0  -0.797
  O  O72  1  0.428200  0.167700  0.675200  1.0  -0.6412
  O  O73  1  0.361100  0.871500  0.369600  1.0  -0.6948
  O  O74  1  0.108400  0.880700  0.357200  1.0  -0.7506
  O  O75  1  0.732200  0.089900  0.410800  1.0  -0.7865
  O  O76  1  0.504400  0.110000  0.450000  1.0  -0.6913
  O  O77  1  0.705000  0.904200  0.476200  1.0  -0.7973
  O  O78  1  0.753000  0.832300  0.324800  1.0  -0.6423
  O  O79  1  0.991500  0.128500  0.630400  1.0  -0.693
  O  O80  1  0.751200  0.119300  0.642800  1.0  -0.7476
