# generated using pymatgen
data_NdH12(C7O2)3
_symmetry_space_group_name_H-M   'P 1'
_cell_length_a   8.72300000
_cell_length_b   14.17900000
_cell_length_c   15.03120000
_cell_angle_alpha   114.83000000
_cell_angle_beta   106.86800000
_cell_angle_gamma   90.00000000
_symmetry_Int_Tables_number   1
_chemical_formula_structural   NdH12(C7O2)3
_chemical_formula_sum   'Nd2 H24 C42 O12'
_cell_volume   1598.68742427
_cell_formula_units_Z   2
loop_
 _symmetry_equiv_pos_site_id
 _symmetry_equiv_pos_as_xyz
  1  'x, y, z'
loop_
 _atom_site_type_symbol
 _atom_site_label
 _atom_site_symmetry_multiplicity
 _atom_site_fract_x
 _atom_site_fract_y
 _atom_site_fract_z
 _atom_site_occupancy
 _atom_site_charge
  Nd  Nd1  1  0.904170  0.005040  0.546180  1.0  2.3268
  Nd  Nd2  1  0.357990  0.994960  0.453820  1.0  2.3277
  H  H3  1  0.843100  0.796700  0.663400  1.0  0.1116
  H  H4  1  0.853300  0.641600  0.682800  1.0  0.1053
  H  H5  1  0.379400  0.558700  0.537200  1.0  0.1016
  H  H6  1  0.364000  0.717900  0.525400  1.0  0.0878
  H  H7  1  0.820500  0.529900  0.745800  1.0  0.1182
  H  H8  1  0.858400  0.363800  0.739600  1.0  0.0985
  H  H9  1  0.468500  0.236000  0.486800  1.0  0.0933
  H  H10  1  0.444200  0.392500  0.481400  1.0  0.1046
  H  H11  1  0.792800  0.715400  0.225200  1.0  0.0828
  H  H12  1  0.725600  0.564300  0.073600  1.0  0.109
  H  H13  1  0.256800  0.584900  0.051200  1.0  0.1041
  H  H14  1  0.334400  0.719700  0.213600  1.0  0.0933
  H  H15  1  0.179700  0.203300  0.336600  1.0  0.1113
  H  H16  1  0.170500  0.358400  0.317200  1.0  0.1069
  H  H17  1  0.842200  0.441300  0.462800  1.0  0.1005
  H  H18  1  0.838600  0.282100  0.474600  1.0  0.0872
  H  H19  1  0.074700  0.470100  0.254200  1.0  0.1173
  H  H20  1  0.118800  0.636200  0.260400  1.0  0.1002
  H  H21  1  0.981700  0.764000  0.513200  1.0  0.0931
  H  H22  1  0.962800  0.607500  0.518600  1.0  0.1046
  H  H23  1  0.567600  0.284600  0.774800  1.0  0.0823
  H  H24  1  0.652000  0.435700  0.926400  1.0  0.1091
  H  H25  1  0.205600  0.415100  0.948800  1.0  0.1056
  H  H26  1  0.120800  0.280300  0.786400  1.0  0.0949
  C  C27  1  0.597700  0.868200  0.574800  1.0  0.7773
  C  C28  1  0.602500  0.769800  0.588600  1.0  -0.1573
  C  C29  1  0.749700  0.749200  0.637600  1.0  -0.0342
  C  C30  1  0.755400  0.654700  0.647800  1.0  -0.1398
  C  C31  1  0.619000  0.580600  0.606800  1.0  0.0412
  C  C32  1  0.473300  0.605600  0.562400  1.0  -0.1317
  C  C33  1  0.463700  0.701300  0.554000  1.0  -0.0138
  C  C34  1  0.629400  0.478600  0.612000  1.0  0.0439
  C  C35  1  0.753500  0.470200  0.691600  1.0  -0.158
  C  C36  1  0.774900  0.370400  0.688400  1.0  -0.0014
  C  C37  1  0.672100  0.282400  0.609600  1.0  -0.1624
  C  C38  1  0.543800  0.294200  0.536000  1.0  -0.0305
  C  C39  1  0.526200  0.388100  0.534600  1.0  -0.126
  C  C40  1  0.711600  0.175500  0.602400  1.0  0.7243
  C  C41  1  0.616500  0.833300  0.330800  1.0  0.8058
  C  C42  1  0.572800  0.735200  0.236000  1.0  -0.1528
  C  C43  1  0.684700  0.686000  0.192200  1.0  0.0076
  C  C44  1  0.645500  0.594500  0.101000  1.0  -0.1544
  C  C45  1  0.479300  0.546100  0.048600  1.0  0.0502
  C  C46  1  0.366200  0.604700  0.089200  1.0  -0.1488
  C  C47  1  0.412800  0.690600  0.183600  1.0  -0.035
  C  C48  1  0.022900  0.131800  0.425200  1.0  0.766
  C  C49  1  0.013900  0.230200  0.411400  1.0  -0.1602
  C  C50  1  0.112100  0.250800  0.362400  1.0  -0.0341
  C  C51  1  0.107600  0.345300  0.352200  1.0  -0.1377
  C  C52  1  0.012200  0.419400  0.393200  1.0  0.039
  C  C53  1  0.910900  0.394400  0.437600  1.0  -0.1311
  C  C54  1  0.909700  0.298700  0.446000  1.0  -0.0142
  C  C55  1  0.017400  0.521400  0.388000  1.0  0.0414
  C  C56  1  0.061900  0.529800  0.308400  1.0  -0.1575
  C  C57  1  0.086500  0.629600  0.311600  1.0  -0.0031
  C  C58  1  0.062500  0.717600  0.390400  1.0  -0.1614
  C  C59  1  0.007800  0.705800  0.464000  1.0  -0.0278
  C  C60  1  0.991600  0.611900  0.465400  1.0  -0.127
  C  C61  1  0.109200  0.824500  0.397600  1.0  0.7252
  C  C62  1  0.285700  0.166700  0.669200  1.0  0.804
  C  C63  1  0.336800  0.264800  0.764000  1.0  -0.1504
  C  C64  1  0.492500  0.314000  0.807800  1.0  0.0062
  C  C65  1  0.544500  0.405500  0.899000  1.0  -0.1558
  C  C66  1  0.430700  0.453900  0.951400  1.0  0.0508
  C  C67  1  0.277000  0.395300  0.910800  1.0  -0.1508
  C  C68  1  0.229200  0.309400  0.816400  1.0  -0.0358
  O  O69  1  0.723900  0.915400  0.585600  1.0  -0.7848
  O  O70  1  0.458000  0.898500  0.551200  1.0  -0.7256
  O  O71  1  0.627600  0.095800  0.521600  1.0  -0.8569
  O  O72  1  0.832700  0.169900  0.665400  1.0  -0.6652
  O  O73  1  0.766100  0.871100  0.375200  1.0  -0.7129
  O  O74  1  0.507400  0.876300  0.361600  1.0  -0.7889
  O  O75  1  0.138300  0.084600  0.414400  1.0  -0.7873
  O  O76  1  0.906800  0.101500  0.448800  1.0  -0.7266
  O  O77  1  0.106000  0.904200  0.478400  1.0  -0.8563
  O  O78  1  0.167300  0.830100  0.334600  1.0  -0.6652
  O  O79  1  0.390900  0.128900  0.624800  1.0  -0.7112
  O  O80  1  0.145800  0.123700  0.638400  1.0  -0.7866
