# generated using pymatgen
data_CeH12(C7O2)3
_symmetry_space_group_name_H-M   'P 1'
_cell_length_a   8.78900000
_cell_length_b   14.25700000
_cell_length_c   15.10920000
_cell_angle_alpha   114.93200000
_cell_angle_beta   106.90900000
_cell_angle_gamma   90.00000000
_symmetry_Int_Tables_number   1
_chemical_formula_structural   CeH12(C7O2)3
_chemical_formula_sum   'Ce2 H24 C42 O12'
_cell_volume   1626.11405606
_cell_formula_units_Z   2
loop_
 _symmetry_equiv_pos_site_id
 _symmetry_equiv_pos_as_xyz
  1  'x, y, z'
loop_
 _atom_site_type_symbol
 _atom_site_label
 _atom_site_symmetry_multiplicity
 _atom_site_fract_x
 _atom_site_fract_y
 _atom_site_fract_z
 _atom_site_occupancy
 _atom_site_charge
  Ce  Ce1  1  0.505150  0.005010  0.546540  1.0  2.2827
  Ce  Ce2  1  0.958610  0.994990  0.453460  1.0  2.2867
  H  H3  1  0.442400  0.799100  0.667200  1.0  0.1264
  H  H4  1  0.453200  0.639800  0.681000  1.0  0.1116
  H  H5  1  0.982400  0.556900  0.533200  1.0  0.1232
  H  H6  1  0.972100  0.713300  0.519800  1.0  0.0763
  H  H7  1  0.420900  0.530700  0.743200  1.0  0.1268
  H  H8  1  0.456900  0.363600  0.739200  1.0  0.1087
  H  H9  1  0.075000  0.235400  0.487000  1.0  0.107
  H  H10  1  0.051700  0.395500  0.482200  1.0  0.108
  H  H11  1  0.391800  0.715300  0.221200  1.0  0.091
  H  H12  1  0.323900  0.566600  0.070000  1.0  0.1243
  H  H13  1  0.862000  0.577200  0.054000  1.0  0.1134
  H  H14  1  0.936300  0.721100  0.211400  1.0  0.1041
  H  H15  1  0.775200  0.200900  0.332800  1.0  0.1272
  H  H16  1  0.772200  0.360200  0.319000  1.0  0.1128
  H  H17  1  0.449200  0.443100  0.466800  1.0  0.1221
  H  H18  1  0.452300  0.286700  0.480200  1.0  0.0748
  H  H19  1  0.677700  0.469300  0.256800  1.0  0.1263
  H  H20  1  0.717700  0.636400  0.260800  1.0  0.11
  H  H21  1  0.588000  0.764600  0.513000  1.0  0.1069
  H  H22  1  0.569500  0.604500  0.517800  1.0  0.1088
  H  H23  1  0.170600  0.284700  0.778800  1.0  0.0895
  H  H24  1  0.253900  0.433400  0.930000  1.0  0.1249
  H  H25  1  0.808000  0.422800  0.946000  1.0  0.115
  H  H26  1  0.724900  0.278900  0.788600  1.0  0.1051
  C  C27  1  0.195500  0.867200  0.573800  1.0  0.7862
  C  C28  1  0.203100  0.768100  0.586800  1.0  -0.1555
  C  C29  1  0.350800  0.750200  0.638800  1.0  -0.0702
  C  C30  1  0.356100  0.654000  0.647000  1.0  -0.1277
  C  C31  1  0.220700  0.581700  0.605800  1.0  0.0247
  C  C32  1  0.075600  0.603800  0.559000  1.0  -0.1669
  C  C33  1  0.070500  0.698200  0.551000  1.0  0.0051
  C  C34  1  0.232700  0.477500  0.609800  1.0  0.0315
  C  C35  1  0.354500  0.470900  0.689600  1.0  -0.1551
  C  C36  1  0.375300  0.369900  0.687400  1.0  -0.0659
  C  C37  1  0.276000  0.284500  0.610200  1.0  -0.0891
  C  C38  1  0.149100  0.293700  0.536000  1.0  -0.0898
  C  C39  1  0.132600  0.390600  0.535000  1.0  -0.1062
  C  C40  1  0.313100  0.177200  0.601800  1.0  0.7084
  C  C41  1  0.219900  0.833400  0.329200  1.0  0.7859
  C  C42  1  0.174300  0.734300  0.233000  1.0  -0.1328
  C  C43  1  0.284400  0.685800  0.188600  1.0  -0.019
  C  C44  1  0.245400  0.596200  0.098800  1.0  -0.1664
  C  C45  1  0.077800  0.547700  0.048400  1.0  -0.0373
  C  C46  1  0.970800  0.601100  0.089600  1.0  -0.1364
  C  C47  1  0.014500  0.690500  0.182600  1.0  -0.0791
  C  C48  1  0.621700  0.132800  0.426200  1.0  0.7815
  C  C49  1  0.616300  0.231900  0.413200  1.0  -0.1579
  C  C50  1  0.712000  0.249800  0.361200  1.0  -0.0693
  C  C51  1  0.709100  0.346000  0.353000  1.0  -0.1273
  C  C52  1  0.614900  0.418300  0.394200  1.0  0.0215
  C  C53  1  0.516600  0.396200  0.441000  1.0  -0.1676
  C  C54  1  0.519500  0.301800  0.449000  1.0  0.0052
  C  C55  1  0.622900  0.522500  0.390200  1.0  0.029
  C  C56  1  0.664900  0.529100  0.310400  1.0  -0.1548
  C  C57  1  0.687900  0.630100  0.312600  1.0  -0.065
  C  C58  1  0.665800  0.715500  0.389800  1.0  -0.0876
  C  C59  1  0.613100  0.706300  0.464000  1.0  -0.0864
  C  C60  1  0.597600  0.609400  0.465000  1.0  -0.1054
  C  C61  1  0.711300  0.822800  0.398200  1.0  0.711
  C  C62  1  0.890700  0.166600  0.670800  1.0  0.7839
  C  C63  1  0.941300  0.265700  0.767000  1.0  -0.1304
  C  C64  1  0.095800  0.314200  0.811400  1.0  -0.0176
  C  C65  1  0.146600  0.403800  0.901200  1.0  -0.167
  C  C66  1  0.029400  0.452300  0.951600  1.0  -0.0373
  C  C67  1  0.881200  0.398900  0.910400  1.0  -0.136
  C  C68  1  0.831900  0.309500  0.817400  1.0  -0.0801
  O  O69  1  0.323500  0.914600  0.585600  1.0  -0.772
  O  O70  1  0.061100  0.896500  0.551800  1.0  -0.7113
  O  O71  1  0.232400  0.097600  0.523400  1.0  -0.7725
  O  O72  1  0.430700  0.171700  0.668200  1.0  -0.6345
  O  O73  1  0.364900  0.869000  0.373600  1.0  -0.6887
  O  O74  1  0.112200  0.877200  0.361000  1.0  -0.7709
  O  O75  1  0.737900  0.085400  0.414400  1.0  -0.7738
  O  O76  1  0.509300  0.103500  0.448200  1.0  -0.7118
  O  O77  1  0.709000  0.902400  0.476600  1.0  -0.7723
  O  O78  1  0.762500  0.828300  0.331800  1.0  -0.6339
  O  O79  1  0.991300  0.131000  0.626400  1.0  -0.689
  O  O80  1  0.751200  0.122800  0.639000  1.0  -0.7694
