# generated using pymatgen
data_GdH12(C7O2)3
_symmetry_space_group_name_H-M   'P 1'
_cell_length_a   8.62200000
_cell_length_b   14.06600000
_cell_length_c   15.08180000
_cell_angle_alpha   115.21400000
_cell_angle_beta   106.60900000
_cell_angle_gamma   90.00000000
_symmetry_Int_Tables_number   1
_chemical_formula_structural   GdH12(C7O2)3
_chemical_formula_sum   'Gd2 H24 C42 O12'
_cell_volume   1570.04628549
_cell_formula_units_Z   2
loop_
 _symmetry_equiv_pos_site_id
 _symmetry_equiv_pos_as_xyz
  1  'x, y, z'
loop_
 _atom_site_type_symbol
 _atom_site_label
 _atom_site_symmetry_multiplicity
 _atom_site_fract_x
 _atom_site_fract_y
 _atom_site_fract_z
 _atom_site_occupancy
 _atom_site_charge
  Gd  Gd1  1  0.505550  0.005530  0.545360  1.0  2.2382
  Gd  Gd2  1  0.960190  0.994470  0.454640  1.0  2.2377
  H  H3  1  0.444900  0.801800  0.664600  1.0  0.1105
  H  H4  1  0.453400  0.646900  0.688800  1.0  0.1056
  H  H5  1  0.978200  0.558200  0.533200  1.0  0.0964
  H  H6  1  0.961100  0.718500  0.522000  1.0  0.0883
  H  H7  1  0.425600  0.531700  0.746000  1.0  0.1235
  H  H8  1  0.458600  0.364500  0.737600  1.0  0.0946
  H  H9  1  0.065100  0.232600  0.484600  1.0  0.0893
  H  H10  1  0.040200  0.396400  0.483000  1.0  0.1067
  H  H11  1  0.397700  0.719300  0.226800  1.0  0.0769
  H  H12  1  0.330000  0.565300  0.073200  1.0  0.1081
  H  H13  1  0.858900  0.576500  0.053200  1.0  0.1046
  H  H14  1  0.937300  0.720700  0.213200  1.0  0.0941
  H  H15  1  0.780300  0.198200  0.335400  1.0  0.1111
  H  H16  1  0.764600  0.353100  0.311200  1.0  0.1075
  H  H17  1  0.445000  0.441800  0.466800  1.0  0.0954
  H  H18  1  0.439100  0.281500  0.478000  1.0  0.0871
  H  H19  1  0.679600  0.468300  0.254000  1.0  0.1237
  H  H20  1  0.721000  0.635500  0.262400  1.0  0.095
  H  H21  1  0.580500  0.767400  0.515400  1.0  0.0895
  H  H22  1  0.557200  0.603600  0.517000  1.0  0.1074
  H  H23  1  0.170900  0.280700  0.773200  1.0  0.0762
  H  H24  1  0.256800  0.434700  0.926800  1.0  0.1078
  H  H25  1  0.805700  0.423500  0.946800  1.0  0.1056
  H  H26  1  0.724100  0.279300  0.786800  1.0  0.0946
  C  C27  1  0.200000  0.871400  0.573600  1.0  0.7965
  C  C28  1  0.203400  0.773700  0.591200  1.0  -0.1482
  C  C29  1  0.350400  0.754200  0.639800  1.0  -0.0478
  C  C30  1  0.355900  0.659200  0.651800  1.0  -0.1363
  C  C31  1  0.216800  0.584200  0.609000  1.0  0.0184
  C  C32  1  0.071500  0.607200  0.561000  1.0  -0.1282
  C  C33  1  0.061400  0.702900  0.552800  1.0  -0.0159
  C  C34  1  0.228700  0.480100  0.613400  1.0  0.0388
  C  C35  1  0.356200  0.471900  0.692400  1.0  -0.1796
  C  C36  1  0.374700  0.371800  0.687400  1.0  -0.0212
  C  C37  1  0.268600  0.282400  0.608600  1.0  -0.1471
  C  C38  1  0.140300  0.291900  0.534600  1.0  -0.0241
  C  C39  1  0.122500  0.390400  0.535000  1.0  -0.1244
  C  C40  1  0.311000  0.174200  0.599000  1.0  0.7171
  C  C41  1  0.222600  0.833500  0.332600  1.0  0.7843
  C  C42  1  0.178900  0.734500  0.235800  1.0  -0.1484
  C  C43  1  0.288800  0.688900  0.193600  1.0  -0.0075
  C  C44  1  0.248300  0.595800  0.100600  1.0  -0.1669
  C  C45  1  0.083100  0.548000  0.048200  1.0  0.0663
  C  C46  1  0.969500  0.600600  0.089000  1.0  -0.1581
  C  C47  1  0.016900  0.689900  0.183800  1.0  -0.0355
  C  C48  1  0.626400  0.128600  0.426400  1.0  0.7942
  C  C49  1  0.612200  0.226300  0.408800  1.0  -0.1515
  C  C50  1  0.710600  0.245800  0.360200  1.0  -0.0466
  C  C51  1  0.704100  0.340800  0.348200  1.0  -0.1316
  C  C52  1  0.607800  0.415800  0.391000  1.0  0.0163
  C  C53  1  0.510500  0.392800  0.439000  1.0  -0.1283
  C  C54  1  0.508600  0.297100  0.447200  1.0  -0.0169
  C  C55  1  0.615300  0.519900  0.386600  1.0  0.0365
  C  C56  1  0.663800  0.528100  0.307600  1.0  -0.1794
  C  C57  1  0.687300  0.628200  0.312600  1.0  -0.0222
  C  C58  1  0.660000  0.717600  0.391400  1.0  -0.1457
  C  C59  1  0.605700  0.708100  0.465400  1.0  -0.0222
  C  C60  1  0.587500  0.609600  0.465000  1.0  -0.1249
  C  C61  1  0.712000  0.825800  0.401000  1.0  0.7175
  C  C62  1  0.890000  0.166500  0.667400  1.0  0.7819
  C  C63  1  0.943100  0.265500  0.764200  1.0  -0.1498
  C  C64  1  0.095200  0.311100  0.806400  1.0  -0.0072
  C  C65  1  0.147700  0.404200  0.899400  1.0  -0.1649
  C  C66  1  0.034900  0.452000  0.951800  1.0  0.0669
  C  C67  1  0.880500  0.399400  0.911000  1.0  -0.1581
  C  C68  1  0.833100  0.310100  0.816200  1.0  -0.0349
  O  O69  1  0.326500  0.916700  0.583400  1.0  -0.7638
  O  O70  1  0.058500  0.901500  0.551200  1.0  -0.712
  O  O71  1  0.225500  0.092400  0.518800  1.0  -0.8517
  O  O72  1  0.432400  0.167700  0.661800  1.0  -0.6669
  O  O73  1  0.366600  0.873500  0.378400  1.0  -0.6843
  O  O74  1  0.106600  0.875000  0.363600  1.0  -0.6921
  O  O75  1  0.743100  0.083300  0.416600  1.0  -0.7586
  O  O76  1  0.507300  0.098500  0.448800  1.0  -0.7121
  O  O77  1  0.706700  0.907600  0.481200  1.0  -0.8525
  O  O78  1  0.770600  0.832300  0.338200  1.0  -0.6684
  O  O79  1  0.988200  0.126500  0.621600  1.0  -0.6825
  O  O80  1  0.743000  0.125000  0.636400  1.0  -0.6918
