# generated using pymatgen
data_CuH6(C3N)6
_symmetry_space_group_name_H-M   'P 1'
_cell_length_a   7.71190000
_cell_length_b   13.47450000
_cell_length_c   25.18920000
_cell_angle_alpha   90.00000000
_cell_angle_beta   90.00000000
_cell_angle_gamma   106.62900000
_symmetry_Int_Tables_number   1
_chemical_formula_structural   CuH6(C3N)6
_chemical_formula_sum   'Cu4 H24 C72 N24'
_cell_volume   2508.04053239
_cell_formula_units_Z   4
loop_
 _symmetry_equiv_pos_site_id
 _symmetry_equiv_pos_as_xyz
  1  'x, y, z'
loop_
 _atom_site_type_symbol
 _atom_site_label
 _atom_site_symmetry_multiplicity
 _atom_site_fract_x
 _atom_site_fract_y
 _atom_site_fract_z
 _atom_site_occupancy
 _atom_site_charge
  Cu  Cu1  1  0.500000  0.500000  0.500000  1.0  0.5842
  Cu  Cu2  1  0.500000  0.500000  0.000000  1.0  0.5842
  Cu  Cu3  1  0.000000  0.500000  0.000000  1.0  0.5901
  Cu  Cu4  1  0.000000  0.500000  0.500000  1.0  0.5901
  H  H5  1  0.033800  0.692800  0.703400  1.0  0.1185
  H  H6  1  0.494600  0.581600  0.703800  1.0  0.105
  H  H7  1  0.354900  0.090600  0.444400  1.0  0.121
  H  H8  1  0.966200  0.307200  0.203400  1.0  0.1184
  H  H9  1  0.505400  0.418400  0.203800  1.0  0.105
  H  H10  1  0.645100  0.909400  0.944400  1.0  0.1212
  H  H11  1  0.341000  0.307200  0.796600  1.0  0.1178
  H  H12  1  0.913000  0.418400  0.796200  1.0  0.1051
  H  H13  1  0.264300  0.909400  0.055600  1.0  0.1205
  H  H14  1  0.659000  0.692800  0.296600  1.0  0.1181
  H  H15  1  0.087000  0.581600  0.296200  1.0  0.1049
  H  H16  1  0.735700  0.090600  0.555600  1.0  0.1203
  H  H17  1  0.966200  0.307200  0.296600  1.0  0.1182
  H  H18  1  0.505400  0.418400  0.296200  1.0  0.1052
  H  H19  1  0.645100  0.909400  0.555600  1.0  0.1214
  H  H20  1  0.033800  0.692800  0.796600  1.0  0.118
  H  H21  1  0.494600  0.581600  0.796200  1.0  0.1049
  H  H22  1  0.354900  0.090600  0.055600  1.0  0.1211
  H  H23  1  0.659000  0.692800  0.203400  1.0  0.1187
  H  H24  1  0.087000  0.581600  0.203800  1.0  0.1049
  H  H25  1  0.735700  0.090600  0.944400  1.0  0.1205
  H  H26  1  0.341000  0.307200  0.703400  1.0  0.1181
  H  H27  1  0.913000  0.418400  0.703800  1.0  0.105
  H  H28  1  0.264300  0.909400  0.444400  1.0  0.1202
  C  C29  1  0.616460  0.590320  0.607350  1.0  0.0268
  C  C30  1  0.764770  0.617740  0.637850  1.0  -0.0722
  C  C31  1  0.907490  0.610780  0.608300  1.0  0.0315
  C  C32  1  0.765690  0.631980  0.695160  1.0  0.099
  C  C33  1  0.923040  0.667680  0.722180  1.0  -0.1105
  C  C34  1  0.605960  0.602320  0.722570  1.0  -0.1066
  C  C35  1  0.497500  0.279600  0.499990  1.0  0.0475
  C  C36  1  0.414420  0.053640  0.467100  1.0  -0.1247
  C  C37  1  0.383540  0.409680  0.107350  1.0  0.0251
  C  C38  1  0.235230  0.382260  0.137850  1.0  -0.0732
  C  C39  1  0.092510  0.389220  0.108300  1.0  0.0321
  C  C40  1  0.234310  0.368020  0.195160  1.0  0.0996
  C  C41  1  0.076960  0.332320  0.222180  1.0  -0.1111
  C  C42  1  0.394040  0.397680  0.222570  1.0  -0.1073
  C  C43  1  0.502500  0.720400  0.999990  1.0  0.0471
  C  C44  1  0.585580  0.946360  0.967100  1.0  -0.1243
  C  C45  1  0.026140  0.409680  0.892650  1.0  0.026
  C  C46  1  0.147030  0.382260  0.862150  1.0  -0.0734
  C  C47  1  0.296710  0.389220  0.891700  1.0  0.0313
  C  C48  1  0.133710  0.368020  0.804840  1.0  0.0989
  C  C49  1  0.255360  0.332320  0.777820  1.0  -0.1142
  C  C50  1  0.003640  0.397680  0.777430  1.0  -0.1061
  C  C51  1  0.217900  0.720400  0.000010  1.0  0.0481
  C  C52  1  0.360780  0.946360  0.032900  1.0  -0.1231
  C  C53  1  0.973860  0.590320  0.392650  1.0  0.0254
  C  C54  1  0.852970  0.617740  0.362150  1.0  -0.0737
  C  C55  1  0.703290  0.610780  0.391700  1.0  0.0322
  C  C56  1  0.866290  0.631980  0.304840  1.0  0.0987
  C  C57  1  0.744640  0.667680  0.277820  1.0  -0.1136
  C  C58  1  0.996360  0.602320  0.277430  1.0  -0.1076
  C  C59  1  0.782100  0.279600  0.500010  1.0  0.0481
  C  C60  1  0.639220  0.053640  0.532900  1.0  -0.1214
  C  C61  1  0.383540  0.409680  0.392650  1.0  0.0249
  C  C62  1  0.235230  0.382260  0.362150  1.0  -0.0735
  C  C63  1  0.092510  0.389220  0.391700  1.0  0.0325
  C  C64  1  0.234310  0.368020  0.304840  1.0  0.099
  C  C65  1  0.076960  0.332320  0.277820  1.0  -0.1105
  C  C66  1  0.394040  0.397680  0.277430  1.0  -0.1075
  C  C67  1  0.502500  0.720400  0.500010  1.0  0.0474
  C  C68  1  0.585580  0.946360  0.532900  1.0  -0.1241
  C  C69  1  0.616460  0.590320  0.892650  1.0  0.0268
  C  C70  1  0.764770  0.617740  0.862150  1.0  -0.0737
  C  C71  1  0.907490  0.610780  0.891700  1.0  0.0314
  C  C72  1  0.765690  0.631980  0.804840  1.0  0.0987
  C  C73  1  0.923040  0.667680  0.777820  1.0  -0.1103
  C  C74  1  0.605960  0.602320  0.777430  1.0  -0.1066
  C  C75  1  0.497500  0.279600  0.000010  1.0  0.0476
  C  C76  1  0.414420  0.053640  0.032900  1.0  -0.1255
  C  C77  1  0.973860  0.590320  0.107350  1.0  0.0256
  C  C78  1  0.852970  0.617740  0.137850  1.0  -0.0722
  C  C79  1  0.703290  0.610780  0.108300  1.0  0.0327
  C  C80  1  0.866290  0.631980  0.195160  1.0  0.0991
  C  C81  1  0.744640  0.667680  0.222180  1.0  -0.1133
  C  C82  1  0.996360  0.602320  0.222570  1.0  -0.1076
  C  C83  1  0.782100  0.279600  0.999990  1.0  0.0479
  C  C84  1  0.639220  0.053640  0.967100  1.0  -0.1223
  C  C85  1  0.026140  0.409680  0.607350  1.0  0.026
  C  C86  1  0.147030  0.382260  0.637850  1.0  -0.0732
  C  C87  1  0.296710  0.389220  0.608300  1.0  0.0312
  C  C88  1  0.133710  0.368020  0.695160  1.0  0.0995
  C  C89  1  0.255360  0.332320  0.722180  1.0  -0.1149
  C  C90  1  0.003640  0.397680  0.722570  1.0  -0.1061
  C  C91  1  0.217900  0.720400  0.499990  1.0  0.0479
  C  C92  1  0.360780  0.946360  0.467100  1.0  -0.1234
  C  C93  1  0.609160  0.218320  0.500000  1.0  -0.0943
  C  C94  1  0.552920  0.105840  0.500000  1.0  0.0964
  C  C95  1  0.390840  0.781680  0.000000  1.0  -0.0919
  C  C96  1  0.447080  0.894160  0.000000  1.0  0.0963
  C  C97  1  0.390840  0.781680  0.500000  1.0  -0.0917
  C  C98  1  0.447080  0.894160  0.500000  1.0  0.0964
  C  C99  1  0.609160  0.218320  0.000000  1.0  -0.0941
  C  C100  1  0.552920  0.105840  0.000000  1.0  0.0965
  N  N101  1  0.668490  0.566780  0.560190  1.0  -0.1004
  N  N102  1  0.848160  0.579520  0.560310  1.0  -0.1958
  N  N103  1  0.600200  0.376200  0.499980  1.0  -0.1323
  N  N104  1  0.331510  0.433220  0.060190  1.0  -0.0998
  N  N105  1  0.151840  0.420480  0.060310  1.0  -0.1954
  N  N106  1  0.399800  0.623800  0.999980  1.0  -0.1322
  N  N107  1  0.101710  0.433220  0.939810  1.0  -0.1
  N  N108  1  0.268640  0.420480  0.939690  1.0  -0.1955
  N  N109  1  0.224000  0.623800  0.000020  1.0  -0.1324
  N  N110  1  0.898290  0.566780  0.439810  1.0  -0.0992
  N  N111  1  0.731360  0.579520  0.439690  1.0  -0.1958
  N  N112  1  0.776000  0.376200  0.500020  1.0  -0.1322
  N  N113  1  0.331510  0.433220  0.439810  1.0  -0.099
  N  N114  1  0.151840  0.420480  0.439690  1.0  -0.1956
  N  N115  1  0.399800  0.623800  0.500020  1.0  -0.1321
  N  N116  1  0.668490  0.566780  0.939810  1.0  -0.0998
  N  N117  1  0.848160  0.579520  0.939690  1.0  -0.196
  N  N118  1  0.600200  0.376200  0.000020  1.0  -0.1324
  N  N119  1  0.898290  0.566780  0.060190  1.0  -0.1001
  N  N120  1  0.731360  0.579520  0.060310  1.0  -0.1951
  N  N121  1  0.776000  0.376200  0.999980  1.0  -0.1321
  N  N122  1  0.101710  0.433220  0.560190  1.0  -0.1004
  N  N123  1  0.268640  0.420480  0.560310  1.0  -0.1958
  N  N124  1  0.224000  0.623800  0.499980  1.0  -0.1325
