# generated using pymatgen
data_Cu2H21C25N15O
_symmetry_space_group_name_H-M   'P 1'
_cell_length_a   13.34270000
_cell_length_b   13.40470000
_cell_length_c   13.56200000
_cell_angle_alpha   102.33900000
_cell_angle_beta   104.36900000
_cell_angle_gamma   90.47700000
_symmetry_Int_Tables_number   1
_chemical_formula_structural   Cu2H21C25N15O
_chemical_formula_sum   'Cu4 H42 C50 N30 O2'
_cell_volume   2290.64216632
_cell_formula_units_Z   2
loop_
 _symmetry_equiv_pos_site_id
 _symmetry_equiv_pos_as_xyz
  1  'x, y, z'
loop_
 _atom_site_type_symbol
 _atom_site_label
 _atom_site_symmetry_multiplicity
 _atom_site_fract_x
 _atom_site_fract_y
 _atom_site_fract_z
 _atom_site_occupancy
 _atom_site_charge
  Cu  Cu1  1  0.741290  0.572820  0.523920  1.0  0.7893
  Cu  Cu2  1  0.258710  0.427180  0.476080  1.0  0.7904
  Cu  Cu3  1  0.500000  0.500000  0.500000  1.0  0.9087
  Cu  Cu4  1  0.000000  0.500000  0.500000  1.0  0.6023
  H  H5  1  0.662700  0.464100  0.606500  1.0  0.3654
  H  H6  1  0.419900  0.483500  0.245300  1.0  0.0846
  H  H7  1  0.706500  0.581900  0.272300  1.0  0.0762
  H  H8  1  0.385300  0.573300  0.095200  1.0  0.0945
  H  H9  1  0.662100  0.456400  0.086700  1.0  0.0954
  H  H10  1  0.462000  0.762200  0.651000  1.0  0.0695
  H  H11  1  0.764600  0.815600  0.711800  1.0  0.0798
  H  H12  1  0.425600  0.201900  0.976700  1.0  0.0789
  H  H13  1  0.707100  0.177800  0.140600  1.0  0.0689
  H  H14  1  0.738700  0.897800  0.892000  1.0  0.0951
  H  H15  1  0.722800  0.036300  0.021500  1.0  0.1012
  H  H16  1  0.450100  0.089100  0.842100  1.0  0.0996
  H  H17  1  0.468300  0.954300  0.709600  1.0  0.0978
  H  H18  1  0.781800  0.797300  0.488600  1.0  0.0762
  H  H19  1  0.067700  0.720700  0.489600  1.0  0.0786
  H  H20  1  0.876800  0.966200  0.586500  1.0  0.0998
  H  H21  1  0.067800  0.864400  0.403800  1.0  0.0968
  H  H22  1  0.057900  0.448700  0.728500  1.0  0.0758
  H  H23  1  0.800900  0.576600  0.769200  1.0  0.0773
  H  H24  1  0.118400  0.557600  0.921500  1.0  0.0922
  H  H25  1  0.831100  0.451900  0.902300  1.0  0.1012
  H  H26  1  0.337300  0.535900  0.393500  1.0  0.3656
  H  H27  1  0.580100  0.516500  0.754700  1.0  0.0851
  H  H28  1  0.293500  0.418100  0.727700  1.0  0.0762
  H  H29  1  0.614700  0.426700  0.904800  1.0  0.0931
  H  H30  1  0.337900  0.543600  0.913300  1.0  0.0942
  H  H31  1  0.538000  0.237800  0.349000  1.0  0.0689
  H  H32  1  0.235400  0.184400  0.288200  1.0  0.08
  H  H33  1  0.574400  0.798100  0.023300  1.0  0.0778
  H  H34  1  0.292900  0.822200  0.859400  1.0  0.0708
  H  H35  1  0.261300  0.102200  0.108000  1.0  0.0959
  H  H36  1  0.277200  0.963700  0.978500  1.0  0.0998
  H  H37  1  0.549900  0.910900  0.157900  1.0  0.0998
  H  H38  1  0.531700  0.045700  0.290400  1.0  0.0983
  H  H39  1  0.218200  0.202700  0.511400  1.0  0.0755
  H  H40  1  0.932300  0.279300  0.510400  1.0  0.0779
  H  H41  1  0.123200  0.033800  0.413500  1.0  0.0998
  H  H42  1  0.932200  0.135600  0.596200  1.0  0.0966
  H  H43  1  0.942100  0.551300  0.271500  1.0  0.0758
  H  H44  1  0.199100  0.423400  0.230800  1.0  0.0774
  H  H45  1  0.881600  0.442400  0.078500  1.0  0.0919
  H  H46  1  0.168900  0.548100  0.097700  1.0  0.1011
  C  C47  1  0.489500  0.508300  0.273700  1.0  0.1117
  C  C48  1  0.646100  0.561800  0.288800  1.0  0.1062
  C  C49  1  0.431100  0.543700  0.056400  1.0  -0.1734
  C  C50  1  0.527600  0.516800  0.106600  1.0  0.1101
  C  C51  1  0.596900  0.473700  0.051400  1.0  -0.1509
  C  C52  1  0.531700  0.756500  0.649100  1.0  0.1198
  C  C53  1  0.696600  0.786300  0.682600  1.0  0.1073
  C  C54  1  0.486600  0.211000  0.031000  1.0  0.1399
  C  C55  1  0.639300  0.198100  0.119500  1.0  0.111
  C  C56  1  0.604500  0.913200  0.788300  1.0  0.0916
  C  C57  1  0.680500  0.937100  0.881500  1.0  -0.162
  C  C58  1  0.670600  0.018900  0.958700  1.0  -0.1518
  C  C59  1  0.584200  0.075200  0.944300  1.0  0.1117
  C  C60  1  0.509000  0.050800  0.852000  1.0  -0.1507
  C  C61  1  0.519500  0.970100  0.773300  1.0  -0.1897
  C  C62  1  0.840900  0.759600  0.489000  1.0  0.0837
  C  C63  1  0.997300  0.717800  0.489500  1.0  0.0667
  C  C64  1  0.926300  0.980100  0.551700  1.0  -0.1889
  C  C65  1  0.967700  0.901400  0.493500  1.0  0.1293
  C  C66  1  0.040500  0.919400  0.442400  1.0  -0.1836
  C  C67  1  0.994200  0.479500  0.716200  1.0  0.1049
  C  C68  1  0.853500  0.549100  0.738700  1.0  0.0909
  C  C69  1  0.070500  0.534200  0.953300  1.0  -0.1388
  C  C70  1  0.971100  0.505200  0.898000  1.0  0.1307
  C  C71  1  0.899600  0.471300  0.942100  1.0  -0.1641
  C  C72  1  0.510500  0.491700  0.726300  1.0  0.1141
  C  C73  1  0.353900  0.438200  0.711200  1.0  0.1063
  C  C74  1  0.568900  0.456300  0.943600  1.0  -0.1738
  C  C75  1  0.472400  0.483200  0.893400  1.0  0.1103
  C  C76  1  0.403100  0.526300  0.948600  1.0  -0.1507
  C  C77  1  0.468300  0.243500  0.350900  1.0  0.1214
  C  C78  1  0.303400  0.213700  0.317400  1.0  0.1067
  C  C79  1  0.513400  0.789000  0.969000  1.0  0.1416
  C  C80  1  0.360700  0.801900  0.880500  1.0  0.11
  C  C81  1  0.395500  0.086800  0.211700  1.0  0.0915
  C  C82  1  0.319500  0.062900  0.118500  1.0  -0.1615
  C  C83  1  0.329400  0.981100  0.041300  1.0  -0.153
  C  C84  1  0.415800  0.924800  0.055700  1.0  0.1104
  C  C85  1  0.491000  0.949200  0.148000  1.0  -0.1535
  C  C86  1  0.480500  0.029900  0.226700  1.0  -0.1908
  C  C87  1  0.159100  0.240400  0.511000  1.0  0.084
  C  C88  1  0.002700  0.282200  0.510500  1.0  0.065
  C  C89  1  0.073700  0.019900  0.448300  1.0  -0.189
  C  C90  1  0.032300  0.098600  0.506500  1.0  0.1284
  C  C91  1  0.959500  0.080600  0.557600  1.0  -0.1861
  C  C92  1  0.005800  0.520500  0.283800  1.0  0.1048
  C  C93  1  0.146500  0.450900  0.261300  1.0  0.091
  C  C94  1  0.929500  0.465800  0.046700  1.0  -0.1378
  C  C95  1  0.028900  0.494800  0.102000  1.0  0.1306
  C  C96  1  0.100400  0.528700  0.057900  1.0  -0.165
  N  N97  1  0.537900  0.525800  0.373300  1.0  -0.3057
  N  N98  1  0.638900  0.559600  0.382400  1.0  -0.2332
  N  N99  1  0.553700  0.530800  0.218600  1.0  0.0175
  N  N100  1  0.564400  0.683600  0.588400  1.0  -0.2836
  N  N101  1  0.670500  0.702500  0.609400  1.0  -0.2633
  N  N102  1  0.611300  0.824400  0.710200  1.0  0.0
  N  N103  1  0.499400  0.275800  0.119000  1.0  -0.2548
  N  N104  1  0.598300  0.268900  0.176300  1.0  -0.2861
  N  N105  1  0.572000  0.157400  0.026100  1.0  -0.0576
  N  N106  1  0.844600  0.663200  0.490300  1.0  -0.1958
  N  N107  1  0.943800  0.636200  0.490400  1.0  -0.2552
  N  N108  1  0.935500  0.798000  0.488200  1.0  0.008
  N  N109  1  0.944800  0.498800  0.626900  1.0  -0.2597
  N  N110  1  0.854300  0.542100  0.641700  1.0  -0.2271
  N  N111  1  0.939900  0.510500  0.788800  1.0  -0.008
  N  N112  1  0.462100  0.474200  0.626700  1.0  -0.3053
  N  N113  1  0.361100  0.440400  0.617600  1.0  -0.2332
  N  N114  1  0.446300  0.469200  0.781400  1.0  0.0172
  N  N115  1  0.435600  0.316400  0.411600  1.0  -0.2852
  N  N116  1  0.329500  0.297500  0.390600  1.0  -0.2683
  N  N117  1  0.388700  0.175600  0.289800  1.0  -0.0007
  N  N118  1  0.500600  0.724200  0.881000  1.0  -0.2577
  N  N119  1  0.401700  0.731100  0.823700  1.0  -0.2879
  N  N120  1  0.428000  0.842600  0.973900  1.0  -0.0576
  N  N121  1  0.155400  0.336800  0.509700  1.0  -0.1967
  N  N122  1  0.056200  0.363800  0.509600  1.0  -0.2563
  N  N123  1  0.064500  0.202000  0.511800  1.0  0.0075
  N  N124  1  0.055200  0.501200  0.373100  1.0  -0.2633
  N  N125  1  0.145700  0.457900  0.358300  1.0  -0.2278
  N  N126  1  0.060100  0.489500  0.211200  1.0  -0.0091
  O  O127  1  0.645400  0.477500  0.545600  1.0  -0.9918
  O  O128  1  0.354600  0.522500  0.454400  1.0  -0.9921
