# generated using pymatgen
data_CuH8(C5N3)2
_symmetry_space_group_name_H-M   'P 1'
_cell_length_a   7.14420000
_cell_length_b   19.43870000
_cell_length_c   17.31140000
_cell_angle_alpha   90.00000000
_cell_angle_beta   90.00000000
_cell_angle_gamma   90.00000000
_symmetry_Int_Tables_number   1
_chemical_formula_structural   CuH8(C5N3)2
_chemical_formula_sum   'Cu4 H32 C40 N24'
_cell_volume   2404.10268049
_cell_formula_units_Z   4
loop_
 _symmetry_equiv_pos_site_id
 _symmetry_equiv_pos_as_xyz
  1  'x, y, z'
loop_
 _atom_site_type_symbol
 _atom_site_label
 _atom_site_symmetry_multiplicity
 _atom_site_fract_x
 _atom_site_fract_y
 _atom_site_fract_z
 _atom_site_occupancy
 _atom_site_charge
  Cu  Cu1  1  0.215400  0.750000  0.254400  1.0  0.3608
  Cu  Cu2  1  0.284600  0.250000  0.754400  1.0  0.3607
  Cu  Cu3  1  0.784600  0.250000  0.745600  1.0  0.3611
  Cu  Cu4  1  0.715400  0.750000  0.245600  1.0  0.3612
  H  H5  1  0.254900  0.620000  0.142900  1.0  0.0729
  H  H6  1  0.702600  0.618900  0.132300  1.0  0.0776
  H  H7  1  0.781300  0.488100  0.097900  1.0  0.1041
  H  H8  1  0.198500  0.593800  0.999200  1.0  0.0881
  H  H9  1  0.245100  0.380000  0.642900  1.0  0.0747
  H  H10  1  0.797400  0.381100  0.632300  1.0  0.0769
  H  H11  1  0.718700  0.511900  0.597900  1.0  0.1041
  H  H12  1  0.301500  0.406200  0.499200  1.0  0.0886
  H  H13  1  0.745100  0.120000  0.857100  1.0  0.0745
  H  H14  1  0.297400  0.118900  0.867700  1.0  0.0768
  H  H15  1  0.218700  0.988100  0.902100  1.0  0.1042
  H  H16  1  0.801500  0.093800  0.000800  1.0  0.0889
  H  H17  1  0.754900  0.880000  0.357100  1.0  0.0734
  H  H18  1  0.202600  0.881100  0.367700  1.0  0.0772
  H  H19  1  0.281300  0.011900  0.402100  1.0  0.1043
  H  H20  1  0.698500  0.906200  0.500800  1.0  0.0883
  H  H21  1  0.745100  0.380000  0.857100  1.0  0.0746
  H  H22  1  0.297400  0.381100  0.867700  1.0  0.0767
  H  H23  1  0.218700  0.511900  0.902100  1.0  0.1047
  H  H24  1  0.801500  0.406200  0.000800  1.0  0.0892
  H  H25  1  0.754900  0.620000  0.357100  1.0  0.0733
  H  H26  1  0.202600  0.618900  0.367700  1.0  0.0773
  H  H27  1  0.281300  0.488100  0.402100  1.0  0.1046
  H  H28  1  0.698500  0.593800  0.500800  1.0  0.0883
  H  H29  1  0.254900  0.880000  0.142900  1.0  0.073
  H  H30  1  0.702600  0.881100  0.132300  1.0  0.0779
  H  H31  1  0.781300  0.011900  0.097900  1.0  0.1044
  H  H32  1  0.198500  0.906200  0.999200  1.0  0.0887
  H  H33  1  0.245100  0.120000  0.642900  1.0  0.0745
  H  H34  1  0.797400  0.118900  0.632300  1.0  0.0766
  H  H35  1  0.718700  0.988100  0.597900  1.0  0.1044
  H  H36  1  0.301500  0.093800  0.499200  1.0  0.089
  C  C37  1  0.129600  0.630460  0.151520  1.0  0.0748
  C  C38  1  0.825100  0.629970  0.145610  1.0  0.0965
  C  C39  1  0.990200  0.547600  0.057270  1.0  0.1282
  C  C40  1  0.869200  0.492600  0.058600  1.0  -0.2073
  C  C41  1  0.119300  0.555800  0.999300  1.0  -0.1511
  C  C42  1  0.370400  0.369540  0.651520  1.0  0.0747
  C  C43  1  0.674900  0.370030  0.645610  1.0  0.0961
  C  C44  1  0.509800  0.452400  0.557270  1.0  0.1281
  C  C45  1  0.630800  0.507400  0.558600  1.0  -0.2063
  C  C46  1  0.380700  0.444200  0.499300  1.0  -0.1496
  C  C47  1  0.870400  0.130460  0.848480  1.0  0.0749
  C  C48  1  0.174900  0.129970  0.854390  1.0  0.0968
  C  C49  1  0.009800  0.047600  0.942730  1.0  0.1286
  C  C50  1  0.130800  0.992600  0.941400  1.0  -0.207
  C  C51  1  0.880700  0.055800  0.000700  1.0  -0.1508
  C  C52  1  0.629600  0.869540  0.348480  1.0  0.076
  C  C53  1  0.325100  0.870030  0.354390  1.0  0.0967
  C  C54  1  0.490200  0.952400  0.442730  1.0  0.1284
  C  C55  1  0.369200  0.007400  0.441400  1.0  -0.2081
  C  C56  1  0.619300  0.944200  0.500700  1.0  -0.15
  C  C57  1  0.870400  0.369540  0.848480  1.0  0.0752
  C  C58  1  0.174900  0.370030  0.854390  1.0  0.0966
  C  C59  1  0.009800  0.452400  0.942730  1.0  0.1284
  C  C60  1  0.130800  0.507400  0.941400  1.0  -0.2073
  C  C61  1  0.880700  0.444200  0.000700  1.0  -0.1497
  C  C62  1  0.629600  0.630460  0.348480  1.0  0.0758
  C  C63  1  0.325100  0.629970  0.354390  1.0  0.0969
  C  C64  1  0.490200  0.547600  0.442730  1.0  0.1286
  C  C65  1  0.369200  0.492600  0.441400  1.0  -0.2075
  C  C66  1  0.619300  0.555800  0.500700  1.0  -0.1515
  C  C67  1  0.129600  0.869540  0.151520  1.0  0.0752
  C  C68  1  0.825100  0.870030  0.145610  1.0  0.0964
  C  C69  1  0.990200  0.952400  0.057270  1.0  0.1281
  C  C70  1  0.869200  0.007400  0.058600  1.0  -0.2077
  C  C71  1  0.119300  0.944200  0.999300  1.0  -0.1503
  C  C72  1  0.370400  0.130460  0.651520  1.0  0.0743
  C  C73  1  0.674900  0.129970  0.645610  1.0  0.0963
  C  C74  1  0.509800  0.047600  0.557270  1.0  0.1282
  C  C75  1  0.630800  0.992600  0.558600  1.0  -0.206
  C  C76  1  0.380700  0.055800  0.499300  1.0  -0.1507
  N  N77  1  0.066600  0.677960  0.198760  1.0  -0.2406
  N  N78  1  0.874600  0.677600  0.194580  1.0  -0.2205
  N  N79  1  0.981300  0.599190  0.117290  1.0  -0.0061
  N  N80  1  0.433400  0.322040  0.698760  1.0  -0.2427
  N  N81  1  0.625400  0.322400  0.694580  1.0  -0.2192
  N  N82  1  0.518700  0.400810  0.617290  1.0  -0.0051
  N  N83  1  0.933400  0.177960  0.801240  1.0  -0.2421
  N  N84  1  0.125400  0.177600  0.805420  1.0  -0.2186
  N  N85  1  0.018700  0.099190  0.882710  1.0  -0.0055
  N  N86  1  0.566600  0.822040  0.301240  1.0  -0.2413
  N  N87  1  0.374600  0.822400  0.305420  1.0  -0.2205
  N  N88  1  0.481300  0.900810  0.382710  1.0  -0.0053
  N  N89  1  0.933400  0.322040  0.801240  1.0  -0.2425
  N  N90  1  0.125400  0.322400  0.805420  1.0  -0.2189
  N  N91  1  0.018700  0.400810  0.882710  1.0  -0.005
  N  N92  1  0.566600  0.677960  0.301240  1.0  -0.2408
  N  N93  1  0.374600  0.677600  0.305420  1.0  -0.2198
  N  N94  1  0.481300  0.599190  0.382710  1.0  -0.0058
  N  N95  1  0.066600  0.822040  0.198760  1.0  -0.2413
  N  N96  1  0.874600  0.822400  0.194580  1.0  -0.2208
  N  N97  1  0.981300  0.900810  0.117290  1.0  -0.0055
  N  N98  1  0.433400  0.177960  0.698760  1.0  -0.242
  N  N99  1  0.625400  0.177600  0.694580  1.0  -0.2191
  N  N100  1  0.518700  0.099190  0.617290  1.0  -0.0056
