# generated using pymatgen
data_CoH4(C3O4)2
_symmetry_space_group_name_H-M   'P 1'
_cell_length_a   18.96800000
_cell_length_b   18.96800000
_cell_length_c   5.77300000
_cell_angle_alpha   90.00000000
_cell_angle_beta   90.00000000
_cell_angle_gamma   90.00000000
_symmetry_Int_Tables_number   1
_chemical_formula_structural   CoH4(C3O4)2
_chemical_formula_sum   'Co8 H32 C48 O64'
_cell_volume   2077.03894355
_cell_formula_units_Z   8
loop_
 _symmetry_equiv_pos_site_id
 _symmetry_equiv_pos_as_xyz
  1  'x, y, z'
loop_
 _atom_site_type_symbol
 _atom_site_label
 _atom_site_symmetry_multiplicity
 _atom_site_fract_x
 _atom_site_fract_y
 _atom_site_fract_z
 _atom_site_occupancy
 _atom_site_charge
  Co  Co1  1  0.270320  0.729680  0.750000  1.0  1.0932
  Co  Co2  1  0.729680  0.270320  0.250000  1.0  1.093
  Co  Co3  1  0.770320  0.770320  0.000000  1.0  1.094
  Co  Co4  1  0.229680  0.229680  0.500000  1.0  1.0922
  Co  Co5  1  0.279920  0.279920  0.000000  1.0  1.1954
  Co  Co6  1  0.720080  0.720080  0.500000  1.0  1.1952
  Co  Co7  1  0.220080  0.779920  0.250000  1.0  1.1951
  Co  Co8  1  0.779920  0.220080  0.750000  1.0  1.1955
  H  H9  1  0.206200  0.547800  0.664300  1.0  0.2128
  H  H10  1  0.306900  0.494500  0.477600  1.0  0.198
  H  H11  1  0.324300  0.508800  0.962100  1.0  0.2208
  H  H12  1  0.210000  0.458600  0.915800  1.0  0.1871
  H  H13  1  0.793800  0.452200  0.164300  1.0  0.2154
  H  H14  1  0.693100  0.505500  0.977600  1.0  0.1976
  H  H15  1  0.675700  0.491200  0.462100  1.0  0.22
  H  H16  1  0.790000  0.541400  0.415800  1.0  0.1894
  H  H17  1  0.952200  0.706200  0.914300  1.0  0.2129
  H  H18  1  0.005500  0.806900  0.727600  1.0  0.1981
  H  H19  1  0.991200  0.824300  0.212100  1.0  0.22
  H  H20  1  0.041400  0.710000  0.165800  1.0  0.1895
  H  H21  1  0.047800  0.293800  0.414300  1.0  0.2127
  H  H22  1  0.994500  0.193100  0.227600  1.0  0.1977
  H  H23  1  0.008800  0.175700  0.712100  1.0  0.219
  H  H24  1  0.958600  0.290000  0.665800  1.0  0.1881
  H  H25  1  0.293800  0.047800  0.585700  1.0  0.2159
  H  H26  1  0.193100  0.994500  0.772400  1.0  0.1953
  H  H27  1  0.175700  0.008800  0.287900  1.0  0.2207
  H  H28  1  0.290000  0.958600  0.334200  1.0  0.1894
  H  H29  1  0.706200  0.952200  0.085700  1.0  0.2125
  H  H30  1  0.806900  0.005500  0.272400  1.0  0.1967
  H  H31  1  0.824300  0.991200  0.787900  1.0  0.2213
  H  H32  1  0.710000  0.041400  0.834200  1.0  0.1872
  H  H33  1  0.547800  0.206200  0.335700  1.0  0.2125
  H  H34  1  0.494500  0.306900  0.522400  1.0  0.196
  H  H35  1  0.508800  0.324300  0.037900  1.0  0.2202
  H  H36  1  0.458600  0.210000  0.084200  1.0  0.1897
  H  H37  1  0.452200  0.793800  0.835700  1.0  0.2131
  H  H38  1  0.505500  0.693100  0.022400  1.0  0.1962
  H  H39  1  0.491200  0.675700  0.537900  1.0  0.2196
  H  H40  1  0.541400  0.790000  0.584200  1.0  0.189
  C  C41  1  0.238400  0.625000  0.408000  1.0  0.7394
  C  C42  1  0.249900  0.575700  0.632000  1.0  0.1331
  C  C43  1  0.315200  0.525600  0.615000  1.0  0.1091
  C  C44  1  0.316100  0.478600  0.823000  1.0  0.1163
  C  C45  1  0.252000  0.429200  0.876000  1.0  0.1336
  C  C46  1  0.237200  0.388700  0.669000  1.0  0.6625
  C  C47  1  0.761600  0.375000  0.908000  1.0  0.7398
  C  C48  1  0.750100  0.424300  0.132000  1.0  0.1325
  C  C49  1  0.684800  0.474400  0.115000  1.0  0.1084
  C  C50  1  0.683900  0.521400  0.323000  1.0  0.1138
  C  C51  1  0.748000  0.570800  0.376000  1.0  0.1327
  C  C52  1  0.762800  0.611300  0.169000  1.0  0.6631
  C  C53  1  0.875000  0.738400  0.658000  1.0  0.7365
  C  C54  1  0.924300  0.749900  0.882000  1.0  0.1338
  C  C55  1  0.974400  0.815200  0.865000  1.0  0.1133
  C  C56  1  0.021400  0.816100  0.073000  1.0  0.1222
  C  C57  1  0.070800  0.752000  0.126000  1.0  0.1331
  C  C58  1  0.111300  0.737200  0.919000  1.0  0.6641
  C  C59  1  0.125000  0.261600  0.158000  1.0  0.7358
  C  C60  1  0.075700  0.250100  0.382000  1.0  0.1343
  C  C61  1  0.025600  0.184800  0.365000  1.0  0.1096
  C  C62  1  0.978600  0.183900  0.573000  1.0  0.1218
  C  C63  1  0.929200  0.248000  0.626000  1.0  0.1332
  C  C64  1  0.888700  0.262800  0.419000  1.0  0.6655
  C  C65  1  0.261600  0.125000  0.842000  1.0  0.7386
  C  C66  1  0.250100  0.075700  0.618000  1.0  0.1316
  C  C67  1  0.184800  0.025600  0.635000  1.0  0.1086
  C  C68  1  0.183900  0.978600  0.427000  1.0  0.1128
  C  C69  1  0.248000  0.929200  0.374000  1.0  0.1319
  C  C70  1  0.262800  0.888700  0.581000  1.0  0.6631
  C  C71  1  0.738400  0.875000  0.342000  1.0  0.7371
  C  C72  1  0.749900  0.924300  0.118000  1.0  0.1338
  C  C73  1  0.815200  0.974400  0.135000  1.0  0.1086
  C  C74  1  0.816100  0.021400  0.927000  1.0  0.115
  C  C75  1  0.752000  0.070800  0.874000  1.0  0.1325
  C  C76  1  0.737200  0.111300  0.081000  1.0  0.6629
  C  C77  1  0.625000  0.238400  0.592000  1.0  0.7347
  C  C78  1  0.575700  0.249900  0.368000  1.0  0.1344
  C  C79  1  0.525600  0.315200  0.385000  1.0  0.1104
  C  C80  1  0.478600  0.316100  0.177000  1.0  0.1218
  C  C81  1  0.429200  0.252000  0.124000  1.0  0.1307
  C  C82  1  0.388700  0.237200  0.331000  1.0  0.6645
  C  C83  1  0.375000  0.761600  0.092000  1.0  0.7348
  C  C84  1  0.424300  0.750100  0.868000  1.0  0.1339
  C  C85  1  0.474400  0.684800  0.885000  1.0  0.1112
  C  C86  1  0.521400  0.683900  0.677000  1.0  0.1202
  C  C87  1  0.570800  0.748000  0.624000  1.0  0.1333
  C  C88  1  0.611300  0.762800  0.831000  1.0  0.6637
  O  O89  1  0.242600  0.685400  0.434000  1.0  -0.5228
  O  O90  1  0.224400  0.592800  0.231000  1.0  -0.4357
  O  O91  1  0.263900  0.626100  0.825000  1.0  -0.6232
  O  O92  1  0.373600  0.562200  0.570000  1.0  -0.3626
  O  O93  1  0.379800  0.431400  0.793000  1.0  -0.4848
  O  O94  1  0.271100  0.386400  0.073000  1.0  -0.4693
  O  O95  1  0.245500  0.320400  0.689000  1.0  -0.5305
  O  O96  1  0.214200  0.422200  0.482000  1.0  -0.436
  O  O97  1  0.757400  0.314600  0.934000  1.0  -0.5221
  O  O98  1  0.775600  0.407200  0.731000  1.0  -0.4339
  O  O99  1  0.736100  0.373900  0.325000  1.0  -0.6237
  O  O100  1  0.626400  0.437800  0.070000  1.0  -0.3592
  O  O101  1  0.620200  0.568600  0.293000  1.0  -0.4827
  O  O102  1  0.728900  0.613600  0.573000  1.0  -0.4684
  O  O103  1  0.754500  0.679600  0.189000  1.0  -0.5311
  O  O104  1  0.785800  0.577800  0.982000  1.0  -0.436
  O  O105  1  0.814600  0.742600  0.684000  1.0  -0.5209
  O  O106  1  0.907200  0.724400  0.481000  1.0  -0.4324
  O  O107  1  0.873900  0.763900  0.075000  1.0  -0.6231
  O  O108  1  0.937800  0.873600  0.820000  1.0  -0.3551
  O  O109  1  0.068600  0.879800  0.043000  1.0  -0.4871
  O  O110  1  0.113600  0.771100  0.323000  1.0  -0.4683
  O  O111  1  0.179600  0.745500  0.939000  1.0  -0.5341
  O  O112  1  0.077800  0.714200  0.732000  1.0  -0.4392
  O  O113  1  0.185400  0.257400  0.184000  1.0  -0.5209
  O  O114  1  0.092800  0.275600  0.981000  1.0  -0.4317
  O  O115  1  0.126100  0.236100  0.575000  1.0  -0.6237
  O  O116  1  0.062200  0.126400  0.320000  1.0  -0.3608
  O  O117  1  0.931400  0.120200  0.543000  1.0  -0.4874
  O  O118  1  0.886400  0.228900  0.823000  1.0  -0.4687
  O  O119  1  0.820400  0.254500  0.439000  1.0  -0.533
  O  O120  1  0.922200  0.285800  0.232000  1.0  -0.4372
  O  O121  1  0.257400  0.185400  0.816000  1.0  -0.5237
  O  O122  1  0.275600  0.092800  0.019000  1.0  -0.4332
  O  O123  1  0.236100  0.126100  0.425000  1.0  -0.6243
  O  O124  1  0.126400  0.062200  0.680000  1.0  -0.3605
  O  O125  1  0.120200  0.931400  0.457000  1.0  -0.4827
  O  O126  1  0.228900  0.886400  0.177000  1.0  -0.4663
  O  O127  1  0.254500  0.820400  0.561000  1.0  -0.5288
  O  O128  1  0.285800  0.922200  0.768000  1.0  -0.436
  O  O129  1  0.742600  0.814600  0.316000  1.0  -0.5221
  O  O130  1  0.724400  0.907200  0.519000  1.0  -0.4338
  O  O131  1  0.763900  0.873900  0.925000  1.0  -0.6236
  O  O132  1  0.873600  0.937800  0.180000  1.0  -0.3638
  O  O133  1  0.879800  0.068600  0.957000  1.0  -0.4845
  O  O134  1  0.771100  0.113600  0.677000  1.0  -0.4652
  O  O135  1  0.745500  0.179600  0.061000  1.0  -0.5295
  O  O136  1  0.714200  0.077800  0.268000  1.0  -0.4348
  O  O137  1  0.685400  0.242600  0.566000  1.0  -0.5213
  O  O138  1  0.592800  0.224400  0.769000  1.0  -0.4305
  O  O139  1  0.626100  0.263900  0.175000  1.0  -0.6233
  O  O140  1  0.562200  0.373600  0.430000  1.0  -0.3573
  O  O141  1  0.431400  0.379800  0.207000  1.0  -0.4861
  O  O142  1  0.386400  0.271100  0.927000  1.0  -0.4652
  O  O143  1  0.320400  0.245500  0.311000  1.0  -0.5277
  O  O144  1  0.422200  0.214200  0.518000  1.0  -0.4396
  O  O145  1  0.314600  0.757400  0.066000  1.0  -0.5215
  O  O146  1  0.407200  0.775600  0.269000  1.0  -0.4303
  O  O147  1  0.373900  0.736100  0.675000  1.0  -0.6231
  O  O148  1  0.437800  0.626400  0.930000  1.0  -0.3608
  O  O149  1  0.568600  0.620200  0.707000  1.0  -0.4889
  O  O150  1  0.613600  0.728900  0.427000  1.0  -0.4658
  O  O151  1  0.679600  0.754500  0.811000  1.0  -0.5283
  O  O152  1  0.577800  0.785800  0.018000  1.0  -0.4377
