# generated using pymatgen
data_Mn3H50C64N4O19
_symmetry_space_group_name_H-M   'P 1'
_cell_length_a   10.52110000
_cell_length_b   24.14890000
_cell_length_c   37.87710000
_cell_angle_alpha   88.26630000
_cell_angle_beta   82.01670000
_cell_angle_gamma   77.41810000
_symmetry_Int_Tables_number   1
_chemical_formula_structural   Mn3H50C64N4O19
_chemical_formula_sum   'Mn12 H200 C256 N16 O76'
_cell_volume   9301.41861257
_cell_formula_units_Z   4
loop_
 _symmetry_equiv_pos_site_id
 _symmetry_equiv_pos_as_xyz
  1  'x, y, z'
loop_
 _atom_site_type_symbol
 _atom_site_label
 _atom_site_symmetry_multiplicity
 _atom_site_fract_x
 _atom_site_fract_y
 _atom_site_fract_z
 _atom_site_occupancy
 _atom_site_charge
  Mn  Mn1  1  0.390680  0.736540  0.586760  1.0  1.0583
  Mn  Mn2  1  0.058430  0.732020  0.617480  1.0  1.1588
  Mn  Mn3  1  0.799190  0.669610  0.636570  1.0  1.1328
  Mn  Mn4  1  0.713980  0.263460  0.413240  1.0  1.0597
  Mn  Mn5  1  0.407930  0.267980  0.382520  1.0  1.1596
  Mn  Mn6  1  0.105370  0.330390  0.363430  1.0  1.1348
  Mn  Mn7  1  0.227440  0.236540  0.913240  1.0  1.0593
  Mn  Mn8  1  0.925910  0.232020  0.882520  1.0  1.1584
  Mn  Mn9  1  0.685760  0.169610  0.863430  1.0  1.1348
  Mn  Mn10  1  0.377220  0.763460  0.086760  1.0  1.0588
  Mn  Mn11  1  0.040450  0.767980  0.117480  1.0  1.1597
  Mn  Mn12  1  0.718800  0.830390  0.136570  1.0  1.1331
  H  H13  1  0.078700  0.848800  0.829600  1.0  0.0719
  H  H14  1  0.109800  0.781800  0.829800  1.0  0.0582
  H  H15  1  0.323300  0.869400  0.852200  1.0  0.0614
  H  H16  1  0.288500  0.867400  0.894000  1.0  0.0653
  H  H17  1  0.052000  0.779000  0.896800  1.0  0.059
  H  H18  1  0.008300  0.845400  0.894000  1.0  0.0623
  H  H19  1  0.329300  0.764400  0.894600  1.0  0.0693
  H  H20  1  0.373300  0.764600  0.853400  1.0  0.0805
  H  H21  1  0.124200  0.657200  0.840600  1.0  0.0585
  H  H22  1  0.152100  0.591200  0.835000  1.0  0.0528
  H  H23  1  0.461100  0.558200  0.869600  1.0  0.05
  H  H24  1  0.450500  0.568600  0.828800  1.0  0.0594
  H  H25  1  0.172100  0.576600  0.896400  1.0  0.0654
  H  H26  1  0.151700  0.641600  0.904000  1.0  0.0985
  H  H27  1  0.405000  0.668400  0.837000  1.0  0.0705
  H  H28  1  0.416400  0.660000  0.877800  1.0  0.0658
  H  H29  1  0.061900  0.812600  0.772400  1.0  0.1024
  H  H30  1  0.070700  0.791400  0.712600  1.0  0.1072
  H  H31  1  0.459100  0.773800  0.699400  1.0  0.1179
  H  H32  1  0.447500  0.791400  0.759400  1.0  0.0995
  H  H33  1  0.978600  0.004600  0.877400  1.0  0.0758
  H  H34  1  0.990400  0.093400  0.891000  1.0  0.1044
  H  H35  1  0.378900  0.040400  0.886400  1.0  0.0979
  H  H36  1  0.357500  0.949600  0.874800  1.0  0.0966
  H  H37  1  0.182700  0.837400  0.989200  1.0  0.1076
  H  H38  1  0.057400  0.837000  0.045000  1.0  0.0925
  H  H39  1  0.762700  0.808600  0.999800  1.0  0.0825
  H  H40  1  0.883800  0.806800  0.943600  1.0  0.1259
  H  H41  1  0.002600  0.638400  0.801600  1.0  0.0933
  H  H42  1  0.886400  0.644400  0.755000  1.0  0.1198
  H  H43  1  0.212000  0.652400  0.689800  1.0  0.0884
  H  H44  1  0.326700  0.637800  0.737400  1.0  0.1136
  H  H45  1  0.285000  0.423000  0.852200  1.0  0.1223
  H  H46  1  0.408600  0.334400  0.854600  1.0  0.0759
  H  H47  1  0.730200  0.393800  0.850200  1.0  0.1002
  H  H48  1  0.603000  0.488000  0.846600  1.0  0.1154
  H  H49  1  0.446800  0.579600  0.968400  1.0  0.13
  H  H50  1  0.408100  0.616800  0.026400  1.0  0.1
  H  H51  1  0.055300  0.698200  0.010200  1.0  0.0829
  H  H52  1  0.091200  0.661000  0.952600  1.0  0.148
  H  H53  1  0.805900  0.564600  0.579000  1.0  0.0903
  H  H54  1  0.850200  0.544200  0.679200  1.0  0.0948
  H  H55  1  0.846900  0.453200  0.658000  1.0  0.1132
  H  H56  1  0.836600  0.389200  0.618800  1.0  0.1105
  H  H57  1  0.795200  0.320400  0.581000  1.0  0.1067
  H  H58  1  0.682200  0.440400  0.512000  1.0  0.1168
  H  H59  1  0.720900  0.507200  0.552000  1.0  0.0791
  H  H60  1  0.732300  0.366200  0.470600  1.0  0.079
  H  H61  1  0.706400  0.265000  0.551800  1.0  0.1189
  H  H62  1  0.701300  0.214600  0.496800  1.0  0.0812
  H  H63  1  0.757100  0.151200  0.170400  1.0  0.0719
  H  H64  1  0.721400  0.218200  0.170200  1.0  0.0596
  H  H65  1  0.044900  0.130600  0.147800  1.0  0.0599
  H  H66  1  0.049900  0.132600  0.106000  1.0  0.0666
  H  H67  1  0.727800  0.221000  0.103200  1.0  0.0592
  H  H68  1  0.747700  0.154600  0.106000  1.0  0.0629
  H  H69  1  0.988300  0.235600  0.105400  1.0  0.0677
  H  H70  1  0.991300  0.235400  0.146600  1.0  0.081
  H  H71  1  0.622000  0.342800  0.159400  1.0  0.0578
  H  H72  1  0.578300  0.408800  0.165000  1.0  0.0535
  H  H73  1  0.888900  0.441800  0.130400  1.0  0.0503
  H  H74  1  0.847900  0.431400  0.171200  1.0  0.0581
  H  H75  1  0.645100  0.423400  0.103600  1.0  0.0672
  H  H76  1  0.697300  0.358400  0.096000  1.0  0.0976
  H  H77  1  0.910400  0.331600  0.163000  1.0  0.0708
  H  H78  1  0.954200  0.340000  0.122200  1.0  0.0643
  H  H79  1  0.646900  0.187400  0.227600  1.0  0.1019
  H  H80  1  0.574700  0.208600  0.287400  1.0  0.1069
  H  H81  1  0.932300  0.226200  0.300600  1.0  0.1169
  H  H82  1  0.998300  0.208600  0.240600  1.0  0.1007
  H  H83  1  0.860600  0.995400  0.122600  1.0  0.0762
  H  H84  1  0.974800  0.906600  0.109000  1.0  0.1048
  H  H85  1  0.305700  0.959600  0.113600  1.0  0.0981
  H  H86  1  0.181900  0.050400  0.125200  1.0  0.0962
  H  H87  1  0.009300  0.162600  0.010800  1.0  0.1081
  H  H88  1  0.939400  0.163000  0.955000  1.0  0.0908
  H  H89  1  0.571100  0.191400  0.000200  1.0  0.0823
  H  H90  1  0.634200  0.193200  0.056400  1.0  0.1263
  H  H91  1  0.442600  0.361600  0.198400  1.0  0.0948
  H  H92  1  0.285800  0.355600  0.245000  1.0  0.1197
  H  H93  1  0.554200  0.347600  0.310200  1.0  0.0882
  H  H94  1  0.701900  0.362200  0.262600  1.0  0.1142
  H  H95  1  0.560200  0.577000  0.147800  1.0  0.1217
  H  H96  1  0.597600  0.665600  0.145400  1.0  0.0759
  H  H97  1  0.974200  0.606200  0.149800  1.0  0.1002
  H  H98  1  0.937600  0.512000  0.153400  1.0  0.1155
  H  H99  1  0.994800  0.420400  0.031600  1.0  0.1295
  H  H100  1  0.051300  0.383200  0.973600  1.0  0.0998
  H  H101  1  0.763700  0.301800  0.989800  1.0  0.0836
  H  H102  1  0.704800  0.339000  0.047400  1.0  0.149
  H  H103  1  0.949500  0.435400  0.421000  1.0  0.0904
  H  H104  1  0.073600  0.455800  0.320800  1.0  0.0951
  H  H105  1  0.958100  0.546800  0.342000  1.0  0.1128
  H  H106  1  0.844600  0.610800  0.381200  1.0  0.112
  H  H107  1  0.696600  0.679600  0.419000  1.0  0.1054
  H  H108  1  0.634600  0.559600  0.488000  1.0  0.1154
  H  H109  1  0.780100  0.492800  0.448000  1.0  0.0792
  H  H110  1  0.569100  0.633800  0.529400  1.0  0.0796
  H  H111  1  0.523200  0.735000  0.448200  1.0  0.12
  H  H112  1  0.412700  0.785400  0.503200  1.0  0.0822
  H  H113  1  0.158300  0.348800  0.670400  1.0  0.0717
  H  H114  1  0.189600  0.281800  0.670200  1.0  0.0594
  H  H115  1  0.425500  0.369400  0.647800  1.0  0.0599
  H  H116  1  0.432500  0.367400  0.606000  1.0  0.0666
  H  H117  1  0.198800  0.279000  0.603200  1.0  0.0586
  H  H118  1  0.152300  0.345400  0.606000  1.0  0.0628
  H  H119  1  0.473900  0.264400  0.605400  1.0  0.0677
  H  H120  1  0.476700  0.264600  0.646600  1.0  0.0812
  H  H121  1  0.214800  0.157200  0.659400  1.0  0.0583
  H  H122  1  0.237100  0.091200  0.665000  1.0  0.0536
  H  H123  1  0.580700  0.058200  0.630400  1.0  0.0503
  H  H124  1  0.529300  0.068600  0.671200  1.0  0.0585
  H  H125  1  0.318500  0.076600  0.603600  1.0  0.0662
  H  H126  1  0.305700  0.141600  0.596000  1.0  0.0987
  H  H127  1  0.492000  0.168400  0.663000  1.0  0.0714
  H  H128  1  0.544200  0.160000  0.622200  1.0  0.0642
  H  H129  1  0.084300  0.312600  0.727600  1.0  0.102
  H  H130  1  0.033300  0.291400  0.787400  1.0  0.107
  H  H131  1  0.408500  0.273800  0.800600  1.0  0.1173
  H  H132  1  0.456900  0.291400  0.740600  1.0  0.1006
  H  H133  1  0.106000  0.504600  0.622600  1.0  0.0758
  H  H134  1  0.131400  0.593400  0.609000  1.0  0.1043
  H  H135  1  0.515300  0.540400  0.613600  1.0  0.0979
  H  H136  1  0.482300  0.449600  0.625200  1.0  0.0965
  H  H137  1  0.421900  0.337400  0.510800  1.0  0.1073
  H  H138  1  0.352400  0.337000  0.455000  1.0  0.092
  H  H139  1  0.012500  0.308600  0.500200  1.0  0.082
  H  H140  1  0.077400  0.306800  0.556400  1.0  0.1264
  H  H141  1  0.054200  0.138400  0.698400  1.0  0.0944
  H  H142  1  0.891400  0.144400  0.745000  1.0  0.1196
  H  H143  1  0.151800  0.152400  0.810200  1.0  0.0884
  H  H144  1  0.314100  0.137800  0.762600  1.0  0.1141
  H  H145  1  0.387200  0.923000  0.647800  1.0  0.1218
  H  H146  1  0.513200  0.834400  0.645400  1.0  0.0761
  H  H147  1  0.830400  0.893800  0.649800  1.0  0.0999
  H  H148  1  0.699600  0.988000  0.653400  1.0  0.1155
  H  H149  1  0.665200  0.079600  0.531600  1.0  0.1294
  H  H150  1  0.684500  0.116800  0.473600  1.0  0.0993
  H  H151  1  0.315500  0.198200  0.489800  1.0  0.0836
  H  H152  1  0.293800  0.161000  0.547400  1.0  0.1494
  H  H153  1  0.634900  0.064600  0.921000  1.0  0.0902
  H  H154  1  0.779400  0.044200  0.820800  1.0  0.0951
  H  H155  1  0.754900  0.953200  0.842000  1.0  0.1124
  H  H156  1  0.705400  0.889200  0.881200  1.0  0.1123
  H  H157  1  0.626200  0.820400  0.919000  1.0  0.1052
  H  H158  1  0.444200  0.940400  0.988000  1.0  0.1153
  H  H159  1  0.522900  0.007200  0.948000  1.0  0.0792
  H  H160  1  0.452900  0.866200  0.029400  1.0  0.0791
  H  H161  1  0.508200  0.765000  0.948200  1.0  0.12
  H  H162  1  0.448100  0.714600  0.003200  1.0  0.0816
  H  H163  1  0.177500  0.651200  0.329600  1.0  0.0716
  H  H164  1  0.141600  0.718200  0.329800  1.0  0.0588
  H  H165  1  0.442700  0.630600  0.352200  1.0  0.0608
  H  H166  1  0.405900  0.632600  0.394000  1.0  0.0658
  H  H167  1  0.081000  0.721000  0.396800  1.0  0.0593
  H  H168  1  0.103700  0.654600  0.394000  1.0  0.0625
  H  H169  1  0.343700  0.735600  0.394600  1.0  0.0688
  H  H170  1  0.387900  0.735400  0.353400  1.0  0.0806
  H  H171  1  0.031400  0.842800  0.340600  1.0  0.058
  H  H172  1  0.993300  0.908800  0.335000  1.0  0.0529
  H  H173  1  0.269300  0.941800  0.369600  1.0  0.0495
  H  H174  1  0.269100  0.931400  0.328800  1.0  0.0597
  H  H175  1  0.998700  0.923400  0.396400  1.0  0.066
  H  H176  1  0.043300  0.858400  0.404000  1.0  0.0983
  H  H177  1  0.323400  0.831600  0.337000  1.0  0.0704
  H  H178  1  0.326400  0.840000  0.377800  1.0  0.0657
  H  H179  1  0.124500  0.687400  0.272400  1.0  0.1026
  H  H180  1  0.112100  0.708600  0.212600  1.0  0.1075
  H  H181  1  0.482900  0.726200  0.199400  1.0  0.1177
  H  H182  1  0.488900  0.708600  0.259400  1.0  0.0998
  H  H183  1  0.233200  0.495400  0.377400  1.0  0.076
  H  H184  1  0.333800  0.406600  0.391000  1.0  0.105
  H  H185  1  0.669300  0.459600  0.386400  1.0  0.0979
  H  H186  1  0.557100  0.550400  0.374800  1.0  0.0964
  H  H187  1  0.270100  0.662600  0.489200  1.0  0.1085
  H  H188  1  0.144400  0.663000  0.545000  1.0  0.0912
  H  H189  1  0.821300  0.691400  0.499800  1.0  0.0825
  H  H190  1  0.940600  0.693200  0.443600  1.0  0.1261
  H  H191  1  0.891000  0.861600  0.301600  1.0  0.0932
  H  H192  1  0.780800  0.855600  0.255000  1.0  0.1198
  H  H193  1  0.114400  0.847600  0.189800  1.0  0.0886
  H  H194  1  0.214500  0.862200  0.237400  1.0  0.1142
  H  H195  1  0.958000  0.077000  0.352200  1.0  0.1221
  H  H196  1  0.993000  0.165600  0.354600  1.0  0.0758
  H  H197  1  0.374000  0.106200  0.350200  1.0  0.1004
  H  H198  1  0.341000  0.012000  0.346600  1.0  0.115
  H  H199  1  0.276400  0.920400  0.468400  1.0  0.1299
  H  H200  1  0.274900  0.883200  0.526400  1.0  0.1003
  H  H201  1  0.003500  0.801800  0.510200  1.0  0.0825
  H  H202  1  0.002200  0.839000  0.452600  1.0  0.1475
  H  H203  1  0.620500  0.935400  0.079000  1.0  0.0903
  H  H204  1  0.644400  0.955800  0.179200  1.0  0.094
  H  H205  1  0.550100  0.046800  0.158000  1.0  0.1128
  H  H206  1  0.475800  0.110800  0.118800  1.0  0.11
  H  H207  1  0.365600  0.179600  0.081000  1.0  0.1054
  H  H208  1  0.372600  0.059600  0.012000  1.0  0.1164
  H  H209  1  0.478100  0.992800  0.052000  1.0  0.0789
  H  H210  1  0.348500  0.133800  0.970600  1.0  0.0787
  H  H211  1  0.221400  0.235000  0.051800  1.0  0.1183
  H  H212  1  0.165900  0.285400  0.996800  1.0  0.0812
  C  C213  1  0.198640  0.814820  0.868300  1.0  0.0463
  C  C214  1  0.145920  0.815020  0.832140  1.0  0.0438
  C  C215  1  0.253400  0.867820  0.871580  1.0  0.0803
  C  C216  1  0.081190  0.814300  0.897320  1.0  0.0557
  C  C217  1  0.299020  0.764320  0.871640  1.0  0.0451
  C  C218  1  0.288970  0.615380  0.861080  1.0  -0.0115
  C  C219  1  0.192940  0.623680  0.834240  1.0  0.0581
  C  C220  1  0.401450  0.563320  0.851780  1.0  0.0786
  C  C221  1  0.217110  0.607480  0.897100  1.0  0.061
  C  C222  1  0.356060  0.665020  0.860260  1.0  0.0496
  C  C223  1  0.252610  0.804040  0.771740  1.0  0.3433
  C  C224  1  0.142540  0.804400  0.757920  1.0  -0.2202
  C  C225  1  0.147330  0.792660  0.721880  1.0  -0.0456
  C  C226  1  0.263580  0.783280  0.700560  1.0  -0.1109
  C  C227  1  0.378440  0.781760  0.713960  1.0  -0.1003
  C  C228  1  0.370450  0.792320  0.749780  1.0  -0.1524
  C  C229  1  0.266950  0.767540  0.661360  1.0  0.6837
  C  C230  1  0.167430  0.968140  0.876400  1.0  0.3715
  C  C231  1  0.059840  0.012020  0.880100  1.0  -0.1494
  C  C232  1  0.066240  0.064900  0.887420  1.0  -0.164
  C  C233  1  0.185840  0.076380  0.889540  1.0  -0.1407
  C  C234  1  0.296420  0.033180  0.884980  1.0  -0.0976
  C  C235  1  0.283110  0.978960  0.878220  1.0  -0.2249
  C  C236  1  0.199100  0.135760  0.898040  1.0  0.6656
  C  C237  1  0.046130  0.821840  0.961300  1.0  0.3181
  C  C238  1  0.097750  0.831260  0.991040  1.0  -0.2135
  C  C239  1  0.021940  0.831660  0.024460  1.0  -0.0256
  C  C240  1  0.899400  0.824340  0.027060  1.0  -0.1149
  C  C241  1  0.847940  0.814560  0.997360  1.0  -0.0302
  C  C242  1  0.919610  0.813260  0.963720  1.0  -0.2719
  C  C243  1  0.820860  0.822960  0.062720  1.0  0.6649
  C  C244  1  0.174790  0.636600  0.774220  1.0  0.3726
  C  C245  1  0.045950  0.639920  0.778580  1.0  -0.181
  C  C246  1  0.975080  0.645340  0.751100  1.0  -0.1613
  C  C247  1  0.035470  0.652400  0.717060  1.0  -0.1093
  C  C248  1  0.167790  0.649020  0.712600  1.0  -0.0838
  C  C249  1  0.236200  0.640700  0.741100  1.0  -0.1814
  C  C250  1  0.958200  0.661220  0.687380  1.0  0.653
  C  C251  1  0.434170  0.463660  0.851000  1.0  0.2982
  C  C252  1  0.375110  0.417620  0.852360  1.0  -0.2036
  C  C253  1  0.449040  0.365140  0.853780  1.0  -0.0298
  C  C254  1  0.580310  0.355300  0.854080  1.0  -0.1846
  C  C255  1  0.639390  0.399940  0.851080  1.0  -0.0505
  C  C256  1  0.563060  0.456960  0.849120  1.0  -0.2469
  C  C257  1  0.664360  0.297620  0.858860  1.0  0.7141
  C  C258  1  0.267380  0.618180  0.955660  1.0  0.3029
  C  C259  1  0.367550  0.603820  0.976680  1.0  -0.215
  C  C260  1  0.344500  0.627320  0.011280  1.0  -0.1049
  C  C261  1  0.231550  0.664900  0.022800  1.0  -0.0208
  C  C262  1  0.136360  0.675260  0.001820  1.0  -0.0472
  C  C263  1  0.157100  0.651980  0.967220  1.0  -0.1893
  C  C264  1  0.218910  0.694520  0.058860  1.0  0.6852
  C  C265  1  0.813370  0.549300  0.601560  1.0  0.1489
  C  C266  1  0.840480  0.536640  0.656000  1.0  0.0615
  C  C267  1  0.835240  0.486900  0.645220  1.0  -0.1681
  C  C268  1  0.784080  0.453880  0.586960  1.0  0.23
  C  C269  1  0.805820  0.399820  0.597140  1.0  -0.1471
  C  C270  1  0.780640  0.358400  0.574320  1.0  -0.1333
  C  C271  1  0.735570  0.374520  0.542940  1.0  0.1479
  C  C272  1  0.713100  0.428600  0.533400  1.0  -0.1506
  C  C273  1  0.738560  0.468800  0.557880  1.0  -0.1307
  C  C274  1  0.718880  0.335220  0.484620  1.0  0.1663
  C  C275  1  0.708470  0.280000  0.528860  1.0  -0.1618
  C  C276  1  0.702650  0.252740  0.498560  1.0  -0.0175
  C  C277  1  0.881760  0.185180  0.131700  1.0  0.0474
  C  C278  1  0.793080  0.184980  0.167860  1.0  0.0411
  C  C279  1  0.992800  0.132180  0.128420  1.0  0.0798
  C  C280  1  0.792810  0.185700  0.102680  1.0  0.0563
  C  C281  1  0.934980  0.235680  0.128360  1.0  0.0464
  C  C282  1  0.765430  0.384620  0.138920  1.0  -0.0124
  C  C283  1  0.650860  0.376320  0.165760  1.0  0.0554
  C  C284  1  0.816550  0.436680  0.148220  1.0  0.0813
  C  C285  1  0.721690  0.392520  0.102900  1.0  0.0613
  C  C286  1  0.881340  0.334980  0.139740  1.0  0.0496
  C  C287  1  0.828390  0.195960  0.228260  1.0  0.345
  C  C288  1  0.704860  0.195600  0.242080  1.0  -0.2205
  C  C289  1  0.661870  0.207340  0.278120  1.0  -0.0458
  C  C290  1  0.747420  0.216720  0.299440  1.0  -0.1109
  C  C291  1  0.874160  0.218240  0.286040  1.0  -0.0989
  C  C292  1  0.912550  0.207680  0.250220  1.0  -0.1516
  C  C293  1  0.695850  0.232460  0.338640  1.0  0.6813
  C  C294  1  0.011970  0.031860  0.123600  1.0  0.37
  C  C295  1  0.951960  0.987980  0.119900  1.0  -0.1504
  C  C296  1  0.018560  0.935100  0.112580  1.0  -0.1632
  C  C297  1  0.151760  0.923620  0.110460  1.0  -0.1395
  C  C298  1  0.214580  0.966820  0.115020  1.0  -0.0982
  C  C299  1  0.140290  0.021040  0.121780  1.0  -0.224
  C  C300  1  0.232900  0.864240  0.101960  1.0  0.6644
  C  C301  1  0.829270  0.178160  0.038700  1.0  0.3181
  C  C302  1  0.920050  0.168740  0.008960  1.0  -0.2141
  C  C303  1  0.878060  0.168340  0.975540  1.0  -0.0255
  C  C304  1  0.750800  0.175660  0.972940  1.0  -0.1158
  C  C305  1  0.659860  0.185440  0.002640  1.0  -0.0301
  C  C306  1  0.696590  0.186740  0.036280  1.0  -0.2717
  C  C307  1  0.706540  0.177040  0.937280  1.0  0.6678
  C  C308  1  0.585610  0.363400  0.225780  1.0  0.3719
  C  C309  1  0.464450  0.360080  0.221420  1.0  -0.1823
  C  C310  1  0.371520  0.354660  0.248900  1.0  -0.1607
  C  C311  1  0.404930  0.347600  0.282940  1.0  -0.1071
  C  C312  1  0.529410  0.350980  0.287400  1.0  -0.0848
  C  C313  1  0.618000  0.359300  0.258900  1.0  -0.182
  C  C314  1  0.306800  0.338780  0.312620  1.0  0.6529
  C  C315  1  0.748830  0.536340  0.149000  1.0  0.2983
  C  C316  1  0.645090  0.582380  0.147640  1.0  -0.2046
  C  C317  1  0.667960  0.634860  0.146220  1.0  -0.0298
  C  C318  1  0.789690  0.644700  0.145920  1.0  -0.1863
  C  C319  1  0.890410  0.600060  0.148920  1.0  -0.0509
  C  C320  1  0.869140  0.543040  0.150880  1.0  -0.2481
  C  C321  1  0.820840  0.702380  0.141140  1.0  0.7141
  C  C322  1  0.841220  0.381820  0.044340  1.0  0.3034
  C  C323  1  0.948050  0.396180  0.023320  1.0  -0.2147
  C  C324  1  0.983100  0.372680  0.988720  1.0  -0.1036
  C  C325  1  0.919250  0.335100  0.977200  1.0  -0.0166
  C  C326  1  0.813440  0.324740  0.998180  1.0  -0.0488
  C  C327  1  0.776300  0.348020  0.032780  1.0  -0.1907
  C  C328  1  0.972290  0.305480  0.941140  1.0  0.6885
  C  C329  1  0.964230  0.450700  0.398440  1.0  0.1493
  C  C330  1  0.033120  0.463360  0.344000  1.0  0.06
  C  C331  1  0.967360  0.513100  0.354780  1.0  -0.1647
  C  C332  1  0.824920  0.546120  0.413040  1.0  0.2298
  C  C333  1  0.802780  0.600180  0.402860  1.0  -0.1509
  C  C334  1  0.713360  0.641600  0.425680  1.0  -0.1359
  C  C335  1  0.653030  0.625480  0.457060  1.0  0.1478
  C  C336  1  0.675100  0.571400  0.466600  1.0  -0.1487
  C  C337  1  0.765240  0.531200  0.442120  1.0  -0.1294
  C  C338  1  0.538720  0.664780  0.515380  1.0  0.1676
  C  C339  1  0.517330  0.720000  0.471140  1.0  -0.1623
  C  C340  1  0.453950  0.747260  0.501440  1.0  -0.0178
  C  C341  1  0.316940  0.314820  0.631700  1.0  0.0475
  C  C342  1  0.228060  0.315020  0.667860  1.0  0.0405
  C  C343  1  0.374980  0.367820  0.628420  1.0  0.0805
  C  C344  1  0.228510  0.314300  0.602680  1.0  0.0567
  C  C345  1  0.420660  0.264320  0.628360  1.0  0.0461
  C  C346  1  0.400050  0.115380  0.638920  1.0  -0.0113
  C  C347  1  0.277180  0.123680  0.665760  1.0  0.0565
  C  C348  1  0.503230  0.063320  0.648220  1.0  0.0809
  C  C349  1  0.364210  0.107480  0.602900  1.0  0.0606
  C  C350  1  0.466320  0.165020  0.639740  1.0  0.0503
  C  C351  1  0.274350  0.304040  0.728260  1.0  0.3451
  C  C352  1  0.150460  0.304400  0.742080  1.0  -0.2217
  C  C353  1  0.119210  0.292660  0.778120  1.0  -0.0461
  C  C354  1  0.214140  0.283280  0.799440  1.0  -0.111
  C  C355  1  0.342400  0.281760  0.786040  1.0  -0.099
  C  C356  1  0.370230  0.292320  0.750220  1.0  -0.1518
  C  C357  1  0.178310  0.267540  0.838640  1.0  0.6816
  C  C358  1  0.293830  0.468140  0.623600  1.0  0.3708
  C  C359  1  0.189940  0.512020  0.619900  1.0  -0.1494
  C  C360  1  0.203660  0.564900  0.612580  1.0  -0.1631
  C  C361  1  0.325380  0.576380  0.610460  1.0  -0.1394
  C  C362  1  0.431400  0.533180  0.615020  1.0  -0.098
  C  C363  1  0.411330  0.478960  0.621780  1.0  -0.2243
  C  C364  1  0.347140  0.635760  0.601960  1.0  0.6647
  C  C365  1  0.257430  0.321840  0.538700  1.0  0.3178
  C  C366  1  0.338790  0.331260  0.508960  1.0  -0.2128
  C  C367  1  0.296400  0.331660  0.475540  1.0  -0.0244
  C  C368  1  0.176460  0.324340  0.472940  1.0  -0.1153
  C  C369  1  0.095300  0.314560  0.502640  1.0  -0.0302
  C  C370  1  0.133330  0.313260  0.536280  1.0  -0.2716
  C  C371  1  0.133580  0.322960  0.437280  1.0  0.6678
  C  C372  1  0.199010  0.136600  0.725780  1.0  0.3727
  C  C373  1  0.074530  0.139920  0.721420  1.0  -0.1826
  C  C374  1  0.976180  0.145340  0.748900  1.0  -0.1599
  C  C375  1  0.002530  0.152400  0.782940  1.0  -0.1078
  C  C376  1  0.130390  0.149020  0.787400  1.0  -0.086
  C  C377  1  0.227300  0.140700  0.758900  1.0  -0.1819
  C  C378  1  0.895580  0.161220  0.812620  1.0  0.6531
  C  C379  1  0.535170  0.963660  0.649000  1.0  0.2979
  C  C380  1  0.477470  0.917620  0.647640  1.0  -0.2043
  C  C381  1  0.552820  0.865140  0.646220  1.0  -0.0295
  C  C382  1  0.684390  0.855300  0.645920  1.0  -0.1846
  C  C383  1  0.740470  0.899940  0.648920  1.0  -0.0508
  C  C384  1  0.662180  0.956960  0.650880  1.0  -0.2486
  C  C385  1  0.773220  0.797620  0.641140  1.0  0.7134
  C  C386  1  0.473040  0.118180  0.544340  1.0  0.3039
  C  C387  1  0.594230  0.103820  0.523320  1.0  -0.2162
  C  C388  1  0.605780  0.127320  0.488720  1.0  -0.1024
  C  C389  1  0.504350  0.164900  0.477200  1.0  -0.0163
  C  C390  1  0.388180  0.175260  0.498180  1.0  -0.0478
  C  C391  1  0.374320  0.151980  0.532780  1.0  -0.1903
  C  C392  1  0.527770  0.194520  0.441140  1.0  0.688
  C  C393  1  0.664930  0.049300  0.898440  1.0  0.1486
  C  C394  1  0.746480  0.036640  0.844000  1.0  0.0612
  C  C395  1  0.730460  0.986900  0.854780  1.0  -0.165
  C  C396  1  0.621040  0.953880  0.913040  1.0  0.2298
  C  C397  1  0.652960  0.899820  0.902860  1.0  -0.1505
  C  C398  1  0.604960  0.858400  0.925680  1.0  -0.1359
  C  C399  1  0.528510  0.874520  0.957060  1.0  0.1477
  C  C400  1  0.496500  0.928600  0.966600  1.0  -0.1503
  C  C401  1  0.546440  0.968800  0.942120  1.0  -0.1289
  C  C402  1  0.453500  0.835220  0.015380  1.0  0.168
  C  C403  1  0.487330  0.780000  0.971140  1.0  -0.1633
  C  C404  1  0.451210  0.752740  0.001440  1.0  -0.018
  C  C405  1  0.263460  0.685180  0.368300  1.0  0.0463
  C  C406  1  0.210940  0.684980  0.332140  1.0  0.0435
  C  C407  1  0.371220  0.632180  0.371580  1.0  0.0794
  C  C408  1  0.145490  0.685700  0.397320  1.0  0.0557
  C  C409  1  0.313340  0.735680  0.371640  1.0  0.0448
  C  C410  1  0.154350  0.884620  0.361080  1.0  -0.0128
  C  C411  1  0.066620  0.876320  0.334240  1.0  0.058
  C  C412  1  0.214770  0.936680  0.351780  1.0  0.0803
  C  C413  1  0.074590  0.892520  0.397100  1.0  0.0591
  C  C414  1  0.271080  0.834980  0.360260  1.0  0.049
  C  C415  1  0.306650  0.695960  0.271740  1.0  0.343
  C  C416  1  0.196940  0.695600  0.257920  1.0  -0.2192
  C  C417  1  0.189990  0.707340  0.221880  1.0  -0.0461
  C  C418  1  0.296860  0.716720  0.200560  1.0  -0.1101
  C  C419  1  0.410200  0.718240  0.213960  1.0  -0.1
  C  C420  1  0.412770  0.707680  0.249780  1.0  -0.1523
  C  C421  1  0.284490  0.732460  0.161360  1.0  0.6829
  C  C422  1  0.385570  0.531860  0.376400  1.0  0.371
  C  C423  1  0.321860  0.487980  0.380100  1.0  -0.1503
  C  C424  1  0.381140  0.435100  0.387420  1.0  -0.1638
  C  C425  1  0.512220  0.423620  0.389540  1.0  -0.1405
  C  C426  1  0.579600  0.466820  0.384980  1.0  -0.0978
  C  C427  1  0.512070  0.521040  0.378220  1.0  -0.2247
  C  C428  1  0.584860  0.364240  0.398040  1.0  0.6655
  C  C429  1  0.117970  0.678160  0.461300  1.0  0.3187
  C  C430  1  0.179010  0.668740  0.491040  1.0  -0.2143
  C  C431  1  0.103600  0.668340  0.524460  1.0  -0.0262
  C  C432  1  0.973740  0.675660  0.527060  1.0  -0.1156
  C  C433  1  0.912500  0.685440  0.497360  1.0  -0.0301
  C  C434  1  0.982870  0.686740  0.463720  1.0  -0.2718
  C  C435  1  0.893820  0.677040  0.562720  1.0  0.6646
  C  C436  1  0.061390  0.863400  0.274220  1.0  0.372
  C  C437  1  0.935870  0.860080  0.278580  1.0  -0.1806
  C  C438  1  0.870420  0.854660  0.251100  1.0  -0.1613
  C  C439  1  0.937870  0.847600  0.217060  1.0  -0.1089
  C  C440  1  0.066810  0.850980  0.212600  1.0  -0.0818
  C  C441  1  0.126900  0.859300  0.241100  1.0  -0.1806
  C  C442  1  0.869420  0.838780  0.187380  1.0  0.6529
  C  C443  1  0.147830  0.036340  0.351000  1.0  0.2985
  C  C444  1  0.042730  0.082380  0.352360  1.0  -0.2038
  C  C445  1  0.064180  0.134860  0.353780  1.0  -0.0302
  C  C446  1  0.185610  0.144700  0.354080  1.0  -0.1862
  C  C447  1  0.289330  0.100060  0.351080  1.0  -0.0508
  C  C448  1  0.270020  0.043040  0.349120  1.0  -0.2463
  C  C449  1  0.211980  0.202380  0.358860  1.0  0.7148
  C  C450  1  0.135560  0.881820  0.455660  1.0  0.303
  C  C451  1  0.221370  0.896180  0.476680  1.0  -0.2144
  C  C452  1  0.221820  0.872680  0.511280  1.0  -0.104
  C  C453  1  0.146450  0.835100  0.522800  1.0  -0.0186
  C  C454  1  0.061620  0.824740  0.501820  1.0  -0.0489
  C  C455  1  0.059080  0.848020  0.467220  1.0  -0.1908
  C  C456  1  0.163430  0.805480  0.558860  1.0  0.6847
  C  C457  1  0.612670  0.950700  0.101560  1.0  0.1493
  C  C458  1  0.627120  0.963360  0.156000  1.0  0.0615
  C  C459  1  0.572140  0.013100  0.145220  1.0  -0.1693
  C  C460  1  0.487960  0.046120  0.086960  1.0  0.2301
  C  C461  1  0.455640  0.100180  0.097140  1.0  -0.1486
  C  C462  1  0.389040  0.141600  0.074320  1.0  -0.1341
  C  C463  1  0.360090  0.125480  0.042940  1.0  0.148
  C  C464  1  0.391700  0.071400  0.033400  1.0  -0.1502
  C  C465  1  0.457360  0.031200  0.057880  1.0  -0.13
  C  C466  1  0.304100  0.164780  0.984620  1.0  0.1666
  C  C467  1  0.238470  0.220000  0.028860  1.0  -0.1611
  C  C468  1  0.205390  0.247260  0.998560  1.0  -0.0168
  N  N469  1  0.830020  0.578140  0.629020  1.0  -0.4361
  N  N470  1  0.808280  0.495120  0.610120  1.0  0.0092
  N  N471  1  0.699460  0.289080  0.471800  1.0  -0.3371
  N  N472  1  0.717790  0.334220  0.519000  1.0  0.0487
  N  N473  1  0.037180  0.421860  0.370980  1.0  -0.4362
  N  N474  1  0.913520  0.504880  0.389880  1.0  0.0095
  N  N475  1  0.460340  0.710920  0.528200  1.0  -0.3396
  N  N476  1  0.571010  0.665780  0.481000  1.0  0.0481
  N  N477  1  0.709040  0.078140  0.870980  1.0  -0.4351
  N  N478  1  0.668400  0.995120  0.889880  1.0  0.0095
  N  N479  1  0.421260  0.789080  0.028200  1.0  -0.3393
  N  N480  1  0.486790  0.834220  0.981000  1.0  0.0484
  N  N481  1  0.658160  0.921860  0.129020  1.0  -0.4363
  N  N482  1  0.553400  0.004880  0.110120  1.0  0.0093
  N  N483  1  0.238540  0.210920  0.971800  1.0  -0.336
  N  N484  1  0.302010  0.165780  0.019000  1.0  0.0483
  O  O485  1  0.252110  0.715460  0.868320  1.0  -0.3168
  O  O486  1  0.259980  0.814160  0.806480  1.0  -0.288
  O  O487  1  0.145060  0.916600  0.870080  1.0  -0.2789
  O  O488  1  0.129690  0.820280  0.930140  1.0  -0.2731
  O  O489  1  0.253180  0.629760  0.800680  1.0  -0.2986
  O  O490  1  0.346230  0.515240  0.850900  1.0  -0.2825
  O  O491  1  0.304670  0.595460  0.922200  1.0  -0.2981
  O  O492  1  0.161400  0.768460  0.651540  1.0  -0.6312
  O  O493  1  0.378180  0.756220  0.642220  1.0  -0.6048
  O  O494  1  0.098850  0.175480  0.902420  1.0  -0.6524
  O  O495  1  0.307430  0.143220  0.900920  1.0  -0.5612
  O  O496  1  0.701110  0.829280  0.066500  1.0  -0.6393
  O  O497  1  0.878380  0.819060  0.090980  1.0  -0.6924
  O  O498  1  0.842810  0.659200  0.690780  1.0  -0.5981
  O  O499  1  0.014990  0.670500  0.656720  1.0  -0.683
  O  O500  1  0.603110  0.256720  0.860860  1.0  -0.6237
  O  O501  1  0.779510  0.292700  0.859880  1.0  -0.607
  O  O502  1  0.104270  0.716540  0.071120  1.0  -0.604
  O  O503  1  0.320970  0.694400  0.070060  1.0  -0.594
  O  O504  1  0.835890  0.284540  0.131680  1.0  -0.3165
  O  O505  1  0.880620  0.185840  0.193520  1.0  -0.2852
  O  O506  1  0.931740  0.083400  0.129920  1.0  -0.2814
  O  O507  1  0.880110  0.179720  0.069860  1.0  -0.2747
  O  O508  1  0.683620  0.370240  0.199320  1.0  -0.2962
  O  O509  1  0.712370  0.484760  0.149100  1.0  -0.2815
  O  O510  1  0.822330  0.404540  0.077800  1.0  -0.2972
  O  O511  1  0.581400  0.231540  0.348460  1.0  -0.6323
  O  O512  1  0.776620  0.243780  0.357780  1.0  -0.6037
  O  O513  1  0.176750  0.824520  0.097580  1.0  -0.6529
  O  O514  1  0.351570  0.856780  0.099080  1.0  -0.5613
  O  O515  1  0.596890  0.170720  0.933500  1.0  -0.6402
  O  O516  1  0.788420  0.180940  0.909020  1.0  -0.6936
  O  O517  1  0.192790  0.340800  0.309220  1.0  -0.6008
  O  O518  1  0.342210  0.329500  0.343280  1.0  -0.6833
  O  O519  1  0.720690  0.743280  0.139140  1.0  -0.6242
  O  O520  1  0.932090  0.707300  0.140120  1.0  -0.6059
  O  O521  1  0.891930  0.283460  0.928880  1.0  -0.6042
  O  O522  1  0.085430  0.305600  0.929940  1.0  -0.5945
  O  O523  1  0.370430  0.215460  0.631680  1.0  -0.3172
  O  O524  1  0.316460  0.314160  0.693520  1.0  -0.2854
  O  O525  1  0.265140  0.416600  0.629920  1.0  -0.2804
  O  O526  1  0.309830  0.320280  0.569860  1.0  -0.2747
  O  O527  1  0.303860  0.129760  0.699320  1.0  -0.2969
  O  O528  1  0.447130  0.015240  0.649100  1.0  -0.2819
  O  O529  1  0.476870  0.095460  0.577800  1.0  -0.2989
  O  O530  1  0.062940  0.268460  0.848460  1.0  -0.633
  O  O531  1  0.270400  0.256220  0.857780  1.0  -0.6045
  O  O532  1  0.251270  0.675480  0.597580  1.0  -0.6527
  O  O533  1  0.458350  0.643220  0.599080  1.0  -0.5611
  O  O534  1  0.017610  0.329280  0.433500  1.0  -0.6395
  O  O535  1  0.219360  0.319060  0.409020  1.0  -0.6939
  O  O536  1  0.783590  0.159200  0.809220  1.0  -0.6006
  O  O537  1  0.921710  0.170500  0.843280  1.0  -0.6833
  O  O538  1  0.713970  0.756720  0.639140  1.0  -0.6237
  O  O539  1  0.889390  0.792700  0.640120  1.0  -0.6062
  O  O540  1  0.425390  0.216540  0.428880  1.0  -0.6043
  O  O541  1  0.641030  0.194400  0.429940  1.0  -0.5944
  O  O542  1  0.217570  0.784540  0.368320  1.0  -0.3164
  O  O543  1  0.324140  0.685840  0.306480  1.0  -0.2891
  O  O544  1  0.311660  0.583400  0.370080  1.0  -0.281
  O  O545  1  0.199970  0.679720  0.430140  1.0  -0.2725
  O  O546  1  0.132940  0.870240  0.300680  1.0  -0.2982
  O  O547  1  0.111470  0.984760  0.350900  1.0  -0.2813
  O  O548  1  0.150130  0.904540  0.422200  1.0  -0.2961
  O  O549  1  0.179860  0.731540  0.151540  1.0  -0.6343
  O  O550  1  0.384400  0.743780  0.142220  1.0  -0.6051
  O  O551  1  0.524330  0.324520  0.402420  1.0  -0.6527
  O  O552  1  0.700650  0.356780  0.400920  1.0  -0.5615
  O  O553  1  0.780390  0.670720  0.566500  1.0  -0.6406
  O  O554  1  0.947440  0.680940  0.590980  1.0  -0.6929
  O  O555  1  0.752010  0.840800  0.190780  1.0  -0.5981
  O  O556  1  0.935490  0.829500  0.156720  1.0  -0.6833
  O  O557  1  0.109830  0.243280  0.360860  1.0  -0.6243
  O  O558  1  0.322210  0.207300  0.359880  1.0  -0.6068
  O  O559  1  0.070810  0.783460  0.571120  1.0  -0.6041
  O  O560  1  0.265370  0.805600  0.570060  1.0  -0.5937
