# generated using pymatgen
data_Mn6H94C131(N3O19)2
_symmetry_space_group_name_H-M   'P 1'
_cell_length_a   15.32690000
_cell_length_b   25.44110000
_cell_length_c   31.09600000
_cell_angle_alpha   73.24400000
_cell_angle_beta   80.17800000
_cell_angle_gamma   82.09300000
_symmetry_Int_Tables_number   1
_chemical_formula_structural   Mn6H94C131(N3O19)2
_chemical_formula_sum   'Mn12 H188 C262 N12 O76'
_cell_volume   11390.04394758
_cell_formula_units_Z   2
loop_
 _symmetry_equiv_pos_site_id
 _symmetry_equiv_pos_as_xyz
  1  'x, y, z'
loop_
 _atom_site_type_symbol
 _atom_site_label
 _atom_site_symmetry_multiplicity
 _atom_site_fract_x
 _atom_site_fract_y
 _atom_site_fract_z
 _atom_site_occupancy
 _atom_site_charge
  Mn  Mn1  1  0.447430  0.704090  0.925300  1.0  1.0982
  Mn  Mn2  1  0.956350  0.167880  0.976850  1.0  1.0976
  Mn  Mn3  1  0.219950  0.598120  0.514120  1.0  1.134
  Mn  Mn4  1  0.812380  0.117570  0.473410  1.0  1.0737
  Mn  Mn5  1  0.780050  0.401880  0.485880  1.0  1.1345
  Mn  Mn6  1  0.552570  0.295910  0.074700  1.0  1.0967
  Mn  Mn7  1  0.205960  0.738710  0.521770  1.0  1.1115
  Mn  Mn8  1  0.254300  0.770670  0.979820  1.0  1.1978
  Mn  Mn9  1  0.187620  0.882430  0.526590  1.0  1.0752
  Mn  Mn10  1  0.043650  0.832120  0.023150  1.0  1.1
  Mn  Mn11  1  0.745700  0.229330  0.020180  1.0  1.1976
  Mn  Mn12  1  0.794040  0.261290  0.478230  1.0  1.112
  H  H13  1  0.072400  0.240000  0.487600  1.0  0.0987
  H  H14  1  0.487300  0.818100  0.194600  1.0  0.075
  H  H15  1  0.447600  0.952600  0.211100  1.0  0.0678
  H  H16  1  0.778800  0.546400  0.715300  1.0  0.0776
  H  H17  1  0.094900  0.409400  0.122300  1.0  0.0844
  H  H18  1  0.919400  0.352400  0.300800  1.0  0.11
  H  H19  1  0.289900  0.041900  0.752000  1.0  0.0649
  H  H20  1  0.819700  0.705900  0.649500  1.0  0.125
  H  H21  1  0.718400  0.829400  0.451300  1.0  0.0895
  H  H22  1  0.166100  0.901200  0.111900  1.0  0.1041
  H  H23  1  0.646000  0.860800  0.197900  1.0  0.0846
  H  H24  1  0.611200  0.464000  0.385800  1.0  0.1057
  H  H25  1  0.449100  0.908500  0.443700  1.0  0.1261
  H  H26  1  0.865200  0.012100  0.037100  1.0  0.1102
  H  H27  1  0.743900  0.041000  0.214600  1.0  0.1346
  H  H28  1  0.898400  0.769000  0.719000  1.0  0.1399
  H  H29  1  0.550900  0.091500  0.556300  1.0  0.1258
  H  H30  1  0.134800  0.987900  0.962900  1.0  0.1105
  H  H31  1  0.639500  0.915500  0.322700  1.0  0.073
  H  H32  1  0.717900  0.909900  0.350900  1.0  0.0796
  H  H33  1  0.908300  0.314300  0.065900  1.0  0.1009
  H  H34  1  0.908800  0.016200  0.546500  1.0  0.1086
  H  H35  1  0.567700  0.349100  0.300200  1.0  0.1398
  H  H36  1  0.754600  0.111800  0.149000  1.0  0.0939
  H  H37  1  0.808000  0.445100  0.937700  1.0  0.1269
  H  H38  1  0.389600  0.188800  0.762400  1.0  0.0762
  H  H39  1  0.148900  0.704500  0.633600  1.0  0.1273
  H  H40  1  0.770800  0.852200  0.240100  1.0  0.0727
  H  H41  1  0.967400  0.569400  0.586200  1.0  0.1268
  H  H42  1  0.772700  0.969900  0.278600  1.0  0.0688
  H  H43  1  0.294200  0.619200  0.864500  1.0  0.1185
  H  H44  1  0.091200  0.983800  0.453500  1.0  0.1092
  H  H45  1  0.801600  0.645300  0.802900  1.0  0.0755
  H  H46  1  0.470600  0.052100  0.763100  1.0  0.0655
  H  H47  1  0.705800  0.380800  0.135500  1.0  0.1196
  H  H48  1  0.472400  0.404500  0.238000  1.0  0.0762
  H  H49  1  0.282100  0.090100  0.649100  1.0  0.0813
  H  H50  1  0.281600  0.170600  0.548700  1.0  0.0897
  H  H51  1  0.032600  0.430600  0.413800  1.0  0.1278
  H  H52  1  0.512700  0.181900  0.805400  1.0  0.0749
  H  H53  1  0.428600  0.372100  0.286400  1.0  0.0631
  H  H54  1  0.354400  0.896100  0.935000  1.0  0.1328
  H  H55  1  0.485900  0.502500  0.109500  1.0  0.1092
  H  H56  1  0.004100  0.953600  0.044600  1.0  0.1074
  H  H57  1  0.055000  0.403000  0.257700  1.0  0.0754
  H  H58  1  0.576200  0.914600  0.394000  1.0  0.0959
  H  H59  1  0.352500  0.516400  0.242900  1.0  0.0675
  H  H60  1  0.513900  0.427600  0.956000  1.0  0.1231
  H  H61  1  0.719400  0.494000  0.783700  1.0  0.0698
  H  H62  1  0.976500  0.806300  0.350800  1.0  0.1319
  H  H63  1  0.486100  0.572400  0.044000  1.0  0.1227
  H  H64  1  0.920500  0.212600  0.598300  1.0  0.1076
  H  H65  1  0.268000  0.187300  0.713500  1.0  0.0778
  H  H66  1  0.111900  0.146900  0.717600  1.0  0.0759
  H  H67  1  0.333200  0.679100  0.645000  1.0  0.1023
  H  H68  1  0.014800  0.485500  0.179800  1.0  0.0683
  H  H69  1  0.075800  0.040800  0.633600  1.0  0.1401
  H  H70  1  0.960000  0.824800  0.652100  1.0  0.1035
  H  H71  1  0.014300  0.936200  0.422200  1.0  0.0967
  H  H72  1  0.497100  0.037000  0.211100  1.0  0.1253
  H  H73  1  0.256100  0.959000  0.785400  1.0  0.1345
  H  H74  1  0.378800  0.814800  0.065600  1.0  0.092
  H  H75  1  0.778400  0.591600  0.841500  1.0  0.0797
  H  H76  1  0.354000  0.139200  0.802100  1.0  0.0842
  H  H77  1  0.785000  0.995900  0.456600  1.0  0.0945
  H  H78  1  0.423800  0.085400  0.606000  1.0  0.0964
  H  H79  1  0.843300  0.552000  0.639000  1.0  0.0995
  H  H80  1  0.952200  0.958900  0.160900  1.0  0.116
  H  H81  1  0.393700  0.872300  0.266700  1.0  0.0671
  H  H82  1  0.227300  0.030100  0.721400  1.0  0.0702
  H  H83  1  0.692500  0.410000  0.824300  1.0  0.1224
  H  H84  1  0.307500  0.590000  0.175700  1.0  0.1219
  H  H85  1  0.710100  0.958100  0.248000  1.0  0.0651
  H  H86  1  0.652000  0.597400  0.802200  1.0  0.077
  H  H87  1  0.237900  0.913100  0.166700  1.0  0.1397
  H  H88  1  0.606300  0.127700  0.733300  1.0  0.0596
  H  H89  1  0.068400  0.081700  0.448900  1.0  0.1252
  H  H90  1  0.749800  0.681300  0.400700  1.0  0.1336
  H  H91  1  0.683100  0.640200  0.756100  1.0  0.0806
  H  H92  1  0.198400  0.354700  0.197100  1.0  0.0733
  H  H93  1  0.159900  0.173800  0.668600  1.0  0.0624
  H  H94  1  0.763300  0.762100  0.414700  1.0  0.0856
  H  H95  1  0.180300  0.294100  0.350500  1.0  0.1256
  H  H96  1  0.080600  0.647600  0.699200  1.0  0.111
  H  H97  1  0.261400  0.959800  0.013100  1.0  0.1243
  H  H98  1  0.541500  0.174400  0.880400  1.0  0.1379
  H  H99  1  0.632000  0.012200  0.096000  1.0  0.0841
  H  H100  1  0.491400  0.507000  0.665600  1.0  0.1221
  H  H101  1  0.023500  0.601500  0.767400  1.0  0.0609
  H  H102  1  0.529400  0.947900  0.236900  1.0  0.0644
  H  H103  1  0.156700  0.448000  0.361000  1.0  0.1002
  H  H104  1  0.038300  0.575300  0.175300  1.0  0.1228
  H  H105  1  0.171400  0.400600  0.482600  1.0  0.1173
  H  H106  1  0.976500  0.398500  0.232600  1.0  0.0615
  H  H107  1  0.173500  0.132500  0.971300  1.0  0.0997
  H  H108  1  0.828600  0.599400  0.517400  1.0  0.1175
  H  H109  1  0.571400  0.627900  0.713600  1.0  0.0645
  H  H110  1  0.809000  0.419400  0.162100  1.0  0.1061
  H  H111  1  0.250200  0.318700  0.599300  1.0  0.1333
  H  H112  1  0.928700  0.646300  0.841800  1.0  0.0681
  H  H113  1  0.552400  0.047400  0.788900  1.0  0.0641
  H  H114  1  0.360500  0.084500  0.677300  1.0  0.0723
  H  H115  1  0.486300  0.868100  0.819300  1.0  0.1098
  H  H116  1  0.762100  0.086900  0.833300  1.0  0.1387
  H  H117  1  0.701200  0.546100  0.688300  1.0  0.0754
  H  H118  1  0.961700  0.424700  0.824700  1.0  0.1224
  H  H119  1  0.970100  0.332200  0.855400  1.0  0.1074
  H  H120  1  0.215000  0.004100  0.543400  1.0  0.0947
  H  H121  1  0.192000  0.554900  0.062300  1.0  0.1267
  H  H122  1  0.298800  0.453900  0.311700  1.0  0.0745
  H  H123  1  0.475400  0.864500  0.293100  1.0  0.0811
  H  H124  1  0.472300  0.084100  0.952900  1.0  0.114
  H  H125  1  0.734100  0.911700  0.461600  1.0  0.1289
  H  H126  1  0.101600  0.231000  0.281000  1.0  0.139
  H  H127  1  0.931600  0.918300  0.551100  1.0  0.1248
  H  H128  1  0.175100  0.649300  0.029600  1.0  0.0972
  H  H129  1  0.388800  0.536000  0.614200  1.0  0.1055
  H  H130  1  0.236700  0.237900  0.585300  1.0  0.0853
  H  H131  1  0.057900  0.156200  0.473700  1.0  0.1108
  H  H132  1  0.986100  0.651000  0.904900  1.0  0.1327
  H  H133  1  0.666800  0.320900  0.355000  1.0  0.1029
  H  H134  1  0.985200  0.514500  0.820200  1.0  0.066
  H  H135  1  0.966700  0.034000  0.096800  1.0  0.1015
  H  H136  1  0.229200  0.147800  0.759900  1.0  0.0743
  H  H137  1  0.945000  0.597000  0.742300  1.0  0.0745
  H  H138  1  0.040000  0.175200  0.347900  1.0  0.1037
  H  H139  1  0.013900  0.349000  0.095100  1.0  0.1312
  H  H140  1  0.837200  0.684400  0.532200  1.0  0.0837
  H  H141  1  0.901300  0.513500  0.797600  1.0  0.0645
  H  H142  1  0.458500  0.825600  0.119600  1.0  0.1382
  H  H143  1  0.524600  0.135500  0.706900  1.0  0.0815
  H  H144  1  0.280600  0.506000  0.216300  1.0  0.0691
  H  H145  1  0.432300  0.650900  0.699800  1.0  0.1403
  H  H146  1  0.704100  0.341300  0.890900  1.0  0.1006
  H  H147  1  0.833900  0.098800  0.888100  1.0  0.1039
  H  H148  1  0.098700  0.486500  0.202400  1.0  0.0626
  H  H149  1  0.047800  0.041100  0.839100  1.0  0.1155
  H  H150  1  0.513700  0.131900  0.180700  1.0  0.1101
  H  H151  1  0.245400  0.888200  0.851000  1.0  0.0927
  H  H152  1  0.824900  0.350700  0.970400  1.0  0.0965
  H  H153  1  0.905100  0.590600  0.877700  1.0  0.0851
  H  H154  1  0.669500  0.892800  0.063400  1.0  0.1153
  H  H155  1  0.942100  0.843800  0.526300  1.0  0.1121
  H  H156  1  0.621200  0.185200  0.934400  1.0  0.092
  H  H157  1  0.826500  0.867500  0.028700  1.0  0.0985
  H  H158  1  0.527700  0.915900  0.047100  1.0  0.1146
  H  H159  1  0.410900  0.244700  0.598700  1.0  0.1298
  H  H160  1  0.295900  0.658700  0.109100  1.0  0.1014
  H  H161  1  0.057300  0.277300  0.401400  1.0  0.0929
  H  H162  1  0.404700  0.936800  0.027500  1.0  0.1057
  H  H163  1  0.732000  0.812700  0.286500  1.0  0.0775
  H  H164  1  0.595300  0.063200  0.972500  1.0  0.1065
  H  H165  1  0.645600  0.103900  0.065000  1.0  0.1336
  H  H166  1  0.071300  0.353700  0.158200  1.0  0.068
  H  H167  1  0.023500  0.193700  0.649200  1.0  0.1328
  H  H168  1  0.514100  0.497500  0.890500  1.0  0.1092
  H  H169  1  0.538900  0.250200  0.549200  1.0  0.0915
  H  H170  1  0.221200  0.453600  0.284700  1.0  0.073
  H  H171  1  0.477800  0.129600  0.842000  1.0  0.07
  H  H172  1  0.330500  0.107200  0.936600  1.0  0.1153
  H  H173  1  0.851100  0.295500  0.366400  1.0  0.1273
  H  H174  1  0.610400  0.811200  0.237600  1.0  0.0745
  H  H175  1  0.647500  0.483600  0.757100  1.0  0.0678
  H  H176  1  0.079500  0.787400  0.401700  1.0  0.1069
  H  H177  1  0.461100  0.749800  0.450800  1.0  0.0906
  H  H178  1  0.508600  0.493000  0.334400  1.0  0.1225
  H  H179  1  0.942700  0.722700  0.598600  1.0  0.0934
  H  H180  1  0.985700  0.063800  0.577800  1.0  0.0976
  H  H181  1  0.029900  0.667800  0.144600  1.0  0.1076
  H  H182  1  0.888100  0.853100  0.282400  1.0  0.0729
  H  H183  1  0.527600  0.595500  0.762000  1.0  0.0773
  H  H184  1  0.191000  0.580600  0.837900  1.0  0.1056
  H  H185  1  0.162800  0.315600  0.467800  1.0  0.084
  H  H186  1  0.348000  0.402600  0.197800  1.0  0.0766
  H  H187  1  0.502900  0.963000  0.788900  1.0  0.1246
  H  H188  1  0.995900  0.046400  0.955400  1.0  0.1075
  H  H189  1  0.221600  0.408400  0.158500  1.0  0.0779
  H  H190  1  0.091700  0.685700  0.934100  1.0  0.1008
  H  H191  1  0.738600  0.040200  0.986900  1.0  0.1232
  H  H192  1  0.589100  0.755300  0.401300  1.0  0.1306
  H  H193  1  0.522200  0.870400  0.158000  1.0  0.0699
  H  H194  1  0.265900  0.088300  0.538400  1.0  0.1287
  H  H195  1  0.316900  0.359800  0.243900  1.0  0.077
  H  H196  1  0.368000  0.987800  0.904000  1.0  0.0839
  H  H197  1  0.927600  0.760000  0.512400  1.0  0.0986
  H  H198  1  0.840100  0.826200  0.331400  1.0  0.0627
  H  H199  1  0.033300  0.966000  0.903200  1.0  0.1006
  H  H200  1  0.924200  0.959200  0.366400  1.0  0.1399
  C  C201  1  0.311300  0.398400  0.227100  1.0  0.0618
  C  C202  1  0.985400  0.832700  0.364610  1.0  -0.2586
  C  C203  1  0.435900  0.985300  0.843200  1.0  0.3044
  C  C204  1  0.426100  0.628500  0.681900  1.0  -0.196
  C  C205  1  0.180400  0.010810  0.520230  1.0  0.1454
  C  C206  1  0.266800  0.893600  0.146500  1.0  -0.2528
  C  C207  1  0.339000  0.493200  0.225500  1.0  0.0837
  C  C208  1  0.786700  0.037900  0.190200  1.0  -0.3037
  C  C209  1  0.278100  0.038800  0.977000  1.0  0.2093
  C  C210  1  0.580200  0.188800  0.102900  1.0  0.6951
  C  C211  1  0.888100  0.334700  0.086700  1.0  -0.0613
  C  C212  1  0.455600  0.008700  0.994200  1.0  0.0361
  C  C213  1  0.887100  0.790300  0.503300  1.0  -0.1283
  C  C214  1  0.896700  0.840900  0.511000  1.0  -0.1483
  C  C215  1  0.600100  0.159400  0.881900  1.0  -0.2757
  C  C216  1  0.915200  0.270700  0.938220  1.0  0.6828
  C  C217  1  0.179400  0.315600  0.495200  1.0  -0.1496
  C  C218  1  0.358400  0.796570  0.350870  1.0  0.04
  C  C219  1  0.243100  0.113000  0.707000  1.0  0.0023
  C  C220  1  0.279100  0.674100  0.444700  1.0  0.2324
  C  C221  1  0.934000  0.410000  0.854000  1.0  -0.3034
  C  C222  1  0.103300  0.159100  0.489000  1.0  -0.1487
  C  C223  1  0.874100  0.975400  0.036500  1.0  -0.0702
  C  C224  1  0.389100  0.972300  0.010200  1.0  -0.1156
  C  C225  1  0.852700  0.365500  0.941100  1.0  -0.0356
  C  C226  1  0.648400  0.165300  0.914100  1.0  -0.0084
  C  C227  1  0.049000  0.056900  0.959400  1.0  -0.0273
  C  C228  1  0.170000  0.603300  0.856800  1.0  -0.1419
  C  C229  1  0.111900  0.665300  0.913300  1.0  -0.059
  C  C230  1  0.354800  0.870800  0.148800  1.0  0.253
  C  C231  1  0.415500  0.772900  0.320310  1.0  0.2383
  C  C232  1  0.723000  0.565700  0.706200  1.0  0.0631
  C  C233  1  0.943000  0.141600  0.581510  1.0  -0.0839
  C  C234  1  0.721600  0.520130  0.425340  1.0  -0.0617
  C  C235  1  0.235600  0.055000  0.738500  1.0  0.0453
  C  C236  1  0.227200  0.118800  0.527100  1.0  -0.1668
  C  C237  1  0.084800  0.729300  0.061780  1.0  0.682
  C  C238  1  0.386900  0.623800  0.070200  1.0  -0.1558
  C  C239  1  0.095200  0.412500  0.188500  1.0  0.0428
  C  C240  1  0.112900  0.209700  0.496700  1.0  -0.1266
  C  C241  1  0.491000  0.062500  0.787160  1.0  0.0761
  C  C242  1  0.610900  0.027700  0.989800  1.0  -0.1149
  C  C243  1  0.739500  0.314800  0.080600  1.0  0.6807
  C  C244  1  0.335700  0.706260  0.400910  1.0  -0.0626
  C  C245  1  0.474900  0.576000  0.686300  1.0  0.2486
  C  C246  1  0.720900  0.325900  0.555300  1.0  0.2346
  C  C247  1  0.923500  0.687600  0.607300  1.0  -0.0725
  C  C248  1  0.564100  0.014700  0.156800  1.0  0.3038
  C  C249  1  0.763900  0.831600  0.466900  1.0  -0.0979
  C  C250  1  0.392800  0.682590  0.370300  1.0  -0.037
  C  C251  1  0.889700  0.155980  0.543850  1.0  0.7064
  C  C252  1  0.810700  0.605400  0.811460  1.0  0.0592
  C  C253  1  0.066000  0.590000  0.146000  1.0  -0.3061
  C  C254  1  0.795500  0.080900  0.151300  1.0  -0.0188
  C  C255  1  0.697300  0.014200  0.997900  1.0  -0.2581
  C  C256  1  0.664300  0.372300  0.891000  1.0  -0.0119
  C  C257  1  0.515200  0.216400  0.560800  1.0  -0.0264
  C  C258  1  0.544400  0.991300  0.005800  1.0  0.0357
  C  C259  1  0.151300  0.321900  0.363000  1.0  -0.2306
  C  C260  1  0.476700  0.877400  0.435300  1.0  -0.1304
  C  C261  1  0.267800  0.856700  0.083000  1.0  -0.1901
  C  C262  1  0.937800  0.606400  0.848200  1.0  0.0565
  C  C263  1  0.783300  0.152400  0.953000  1.0  0.6841
  C  C264  1  0.137000  0.412900  0.369600  1.0  -0.1378
  C  C265  1  0.811300  0.632600  0.497300  1.0  -0.0894
  C  C266  1  0.448900  0.534800  0.109300  1.0  -0.204
  C  C267  1  0.351600  0.834700  0.085900  1.0  -0.0089
  C  C268  1  0.157700  0.009400  0.807900  1.0  0.3713
  C  C269  1  0.156800  0.577800  0.078200  1.0  -0.2324
  C  C270  1  0.721900  0.961200  0.023000  1.0  0.2088
  C  C271  1  0.772800  0.881200  0.472900  1.0  -0.1694
  C  C272  1  0.983400  0.701500  0.714200  1.0  0.2712
  C  C273  1  0.551100  0.465200  0.890700  1.0  -0.2038
  C  C274  1  0.645200  0.129200  0.851200  1.0  0.2465
  C  C275  1  0.681500  0.236800  0.608840  1.0  0.0314
  C  C276  1  0.954200  0.178600  0.604050  1.0  -0.0357
  C  C277  1  0.014600  0.167300  0.635390  1.0  -0.2589
  C  C278  1  0.133400  0.872900  0.927900  1.0  0.7043
  C  C279  1  0.664300  0.293740  0.599090  1.0  -0.062
  C  C280  1  0.765600  0.681700  0.428200  1.0  -0.2246
  C  C281  1  0.901900  0.282300  0.350230  1.0  -0.1061
  C  C282  1  0.078000  0.474400  0.179340  1.0  0.0744
  C  C283  1  0.943300  0.316000  0.310700  1.0  -0.183
  C  C284  1  0.820600  0.684400  0.504800  1.0  -0.1483
  C  C285  1  0.940100  0.884000  0.355170  1.0  0.3219
  C  C286  1  0.843200  0.422200  0.921800  1.0  -0.2331
  C  C287  1  0.277000  0.434300  0.293800  1.0  0.059
  C  C288  1  0.523300  0.122600  0.564700  1.0  -0.13
  C  C289  1  0.112600  0.000300  0.472200  1.0  0.0355
  C  C290  1  0.886500  0.444500  0.878600  1.0  0.2809
  C  C291  1  0.756900  0.887000  0.293000  1.0  0.0016
  C  C292  1  0.302000  0.633100  0.584300  1.0  0.762
  C  C293  1  0.584500  0.227100  0.679690  1.0  0.2361
  C  C294  1  0.515600  0.876200  0.222800  1.0  0.0349
  C  C295  1  0.920700  0.387200  0.132400  1.0  0.3038
  C  C296  1  0.560600  0.786600  0.409100  1.0  -0.241
  C  C297  1  0.189300  0.394600  0.188540  1.0  0.0599
  C  C298  1  0.059900  0.116000  0.644830  1.0  0.322
  C  C299  1  0.848700  0.678100  0.637000  1.0  -0.2366
  C  C300  1  0.016600  0.298500  0.285800  1.0  0.27
  C  C301  1  0.847100  0.860500  0.307800  1.0  0.0458
  C  C302  1  0.951000  0.943100  0.040600  1.0  -0.026
  C  C303  1  0.887400  0.999700  0.527800  1.0  0.0317
  C  C304  1  0.819600  0.989190  0.479770  1.0  0.1451
  C  C305  1  0.658200  0.566500  0.746800  1.0  0.0159
  C  C306  1  0.089100  0.010400  0.841500  1.0  -0.2468
  C  C307  1  0.960600  0.611260  0.765400  1.0  0.0447
  C  C308  1  0.447300  0.119300  0.595100  1.0  -0.1362
  C  C309  1  0.515900  0.142000  0.813450  1.0  0.0656
  C  C310  1  0.947000  0.755800  0.701400  1.0  -0.2283
  C  C311  1  0.026900  0.352700  0.410900  1.0  -0.0231
  C  C312  1  0.484100  0.858000  0.186550  1.0  0.0653
  C  C313  1  0.125900  0.024600  0.963500  1.0  -0.0781
  C  C314  1  0.039400  0.388740  0.234600  1.0  0.0446
  C  C315  1  0.430100  0.059100  0.966100  1.0  -0.128
  C  C316  1  0.234400  0.318300  0.571800  1.0  -0.2226
  C  C317  1  0.047200  0.076200  0.625100  1.0  -0.2503
  C  C318  1  0.939200  0.596600  0.599600  1.0  -0.1505
  C  C319  1  0.399900  0.840600  0.118100  1.0  -0.2753
  C  C320  1  0.357800  0.823500  0.484500  1.0  0.6767
  C  C321  1  0.641600  0.203430  0.649130  1.0  0.0417
  C  C322  1  0.830000  0.396700  0.143200  1.0  -0.1434
  C  C323  1  0.374000  0.668800  0.026300  1.0  0.6801
  C  C324  1  0.642200  0.176500  0.515500  1.0  0.6756
  C  C325  1  0.472400  0.949900  0.817800  1.0  -0.2226
  C  C326  1  0.419500  0.873000  0.879900  1.0  -0.1465
  C  C327  1  0.152900  0.139500  0.692200  1.0  0.045
  C  C328  1  0.046900  0.643900  0.896500  1.0  -0.1918
  C  C329  1  0.185800  0.372900  0.350900  1.0  0.2543
  C  C330  1  0.655600  0.926500  0.043100  1.0  -0.1797
  C  C331  1  0.055000  0.656200  0.558900  1.0  0.6727
  C  C332  1  0.076500  0.312400  0.392700  1.0  -0.0732
  C  C333  1  0.233500  0.626100  0.873000  1.0  -0.1045
  C  C334  1  0.527600  0.050100  0.182200  1.0  -0.2247
  C  C335  1  0.814200  0.627100  0.649100  1.0  0.2528
  C  C336  1  0.726200  0.577320  0.418840  1.0  -0.0821
  C  C337  1  0.432700  0.715900  0.330000  1.0  0.0055
  C  C338  1  0.633300  0.354800  0.351500  1.0  -0.0306
  C  C339  1  0.898100  0.945100  0.531700  1.0  -0.1261
  C  C340  1  0.776600  0.729200  0.436200  1.0  -0.1227
  C  C341  1  0.273800  0.422680  0.581160  1.0  -0.0798
  C  C342  1  0.484400  0.123800  0.777200  1.0  0.035
  C  C343  1  0.991600  0.089700  0.592780  1.0  -0.0017
  C  C344  1  0.366700  0.645200  0.648500  1.0  -0.0317
  C  C345  1  0.642300  0.387200  0.378600  1.0  -0.1155
  C  C346  1  0.419800  0.811200  0.897100  1.0  0.6963
  C  C347  1  0.567300  0.284100  0.670000  1.0  0.0043
  C  C348  1  0.866600  0.127100  0.072100  1.0  0.7079
  C  C349  1  0.097100  0.668800  0.082800  1.0  -0.1312
  C  C350  1  0.357700  0.612800  0.621400  1.0  -0.1156
  C  C351  1  0.733200  0.106400  0.853500  1.0  -0.2508
  C  C352  1  0.567500  0.591800  0.735000  1.0  0.088
  C  C353  1  0.919700  0.035100  0.119900  1.0  -0.0136
  C  C354  1  0.138900  0.919800  0.884000  1.0  -0.1486
  C  C355  1  0.609100  0.851000  0.227100  1.0  0.086
  C  C356  1  0.861100  0.080200  0.116000  1.0  -0.1478
  C  C357  1  0.953100  0.356100  0.103500  1.0  -0.1885
  C  C358  1  0.790100  0.530030  0.482410  1.0  -0.0243
  C  C359  1  0.775400  0.113700  0.886100  1.0  -0.0285
  C  C360  1  0.607600  0.036600  0.113200  1.0  -0.1269
  C  C361  1  0.852600  0.896800  0.032000  1.0  0.1631
  C  C362  1  0.806800  0.731400  0.474900  1.0  0.1266
  C  C363  1  0.558700  0.172400  0.546800  1.0  -0.1289
  C  C364  1  0.224600  0.886300  0.113900  1.0  -0.0309
  C  C365  1  0.269300  0.149400  0.731900  1.0  0.0789
  C  C366  1  0.223400  0.270800  0.563800  1.0  -0.1283
  C  C367  1  0.216700  0.847600  0.047000  1.0  0.6831
  C  C368  1  0.616400  0.091100  0.094300  1.0  -0.1478
  C  C369  1  0.607200  0.317410  0.629700  1.0  -0.0373
  C  C370  1  0.344400  0.073500  0.956900  1.0  -0.1787
  C  C371  1  0.062200  0.393600  0.151800  1.0  0.0568
  C  C372  1  0.552700  0.880700  0.404900  1.0  -0.1405
  C  C373  1  0.692200  0.892500  0.332700  1.0  0.0626
  C  C374  1  0.318500  0.763200  0.391160  1.0  0.0323
  C  C375  1  0.335700  0.627700  0.109000  1.0  -0.009
  C  C376  1  0.816200  0.785800  0.481800  1.0  0.1215
  C  C377  1  0.460900  0.541900  0.661500  1.0  -0.2021
  C  C378  1  0.221800  0.366300  0.538300  1.0  0.1662
  C  C379  1  0.060800  0.403400  0.400400  1.0  -0.1506
  C  C380  1  0.183800  0.214200  0.518200  1.0  0.1211
  C  C381  1  0.204500  0.919100  0.848700  1.0  -0.0198
  C  C382  1  0.569900  0.940900  0.033900  1.0  -0.1263
  C  C383  1  0.061600  0.771800  0.634900  1.0  -0.1109
  C  C384  1  0.863000  0.587100  0.630400  1.0  -0.1391
  C  C385  1  0.897700  0.190250  0.408100  1.0  0.6846
  C  C386  1  0.307800  0.107500  0.667300  1.0  0.0623
  C  C387  1  0.904800  0.587500  0.811500  1.0  0.0446
  C  C388  1  0.202300  0.657600  0.900600  1.0  -0.1267
  C  C389  1  0.057000  0.858400  0.418490  1.0  -0.0835
  C  C390  1  0.484800  0.783600  0.439200  1.0  -0.0291
  C  C391  1  0.260500  0.685200  0.919400  1.0  0.6817
  C  C392  1  0.938400  0.228200  0.365100  1.0  -0.111
  C  C393  1  0.973100  0.647300  0.589100  1.0  -0.0237
  C  C394  1  0.573900  0.371500  0.318100  1.0  -0.1943
  C  C395  1  0.059900  0.644900  0.127300  1.0  -0.0316
  C  C396  1  0.952800  0.923800  0.374900  1.0  -0.247
  C  C397  1  0.236100  0.168400  0.533100  1.0  -0.0967
  C  C398  1  0.688700  0.601600  0.772900  1.0  0.0606
  C  C399  1  0.390900  0.149000  0.772900  1.0  0.0842
  C  C400  1  0.188700  0.367400  0.502700  1.0  -0.0912
  C  C401  1  0.045800  0.821400  0.395950  1.0  -0.0334
  C  C402  1  0.161600  0.113700  0.504510  1.0  0.1734
  C  C403  1  0.580500  0.127000  0.120100  1.0  -0.1427
  C  C404  1  0.985500  0.788800  0.661900  1.0  -0.0248
  C  C405  1  0.940100  0.355100  0.872700  1.0  -0.0327
  C  C406  1  0.448200  0.575500  0.070100  1.0  -0.0952
  C  C407  1  0.730700  0.850600  0.268100  1.0  0.0814
  C  C408  1  0.302700  0.985800  0.002100  1.0  -0.2577
  C  C409  1  0.432500  0.408200  0.265000  1.0  0.0879
  C  C410  1  0.539100  0.458100  0.338500  1.0  -0.2003
  C  C411  1  0.945000  0.343800  0.441100  1.0  0.6749
  C  C412  1  0.613100  0.376200  0.929800  1.0  -0.1558
  C  C413  1  0.080300  0.964900  0.880100  1.0  -0.0147
  C  C414  1  0.209900  0.469970  0.517590  1.0  -0.0252
  C  C415  1  0.551800  0.424500  0.929900  1.0  -0.0954
  C  C416  1  0.110300  0.844020  0.456150  1.0  0.7073
  C  C417  1  0.732200  0.143300  0.917000  1.0  -0.1885
  C  C418  1  0.902900  0.331200  0.917200  1.0  -0.1336
  C  C419  1  0.546200  0.145000  0.731000  1.0  0.059
  C  C420  1  0.838400  0.886300  0.495490  1.0  0.1732
  C  C421  1  0.922000  0.525600  0.820660  1.0  0.0748
  C  C422  1  0.079300  0.612800  0.867600  1.0  0.305
  C  C423  1  0.778200  0.633700  0.461700  1.0  0.1661
  C  C424  1  0.439400  0.213400  0.590900  1.0  -0.2445
  C  C425  1  0.213300  0.962100  0.809800  1.0  -0.3058
  C  C426  1  0.193200  0.268600  0.525100  1.0  0.1265
  C  C427  1  0.603600  0.460700  0.850900  1.0  0.2986
  C  C428  1  0.056700  0.684000  0.689300  1.0  -0.1832
  C  C429  1  0.463000  0.892600  0.836500  1.0  -0.0685
  C  C430  1  0.797700  0.342400  0.099400  1.0  -0.1276
  C  C431  1  0.392400  0.963400  0.886800  1.0  -0.1247
  C  C432  1  0.147300  0.634500  0.058900  1.0  -0.0387
  C  C433  1  0.014500  0.211200  0.338100  1.0  -0.0299
  C  C434  1  0.008400  0.910300  0.407220  1.0  -0.002
  C  C435  1  0.404000  0.161400  0.610200  1.0  0.28
  C  C436  1  0.147400  0.103200  0.968000  1.0  0.162
  C  C437  1  0.842300  0.990600  0.192100  1.0  0.3635
  C  C438  1  0.053000  0.244200  0.298600  1.0  -0.2232
  C  C439  1  0.396400  0.539300  0.149100  1.0  0.2974
  C  C440  1  0.278400  0.479870  0.574660  1.0  -0.0585
  C  C441  1  0.101900  0.054900  0.468300  1.0  -0.1251
  C  C442  1  0.341600  0.585900  0.148900  1.0  -0.2302
  C  C443  1  0.341800  0.433500  0.253200  1.0  0.0171
  C  C444  1  0.400400  0.559900  0.629800  1.0  -0.0436
  C  C445  1  0.509000  0.937500  0.212840  1.0  0.077
  C  C446  1  0.596000  0.838600  0.389800  1.0  0.2785
  C  C447  1  0.383600  0.908900  0.905700  1.0  -0.142
  C  C448  1  0.626000  0.331200  0.973700  1.0  0.6819
  C  C449  1  0.113500  0.555500  0.121400  1.0  0.2809
  C  C450  1  0.661000  0.506800  0.774500  1.0  0.0843
  C  C451  1  0.102300  0.809750  0.591900  1.0  0.6852
  C  C452  1  0.525100  0.424000  0.313700  1.0  0.249
  C  C453  1  0.537000  0.107400  0.163500  1.0  -0.0722
  C  C454  1  0.764400  0.945000  0.261500  1.0  0.0464
  C  C455  1  0.910900  0.989600  0.158500  1.0  -0.2445
  C  C456  1  0.599600  0.440100  0.370200  1.0  -0.0429
  C  C457  1  0.441300  0.827600  0.453200  1.0  -0.1307
  C  C458  1  0.658400  0.414100  0.851100  1.0  -0.2278
  C  C459  1  0.698000  0.366900  0.415700  1.0  0.7619
  C  C460  1  0.766500  0.373900  0.127000  1.0  -0.1075
  C  C461  1  0.098100  0.717700  0.649770  1.0  -0.1052
  C  C462  1  0.453800  0.855000  0.269000  1.0  0.0593
  N  N463  1  0.768500  0.583440  0.454110  1.0  -0.07
  N  N464  1  0.851200  0.937310  0.502360  1.0  0.0438
  N  N465  1  0.938300  0.893140  0.038020  1.0  -0.4219
  N  N466  1  0.158000  0.972570  0.506620  1.0  -0.3872
  N  N467  1  0.231500  0.416560  0.545890  1.0  -0.0699
  N  N468  1  0.842000  0.027430  0.493380  1.0  -0.3878
  N  N469  1  0.238900  0.509100  0.535370  1.0  -0.1946
  N  N470  1  0.761100  0.490900  0.464630  1.0  -0.1971
  N  N471  1  0.809600  0.944690  0.031100  1.0  0.0027
  N  N472  1  0.190400  0.055310  0.968900  1.0  0.0002
  N  N473  1  0.148800  0.062690  0.497640  1.0  0.0434
  N  N474  1  0.061700  0.106860  0.961980  1.0  -0.4255
  O  O475  1  0.161200  0.055880  0.773560  1.0  -0.2729
  O  O476  1  0.752000  0.312640  0.526150  1.0  -0.6884
  O  O477  1  0.342800  0.679310  0.901610  1.0  -0.6029
  O  O478  1  0.325200  0.709530  0.027720  1.0  -0.5892
  O  O479  1  0.879600  0.901100  0.325050  1.0  -0.2743
  O  O480  1  0.068900  0.860550  0.580830  1.0  -0.5915
  O  O481  1  0.882000  0.119790  0.525540  1.0  -0.5992
  O  O482  1  0.737700  0.172690  0.981370  1.0  -0.6097
  O  O483  1  0.221000  0.416100  0.221040  1.0  -0.3183
  O  O484  1  0.686700  0.131950  0.507220  1.0  -0.6352
  O  O485  1  0.262300  0.379020  0.320910  1.0  -0.2844
  O  O486  1  0.395100  0.880440  0.181630  1.0  -0.2699
  O  O487  1  0.831600  0.206560  0.431730  1.0  -0.6597
  O  O488  1  0.729700  0.318760  0.424760  1.0  -0.5995
  O  O489  1  0.771100  0.288150  0.053240  1.0  -0.6041
  O  O490  1  0.779000  0.583900  0.778960  1.0  -0.3195
  O  O491  1  0.262300  0.827310  0.018630  1.0  -0.6099
  O  O492  1  0.120400  0.098900  0.674950  1.0  -0.2757
  O  O493  1  0.331300  0.160740  0.640980  1.0  -0.2732
  O  O494  1  0.147200  0.794910  0.467140  1.0  -0.6633
  O  O495  1  0.270300  0.681240  0.575240  1.0  -0.5982
  O  O496  1  0.059900  0.328820  0.245540  1.0  -0.2828
  O  O497  1  0.708500  0.400760  0.435730  1.0  -0.6173
  O  O498  1  0.291500  0.599240  0.564270  1.0  -0.6169
  O  O499  1  0.536400  0.554470  0.715280  1.0  -0.2806
  O  O500  1  0.672400  0.223460  0.498350  1.0  -0.6602
  O  O501  1  0.073800  0.879500  0.958740  1.0  -0.6038
  O  O502  1  0.135300  0.862820  0.050470  1.0  -0.5956
  O  O503  1  0.543800  0.218730  0.127860  1.0  -0.6215
  O  O504  1  0.917500  0.296670  0.453000  1.0  -0.6015
  O  O505  1  0.617500  0.208960  0.062650  1.0  -0.6711
  O  O506  1  0.099700  0.614620  0.546130  1.0  -0.6409
  O  O507  1  0.926200  0.120500  0.041260  1.0  -0.6033
  O  O508  1  0.327600  0.776540  0.501650  1.0  -0.6613
  O  O509  1  0.309700  0.618200  0.452600  1.0  -0.6296
  O  O510  1  0.967800  0.242290  0.917500  1.0  -0.5789
  O  O511  1  0.358000  0.128570  0.741230  1.0  -0.3143
  O  O512  1  0.545800  0.201390  0.721320  1.0  -0.2949
  O  O513  1  0.124500  0.498460  0.136010  1.0  -0.2767
  O  O514  1  0.674800  0.290470  0.972280  1.0  -0.5903
  O  O515  1  0.852800  0.205090  0.532860  1.0  -0.6639
  O  O516  1  0.875500  0.501540  0.863990  1.0  -0.2756
  O  O517  1  0.382500  0.791040  0.937350  1.0  -0.6727
  O  O518  1  0.456200  0.781270  0.872140  1.0  -0.6277
  O  O519  1  0.463600  0.445530  0.284720  1.0  -0.2817
  O  O520  1  0.931100  0.139450  0.419170  1.0  -0.5913
  O  O521  1  0.029800  0.588610  0.848080  1.0  -0.2651
  O  O522  1  0.940100  0.671180  0.754460  1.0  -0.2826
  O  O523  1  0.118000  0.880210  0.474460  1.0  -0.5994
  O  O524  1  0.690300  0.381800  0.547400  1.0  -0.6326
  O  O525  1  0.668700  0.839260  0.359020  1.0  -0.2716
  O  O526  1  0.864700  0.137180  0.949530  1.0  -0.5956
  O  O527  1  0.657200  0.320690  0.098390  1.0  -0.6014
  O  O528  1  0.642000  0.871430  0.258770  1.0  -0.3165
  O  O529  1  0.562200  0.958790  0.171120  1.0  -0.258
  O  O530  1  0.454200  0.798610  0.278680  1.0  -0.2963
  O  O531  1  0.405000  0.494560  0.186750  1.0  -0.2887
  O  O532  1  0.573900  0.343330  0.009170  1.0  -0.6588
  O  O533  1  0.125500  0.750490  0.022700  1.0  -0.6752
  O  O534  1  0.032200  0.757710  0.082500  1.0  -0.5771
  O  O535  1  0.737700  0.620980  0.679090  1.0  -0.286
  O  O536  1  0.900300  0.385380  0.453870  1.0  -0.6411
  O  O537  1  0.604900  0.119560  0.818370  1.0  -0.2676
  O  O538  1  0.168400  0.793440  0.568270  1.0  -0.6582
  O  O539  1  0.874500  0.249510  0.977300  1.0  -0.6739
  O  O540  1  0.192400  0.833310  0.928630  1.0  -0.6149
  O  O541  1  0.082500  0.703330  0.547000  1.0  -0.6017
  O  O542  1  0.838800  0.944120  0.226440  1.0  -0.269
  O  O543  1  0.807600  0.166690  0.071370  1.0  -0.6158
  O  O544  1  0.248000  0.687360  0.473850  1.0  -0.6846
  O  O545  1  0.970200  0.411390  0.151920  1.0  -0.2668
  O  O546  1  0.313300  0.868050  0.492780  1.0  -0.6358
  O  O547  1  0.595000  0.505440  0.813250  1.0  -0.292
  O  O548  1  0.228900  0.711850  0.946760  1.0  -0.6059
  O  O549  1  0.437800  0.041210  0.828880  1.0  -0.2596
  O  O550  1  0.426100  0.656670  0.990830  1.0  -0.6578
