# generated using pymatgen
data_TmH3(C3O2)3
_symmetry_space_group_name_H-M   'P 1'
_cell_length_a   10.80100000
_cell_length_b   10.90600000
_cell_length_c   15.55000000
_cell_angle_alpha   90.00000000
_cell_angle_beta   90.00000000
_cell_angle_gamma   100.40100000
_symmetry_Int_Tables_number   1
_chemical_formula_structural   TmH3(C3O2)3
_chemical_formula_sum   'Tm4 H12 C36 O24'
_cell_volume   1801.62493838
_cell_formula_units_Z   4
loop_
 _symmetry_equiv_pos_site_id
 _symmetry_equiv_pos_as_xyz
  1  'x, y, z'
loop_
 _atom_site_type_symbol
 _atom_site_label
 _atom_site_symmetry_multiplicity
 _atom_site_fract_x
 _atom_site_fract_y
 _atom_site_fract_z
 _atom_site_occupancy
 _atom_site_charge
  Tm  Tm1  1  0.356410  0.602110  0.897920  1.0  2.0871
  Tm  Tm2  1  0.143590  0.897890  0.397920  1.0  2.0888
  Tm  Tm3  1  0.643590  0.397890  0.102080  1.0  2.0888
  Tm  Tm4  1  0.856410  0.102110  0.602080  1.0  2.0871
  H  H5  1  0.318600  0.222600  0.185600  1.0  0.094
  H  H6  1  0.948100  0.181300  0.233500  1.0  0.1054
  H  H7  1  0.101500  0.409600  0.045000  1.0  0.1078
  H  H8  1  0.181400  0.277400  0.685600  1.0  0.0924
  H  H9  1  0.551900  0.318700  0.733500  1.0  0.1051
  H  H10  1  0.398500  0.090400  0.545000  1.0  0.108
  H  H11  1  0.681400  0.777400  0.814400  1.0  0.0923
  H  H12  1  0.051900  0.818700  0.766500  1.0  0.1054
  H  H13  1  0.898500  0.590400  0.955000  1.0  0.1079
  H  H14  1  0.818600  0.722600  0.314400  1.0  0.0935
  H  H15  1  0.448100  0.681300  0.266500  1.0  0.1054
  H  H16  1  0.601500  0.909600  0.455000  1.0  0.1079
  C  C17  1  0.340800  0.386500  0.056300  1.0  0.8458
  C  C18  1  0.228300  0.325300  0.108700  1.0  -0.2155
  C  C19  1  0.240200  0.242400  0.173400  1.0  0.0298
  C  C20  1  0.135200  0.187800  0.220900  1.0  -0.1729
  C  C21  1  0.018200  0.218300  0.202100  1.0  0.0343
  C  C22  1  0.004100  0.302200  0.137900  1.0  -0.1669
  C  C23  1  0.109600  0.355000  0.089600  1.0  0.0312
  C  C24  1  0.143800  0.097100  0.292100  1.0  0.6533
  C  C25  1  0.877900  0.335400  0.122200  1.0  0.6874
  C  C26  1  0.159200  0.113500  0.556300  1.0  0.8463
  C  C27  1  0.271700  0.174700  0.608700  1.0  -0.2145
  C  C28  1  0.259800  0.257600  0.673400  1.0  0.0301
  C  C29  1  0.364800  0.312200  0.720900  1.0  -0.1733
  C  C30  1  0.481800  0.281700  0.702100  1.0  0.035
  C  C31  1  0.495900  0.197800  0.637900  1.0  -0.1666
  C  C32  1  0.390400  0.145000  0.589600  1.0  0.0326
  C  C33  1  0.356200  0.402900  0.792100  1.0  0.6522
  C  C34  1  0.622100  0.164600  0.622200  1.0  0.6877
  C  C35  1  0.659200  0.613500  0.943700  1.0  0.8471
  C  C36  1  0.771700  0.674700  0.891300  1.0  -0.214
  C  C37  1  0.759800  0.757600  0.826600  1.0  0.0298
  C  C38  1  0.864800  0.812200  0.779100  1.0  -0.1726
  C  C39  1  0.981800  0.781700  0.797900  1.0  0.0346
  C  C40  1  0.995900  0.697800  0.862100  1.0  -0.1669
  C  C41  1  0.890400  0.645000  0.910400  1.0  0.0325
  C  C42  1  0.856200  0.902900  0.707900  1.0  0.6518
  C  C43  1  0.122100  0.664600  0.877800  1.0  0.6879
  C  C44  1  0.840800  0.886500  0.443700  1.0  0.8476
  C  C45  1  0.728300  0.825300  0.391300  1.0  -0.2156
  C  C46  1  0.740200  0.742400  0.326600  1.0  0.0296
  C  C47  1  0.635200  0.687800  0.279100  1.0  -0.1733
  C  C48  1  0.518200  0.718300  0.297900  1.0  0.0336
  C  C49  1  0.504100  0.802200  0.362100  1.0  -0.1669
  C  C50  1  0.609600  0.855000  0.410400  1.0  0.0307
  C  C51  1  0.643800  0.597100  0.207900  1.0  0.6525
  C  C52  1  0.377900  0.835400  0.377800  1.0  0.6876
  O  O53  1  0.329800  0.476200  0.010500  1.0  -0.7194
  O  O54  1  0.438100  0.336500  0.062700  1.0  -0.783
  O  O55  1  0.243700  0.054600  0.302000  1.0  -0.6387
  O  O56  1  0.049400  0.060000  0.338400  1.0  -0.6421
  O  O57  1  0.864100  0.410000  0.063700  1.0  -0.624
  O  O58  1  0.787500  0.288400  0.169600  1.0  -0.704
  O  O59  1  0.170200  0.023800  0.510500  1.0  -0.7193
  O  O60  1  0.061900  0.163500  0.562700  1.0  -0.7924
  O  O61  1  0.256300  0.445400  0.802000  1.0  -0.6411
  O  O62  1  0.450600  0.440000  0.838400  1.0  -0.6417
  O  O63  1  0.635900  0.090000  0.563700  1.0  -0.6239
  O  O64  1  0.712500  0.211600  0.669600  1.0  -0.7122
  O  O65  1  0.670200  0.523800  0.989500  1.0  -0.7187
  O  O66  1  0.561900  0.663500  0.937300  1.0  -0.7935
  O  O67  1  0.756300  0.945400  0.698000  1.0  -0.6399
  O  O68  1  0.950600  0.940000  0.661600  1.0  -0.6411
  O  O69  1  0.135900  0.590000  0.936300  1.0  -0.6231
  O  O70  1  0.212500  0.711600  0.830400  1.0  -0.7127
  O  O71  1  0.829800  0.976200  0.489500  1.0  -0.7193
  O  O72  1  0.938100  0.836500  0.437300  1.0  -0.7879
  O  O73  1  0.743700  0.554600  0.198000  1.0  -0.6374
  O  O74  1  0.549400  0.560000  0.161600  1.0  -0.6413
  O  O75  1  0.364100  0.910000  0.436300  1.0  -0.6239
  O  O76  1  0.287500  0.788400  0.330400  1.0  -0.7086
