# generated using pymatgen
data_Li3Ni2C30(NO3)6
_symmetry_space_group_name_H-M   'P 1'
_cell_length_a   18.60500000
_cell_length_b   18.60500000
_cell_length_c   14.90400000
_cell_angle_alpha   90.00000000
_cell_angle_beta   90.00000000
_cell_angle_gamma   120.00000000
_symmetry_Int_Tables_number   1
_chemical_formula_structural   Li3Ni2C30(NO3)6
_chemical_formula_sum   'Li6 Ni4 C60 N12 O36'
_cell_volume   4467.79072593
_cell_formula_units_Z   2
loop_
 _symmetry_equiv_pos_site_id
 _symmetry_equiv_pos_as_xyz
  1  'x, y, z'
loop_
 _atom_site_type_symbol
 _atom_site_label
 _atom_site_symmetry_multiplicity
 _atom_site_fract_x
 _atom_site_fract_y
 _atom_site_fract_z
 _atom_site_occupancy
 _atom_site_charge
  Li  Li1  1  0.500000  0.000000  0.000000  1.0  0.9053
  Li  Li2  1  0.000000  0.500000  0.000000  1.0  0.9053
  Li  Li3  1  0.500000  0.500000  0.000000  1.0  0.9053
  Li  Li4  1  0.500000  0.000000  0.500000  1.0  0.9053
  Li  Li5  1  0.000000  0.500000  0.500000  1.0  0.9053
  Li  Li6  1  0.500000  0.500000  0.500000  1.0  0.9053
  Ni  Ni7  1  0.333333  0.666667  0.020000  1.0  0.7526
  Ni  Ni8  1  0.666667  0.333333  0.520000  1.0  0.7526
  Ni  Ni9  1  0.666667  0.333333  0.980000  1.0  0.7542
  Ni  Ni10  1  0.333333  0.666667  0.480000  1.0  0.7542
  C  C11  1  0.465000  0.767500  0.168500  1.0  0.1273
  C  C12  1  0.529900  0.750100  0.167700  1.0  -0.0302
  C  C13  1  0.442700  0.840500  0.053700  1.0  0.5972
  C  C14  1  0.394400  0.834300  0.967400  1.0  0.5656
  C  C15  1  0.232500  0.697500  0.168500  1.0  0.1247
  C  C16  1  0.249900  0.779800  0.167700  1.0  -0.0226
  C  C17  1  0.159500  0.602200  0.053700  1.0  0.5999
  C  C18  1  0.165700  0.560100  0.967400  1.0  0.563
  C  C19  1  0.302500  0.535000  0.168500  1.0  0.1275
  C  C20  1  0.220200  0.470100  0.167700  1.0  -0.0261
  C  C21  1  0.397800  0.557300  0.053700  1.0  0.5979
  C  C22  1  0.439900  0.605600  0.967400  1.0  0.5664
  C  C23  1  0.535000  0.232500  0.668500  1.0  0.1277
  C  C24  1  0.470100  0.249900  0.667700  1.0  -0.0289
  C  C25  1  0.557300  0.159500  0.553700  1.0  0.5969
  C  C26  1  0.605600  0.165700  0.467400  1.0  0.5634
  C  C27  1  0.767500  0.302500  0.668500  1.0  0.1239
  C  C28  1  0.750100  0.220200  0.667700  1.0  -0.0223
  C  C29  1  0.840500  0.397800  0.553700  1.0  0.5995
  C  C30  1  0.834300  0.439900  0.467400  1.0  0.5648
  C  C31  1  0.697500  0.465000  0.668500  1.0  0.1281
  C  C32  1  0.779800  0.529900  0.667700  1.0  -0.0262
  C  C33  1  0.602200  0.442700  0.553700  1.0  0.5979
  C  C34  1  0.560100  0.394400  0.467400  1.0  0.5663
  C  C35  1  0.535000  0.232500  0.831500  1.0  0.1293
  C  C36  1  0.470100  0.249900  0.832300  1.0  -0.0344
  C  C37  1  0.557300  0.159500  0.946300  1.0  0.5968
  C  C38  1  0.605600  0.165700  0.032600  1.0  0.5663
  C  C39  1  0.767500  0.302500  0.831500  1.0  0.125
  C  C40  1  0.750100  0.220200  0.832300  1.0  -0.0263
  C  C41  1  0.840500  0.397800  0.946300  1.0  0.5994
  C  C42  1  0.834300  0.439900  0.032600  1.0  0.5639
  C  C43  1  0.697500  0.465000  0.831500  1.0  0.1293
  C  C44  1  0.779800  0.529900  0.832300  1.0  -0.0305
  C  C45  1  0.602200  0.442700  0.946300  1.0  0.598
  C  C46  1  0.560100  0.394400  0.032600  1.0  0.5651
  C  C47  1  0.465000  0.767500  0.331500  1.0  0.1286
  C  C48  1  0.529900  0.750100  0.332300  1.0  -0.0362
  C  C49  1  0.442700  0.840500  0.446300  1.0  0.597
  C  C50  1  0.394400  0.834300  0.532600  1.0  0.5635
  C  C51  1  0.232500  0.697500  0.331500  1.0  0.1263
  C  C52  1  0.249900  0.779800  0.332300  1.0  -0.0272
  C  C53  1  0.159500  0.602200  0.446300  1.0  0.6002
  C  C54  1  0.165700  0.560100  0.532600  1.0  0.5639
  C  C55  1  0.302500  0.535000  0.331500  1.0  0.1293
  C  C56  1  0.220200  0.470100  0.332300  1.0  -0.0294
  C  C57  1  0.397800  0.557300  0.446300  1.0  0.5979
  C  C58  1  0.439900  0.605600  0.532600  1.0  0.5678
  C  C59  1  0.434200  0.777800  0.250000  1.0  -0.0065
  C  C60  1  0.561200  0.741200  0.250000  1.0  0.0071
  C  C61  1  0.222200  0.656400  0.250000  1.0  -0.0045
  C  C62  1  0.258800  0.820000  0.250000  1.0  0.0115
  C  C63  1  0.343600  0.565800  0.250000  1.0  -0.0048
  C  C64  1  0.180000  0.438800  0.250000  1.0  0.0097
  C  C65  1  0.565800  0.222200  0.750000  1.0  -0.0044
  C  C66  1  0.438800  0.258800  0.750000  1.0  -0.0253
  C  C67  1  0.777800  0.343600  0.750000  1.0  -0.0061
  C  C68  1  0.741200  0.180000  0.750000  1.0  0.0107
  C  C69  1  0.656400  0.434200  0.750000  1.0  -0.0058
  C  C70  1  0.820000  0.561200  0.750000  1.0  0.0131
  N  N71  1  0.425800  0.769000  0.086600  1.0  -0.3757
  N  N72  1  0.231000  0.656800  0.086600  1.0  -0.3758
  N  N73  1  0.343200  0.574200  0.086600  1.0  -0.3769
  N  N74  1  0.574200  0.231000  0.586600  1.0  -0.3754
  N  N75  1  0.769000  0.343200  0.586600  1.0  -0.376
  N  N76  1  0.656800  0.425800  0.586600  1.0  -0.3756
  N  N77  1  0.574200  0.231000  0.913400  1.0  -0.3753
  N  N78  1  0.769000  0.343200  0.913400  1.0  -0.3753
  N  N79  1  0.656800  0.425800  0.913400  1.0  -0.3754
  N  N80  1  0.425800  0.769000  0.413400  1.0  -0.3751
  N  N81  1  0.231000  0.656800  0.413400  1.0  -0.375
  N  N82  1  0.343200  0.574200  0.413400  1.0  -0.377
  O  O83  1  0.493700  0.912800  0.082900  1.0  -0.5372
  O  O84  1  0.409300  0.901900  0.932200  1.0  -0.5307
  O  O85  1  0.343900  0.763300  0.937800  1.0  -0.5246
  O  O86  1  0.087200  0.580900  0.082900  1.0  -0.5385
  O  O87  1  0.098100  0.507400  0.932200  1.0  -0.5284
  O  O88  1  0.236700  0.580600  0.937800  1.0  -0.5198
  O  O89  1  0.419100  0.506300  0.082900  1.0  -0.5388
  O  O90  1  0.492600  0.590700  0.932200  1.0  -0.5293
  O  O91  1  0.419400  0.656100  0.937800  1.0  -0.5215
  O  O92  1  0.506300  0.087200  0.582900  1.0  -0.5384
  O  O93  1  0.590700  0.098100  0.432200  1.0  -0.5295
  O  O94  1  0.656100  0.236700  0.437800  1.0  -0.5224
  O  O95  1  0.912800  0.419100  0.582900  1.0  -0.5388
  O  O96  1  0.901900  0.492600  0.432200  1.0  -0.5299
  O  O97  1  0.763300  0.419400  0.437800  1.0  -0.5203
  O  O98  1  0.580900  0.493700  0.582900  1.0  -0.5385
  O  O99  1  0.507400  0.409300  0.432200  1.0  -0.5294
  O  O100  1  0.580600  0.343900  0.437800  1.0  -0.5214
  O  O101  1  0.506300  0.087200  0.917100  1.0  -0.5377
  O  O102  1  0.590700  0.098100  0.067800  1.0  -0.5297
  O  O103  1  0.656100  0.236700  0.062200  1.0  -0.5213
  O  O104  1  0.912800  0.419100  0.917100  1.0  -0.5387
  O  O105  1  0.901900  0.492600  0.067800  1.0  -0.5288
  O  O106  1  0.763300  0.419400  0.062200  1.0  -0.5207
  O  O107  1  0.580900  0.493700  0.917100  1.0  -0.5387
  O  O108  1  0.507400  0.409300  0.067800  1.0  -0.5304
  O  O109  1  0.580600  0.343900  0.062200  1.0  -0.5238
  O  O110  1  0.493700  0.912800  0.417100  1.0  -0.538
  O  O111  1  0.409300  0.901900  0.567800  1.0  -0.5306
  O  O112  1  0.343900  0.763300  0.562200  1.0  -0.525
  O  O113  1  0.087200  0.580900  0.417100  1.0  -0.5383
  O  O114  1  0.098100  0.507400  0.567800  1.0  -0.5296
  O  O115  1  0.236700  0.580600  0.562200  1.0  -0.5201
  O  O116  1  0.419100  0.506300  0.417100  1.0  -0.5383
  O  O117  1  0.492600  0.590700  0.567800  1.0  -0.5297
  O  O118  1  0.419400  0.656100  0.562200  1.0  -0.5201
