# generated using pymatgen
data_La2H4C11N4O11
_symmetry_space_group_name_H-M   'P 1'
_cell_length_a   8.52100000
_cell_length_b   15.38000000
_cell_length_c   18.47700000
_cell_angle_alpha   90.00000000
_cell_angle_beta   90.00000000
_cell_angle_gamma   90.00000000
_symmetry_Int_Tables_number   1
_chemical_formula_structural   La2H4C11N4O11
_chemical_formula_sum   'La8 H16 C44 N16 O44'
_cell_volume   2421.46591146
_cell_formula_units_Z   4
loop_
 _symmetry_equiv_pos_site_id
 _symmetry_equiv_pos_as_xyz
  1  'x, y, z'
loop_
 _atom_site_type_symbol
 _atom_site_label
 _atom_site_symmetry_multiplicity
 _atom_site_fract_x
 _atom_site_fract_y
 _atom_site_fract_z
 _atom_site_occupancy
 _atom_site_charge
  La  La1  1  0.656040  0.715540  0.383240  1.0  2.1827
  La  La2  1  0.843960  0.215540  0.616760  1.0  2.1832
  La  La3  1  0.343960  0.284460  0.883240  1.0  2.1826
  La  La4  1  0.156040  0.784460  0.116760  1.0  2.183
  La  La5  1  0.343960  0.284460  0.616760  1.0  2.1831
  La  La6  1  0.156040  0.784460  0.383240  1.0  2.1826
  La  La7  1  0.656040  0.715540  0.116760  1.0  2.1832
  La  La8  1  0.843960  0.215540  0.883240  1.0  2.1827
  H  H9  1  0.479600  0.981000  0.586300  1.0  0.141
  H  H10  1  0.033300  0.951000  0.544200  1.0  0.269
  H  H11  1  0.020400  0.481000  0.413700  1.0  0.1404
  H  H12  1  0.466700  0.451000  0.455800  1.0  0.2677
  H  H13  1  0.520400  0.019000  0.086300  1.0  0.1409
  H  H14  1  0.966700  0.049000  0.044200  1.0  0.2682
  H  H15  1  0.979600  0.519000  0.913700  1.0  0.1405
  H  H16  1  0.533300  0.549000  0.955800  1.0  0.2697
  H  H17  1  0.520400  0.019000  0.413700  1.0  0.1403
  H  H18  1  0.966700  0.049000  0.455800  1.0  0.268
  H  H19  1  0.979600  0.519000  0.586300  1.0  0.1407
  H  H20  1  0.533300  0.549000  0.544200  1.0  0.2696
  H  H21  1  0.479600  0.981000  0.913700  1.0  0.1406
  H  H22  1  0.033300  0.951000  0.955800  1.0  0.2692
  H  H23  1  0.020400  0.481000  0.086300  1.0  0.141
  H  H24  1  0.466700  0.451000  0.044200  1.0  0.268
  C  C25  1  0.469100  0.821900  0.496500  1.0  0.6657
  C  C26  1  0.359100  0.885000  0.528100  1.0  0.0586
  C  C27  1  0.383300  0.959700  0.569000  1.0  -0.1472
  C  C28  1  0.237300  0.996000  0.578900  1.0  -0.066
  C  C29  1  0.185900  0.078600  0.612200  1.0  0.7675
  C  C30  1  0.030900  0.321900  0.503500  1.0  0.6638
  C  C31  1  0.140900  0.385000  0.471900  1.0  0.0579
  C  C32  1  0.116700  0.459700  0.431000  1.0  -0.1518
  C  C33  1  0.262700  0.496000  0.421100  1.0  -0.0654
  C  C34  1  0.314100  0.578600  0.387800  1.0  0.7659
  C  C35  1  0.530900  0.178100  0.996500  1.0  0.6645
  C  C36  1  0.640900  0.115000  0.028100  1.0  0.0601
  C  C37  1  0.616700  0.040300  0.069000  1.0  -0.1515
  C  C38  1  0.762700  0.004000  0.078900  1.0  -0.0648
  C  C39  1  0.814100  0.921400  0.112200  1.0  0.7663
  C  C40  1  0.969100  0.678100  0.003500  1.0  0.6657
  C  C41  1  0.859100  0.615000  0.971900  1.0  0.0601
  C  C42  1  0.883300  0.540300  0.931000  1.0  -0.1483
  C  C43  1  0.737300  0.504000  0.921100  1.0  -0.0656
  C  C44  1  0.685900  0.421400  0.887800  1.0  0.767
  C  C45  1  0.530900  0.178100  0.503500  1.0  0.6639
  C  C46  1  0.640900  0.115000  0.471900  1.0  0.0599
  C  C47  1  0.616700  0.040300  0.431000  1.0  -0.1515
  C  C48  1  0.762700  0.004000  0.421100  1.0  -0.0654
  C  C49  1  0.814100  0.921400  0.387800  1.0  0.7655
  C  C50  1  0.969100  0.678100  0.496500  1.0  0.6663
  C  C51  1  0.859100  0.615000  0.528100  1.0  0.0604
  C  C52  1  0.883300  0.540300  0.569000  1.0  -0.1465
  C  C53  1  0.737300  0.504000  0.578900  1.0  -0.0651
  C  C54  1  0.685900  0.421400  0.612200  1.0  0.767
  C  C55  1  0.469100  0.821900  0.003500  1.0  0.6652
  C  C56  1  0.359100  0.885000  0.971900  1.0  0.0585
  C  C57  1  0.383300  0.959700  0.931000  1.0  -0.1487
  C  C58  1  0.237300  0.996000  0.921100  1.0  -0.0654
  C  C59  1  0.185900  0.078600  0.887800  1.0  0.7674
  C  C60  1  0.030900  0.321900  0.996500  1.0  0.6642
  C  C61  1  0.140900  0.385000  0.028100  1.0  0.058
  C  C62  1  0.116700  0.459700  0.069000  1.0  -0.1519
  C  C63  1  0.262700  0.496000  0.078900  1.0  -0.0658
  C  C64  1  0.314100  0.578600  0.112200  1.0  0.7667
  C  C65  1  0.469700  0.750900  0.250000  1.0  1.076
  C  C66  1  0.030300  0.250900  0.750000  1.0  1.0767
  C  C67  1  0.530300  0.249100  0.750000  1.0  1.0765
  C  C68  1  0.969700  0.749100  0.250000  1.0  1.0757
  N  N69  1  0.134200  0.942300  0.545100  1.0  0.0349
  N  N70  1  0.204300  0.875000  0.513600  1.0  -0.3853
  N  N71  1  0.365800  0.442300  0.454900  1.0  0.0277
  N  N72  1  0.295700  0.375000  0.486400  1.0  -0.3847
  N  N73  1  0.865800  0.057700  0.045100  1.0  0.0292
  N  N74  1  0.795700  0.125000  0.013600  1.0  -0.3865
  N  N75  1  0.634200  0.557700  0.954900  1.0  0.035
  N  N76  1  0.704300  0.625000  0.986400  1.0  -0.3841
  N  N77  1  0.865800  0.057700  0.454900  1.0  0.0274
  N  N78  1  0.795700  0.125000  0.486400  1.0  -0.3848
  N  N79  1  0.634200  0.557700  0.545100  1.0  0.0345
  N  N80  1  0.704300  0.625000  0.513600  1.0  -0.3852
  N  N81  1  0.134200  0.942300  0.954900  1.0  0.0333
  N  N82  1  0.204300  0.875000  0.986400  1.0  -0.3843
  N  N83  1  0.365800  0.442300  0.045100  1.0  0.0281
  N  N84  1  0.295700  0.375000  0.013600  1.0  -0.386
  O  O85  1  0.610300  0.824600  0.509900  1.0  -0.5978
  O  O86  1  0.411000  0.765900  0.454200  1.0  -0.7619
  O  O87  1  0.042800  0.094100  0.609100  1.0  -0.7504
  O  O88  1  0.290000  0.125300  0.638700  1.0  -0.6663
  O  O89  1  0.413300  0.773500  0.310800  1.0  -0.8541
  O  O90  1  0.889700  0.324600  0.490100  1.0  -0.5975
  O  O91  1  0.089000  0.265900  0.545800  1.0  -0.7618
  O  O92  1  0.457200  0.594100  0.390900  1.0  -0.7503
  O  O93  1  0.210000  0.625300  0.361300  1.0  -0.6681
  O  O94  1  0.086700  0.273500  0.689200  1.0  -0.8551
  O  O95  1  0.389700  0.175400  0.009900  1.0  -0.5986
  O  O96  1  0.589000  0.234100  0.954200  1.0  -0.7625
  O  O97  1  0.957200  0.905900  0.109100  1.0  -0.7504
  O  O98  1  0.710000  0.874700  0.138700  1.0  -0.6673
  O  O99  1  0.586700  0.226500  0.810800  1.0  -0.8521
  O  O100  1  0.110300  0.675400  0.990100  1.0  -0.5988
  O  O101  1  0.911000  0.734100  0.045800  1.0  -0.7625
  O  O102  1  0.542800  0.405900  0.890900  1.0  -0.7509
  O  O103  1  0.790000  0.374700  0.861300  1.0  -0.6688
  O  O104  1  0.913300  0.726500  0.189200  1.0  -0.8544
  O  O105  1  0.389700  0.175400  0.490100  1.0  -0.598
  O  O106  1  0.589000  0.234100  0.545800  1.0  -0.7623
  O  O107  1  0.957200  0.905900  0.390900  1.0  -0.7499
  O  O108  1  0.710000  0.874700  0.361300  1.0  -0.669
  O  O109  1  0.586700  0.226500  0.689200  1.0  -0.8541
  O  O110  1  0.110300  0.675400  0.509900  1.0  -0.5954
  O  O111  1  0.911000  0.734100  0.454200  1.0  -0.7624
  O  O112  1  0.542800  0.405900  0.609100  1.0  -0.7508
  O  O113  1  0.790000  0.374700  0.638700  1.0  -0.6674
  O  O114  1  0.913300  0.726500  0.310800  1.0  -0.8531
  O  O115  1  0.610300  0.824600  0.990100  1.0  -0.5987
  O  O116  1  0.411000  0.765900  0.045800  1.0  -0.7622
  O  O117  1  0.042800  0.094100  0.890900  1.0  -0.7509
  O  O118  1  0.290000  0.125300  0.861300  1.0  -0.6688
  O  O119  1  0.413300  0.773500  0.189200  1.0  -0.8549
  O  O120  1  0.889700  0.324600  0.009900  1.0  -0.5955
  O  O121  1  0.089000  0.265900  0.954200  1.0  -0.762
  O  O122  1  0.457200  0.594100  0.109100  1.0  -0.7506
  O  O123  1  0.210000  0.625300  0.138700  1.0  -0.666
  O  O124  1  0.086700  0.273500  0.810800  1.0  -0.8536
  O  O125  1  0.596400  0.705700  0.250000  1.0  -0.8396
  O  O126  1  0.903600  0.205700  0.750000  1.0  -0.839
  O  O127  1  0.403600  0.294300  0.750000  1.0  -0.8407
  O  O128  1  0.096400  0.794300  0.250000  1.0  -0.8421
