# generated using pymatgen
data_Cu3H2(C4O5)2
_symmetry_space_group_name_H-M   'P 1'
_cell_length_a   5.64370000
_cell_length_b   9.15070000
_cell_length_c   12.83570000
_cell_angle_alpha   90.00000000
_cell_angle_beta   90.00000000
_cell_angle_gamma   95.89200000
_symmetry_Int_Tables_number   1
_chemical_formula_structural   Cu3H2(C4O5)2
_chemical_formula_sum   'Cu6 H4 C16 O20'
_cell_volume   659.38248319
_cell_formula_units_Z   2
loop_
 _symmetry_equiv_pos_site_id
 _symmetry_equiv_pos_as_xyz
  1  'x, y, z'
loop_
 _atom_site_type_symbol
 _atom_site_label
 _atom_site_symmetry_multiplicity
 _atom_site_fract_x
 _atom_site_fract_y
 _atom_site_fract_z
 _atom_site_occupancy
 _atom_site_charge
  Cu  Cu1  1  0.012360  0.539360  0.111720  1.0  1.0448
  Cu  Cu2  1  0.987640  0.960640  0.611720  1.0  1.0451
  Cu  Cu3  1  0.987640  0.460640  0.888280  1.0  1.0446
  Cu  Cu4  1  0.012360  0.039360  0.388280  1.0  1.0452
  Cu  Cu5  1  0.500000  0.000000  0.500000  1.0  1.0263
  Cu  Cu6  1  0.500000  0.500000  0.000000  1.0  1.0269
  H  H7  1  0.777000  0.839000  0.467000  1.0  0.497
  H  H8  1  0.223000  0.661000  0.967000  1.0  0.4948
  H  H9  1  0.223000  0.161000  0.533000  1.0  0.4948
  H  H10  1  0.777000  0.339000  0.033000  1.0  0.4965
  C  C11  1  0.366700  0.758600  0.211430  1.0  0.2219
  C  C12  1  0.460000  0.860500  0.291590  1.0  0.2161
  C  C13  1  0.693900  0.874800  0.242920  1.0  0.2033
  C  C14  1  0.605100  0.767400  0.162480  1.0  0.2324
  C  C15  1  0.633300  0.741400  0.711430  1.0  0.2224
  C  C16  1  0.540000  0.639500  0.791590  1.0  0.2166
  C  C17  1  0.306100  0.625200  0.742920  1.0  0.2034
  C  C18  1  0.394900  0.732600  0.662480  1.0  0.2312
  C  C19  1  0.633300  0.241400  0.788570  1.0  0.2223
  C  C20  1  0.540000  0.139500  0.708410  1.0  0.2168
  C  C21  1  0.306100  0.125200  0.757080  1.0  0.2038
  C  C22  1  0.394900  0.232600  0.837520  1.0  0.2324
  C  C23  1  0.366700  0.258600  0.288570  1.0  0.2216
  C  C24  1  0.460000  0.360500  0.208410  1.0  0.2162
  C  C25  1  0.693900  0.374800  0.257080  1.0  0.2033
  C  C26  1  0.605100  0.267400  0.337520  1.0  0.2325
  O  O27  1  0.163500  0.694600  0.197920  1.0  -0.4623
  O  O28  1  0.362000  0.909400  0.371970  1.0  -0.5249
  O  O29  1  0.891600  0.947900  0.259120  1.0  -0.4574
  O  O30  1  0.695200  0.706900  0.087090  1.0  -0.4976
  O  O31  1  0.805900  0.915820  0.482900  1.0  -0.9882
  O  O32  1  0.836500  0.805400  0.697920  1.0  -0.4541
  O  O33  1  0.638000  0.590600  0.871970  1.0  -0.5238
  O  O34  1  0.108400  0.552100  0.759120  1.0  -0.4608
  O  O35  1  0.304800  0.793100  0.587090  1.0  -0.4986
  O  O36  1  0.194100  0.584180  0.982900  1.0  -0.988
  O  O37  1  0.836500  0.305400  0.802080  1.0  -0.4532
  O  O38  1  0.638000  0.090600  0.628030  1.0  -0.5233
  O  O39  1  0.108400  0.052100  0.740880  1.0  -0.4634
  O  O40  1  0.304800  0.293100  0.912910  1.0  -0.4983
  O  O41  1  0.194100  0.084180  0.517100  1.0  -0.9885
  O  O42  1  0.163500  0.194600  0.302080  1.0  -0.4604
  O  O43  1  0.362000  0.409400  0.128030  1.0  -0.5244
  O  O44  1  0.891600  0.447900  0.240880  1.0  -0.4593
  O  O45  1  0.695200  0.206900  0.412910  1.0  -0.4978
  O  O46  1  0.805900  0.415820  0.017100  1.0  -0.9882
