# generated using pymatgen
data_Mn3H8C4(N10Cl)2
_symmetry_space_group_name_H-M   'P 1'
_cell_length_a   9.33480000
_cell_length_b   9.36060000
_cell_length_c   13.00090000
_cell_angle_alpha   90.00000000
_cell_angle_beta   90.00000000
_cell_angle_gamma   91.28200000
_symmetry_Int_Tables_number   1
_chemical_formula_structural   Mn3H8C4(N10Cl)2
_chemical_formula_sum   'Mn6 H16 C8 N40 Cl4'
_cell_volume   1135.72555927
_cell_formula_units_Z   2
loop_
 _symmetry_equiv_pos_site_id
 _symmetry_equiv_pos_as_xyz
  1  'x, y, z'
loop_
 _atom_site_type_symbol
 _atom_site_label
 _atom_site_symmetry_multiplicity
 _atom_site_fract_x
 _atom_site_fract_y
 _atom_site_fract_z
 _atom_site_occupancy
 _atom_site_charge
  Mn  Mn1  1  0.783610  0.514380  0.757300  1.0  0.9744
  Mn  Mn2  1  0.716390  0.985620  0.257300  1.0  0.9756
  Mn  Mn3  1  0.500000  0.000000  0.500000  1.0  0.9876
  Mn  Mn4  1  0.216390  0.485620  0.242700  1.0  0.9762
  Mn  Mn5  1  0.283610  0.014380  0.742700  1.0  0.975
  Mn  Mn6  1  0.000000  0.500000  0.000000  1.0  0.9876
  H  H7  1  0.485800  0.419200  0.873000  1.0  0.3203
  H  H8  1  0.019400  0.152100  0.591500  1.0  0.3343
  H  H9  1  0.367200  0.310500  0.866600  1.0  0.3286
  H  H10  1  0.014200  0.080800  0.373000  1.0  0.3214
  H  H11  1  0.519400  0.652100  0.908500  1.0  0.3356
  H  H12  1  0.132800  0.189500  0.366600  1.0  0.3278
  H  H13  1  0.480600  0.347900  0.091500  1.0  0.3347
  H  H14  1  0.096400  0.741300  0.402200  1.0  0.345
  H  H15  1  0.596400  0.241300  0.097800  1.0  0.344
  H  H16  1  0.867200  0.810500  0.633400  1.0  0.3288
  H  H17  1  0.903600  0.258700  0.597800  1.0  0.3455
  H  H18  1  0.980600  0.847900  0.408500  1.0  0.3357
  H  H19  1  0.514200  0.580800  0.127000  1.0  0.3204
  H  H20  1  0.403600  0.758700  0.902200  1.0  0.3456
  H  H21  1  0.632800  0.689500  0.133400  1.0  0.3284
  H  H22  1  0.985800  0.919200  0.627000  1.0  0.3202
  C  C23  1  0.003000  0.794700  0.744200  1.0  0.586
  C  C24  1  0.014700  0.248300  0.723200  1.0  0.5577
  C  C25  1  0.985300  0.751700  0.276800  1.0  0.5592
  C  C26  1  0.485300  0.251700  0.223200  1.0  0.5586
  C  C27  1  0.514700  0.748300  0.776800  1.0  0.5581
  C  C28  1  0.997000  0.205300  0.255800  1.0  0.5864
  C  C29  1  0.497000  0.705300  0.244200  1.0  0.5859
  C  C30  1  0.503000  0.294700  0.755800  1.0  0.5865
  N  N31  1  0.445000  0.347900  0.842300  1.0  -0.7599
  N  N32  1  0.622200  0.347100  0.710820  1.0  -0.3587
  N  N33  1  0.129700  0.251000  0.865670  1.0  -0.1511
  N  N34  1  0.471700  0.156900  0.371690  1.0  -0.018
  N  N35  1  0.547700  0.154900  0.282800  1.0  -0.4057
  N  N36  1  0.961500  0.329100  0.120650  1.0  -0.0065
  N  N37  1  0.877800  0.152900  0.210820  1.0  -0.3602
  N  N38  1  0.377800  0.652900  0.289180  1.0  -0.3595
  N  N39  1  0.051300  0.315500  0.202070  1.0  -0.4027
  N  N40  1  0.948700  0.684500  0.797930  1.0  -0.4021
  N  N41  1  0.974300  0.215700  0.625600  1.0  -0.7777
  N  N42  1  0.047700  0.654900  0.217200  1.0  -0.4058
  N  N43  1  0.875700  0.812800  0.227520  1.0  -0.3742
  N  N44  1  0.028300  0.343100  0.871690  1.0  -0.0174
  N  N45  1  0.870300  0.749000  0.134330  1.0  -0.1529
  N  N46  1  0.945000  0.847900  0.657700  1.0  -0.7603
  N  N47  1  0.528300  0.843100  0.628310  1.0  -0.0154
  N  N48  1  0.038500  0.670900  0.879350  1.0  -0.0075
  N  N49  1  0.641300  0.266100  0.625640  1.0  -0.1099
  N  N50  1  0.551300  0.815500  0.297930  1.0  -0.4029
  N  N51  1  0.461500  0.829100  0.379350  1.0  -0.0069
  N  N52  1  0.474300  0.715700  0.874400  1.0  -0.7784
  N  N53  1  0.124300  0.187200  0.772480  1.0  -0.3741
  N  N54  1  0.122200  0.847100  0.789180  1.0  -0.3591
  N  N55  1  0.629700  0.751000  0.634330  1.0  -0.1508
  N  N56  1  0.141300  0.766100  0.874360  1.0  -0.1169
  N  N57  1  0.025700  0.784300  0.374400  1.0  -0.7781
  N  N58  1  0.358700  0.733900  0.374360  1.0  -0.1215
  N  N59  1  0.555000  0.652100  0.157700  1.0  -0.7601
  N  N60  1  0.538500  0.170900  0.620650  1.0  -0.0071
  N  N61  1  0.624300  0.687200  0.727520  1.0  -0.3741
  N  N62  1  0.952300  0.345100  0.782800  1.0  -0.4066
  N  N63  1  0.055000  0.152100  0.342300  1.0  -0.7589
  N  N64  1  0.375700  0.312800  0.272480  1.0  -0.3743
  N  N65  1  0.370300  0.249000  0.365670  1.0  -0.1552
  N  N66  1  0.452300  0.845100  0.717200  1.0  -0.4066
  N  N67  1  0.971700  0.656900  0.128310  1.0  -0.0165
  N  N68  1  0.525700  0.284300  0.125600  1.0  -0.7783
  N  N69  1  0.858700  0.233900  0.125640  1.0  -0.1157
  N  N70  1  0.448700  0.184500  0.702070  1.0  -0.4022
  Cl  Cl71  1  0.765980  0.007360  0.451630  1.0  -0.5699
  Cl  Cl72  1  0.265980  0.507360  0.048370  1.0  -0.5699
  Cl  Cl73  1  0.234020  0.992640  0.548370  1.0  -0.5709
  Cl  Cl74  1  0.734020  0.492640  0.951630  1.0  -0.571
