# generated using pymatgen
data_Zn5H9C27O19
_symmetry_space_group_name_H-M   'P 1'
_cell_length_a   19.73900000
_cell_length_b   28.42450000
_cell_length_c   28.42450000
_cell_angle_alpha   61.59500000
_cell_angle_beta   69.68270000
_cell_angle_gamma   69.68270000
_symmetry_Int_Tables_number   1
_chemical_formula_structural   Zn5H9C27O19
_chemical_formula_sum   'Zn40 H72 C216 O152'
_cell_volume   12830.97947935
_cell_formula_units_Z   8
loop_
 _symmetry_equiv_pos_site_id
 _symmetry_equiv_pos_as_xyz
  1  'x, y, z'
loop_
 _atom_site_type_symbol
 _atom_site_label
 _atom_site_symmetry_multiplicity
 _atom_site_fract_x
 _atom_site_fract_y
 _atom_site_fract_z
 _atom_site_occupancy
 _atom_site_charge
  Zn  Zn1  1  0.967100  0.282900  0.782900  1.0  1.1635
  Zn  Zn2  1  0.352270  0.943640  0.802660  1.0  0.93
  Zn  Zn3  1  0.240910  0.895740  0.895740  1.0  1.048
  Zn  Zn4  1  0.205750  0.592950  0.592950  1.0  0.988
  Zn  Zn5  1  0.967100  0.782900  0.282900  1.0  1.1635
  Zn  Zn6  1  0.967610  0.395740  0.395740  1.0  1.0492
  Zn  Zn7  1  0.642420  0.550640  0.680780  1.0  1.0443
  Zn  Zn8  1  0.585120  0.575810  0.575820  1.0  1.0032
  Zn  Zn9  1  0.873840  0.949360  0.819220  1.0  1.0395
  Zn  Zn10  1  0.126160  0.180780  0.050640  1.0  1.0407
  Zn  Zn11  1  0.352270  0.802660  0.943640  1.0  0.9344
  Zn  Zn12  1  0.807490  0.520660  0.014450  1.0  1.1269
  Zn  Zn13  1  0.098570  0.556360  0.697340  1.0  0.9317
  Zn  Zn14  1  0.263260  0.075810  0.075810  1.0  1.0033
  Zn  Zn15  1  0.192510  0.479340  0.985550  1.0  1.1208
  Zn  Zn16  1  0.391650  0.907050  0.907050  1.0  0.9873
  Zn  Zn17  1  0.032900  0.217100  0.717100  1.0  1.1659
  Zn  Zn18  1  0.608350  0.092950  0.092950  1.0  0.988
  Zn  Zn19  1  0.736740  0.924190  0.924190  1.0  1.0039
  Zn  Zn20  1  0.759090  0.104260  0.104260  1.0  1.0497
  Zn  Zn21  1  0.901430  0.443640  0.302660  1.0  0.9301
  Zn  Zn22  1  0.642420  0.680780  0.550640  1.0  1.0408
  Zn  Zn23  1  0.357580  0.319220  0.449360  1.0  1.0404
  Zn  Zn24  1  0.342600  0.485550  0.979350  1.0  1.1271
  Zn  Zn25  1  0.032900  0.717100  0.217100  1.0  1.1659
  Zn  Zn26  1  0.414880  0.424190  0.424180  1.0  1.0028
  Zn  Zn27  1  0.126160  0.050640  0.180780  1.0  1.041
  Zn  Zn28  1  0.873840  0.819220  0.949360  1.0  1.0404
  Zn  Zn29  1  0.794250  0.407050  0.407050  1.0  0.9881
  Zn  Zn30  1  0.807500  0.014450  0.520650  1.0  1.1269
  Zn  Zn31  1  0.032390  0.604260  0.604260  1.0  1.0509
  Zn  Zn32  1  0.657390  0.020660  0.514450  1.0  1.1198
  Zn  Zn33  1  0.342610  0.979340  0.485550  1.0  1.1271
  Zn  Zn34  1  0.357580  0.449360  0.319220  1.0  1.0411
  Zn  Zn35  1  0.901430  0.302660  0.443640  1.0  0.9331
  Zn  Zn36  1  0.657400  0.514450  0.020650  1.0  1.1206
  Zn  Zn37  1  0.098570  0.697340  0.556360  1.0  0.9326
  Zn  Zn38  1  0.192500  0.985550  0.479350  1.0  1.1198
  Zn  Zn39  1  0.647730  0.056360  0.197340  1.0  0.9314
  Zn  Zn40  1  0.647730  0.197340  0.056360  1.0  0.9324
  H  H41  1  0.762600  0.978900  0.695100  1.0  0.1214
  H  H42  1  0.436600  0.521100  0.804900  1.0  0.1221
  H  H43  1  0.762600  0.695100  0.978900  1.0  0.1211
  H  H44  1  0.173300  0.423600  0.292400  1.0  0.1217
  H  H45  1  0.201900  0.602100  0.312700  1.0  0.1223
  H  H46  1  0.724100  0.060800  0.948600  1.0  0.1105
  H  H47  1  0.883300  0.812700  0.102100  1.0  0.1218
  H  H48  1  0.883300  0.102100  0.812700  1.0  0.1219
  H  H49  1  0.110700  0.792400  0.923600  1.0  0.1211
  H  H50  1  0.566700  0.688800  0.972800  1.0  0.1174
  H  H51  1  0.433300  0.027200  0.311200  1.0  0.1183
  H  H52  1  0.398400  0.056600  0.168200  1.0  0.1166
  H  H53  1  0.798100  0.397900  0.687300  1.0  0.1221
  H  H54  1  0.690700  0.544100  0.856100  1.0  0.125
  H  H55  1  0.376800  0.556600  0.668200  1.0  0.1164
  H  H56  1  0.826700  0.576400  0.707600  1.0  0.1216
  H  H57  1  0.808100  0.905200  0.189200  1.0  0.1224
  H  H58  1  0.902500  0.594800  0.310800  1.0  0.1224
  H  H59  1  0.116700  0.187300  0.897900  1.0  0.1223
  H  H60  1  0.288500  0.666667  0.940700  1.0  0.1194
  H  H61  1  0.733500  0.439200  0.551400  1.0  0.1108
  H  H62  1  0.104100  0.166700  0.440700  1.0  0.1203
  H  H63  1  0.690700  0.856100  0.544100  1.0  0.1244
  H  H64  1  0.090900  0.955900  0.643900  1.0  0.1259
  H  H65  1  0.909100  0.356100  0.044100  1.0  0.1253
  H  H66  1  0.889300  0.076400  0.207600  1.0  0.1211
  H  H67  1  0.566700  0.972800  0.688800  1.0  0.118
  H  H68  1  0.110700  0.923600  0.792400  1.0  0.1214
  H  H69  1  0.563400  0.195100  0.478900  1.0  0.1209
  H  H70  1  0.563400  0.478900  0.195100  1.0  0.122
  H  H71  1  0.601600  0.943400  0.831800  1.0  0.1155
  H  H72  1  0.309300  0.143900  0.455900  1.0  0.1242
  H  H73  1  0.309300  0.455900  0.143900  1.0  0.1246
  H  H74  1  0.895900  0.559300  0.833300  1.0  0.1212
  H  H75  1  0.237400  0.021100  0.304900  1.0  0.1212
  H  H76  1  0.104100  0.440700  0.166700  1.0  0.1214
  H  H77  1  0.201900  0.312700  0.602100  1.0  0.1217
  H  H78  1  0.275900  0.051400  0.939200  1.0  0.111
  H  H79  1  0.191900  0.094800  0.810800  1.0  0.122
  H  H80  1  0.266500  0.448600  0.560800  1.0  0.1108
  H  H81  1  0.808100  0.189200  0.905200  1.0  0.1228
  H  H82  1  0.771700  0.188800  0.472800  1.0  0.1171
  H  H83  1  0.275900  0.939200  0.051400  1.0  0.1112
  H  H84  1  0.228300  0.811200  0.527200  1.0  0.117
  H  H85  1  0.909100  0.044100  0.356100  1.0  0.1253
  H  H86  1  0.724100  0.948600  0.060800  1.0  0.1105
  H  H87  1  0.889300  0.207600  0.076400  1.0  0.1211
  H  H88  1  0.711500  0.059300  0.333333  1.0  0.1201
  H  H89  1  0.711500  0.333333  0.059300  1.0  0.1193
  H  H90  1  0.398400  0.168200  0.056600  1.0  0.1162
  H  H91  1  0.826700  0.707600  0.576400  1.0  0.1221
  H  H92  1  0.623200  0.443400  0.331800  1.0  0.1156
  H  H93  1  0.228300  0.527200  0.811200  1.0  0.1165
  H  H94  1  0.623200  0.331800  0.443400  1.0  0.1153
  H  H95  1  0.895900  0.833300  0.559300  1.0  0.1201
  H  H96  1  0.376800  0.668200  0.556600  1.0  0.1159
  H  H97  1  0.097500  0.689200  0.405200  1.0  0.122
  H  H98  1  0.436600  0.804900  0.521100  1.0  0.1211
  H  H99  1  0.097500  0.405200  0.689200  1.0  0.1229
  H  H100  1  0.173300  0.292400  0.423600  1.0  0.1223
  H  H101  1  0.433300  0.311200  0.027200  1.0  0.1179
  H  H102  1  0.191900  0.810800  0.094800  1.0  0.1221
  H  H103  1  0.601600  0.831800  0.943400  1.0  0.1154
  H  H104  1  0.902500  0.310800  0.594800  1.0  0.122
  H  H105  1  0.116700  0.897900  0.187300  1.0  0.1224
  H  H106  1  0.733500  0.551400  0.439200  1.0  0.1109
  H  H107  1  0.798100  0.687300  0.397900  1.0  0.1226
  H  H108  1  0.090900  0.643900  0.955900  1.0  0.125
  H  H109  1  0.288500  0.940700  0.666667  1.0  0.12
  H  H110  1  0.771700  0.472800  0.188800  1.0  0.1166
  H  H111  1  0.237400  0.304900  0.021100  1.0  0.1214
  H  H112  1  0.266500  0.560800  0.448600  1.0  0.1106
  C  C113  1  0.764540  0.295040  0.443080  1.0  0.7337
  C  C114  1  0.197170  0.128480  0.973980  1.0  0.7451
  C  C115  1  0.807410  0.898790  0.160190  1.0  0.0103
  C  C116  1  0.807410  0.160190  0.898790  1.0  0.0091
  C  C117  1  0.285270  0.287480  0.026580  1.0  0.0515
  C  C118  1  0.771370  0.413580  0.039680  1.0  0.7339
  C  C119  1  0.234930  0.583320  0.424620  1.0  0.0486
  C  C120  1  0.757130  0.083320  0.924620  1.0  0.0482
  C  C121  1  0.818150  0.569040  0.744460  1.0  0.0414
  C  C122  1  0.140930  0.180270  0.440470  1.0  0.0329
  C  C123  1  0.618530  0.794500  0.951440  1.0  0.0312
  C  C124  1  0.818150  0.744460  0.569040  1.0  0.0424
  C  C125  1  0.670810  0.182270  0.478910  1.0  -0.158
  C  C126  1  0.618530  0.951440  0.794500  1.0  0.0315
  C  C127  1  0.775370  0.539680  0.913580  1.0  0.733
  C  C128  1  0.131650  0.930960  0.755540  1.0  0.0401
  C  C129  1  0.305560  0.005230  0.378650  1.0  0.7234
  C  C130  1  0.402180  0.030530  0.291110  1.0  0.0406
  C  C131  1  0.309440  0.040190  0.231530  1.0  -0.1603
  C  C132  1  0.581160  0.459810  0.268470  1.0  -0.158
  C  C133  1  0.364470  0.705500  0.548560  1.0  0.0335
  C  C134  1  0.750310  0.779390  0.558790  1.0  -0.1073
  C  C135  1  0.145660  0.848080  0.147600  1.0  -0.1689
  C  C136  1  0.249690  0.441210  0.220610  1.0  -0.1082
  C  C137  1  0.820540  0.564460  0.374460  1.0  -0.1505
  C  C138  1  0.804070  0.051120  0.354340  1.0  -0.1601
  C  C139  1  0.802530  0.879220  0.074320  1.0  -0.1559
  C  C140  1  0.238330  0.940470  0.680270  1.0  0.0339
  C  C141  1  0.168080  0.487020  0.632420  1.0  0.6587
  C  C142  1  0.209530  0.145660  0.448880  1.0  -0.158
  C  C143  1  0.310560  0.505230  0.878650  1.0  0.7243
  C  C144  1  0.790470  0.551120  0.854340  1.0  -0.1591
  C  C145  1  0.803400  0.656800  0.391600  1.0  0.0514
  C  C146  1  0.093110  0.811620  0.185760  1.0  0.7382
  C  C147  1  0.994000  0.258300  0.052900  1.0  0.5885
  C  C148  1  0.597820  0.708890  0.969470  1.0  0.0399
  C  C149  1  0.831920  0.512980  0.367580  1.0  0.6576
  C  C150  1  0.088490  0.941210  0.720610  1.0  -0.1071
  C  C151  1  0.285270  0.026580  0.287480  1.0  0.0499
  C  C152  1  0.133610  0.660190  0.398790  1.0  0.0093
  C  C153  1  0.504040  0.452760  0.303360  1.0  0.7386
  C  C154  1  0.859070  0.819730  0.559530  1.0  0.034
  C  C155  1  0.181850  0.430960  0.255540  1.0  0.0422
  C  C156  1  0.668010  0.682270  0.978910  1.0  -0.1579
  C  C157  1  0.250220  0.924500  0.772460  1.0  0.6223
  C  C158  1  0.181850  0.255540  0.430960  1.0  0.0412
  C  C159  1  0.909510  0.685760  0.311620  1.0  0.738
  C  C160  1  0.572090  0.765100  0.955120  1.0  -0.1791
  C  C161  1  0.689440  0.494770  0.121350  1.0  0.724
  C  C162  1  0.700370  0.473980  0.628480  1.0  0.743
  C  C163  1  0.793300  0.265350  0.068250  1.0  -0.1469
  C  C164  1  0.802530  0.074320  0.879220  1.0  -0.1546
  C  C165  1  0.502660  0.204960  0.056920  1.0  0.7348
  C  C166  1  0.750310  0.558790  0.779390  1.0  -0.1079
  C  C167  1  0.329190  0.521090  0.817730  1.0  -0.1594
  C  C168  1  0.858660  0.647600  0.348080  1.0  -0.1685
  C  C169  1  0.141340  0.651920  0.352400  1.0  -0.1691
  C  C170  1  0.866390  0.601210  0.339810  1.0  0.0078
  C  C171  1  0.179460  0.625540  0.435540  1.0  -0.1505
  C  C172  1  0.145660  0.147600  0.848080  1.0  -0.1688
  C  C173  1  0.694800  0.758300  0.552900  1.0  0.5914
  C  C174  1  0.168080  0.632420  0.487020  1.0  0.6601
  C  C175  1  0.854340  0.852400  0.151920  1.0  -0.1692
  C  C176  1  0.793300  0.068250  0.265350  1.0  -0.1477
  C  C177  1  0.179460  0.435540  0.625540  1.0  -0.1505
  C  C178  1  0.775370  0.913580  0.539680  1.0  0.7333
  C  C179  1  0.690560  0.768470  0.959810  1.0  -0.1588
  C  C180  1  0.739840  0.803360  0.952760  1.0  0.7397
  C  C181  1  0.126900  0.234650  0.431750  1.0  -0.1467
  C  C182  1  0.670810  0.478910  0.182270  1.0  -0.1586
  C  C183  1  0.148200  0.156800  0.891600  1.0  0.0512
  C  C184  1  0.292310  0.544880  0.734900  1.0  -0.1794
  C  C185  1  0.228630  0.586420  0.960320  1.0  0.7328
  C  C186  1  0.329190  0.817730  0.521090  1.0  -0.1579
  C  C187  1  0.418840  0.731530  0.540190  1.0  -0.158
  C  C188  1  0.197470  0.925680  0.120780  1.0  -0.1542
  C  C189  1  0.052820  0.424500  0.272460  1.0  0.6218
  C  C190  1  0.504040  0.303360  0.452760  1.0  0.7379
  C  C191  1  0.851800  0.843200  0.108400  1.0  0.0518
  C  C192  1  0.868350  0.244460  0.069040  1.0  0.0422
  C  C193  1  0.140930  0.440470  0.180270  1.0  0.0335
  C  C194  1  0.831920  0.367580  0.512980  1.0  0.6586
  C  C195  1  0.240540  0.874460  0.064460  1.0  -0.1503
  C  C196  1  0.133610  0.398790  0.660190  1.0  0.0071
  C  C197  1  0.765070  0.575380  0.416680  1.0  0.0487
  C  C198  1  0.209530  0.448880  0.145660  1.0  -0.1581
  C  C199  1  0.495960  0.547240  0.696640  1.0  0.739
  C  C200  1  0.090490  0.688380  0.314240  1.0  0.739
  C  C201  1  0.195930  0.645660  0.948880  1.0  -0.1586
  C  C202  1  0.749780  0.075500  0.227540  1.0  0.623
  C  C203  1  0.242870  0.916680  0.075380  1.0  0.047
  C  C204  1  0.402180  0.291110  0.030530  1.0  0.0412
  C  C205  1  0.418840  0.540190  0.731530  1.0  -0.1582
  C  C206  1  0.235460  0.704960  0.556920  1.0  0.7343
  C  C207  1  0.497340  0.795040  0.943080  1.0  0.7343
  C  C208  1  0.854340  0.151920  0.852400  1.0  -0.1683
  C  C209  1  0.381470  0.205500  0.048560  1.0  0.0323
  C  C210  1  0.263530  0.166670  0.449670  1.0  0.035
  C  C211  1  0.859070  0.559530  0.819730  1.0  0.0341
  C  C212  1  0.224630  0.086420  0.460320  1.0  0.7326
  C  C213  1  0.260160  0.047240  0.196640  1.0  0.74
  C  C214  1  0.088490  0.720610  0.941210  1.0  -0.1072
  C  C215  1  0.260160  0.196640  0.047240  1.0  0.7385
  C  C216  1  0.250220  0.772460  0.924500  1.0  0.6237
  C  C217  1  0.707690  0.265100  0.455120  1.0  -0.1793
  C  C218  1  0.757130  0.924620  0.083320  1.0  0.0483
  C  C219  1  0.694440  0.994770  0.621350  1.0  0.7239
  C  C220  1  0.759460  0.935540  0.125540  1.0  -0.1487
  C  C221  1  0.292310  0.734900  0.544880  1.0  -0.1793
  C  C222  1  0.712480  0.132420  0.987020  1.0  0.6552
  C  C223  1  0.331990  0.317730  0.021090  1.0  -0.1579
  C  C224  1  0.756070  0.425680  0.620780  1.0  -0.1563
  C  C225  1  0.234930  0.424620  0.583320  1.0  0.0478
  C  C226  1  0.196600  0.608400  0.343200  1.0  0.0518
  C  C227  1  0.305560  0.378650  0.005230  1.0  0.7227
  C  C228  1  0.599330  0.212520  0.473420  1.0  0.0506
  C  C229  1  0.120130  0.666667  0.949670  1.0  0.0332
  C  C230  1  0.759460  0.125540  0.935540  1.0  -0.1493
  C  C231  1  0.093110  0.185760  0.811620  1.0  0.7391
  C  C232  1  0.820540  0.374460  0.564460  1.0  -0.1515
  C  C233  1  0.858660  0.348080  0.647600  1.0  -0.1698
  C  C234  1  0.635530  0.451440  0.294500  1.0  0.0325
  C  C235  1  0.263530  0.449670  0.166670  1.0  0.0343
  C  C236  1  0.276180  0.791110  0.530530  1.0  0.0413
  C  C237  1  0.906890  0.814240  0.188380  1.0  0.739
  C  C238  1  0.803400  0.391600  0.656800  1.0  0.0519
  C  C239  1  0.906890  0.188380  0.814240  1.0  0.7383
  C  C240  1  0.305200  0.241700  0.447100  1.0  0.5923
  C  C241  1  0.006000  0.947100  0.741700  1.0  0.5919
  C  C242  1  0.195930  0.948880  0.645660  1.0  -0.1603
  C  C243  1  0.714730  0.973420  0.712520  1.0  0.0518
  C  C244  1  0.381470  0.048560  0.205500  1.0  0.0319
  C  C245  1  0.427910  0.234900  0.044880  1.0  -0.1787
  C  C246  1  0.224630  0.460320  0.086420  1.0  0.7333
  C  C247  1  0.192590  0.101210  0.839810  1.0  0.0093
  C  C248  1  0.331990  0.021090  0.317730  1.0  -0.161
  C  C249  1  0.400670  0.526580  0.787480  1.0  0.0516
  C  C250  1  0.736470  0.550330  0.833330  1.0  0.0327
  C  C251  1  0.243930  0.574320  0.379220  1.0  -0.1564
  C  C252  1  0.707690  0.455120  0.265100  1.0  -0.179
  C  C253  1  0.736470  0.833330  0.550330  1.0  0.0335
  C  C254  1  0.802830  0.871520  0.026020  1.0  0.7458
  C  C255  1  0.879870  0.333333  0.050330  1.0  0.0337
  C  C256  1  0.192590  0.839810  0.101210  1.0  0.0089
  C  C257  1  0.228630  0.960320  0.586420  1.0  0.7333
  C  C258  1  0.235460  0.556920  0.704960  1.0  0.7338
  C  C259  1  0.197470  0.120780  0.925680  1.0  -0.1572
  C  C260  1  0.309440  0.231530  0.040190  1.0  -0.1593
  C  C261  1  0.299630  0.371520  0.526020  1.0  0.7438
  C  C262  1  0.400670  0.787480  0.526580  1.0  0.0524
  C  C263  1  0.242870  0.075380  0.916680  1.0  0.0486
  C  C264  1  0.126900  0.431750  0.234650  1.0  -0.1466
  C  C265  1  0.790470  0.854340  0.551120  1.0  -0.1579
  C  C266  1  0.148200  0.891600  0.156800  1.0  0.0494
  C  C267  1  0.305200  0.447100  0.241700  1.0  0.5915
  C  C268  1  0.851800  0.108400  0.843200  1.0  0.0496
  C  C269  1  0.287520  0.867580  0.012980  1.0  0.6549
  C  C270  1  0.712480  0.987020  0.132420  1.0  0.6588
  C  C271  1  0.761670  0.059530  0.319730  1.0  0.0317
  C  C272  1  0.572090  0.955120  0.765100  1.0  -0.1797
  C  C273  1  0.668010  0.978910  0.682270  1.0  -0.1595
  C  C274  1  0.723820  0.208890  0.469470  1.0  0.0416
  C  C275  1  0.771370  0.039680  0.413580  1.0  0.7325
  C  C276  1  0.714730  0.712520  0.973420  1.0  0.0519
  C  C277  1  0.196600  0.343200  0.608400  1.0  0.0515
  C  C278  1  0.764540  0.443080  0.295040  1.0  0.7344
  C  C279  1  0.581160  0.268470  0.459810  1.0  -0.1583
  C  C280  1  0.243930  0.379220  0.574320  1.0  -0.1569
  C  C281  1  0.206700  0.931750  0.734650  1.0  -0.148
  C  C282  1  0.868350  0.069040  0.244460  1.0  0.0392
  C  C283  1  0.597820  0.969470  0.708890  1.0  0.0398
  C  C284  1  0.909510  0.311620  0.685760  1.0  0.7391
  C  C285  1  0.299630  0.526020  0.371520  1.0  0.7415
  C  C286  1  0.497340  0.943080  0.795040  1.0  0.734
  C  C287  1  0.364470  0.548560  0.705500  1.0  0.0329
  C  C288  1  0.879870  0.050330  0.333333  1.0  0.0347
  C  C289  1  0.141340  0.352400  0.651920  1.0  -0.169
  C  C290  1  0.238330  0.680270  0.940470  1.0  0.0342
  C  C291  1  0.804070  0.354340  0.051120  1.0  -0.1586
  C  C292  1  0.427910  0.044880  0.234900  1.0  -0.1797
  C  C293  1  0.700370  0.628480  0.473980  1.0  0.7442
  C  C294  1  0.749780  0.227540  0.075500  1.0  0.6234
  C  C295  1  0.249690  0.220610  0.441210  1.0  -0.1072
  C  C296  1  0.802830  0.026020  0.871520  1.0  0.7424
  C  C297  1  0.765070  0.416680  0.575380  1.0  0.0481
  C  C298  1  0.911510  0.058790  0.279390  1.0  -0.1066
  C  C299  1  0.911510  0.279390  0.058790  1.0  -0.1072
  C  C300  1  0.120130  0.949670  0.666667  1.0  0.0334
  C  C301  1  0.873100  0.765350  0.568250  1.0  -0.1461
  C  C302  1  0.502660  0.056920  0.204960  1.0  0.7342
  C  C303  1  0.206700  0.734650  0.931750  1.0  -0.1469
  C  C304  1  0.006000  0.741700  0.947100  1.0  0.5895
  C  C305  1  0.197170  0.973980  0.128480  1.0  0.7433
  C  C306  1  0.276180  0.530530  0.791110  1.0  0.0409
  C  C307  1  0.761670  0.319730  0.059530  1.0  0.0329
  C  C308  1  0.873100  0.568250  0.765350  1.0  -0.1465
  C  C309  1  0.287520  0.012980  0.867580  1.0  0.6596
  C  C310  1  0.495960  0.696640  0.547240  1.0  0.7387
  C  C311  1  0.739840  0.952760  0.803360  1.0  0.7406
  C  C312  1  0.131650  0.755540  0.930960  1.0  0.0399
  C  C313  1  0.635530  0.294500  0.451440  1.0  0.0324
  C  C314  1  0.947180  0.575500  0.727540  1.0  0.6228
  C  C315  1  0.866390  0.339810  0.601210  1.0  0.0104
  C  C316  1  0.310560  0.878650  0.505230  1.0  0.7233
  C  C317  1  0.052820  0.272460  0.424500  1.0  0.6215
  C  C318  1  0.240540  0.064460  0.874460  1.0  -0.1491
  C  C319  1  0.090490  0.314240  0.688380  1.0  0.7382
  C  C320  1  0.723820  0.469470  0.208890  1.0  0.0413
  C  C321  1  0.994000  0.052900  0.258300  1.0  0.5888
  C  C322  1  0.694440  0.621350  0.994770  1.0  0.7231
  C  C323  1  0.690560  0.959810  0.768470  1.0  -0.1593
  C  C324  1  0.689440  0.121350  0.494770  1.0  0.7226
  C  C325  1  0.756070  0.620780  0.425680  1.0  -0.1566
  C  C326  1  0.694800  0.552900  0.758300  1.0  0.5918
  C  C327  1  0.599330  0.473420  0.212520  1.0  0.0509
  C  C328  1  0.947180  0.727540  0.575500  1.0  0.621
  O  O329  1  0.704440  0.040390  0.431470  1.0  -0.56
  O  O330  1  0.036300  0.017000  0.293600  1.0  -0.42
  O  O331  1  0.690180  0.056020  0.250620  1.0  -0.5983
  O  O332  1  0.095370  0.510430  0.642830  1.0  -0.7537
  O  O333  1  0.176300  0.459610  0.068530  1.0  -0.561
  O  O334  1  0.217970  0.919020  0.819280  1.0  -0.6286
  O  O335  1  0.786710  0.486240  0.392740  1.0  -0.5463
  O  O336  1  0.710520  0.849610  0.948350  1.0  -0.6057
  O  O337  1  0.094450  0.174640  0.774320  1.0  -0.6009
  O  O338  1  0.760070  0.999310  0.600430  1.0  -0.5738
  O  O339  1  0.852230  0.016750  0.831390  1.0  -0.5952
  O  O340  1  0.346900  0.206400  0.483000  1.0  -0.4225
  O  O341  1  0.963700  0.706400  0.983000  1.0  -0.4181
  O  O342  1  0.213290  0.607260  0.513760  1.0  -0.5467
  O  O343  1  0.508480  0.650390  0.551650  1.0  -0.6021
  O  O344  1  0.754580  0.501420  0.096220  1.0  -0.6483
  O  O345  1  0.653100  0.517000  0.793600  1.0  -0.4186
  O  O346  1  0.003180  0.556020  0.750620  1.0  -0.5983
  O  O347  1  0.640190  0.499310  0.100430  1.0  -0.5746
  O  O348  1  0.043730  0.319280  0.419020  1.0  -0.6314
  O  O349  1  0.459680  0.454510  0.279450  1.0  -0.5564
  O  O350  1  0.491520  0.448350  0.349610  1.0  -0.6026
  O  O351  1  0.901240  0.322020  0.726000  1.0  -0.6102
  O  O352  1  0.043410  0.725680  0.325360  1.0  -0.6015
  O  O353  1  0.244900  0.098470  0.999730  1.0  -0.6107
  O  O354  1  0.640190  0.100430  0.499310  1.0  -0.5749
  O  O355  1  0.255480  0.563380  0.657320  1.0  -0.5858
  O  O356  1  0.979330  0.790180  0.935080  1.0  -0.5591
  O  O357  1  0.852330  0.895770  0.895770  1.0  -0.7649
  O  O358  1  0.295410  0.435080  0.290180  1.0  -0.5598
  O  O359  1  0.904630  0.357170  0.489570  1.0  -0.7532
  O  O360  1  0.248630  0.989570  0.857170  1.0  -0.7541
  O  O361  1  0.827890  0.448110  0.267910  1.0  -0.5947
  O  O362  1  0.036300  0.293600  0.017000  1.0  -0.4141
  O  O363  1  0.050740  0.226000  0.822020  1.0  -0.6105
  O  O364  1  0.543910  0.051890  0.232090  1.0  -0.5978
  O  O365  1  0.654170  0.121990  0.121990  1.0  -0.9442
  O  O366  1  0.309820  0.749380  0.943980  1.0  -0.5982
  O  O367  1  0.193640  0.045490  0.220550  1.0  -0.5597
  O  O368  1  0.245420  0.903780  0.498580  1.0  -0.6477
  O  O369  1  0.956590  0.674640  0.274320  1.0  -0.6011
  O  O370  1  0.248630  0.857170  0.989570  1.0  -0.7566
  O  O371  1  0.852230  0.831390  0.016750  1.0  -0.5962
  O  O372  1  0.456090  0.767910  0.948110  1.0  -0.5984
  O  O373  1  0.816500  0.442140  0.028860  1.0  -0.6067
  O  O374  1  0.334310  0.986240  0.892740  1.0  -0.5463
  O  O375  1  0.147770  0.983250  0.168610  1.0  -0.5949
  O  O376  1  0.712500  0.528860  0.942140  1.0  -0.6109
  O  O377  1  0.949260  0.177980  0.774000  1.0  -0.6103
  O  O378  1  0.751370  0.142830  0.010430  1.0  -0.7566
  O  O379  1  0.172110  0.732090  0.551890  1.0  -0.5985
  O  O380  1  0.345830  0.878010  0.878010  1.0  -0.9413
  O  O381  1  0.295560  0.959610  0.568530  1.0  -0.561
  O  O382  1  0.782030  0.180720  0.080980  1.0  -0.6299
  O  O383  1  0.540320  0.720550  0.545490  1.0  -0.558
  O  O384  1  0.949260  0.774000  0.177980  1.0  -0.6097
  O  O385  1  0.476180  0.936620  0.842680  1.0  -0.5872
  O  O386  1  0.806360  0.954510  0.779450  1.0  -0.5574
  O  O387  1  0.020670  0.209820  0.064920  1.0  -0.5578
  O  O388  1  0.704440  0.431470  0.040390  1.0  -0.5611
  O  O389  1  0.193640  0.220550  0.045490  1.0  -0.5579
  O  O390  1  0.239930  0.000690  0.399570  1.0  -0.5738
  O  O391  1  0.343100  0.500270  0.401530  1.0  -0.6087
  O  O392  1  0.523820  0.063380  0.157320  1.0  -0.587
  O  O393  1  0.979330  0.935080  0.790180  1.0  -0.559
  O  O394  1  0.744520  0.436620  0.342680  1.0  -0.5864
  O  O395  1  0.647780  0.596220  0.001420  1.0  -0.6483
  O  O396  1  0.213290  0.513760  0.607260  1.0  -0.5466
  O  O397  1  0.295560  0.568530  0.959610  1.0  -0.5635
  O  O398  1  0.656900  0.499730  0.598470  1.0  -0.6082
  O  O399  1  0.183500  0.557860  0.971140  1.0  -0.608
  O  O400  1  0.359810  0.899570  0.500690  1.0  -0.574
  O  O401  1  0.904630  0.489570  0.357170  1.0  -0.7536
  O  O402  1  0.712500  0.942140  0.528860  1.0  -0.6074
  O  O403  1  0.098760  0.274000  0.677980  1.0  -0.6104
  O  O404  1  0.823700  0.931470  0.540390  1.0  -0.5614
  O  O405  1  0.647780  0.001420  0.596220  1.0  -0.6489
  O  O406  1  0.782030  0.080980  0.180720  1.0  -0.6277
  O  O407  1  0.690180  0.250620  0.056020  1.0  -0.5987
  O  O408  1  0.700370  0.483250  0.668610  1.0  -0.5945
  O  O409  1  0.098760  0.677980  0.274000  1.0  -0.6102
  O  O410  1  0.356130  0.395770  0.395770  1.0  -0.7641
  O  O411  1  0.656900  0.598470  0.499730  1.0  -0.609
  O  O412  1  0.665690  0.013760  0.107260  1.0  -0.5447
  O  O413  1  0.459680  0.279450  0.454510  1.0  -0.5595
  O  O414  1  0.665690  0.107260  0.013760  1.0  -0.5438
  O  O415  1  0.996820  0.249380  0.443980  1.0  -0.5994
  O  O416  1  0.352220  0.998580  0.403780  1.0  -0.6485
  O  O417  1  0.491520  0.349610  0.448350  1.0  -0.604
  O  O418  1  0.508480  0.551650  0.650390  1.0  -0.6018
  O  O419  1  0.255480  0.657320  0.563380  1.0  -0.5896
  O  O420  1  0.704590  0.564920  0.709820  1.0  -0.5582
  O  O421  1  0.653100  0.793600  0.517000  1.0  -0.4199
  O  O422  1  0.289480  0.150390  0.051650  1.0  -0.6042
  O  O423  1  0.456090  0.948110  0.767910  1.0  -0.5951
  O  O424  1  0.287500  0.471140  0.057860  1.0  -0.6065
  O  O425  1  0.700370  0.668610  0.483250  1.0  -0.5983
  O  O426  1  0.755100  0.000270  0.901530  1.0  -0.6103
  O  O427  1  0.176300  0.068530  0.459610  1.0  -0.561
  O  O428  1  0.043730  0.419020  0.319280  1.0  -0.6287
  O  O429  1  0.343100  0.401530  0.500270  1.0  -0.6096
  O  O430  1  0.299630  0.331390  0.516750  1.0  -0.5975
  O  O431  1  0.786710  0.392740  0.486240  1.0  -0.5449
  O  O432  1  0.956590  0.274320  0.674640  1.0  -0.6024
  O  O433  1  0.346900  0.483000  0.206400  1.0  -0.4141
  O  O434  1  0.956270  0.680720  0.580980  1.0  -0.6314
  O  O435  1  0.898150  0.378010  0.378010  1.0  -0.941
  O  O436  1  0.704590  0.709820  0.564920  1.0  -0.5581
  O  O437  1  0.244900  0.999730  0.098470  1.0  -0.6089
  O  O438  1  0.755100  0.901530  0.000270  1.0  -0.6113
  O  O439  1  0.905550  0.825360  0.225680  1.0  -0.6009
  O  O440  1  0.744520  0.342680  0.436620  1.0  -0.5914
  O  O441  1  0.543910  0.232090  0.051890  1.0  -0.5994
  O  O442  1  0.309820  0.943980  0.749380  1.0  -0.5978
  O  O443  1  0.643870  0.604230  0.604230  1.0  -0.7653
  O  O444  1  0.827890  0.267910  0.448110  1.0  -0.5979
  O  O445  1  0.823700  0.540390  0.931470  1.0  -0.5635
  O  O446  1  0.905550  0.225680  0.825360  1.0  -0.602
  O  O447  1  0.217970  0.819280  0.919020  1.0  -0.6312
  O  O448  1  0.754580  0.096220  0.501420  1.0  -0.648
  O  O449  1  0.147670  0.104230  0.104230  1.0  -0.7638
  O  O450  1  0.020670  0.064920  0.209820  1.0  -0.5592
  O  O451  1  0.901240  0.726000  0.322020  1.0  -0.6115
  O  O452  1  0.359810  0.500690  0.899570  1.0  -0.5737
  O  O453  1  0.043410  0.325360  0.725680  1.0  -0.6001
  O  O454  1  0.996820  0.443980  0.249380  1.0  -0.5993
  O  O455  1  0.334310  0.892740  0.986240  1.0  -0.5455
  O  O456  1  0.003180  0.750620  0.556020  1.0  -0.5979
  O  O457  1  0.352220  0.403780  0.998580  1.0  -0.6485
  O  O458  1  0.101850  0.621990  0.621990  1.0  -0.9444
  O  O459  1  0.540320  0.545490  0.720550  1.0  -0.557
  O  O460  1  0.963700  0.983000  0.706400  1.0  -0.419
  O  O461  1  0.710520  0.948350  0.849610  1.0  -0.6043
  O  O462  1  0.523820  0.157320  0.063380  1.0  -0.588
  O  O463  1  0.956270  0.580980  0.680720  1.0  -0.6281
  O  O464  1  0.295410  0.290180  0.435080  1.0  -0.5592
  O  O465  1  0.299630  0.516750  0.331390  1.0  -0.5948
  O  O466  1  0.760070  0.600430  0.999310  1.0  -0.5744
  O  O467  1  0.172110  0.551890  0.732090  1.0  -0.5952
  O  O468  1  0.476180  0.842680  0.936620  1.0  -0.5891
  O  O469  1  0.050740  0.822020  0.226000  1.0  -0.6102
  O  O470  1  0.094450  0.774320  0.174640  1.0  -0.6023
  O  O471  1  0.239930  0.399570  0.000690  1.0  -0.5745
  O  O472  1  0.816500  0.028860  0.442140  1.0  -0.6064
  O  O473  1  0.806360  0.779450  0.954510  1.0  -0.559
  O  O474  1  0.289480  0.051650  0.150390  1.0  -0.6017
  O  O475  1  0.245420  0.498580  0.903780  1.0  -0.6494
  O  O476  1  0.183500  0.971140  0.557860  1.0  -0.6085
  O  O477  1  0.287500  0.057860  0.471140  1.0  -0.6071
  O  O478  1  0.751370  0.010430  0.142830  1.0  -0.7531
  O  O479  1  0.095370  0.642830  0.510430  1.0  -0.7538
  O  O480  1  0.147770  0.168610  0.983250  1.0  -0.5986
