# generated using pymatgen
data_CdH2(C5O4)2
_symmetry_space_group_name_H-M   'P 1'
_cell_length_a   12.90120000
_cell_length_b   14.58160000
_cell_length_c   11.82430000
_cell_angle_alpha   90.00000000
_cell_angle_beta   90.00000000
_cell_angle_gamma   90.00000000
_symmetry_Int_Tables_number   1
_chemical_formula_structural   CdH2(C5O4)2
_chemical_formula_sum   'Cd4 H8 C40 O32'
_cell_volume   2224.38894681
_cell_formula_units_Z   4
loop_
 _symmetry_equiv_pos_site_id
 _symmetry_equiv_pos_as_xyz
  1  'x, y, z'
loop_
 _atom_site_type_symbol
 _atom_site_label
 _atom_site_symmetry_multiplicity
 _atom_site_fract_x
 _atom_site_fract_y
 _atom_site_fract_z
 _atom_site_occupancy
 _atom_site_charge
  Cd  Cd1  1  0.502110  0.254950  0.023730  1.0  1.0321
  Cd  Cd2  1  0.497890  0.745060  0.523730  1.0  1.0318
  Cd  Cd3  1  0.002110  0.245060  0.023730  1.0  1.0318
  Cd  Cd4  1  0.997890  0.754950  0.523730  1.0  1.0321
  H  H5  1  0.437100  0.992700  0.279000  1.0  0.1551
  H  H6  1  0.072300  0.011900  0.281000  1.0  0.1723
  H  H7  1  0.562900  0.007300  0.779000  1.0  0.1551
  H  H8  1  0.927700  0.988100  0.781000  1.0  0.1738
  H  H9  1  0.937100  0.507300  0.279000  1.0  0.1551
  H  H10  1  0.572300  0.488100  0.281000  1.0  0.1725
  H  H11  1  0.062900  0.492700  0.779000  1.0  0.1554
  H  H12  1  0.427700  0.511900  0.781000  1.0  0.1737
  C  C13  1  0.384190  0.128310  0.144170  1.0  0.7711
  C  C14  1  0.314640  0.063560  0.208280  1.0  -0.0702
  C  C15  1  0.206150  0.066090  0.205850  1.0  -0.0364
  C  C16  1  0.142280  0.123010  0.125020  1.0  0.736
  C  C17  1  0.150830  0.008220  0.278100  1.0  -0.066
  C  C18  1  0.199420  0.944640  0.348400  1.0  -0.04
  C  C19  1  0.130490  0.886310  0.423540  1.0  0.7727
  C  C20  1  0.307670  0.938150  0.344970  1.0  -0.0542
  C  C21  1  0.367380  0.867620  0.410870  1.0  0.7503
  C  C22  1  0.362620  0.998960  0.277000  1.0  -0.0078
  C  C23  1  0.615810  0.871690  0.644170  1.0  0.7695
  C  C24  1  0.685360  0.936440  0.708280  1.0  -0.0701
  C  C25  1  0.793850  0.933910  0.705850  1.0  -0.0369
  C  C26  1  0.857720  0.876990  0.625020  1.0  0.7356
  C  C27  1  0.849170  0.991780  0.778100  1.0  -0.0652
  C  C28  1  0.800580  0.055360  0.848400  1.0  -0.0405
  C  C29  1  0.869510  0.113690  0.923540  1.0  0.772
  C  C30  1  0.692330  0.061850  0.844970  1.0  -0.0547
  C  C31  1  0.632620  0.132380  0.910870  1.0  0.7484
  C  C32  1  0.637380  0.001040  0.777000  1.0  -0.0111
  C  C33  1  0.884190  0.371690  0.144170  1.0  0.7709
  C  C34  1  0.814640  0.436440  0.208280  1.0  -0.0708
  C  C35  1  0.706150  0.433910  0.205850  1.0  -0.0366
  C  C36  1  0.642280  0.376990  0.125020  1.0  0.7366
  C  C37  1  0.650830  0.491780  0.278100  1.0  -0.0662
  C  C38  1  0.699420  0.555360  0.348400  1.0  -0.0401
  C  C39  1  0.630490  0.613690  0.423540  1.0  0.7726
  C  C40  1  0.807670  0.561850  0.344970  1.0  -0.0547
  C  C41  1  0.867380  0.632380  0.410870  1.0  0.7498
  C  C42  1  0.862620  0.501040  0.277000  1.0  -0.0081
  C  C43  1  0.115810  0.628310  0.644170  1.0  0.7696
  C  C44  1  0.185360  0.563560  0.708280  1.0  -0.0695
  C  C45  1  0.293850  0.566090  0.705850  1.0  -0.0366
  C  C46  1  0.357720  0.623010  0.625020  1.0  0.7351
  C  C47  1  0.349170  0.508220  0.778100  1.0  -0.0651
  C  C48  1  0.300580  0.444640  0.848400  1.0  -0.0403
  C  C49  1  0.369510  0.386310  0.923540  1.0  0.7718
  C  C50  1  0.192330  0.438150  0.844970  1.0  -0.0543
  C  C51  1  0.132620  0.367620  0.910870  1.0  0.7492
  C  C52  1  0.137380  0.498960  0.777000  1.0  -0.011
  O  O53  1  0.479460  0.114770  0.147300  1.0  -0.5464
  O  O54  1  0.344610  0.195320  0.092620  1.0  -0.5433
  O  O55  1  0.141520  0.103040  0.023620  1.0  -0.4245
  O  O56  1  0.086930  0.185340  0.169750  1.0  -0.5055
  O  O57  1  0.089960  0.817000  0.378870  1.0  -0.5133
  O  O58  1  0.113380  0.912250  0.521280  1.0  -0.4421
  O  O59  1  0.322800  0.814880  0.475490  1.0  -0.5336
  O  O60  1  0.463450  0.862450  0.395280  1.0  -0.6061
  O  O61  1  0.520540  0.885230  0.647300  1.0  -0.5454
  O  O62  1  0.655390  0.804680  0.592620  1.0  -0.5435
  O  O63  1  0.858480  0.896960  0.523620  1.0  -0.4244
  O  O64  1  0.913070  0.814660  0.669750  1.0  -0.5049
  O  O65  1  0.910040  0.183000  0.878870  1.0  -0.5129
  O  O66  1  0.886620  0.087750  0.021280  1.0  -0.44
  O  O67  1  0.677200  0.185120  0.975490  1.0  -0.5327
  O  O68  1  0.536550  0.137550  0.895280  1.0  -0.605
  O  O69  1  0.979460  0.385230  0.147300  1.0  -0.5456
  O  O70  1  0.844610  0.304680  0.092620  1.0  -0.5436
  O  O71  1  0.641520  0.396960  0.023620  1.0  -0.4247
  O  O72  1  0.586930  0.314660  0.169750  1.0  -0.5037
  O  O73  1  0.589960  0.683000  0.378870  1.0  -0.5145
  O  O74  1  0.613380  0.587750  0.521280  1.0  -0.4411
  O  O75  1  0.822800  0.685120  0.475490  1.0  -0.5336
  O  O76  1  0.963450  0.637550  0.395280  1.0  -0.6059
  O  O77  1  0.020540  0.614770  0.647300  1.0  -0.5454
  O  O78  1  0.155390  0.695320  0.592620  1.0  -0.5436
  O  O79  1  0.358480  0.603040  0.523620  1.0  -0.4243
  O  O80  1  0.413070  0.685340  0.669750  1.0  -0.5041
  O  O81  1  0.410040  0.317000  0.878870  1.0  -0.512
  O  O82  1  0.386620  0.412250  0.021280  1.0  -0.4407
  O  O83  1  0.177200  0.314880  0.975490  1.0  -0.5329
  O  O84  1  0.036550  0.362450  0.895280  1.0  -0.6062
