# generated using pymatgen
data_CdH3(C5O4)2
_symmetry_space_group_name_H-M   'P 1'
_cell_length_a   7.91050000
_cell_length_b   11.12800000
_cell_length_c   19.44100000
_cell_angle_alpha   90.00000000
_cell_angle_beta   101.06100000
_cell_angle_gamma   90.00000000
_symmetry_Int_Tables_number   1
_chemical_formula_structural   CdH3(C5O4)2
_chemical_formula_sum   'Cd4 H12 C40 O32'
_cell_volume   1679.56222016
_cell_formula_units_Z   4
loop_
 _symmetry_equiv_pos_site_id
 _symmetry_equiv_pos_as_xyz
  1  'x, y, z'
loop_
 _atom_site_type_symbol
 _atom_site_label
 _atom_site_symmetry_multiplicity
 _atom_site_fract_x
 _atom_site_fract_y
 _atom_site_fract_z
 _atom_site_occupancy
 _atom_site_charge
  Cd  Cd1  1  0.852450  0.996280  0.076970  1.0  1.1151
  Cd  Cd2  1  0.647550  0.496280  0.423030  1.0  1.1155
  Cd  Cd3  1  0.147550  0.003720  0.923030  1.0  1.1154
  Cd  Cd4  1  0.352450  0.503720  0.576970  1.0  1.115
  H  H5  1  0.439300  0.070500  0.169000  1.0  0.4469
  H  H6  1  0.452100  0.247100  0.364800  1.0  0.1352
  H  H7  1  0.868900  0.242400  0.273300  1.0  0.1447
  H  H8  1  0.060700  0.570500  0.331000  1.0  0.4467
  H  H9  1  0.047900  0.747100  0.135200  1.0  0.1356
  H  H10  1  0.631100  0.742400  0.226700  1.0  0.1434
  H  H11  1  0.560700  0.929500  0.831000  1.0  0.4461
  H  H12  1  0.547900  0.752900  0.635200  1.0  0.1362
  H  H13  1  0.131100  0.757600  0.726700  1.0  0.1434
  H  H14  1  0.939300  0.429500  0.669000  1.0  0.4481
  H  H15  1  0.952100  0.252900  0.864800  1.0  0.1355
  H  H16  1  0.368900  0.257600  0.773300  1.0  0.1448
  C  C17  1  0.098500  0.181800  0.256800  1.0  -0.0348
  C  C18  1  0.276100  0.183200  0.284740  1.0  -0.102
  C  C19  1  0.334700  0.246400  0.346080  1.0  0.0091
  C  C20  1  0.223500  0.308800  0.380440  1.0  -0.0972
  C  C21  1  0.046900  0.308400  0.352200  1.0  -0.016
  C  C22  1  0.986500  0.244100  0.291390  1.0  -0.0361
  C  C23  1  0.019300  0.111600  0.192320  1.0  0.7298
  C  C24  1  0.408600  0.121600  0.251530  1.0  0.695
  C  C25  1  0.295500  0.373200  0.447540  1.0  0.7637
  C  C26  1  0.915400  0.380800  0.381450  1.0  0.7
  C  C27  1  0.401500  0.681800  0.243200  1.0  -0.0336
  C  C28  1  0.223900  0.683200  0.215260  1.0  -0.1025
  C  C29  1  0.165300  0.746400  0.153920  1.0  0.0099
  C  C30  1  0.276500  0.808800  0.119560  1.0  -0.0973
  C  C31  1  0.453100  0.808400  0.147800  1.0  -0.0201
  C  C32  1  0.513500  0.744100  0.208610  1.0  -0.0334
  C  C33  1  0.480700  0.611600  0.307680  1.0  0.7306
  C  C34  1  0.091400  0.621600  0.248470  1.0  0.6945
  C  C35  1  0.204500  0.873200  0.052460  1.0  0.7643
  C  C36  1  0.584600  0.880800  0.118550  1.0  0.7021
  C  C37  1  0.901500  0.818200  0.743200  1.0  -0.0339
  C  C38  1  0.723900  0.816800  0.715260  1.0  -0.1021
  C  C39  1  0.665300  0.753600  0.653920  1.0  0.0101
  C  C40  1  0.776500  0.691200  0.619560  1.0  -0.0974
  C  C41  1  0.953100  0.691600  0.647800  1.0  -0.0203
  C  C42  1  0.013500  0.755900  0.708610  1.0  -0.0332
  C  C43  1  0.980700  0.888400  0.807680  1.0  0.731
  C  C44  1  0.591400  0.878400  0.748470  1.0  0.6948
  C  C45  1  0.704500  0.626800  0.552460  1.0  0.7642
  C  C46  1  0.084600  0.619200  0.618550  1.0  0.7016
  C  C47  1  0.598500  0.318200  0.756800  1.0  -0.0351
  C  C48  1  0.776100  0.316800  0.784740  1.0  -0.1015
  C  C49  1  0.834700  0.253600  0.846080  1.0  0.0099
  C  C50  1  0.723500  0.191200  0.880440  1.0  -0.0966
  C  C51  1  0.546900  0.191600  0.852200  1.0  -0.0166
  C  C52  1  0.486500  0.255900  0.791390  1.0  -0.0357
  C  C53  1  0.519300  0.388400  0.692320  1.0  0.7299
  C  C54  1  0.908600  0.378400  0.751530  1.0  0.6954
  C  C55  1  0.795500  0.126800  0.947540  1.0  0.764
  C  C56  1  0.415400  0.119200  0.881450  1.0  0.6996
  O  O57  1  0.943400  0.171240  0.139620  1.0  -0.5673
  O  O58  1  0.023700  0.000530  0.192970  1.0  -0.5592
  O  O59  1  0.363300  0.107100  0.183640  1.0  -0.4565
  O  O60  1  0.546400  0.091800  0.284570  1.0  -0.4639
  O  O61  1  0.455700  0.384650  0.466300  1.0  -0.6652
  O  O62  1  0.191500  0.410110  0.484440  1.0  -0.5701
  O  O63  1  0.905900  0.492490  0.369900  1.0  -0.5989
  O  O64  1  0.811200  0.327220  0.411700  1.0  -0.5716
  O  O65  1  0.556600  0.671240  0.360380  1.0  -0.5664
  O  O66  1  0.476300  0.500530  0.307030  1.0  -0.5604
  O  O67  1  0.136700  0.607100  0.316360  1.0  -0.4597
  O  O68  1  0.953600  0.591800  0.215430  1.0  -0.4648
  O  O69  1  0.044300  0.884650  0.033700  1.0  -0.6639
  O  O70  1  0.308500  0.910110  0.015560  1.0  -0.5741
  O  O71  1  0.594100  0.992490  0.130100  1.0  -0.5988
  O  O72  1  0.688800  0.827220  0.088300  1.0  -0.5716
  O  O73  1  0.056600  0.828760  0.860380  1.0  -0.5667
  O  O74  1  0.976300  0.999470  0.807030  1.0  -0.5591
  O  O75  1  0.636700  0.892900  0.816360  1.0  -0.4587
  O  O76  1  0.453600  0.908200  0.715430  1.0  -0.4647
  O  O77  1  0.544300  0.615350  0.533700  1.0  -0.6647
  O  O78  1  0.808500  0.589890  0.515560  1.0  -0.574
  O  O79  1  0.094100  0.507510  0.630100  1.0  -0.599
  O  O80  1  0.188800  0.672780  0.588300  1.0  -0.5713
  O  O81  1  0.443400  0.328760  0.639620  1.0  -0.5654
  O  O82  1  0.523700  0.499470  0.692970  1.0  -0.5593
  O  O83  1  0.863300  0.392900  0.683640  1.0  -0.4581
  O  O84  1  0.046400  0.408200  0.784570  1.0  -0.4633
  O  O85  1  0.955700  0.115350  0.966300  1.0  -0.6662
  O  O86  1  0.691500  0.089890  0.984440  1.0  -0.5701
  O  O87  1  0.405900  0.007510  0.869900  1.0  -0.5986
  O  O88  1  0.311200  0.172780  0.911700  1.0  -0.5705
