# generated using pymatgen
data_In3C47N3O11
_symmetry_space_group_name_H-M   'P 1'
_cell_length_a   29.05050000
_cell_length_b   29.05050000
_cell_length_c   28.79670000
_cell_angle_alpha   90.00000000
_cell_angle_beta   90.00000000
_cell_angle_gamma   90.00000000
_symmetry_Int_Tables_number   1
_chemical_formula_structural   In3C47N3O11
_chemical_formula_sum   'In24 C376 N24 O88'
_cell_volume   24302.44367308
_cell_formula_units_Z   8
loop_
 _symmetry_equiv_pos_site_id
 _symmetry_equiv_pos_as_xyz
  1  'x, y, z'
loop_
 _atom_site_type_symbol
 _atom_site_label
 _atom_site_symmetry_multiplicity
 _atom_site_fract_x
 _atom_site_fract_y
 _atom_site_fract_z
 _atom_site_occupancy
 _atom_site_charge
  In  In1  1  0.209100  0.790890  0.384550  1.0  1.5474
  In  In2  1  0.203880  0.881380  0.303230  1.0  1.429
  In  In3  1  0.118730  0.796090  0.303210  1.0  1.4496
  In  In4  1  0.709100  0.290890  0.884550  1.0  1.5474
  In  In5  1  0.703880  0.381380  0.803230  1.0  1.429
  In  In6  1  0.618730  0.296090  0.803210  1.0  1.4496
  In  In7  1  0.790900  0.209110  0.384550  1.0  1.5473
  In  In8  1  0.796120  0.118620  0.303230  1.0  1.426
  In  In9  1  0.881270  0.203910  0.303210  1.0  1.4479
  In  In10  1  0.290900  0.709110  0.884550  1.0  1.5473
  In  In11  1  0.296120  0.618620  0.803230  1.0  1.426
  In  In12  1  0.381270  0.703910  0.803210  1.0  1.4479
  In  In13  1  0.790890  0.790900  0.615450  1.0  1.5479
  In  In14  1  0.881380  0.796120  0.696770  1.0  1.4277
  In  In15  1  0.796090  0.881270  0.696790  1.0  1.4481
  In  In16  1  0.290890  0.290900  0.115450  1.0  1.5479
  In  In17  1  0.381380  0.296120  0.196770  1.0  1.4277
  In  In18  1  0.296090  0.381270  0.196790  1.0  1.4481
  In  In19  1  0.209110  0.209100  0.615450  1.0  1.5481
  In  In20  1  0.118620  0.203880  0.696770  1.0  1.4271
  In  In21  1  0.203910  0.118730  0.696790  1.0  1.4489
  In  In22  1  0.709110  0.709100  0.115450  1.0  1.5481
  In  In23  1  0.618620  0.703880  0.196770  1.0  1.4271
  In  In24  1  0.703910  0.618730  0.196790  1.0  1.4489
  C  C25  1  0.221800  0.895400  0.411500  1.0  0.6474
  C  C26  1  0.190200  0.661700  0.306700  1.0  0.1441
  C  C27  1  0.179000  0.708000  0.321300  1.0  0.5737
  C  C28  1  0.338900  0.810200  0.307600  1.0  0.0878
  C  C29  1  0.293400  0.823200  0.321600  1.0  0.5909
  C  C30  1  0.426700  0.782200  0.276800  1.0  0.1436
  C  C31  1  0.226100  0.070600  0.552000  1.0  0.2016
  C  C32  1  0.225500  0.928500  0.448000  1.0  0.1203
  C  C33  1  0.245800  0.700000  0.501800  1.0  0.0364
  C  C34  1  0.297800  0.757300  0.505400  1.0  -0.0139
  C  C35  1  0.280700  0.776200  0.463100  1.0  -0.0302
  C  C36  1  0.365800  0.782100  0.334300  1.0  -0.0602
  C  C37  1  0.327600  0.673500  0.712600  1.0  0.6324
  C  C38  1  0.213400  0.630100  0.335300  1.0  -0.0022
  C  C39  1  0.410800  0.771800  0.320200  1.0  0.0212
  C  C40  1  0.223400  0.718900  0.464400  1.0  -0.0566
  C  C41  1  0.222900  0.106100  0.589000  1.0  0.5922
  C  C42  1  0.294800  0.705100  0.574700  1.0  0.1396
  C  C43  1  0.216000  0.573200  0.278600  1.0  0.0571
  C  C44  1  0.282800  0.661400  0.641500  1.0  -0.0256
  C  C45  1  0.317600  0.681700  0.666000  1.0  0.1289
  C  C46  1  0.228000  0.005400  0.478500  1.0  0.1377
  C  C47  1  0.274600  0.723000  0.528300  1.0  0.0919
  C  C48  1  0.337500  0.716600  0.640600  1.0  -0.0431
  C  C49  1  0.229200  0.026200  0.557200  1.0  0.007
  C  C50  1  0.229700  0.993200  0.522200  1.0  0.2739
  C  C51  1  0.227300  0.974100  0.442700  1.0  -0.013
  C  C52  1  0.229400  0.589300  0.318800  1.0  0.0407
  C  C53  1  0.358100  0.825100  0.268100  1.0  0.0347
  C  C54  1  0.178400  0.646500  0.264700  1.0  -0.0361
  C  C55  1  0.332100  0.726900  0.596100  1.0  -0.0973
  C  C56  1  0.270100  0.672100  0.598300  1.0  -0.1055
  C  C57  1  0.241900  0.527200  0.260900  1.0  0.0197
  C  C58  1  0.187900  0.599500  0.251600  1.0  -0.1203
  C  C59  1  0.225000  0.087000  0.508700  1.0  -0.1168
  C  C60  1  0.400800  0.810900  0.251200  1.0  -0.0318
  C  C61  1  0.242000  0.045000  0.468100  1.0  -0.0447
  C  C62  1  0.227000  0.910900  0.491500  1.0  -0.1346
  C  C63  1  0.230000  0.949600  0.531100  1.0  -0.0413
  C  C64  1  0.469100  0.761800  0.256800  1.0  -0.0268
  C  C65  1  0.521000  0.715600  0.208300  1.0  0.0538
  C  C66  1  0.510600  0.766200  0.274800  1.0  0.086
  C  C67  1  0.230900  0.488600  0.278900  1.0  -0.0549
  C  C68  1  0.550700  0.757000  0.253000  1.0  0.1949
  C  C69  1  0.273000  0.496000  0.212000  1.0  -0.1277
  C  C70  1  0.250300  0.446600  0.259200  1.0  0.1364
  C  C71  1  0.470800  0.731000  0.214700  1.0  -0.1313
  C  C72  1  0.721800  0.395400  0.911500  1.0  0.6474
  C  C73  1  0.690200  0.161700  0.806700  1.0  0.1441
  C  C74  1  0.679000  0.208000  0.821300  1.0  0.5737
  C  C75  1  0.838900  0.310200  0.807600  1.0  0.0878
  C  C76  1  0.793400  0.323200  0.821600  1.0  0.5909
  C  C77  1  0.926700  0.282200  0.776800  1.0  0.1436
  C  C78  1  0.726100  0.570600  0.052000  1.0  0.2016
  C  C79  1  0.725500  0.428500  0.948000  1.0  0.1203
  C  C80  1  0.745800  0.200000  0.001800  1.0  0.0378
  C  C81  1  0.797800  0.257300  0.005400  1.0  -0.0139
  C  C82  1  0.780700  0.276200  0.963100  1.0  -0.0302
  C  C83  1  0.865800  0.282100  0.834300  1.0  -0.0602
  C  C84  1  0.827600  0.173500  0.212600  1.0  0.6281
  C  C85  1  0.713400  0.130100  0.835300  1.0  -0.0068
  C  C86  1  0.910800  0.271800  0.820200  1.0  0.0221
  C  C87  1  0.723400  0.218900  0.964400  1.0  -0.0566
  C  C88  1  0.722900  0.606100  0.089000  1.0  0.5922
  C  C89  1  0.794800  0.205100  0.074700  1.0  0.1472
  C  C90  1  0.716000  0.073200  0.778600  1.0  0.0571
  C  C91  1  0.782800  0.161400  0.141500  1.0  -0.0262
  C  C92  1  0.817600  0.181700  0.166000  1.0  0.1277
  C  C93  1  0.728000  0.505400  0.978500  1.0  0.1377
  C  C94  1  0.774600  0.223000  0.028300  1.0  0.0919
  C  C95  1  0.837500  0.216600  0.140600  1.0  -0.0408
  C  C96  1  0.729200  0.526200  0.057200  1.0  0.0049
  C  C97  1  0.729700  0.493200  0.022200  1.0  0.278
  C  C98  1  0.727300  0.474100  0.942700  1.0  -0.0149
  C  C99  1  0.729400  0.089300  0.818800  1.0  0.041
  C  C100  1  0.858100  0.325100  0.768100  1.0  0.0347
  C  C101  1  0.678400  0.146500  0.764700  1.0  -0.0361
  C  C102  1  0.832100  0.226900  0.096100  1.0  -0.0961
  C  C103  1  0.770100  0.172100  0.098300  1.0  -0.1048
  C  C104  1  0.741900  0.027200  0.760900  1.0  0.0197
  C  C105  1  0.687900  0.099500  0.751600  1.0  -0.1203
  C  C106  1  0.725000  0.587000  0.008700  1.0  -0.1168
  C  C107  1  0.900800  0.310900  0.751200  1.0  -0.0318
  C  C108  1  0.742000  0.545000  0.968100  1.0  -0.0467
  C  C109  1  0.727000  0.410900  0.991500  1.0  -0.1346
  C  C110  1  0.730000  0.449600  0.031100  1.0  -0.0402
  C  C111  1  0.969100  0.261800  0.756800  1.0  -0.0268
  C  C112  1  0.021000  0.215600  0.708300  1.0  0.0572
  C  C113  1  0.010600  0.266200  0.774800  1.0  0.086
  C  C114  1  0.730900  0.988600  0.778900  1.0  -0.0549
  C  C115  1  0.050700  0.257000  0.753000  1.0  0.1949
  C  C116  1  0.773000  0.996000  0.712000  1.0  -0.1277
  C  C117  1  0.750300  0.946600  0.759200  1.0  0.1364
  C  C118  1  0.970800  0.231000  0.714700  1.0  -0.1313
  C  C119  1  0.778200  0.104600  0.411500  1.0  0.6482
  C  C120  1  0.809800  0.338300  0.306700  1.0  0.145
  C  C121  1  0.821000  0.292000  0.321300  1.0  0.5734
  C  C122  1  0.661100  0.189800  0.307600  1.0  0.0887
  C  C123  1  0.706600  0.176800  0.321600  1.0  0.5914
  C  C124  1  0.573300  0.217800  0.276800  1.0  0.143
  C  C125  1  0.773900  0.929400  0.552000  1.0  0.2009
  C  C126  1  0.774500  0.071500  0.448000  1.0  0.1206
  C  C127  1  0.754200  0.300000  0.501800  1.0  0.035
  C  C128  1  0.702200  0.242700  0.505400  1.0  -0.0123
  C  C129  1  0.719300  0.223800  0.463100  1.0  -0.0315
  C  C130  1  0.634200  0.217900  0.334300  1.0  -0.0601
  C  C131  1  0.672400  0.326500  0.712600  1.0  0.6322
  C  C132  1  0.786600  0.369900  0.335300  1.0  -0.0018
  C  C133  1  0.589200  0.228200  0.320200  1.0  0.0223
  C  C134  1  0.776600  0.281100  0.464400  1.0  -0.0568
  C  C135  1  0.777100  0.893900  0.589000  1.0  0.5913
  C  C136  1  0.705200  0.294900  0.574700  1.0  0.1398
  C  C137  1  0.784000  0.426800  0.278600  1.0  0.0571
  C  C138  1  0.717200  0.338600  0.641500  1.0  -0.0266
  C  C139  1  0.682400  0.318300  0.666000  1.0  0.1295
  C  C140  1  0.772000  0.994600  0.478500  1.0  0.1398
  C  C141  1  0.725400  0.277000  0.528300  1.0  0.0915
  C  C142  1  0.662500  0.283400  0.640600  1.0  -0.0405
  C  C143  1  0.770800  0.973800  0.557200  1.0  0.007
  C  C144  1  0.770300  0.006800  0.522200  1.0  0.2742
  C  C145  1  0.772700  0.025900  0.442700  1.0  -0.0132
  C  C146  1  0.770600  0.410700  0.318800  1.0  0.0386
  C  C147  1  0.641900  0.174900  0.268100  1.0  0.0358
  C  C148  1  0.821600  0.353500  0.264700  1.0  -0.0356
  C  C149  1  0.667900  0.273100  0.596100  1.0  -0.0954
  C  C150  1  0.729900  0.327900  0.598300  1.0  -0.1096
  C  C151  1  0.758100  0.472800  0.260900  1.0  0.0201
  C  C152  1  0.812100  0.400500  0.251600  1.0  -0.1212
  C  C153  1  0.775000  0.913000  0.508700  1.0  -0.1148
  C  C154  1  0.599200  0.189100  0.251200  1.0  -0.0312
  C  C155  1  0.758000  0.955000  0.468100  1.0  -0.0447
  C  C156  1  0.773000  0.089100  0.491500  1.0  -0.1335
  C  C157  1  0.770000  0.050400  0.531100  1.0  -0.0396
  C  C158  1  0.530900  0.238200  0.256800  1.0  -0.0255
  C  C159  1  0.479000  0.284400  0.208300  1.0  0.056
  C  C160  1  0.489400  0.233800  0.274800  1.0  0.0883
  C  C161  1  0.769100  0.511400  0.278900  1.0  -0.0543
  C  C162  1  0.449300  0.243000  0.253000  1.0  0.193
  C  C163  1  0.727000  0.504000  0.212000  1.0  -0.1287
  C  C164  1  0.749700  0.553400  0.259200  1.0  0.1354
  C  C165  1  0.529200  0.269000  0.214700  1.0  -0.1307
  C  C166  1  0.278200  0.604600  0.911500  1.0  0.6482
  C  C167  1  0.309800  0.838300  0.806700  1.0  0.145
  C  C168  1  0.321000  0.792000  0.821300  1.0  0.5734
  C  C169  1  0.161100  0.689800  0.807600  1.0  0.0887
  C  C170  1  0.206600  0.676800  0.821600  1.0  0.5914
  C  C171  1  0.073300  0.717800  0.776800  1.0  0.143
  C  C172  1  0.273900  0.429400  0.052000  1.0  0.2009
  C  C173  1  0.274500  0.571500  0.948000  1.0  0.1206
  C  C174  1  0.254200  0.800000  0.001800  1.0  0.0364
  C  C175  1  0.202200  0.742700  0.005400  1.0  -0.0123
  C  C176  1  0.219300  0.723800  0.963100  1.0  -0.0315
  C  C177  1  0.134200  0.717900  0.834300  1.0  -0.0601
  C  C178  1  0.172400  0.826500  0.212600  1.0  0.6279
  C  C179  1  0.286600  0.869900  0.835300  1.0  -0.0065
  C  C180  1  0.089200  0.728200  0.820200  1.0  0.0223
  C  C181  1  0.276600  0.781100  0.964400  1.0  -0.0568
  C  C182  1  0.277100  0.393900  0.089000  1.0  0.5913
  C  C183  1  0.205200  0.794900  0.074700  1.0  0.1479
  C  C184  1  0.284000  0.926800  0.778600  1.0  0.0571
  C  C185  1  0.217200  0.838600  0.141500  1.0  -0.0267
  C  C186  1  0.182400  0.818300  0.166000  1.0  0.1284
  C  C187  1  0.272000  0.494600  0.978500  1.0  0.1398
  C  C188  1  0.225400  0.777000  0.028300  1.0  0.0915
  C  C189  1  0.162500  0.783400  0.140600  1.0  -0.0382
  C  C190  1  0.270800  0.473800  0.057200  1.0  0.0049
  C  C191  1  0.270300  0.506800  0.022200  1.0  0.2786
  C  C192  1  0.272700  0.525900  0.942700  1.0  -0.0146
  C  C193  1  0.270600  0.910700  0.818800  1.0  0.0402
  C  C194  1  0.141900  0.674900  0.768100  1.0  0.0358
  C  C195  1  0.321600  0.853500  0.764700  1.0  -0.0356
  C  C196  1  0.167900  0.773100  0.096100  1.0  -0.0936
  C  C197  1  0.229900  0.827900  0.098300  1.0  -0.1087
  C  C198  1  0.258100  0.972800  0.760900  1.0  0.0201
  C  C199  1  0.312100  0.900500  0.751600  1.0  -0.1212
  C  C200  1  0.275000  0.413000  0.008700  1.0  -0.1148
  C  C201  1  0.099200  0.689100  0.751200  1.0  -0.0312
  C  C202  1  0.258000  0.455000  0.968100  1.0  -0.0465
  C  C203  1  0.273000  0.589100  0.991500  1.0  -0.1335
  C  C204  1  0.270000  0.550400  0.031100  1.0  -0.0385
  C  C205  1  0.030900  0.738200  0.756800  1.0  -0.0255
  C  C206  1  0.979000  0.784400  0.708300  1.0  0.0594
  C  C207  1  0.989400  0.733800  0.774800  1.0  0.0883
  C  C208  1  0.269100  0.011400  0.778900  1.0  -0.0543
  C  C209  1  0.949300  0.743000  0.753000  1.0  0.193
  C  C210  1  0.227000  0.004000  0.712000  1.0  -0.1287
  C  C211  1  0.249700  0.053400  0.759200  1.0  0.1354
  C  C212  1  0.029200  0.769000  0.714700  1.0  -0.1307
  C  C213  1  0.895400  0.778200  0.588500  1.0  0.6479
  C  C214  1  0.661700  0.809800  0.693300  1.0  0.1436
  C  C215  1  0.708000  0.821000  0.678700  1.0  0.5763
  C  C216  1  0.810200  0.661100  0.692400  1.0  0.0873
  C  C217  1  0.823200  0.706600  0.678400  1.0  0.5914
  C  C218  1  0.782200  0.573300  0.723200  1.0  0.1435
  C  C219  1  0.070600  0.773900  0.448000  1.0  0.1997
  C  C220  1  0.928500  0.774500  0.552000  1.0  0.12
  C  C221  1  0.700000  0.754200  0.498200  1.0  0.0382
  C  C222  1  0.757300  0.702200  0.494600  1.0  -0.013
  C  C223  1  0.776200  0.719300  0.536900  1.0  -0.0297
  C  C224  1  0.782100  0.634200  0.665700  1.0  -0.0628
  C  C225  1  0.673500  0.672400  0.287400  1.0  0.6315
  C  C226  1  0.630100  0.786600  0.664700  1.0  -0.0036
  C  C227  1  0.771800  0.589200  0.679800  1.0  0.0218
  C  C228  1  0.718900  0.776600  0.535600  1.0  -0.0561
  C  C229  1  0.106100  0.777100  0.411000  1.0  0.5919
  C  C230  1  0.705100  0.705200  0.425300  1.0  0.1394
  C  C231  1  0.573200  0.784000  0.721400  1.0  0.0563
  C  C232  1  0.661400  0.717200  0.358500  1.0  -0.027
  C  C233  1  0.681700  0.682400  0.334000  1.0  0.1285
  C  C234  1  0.005400  0.772000  0.521500  1.0  0.1396
  C  C235  1  0.723000  0.725400  0.471700  1.0  0.0903
  C  C236  1  0.716600  0.662500  0.359400  1.0  -0.0407
  C  C237  1  0.026200  0.770800  0.442800  1.0  0.0088
  C  C238  1  0.993200  0.770300  0.477800  1.0  0.2715
  C  C239  1  0.974100  0.772700  0.557300  1.0  -0.0098
  C  C240  1  0.589300  0.770600  0.681200  1.0  0.0396
  C  C241  1  0.825100  0.641900  0.731900  1.0  0.0324
  C  C242  1  0.646500  0.821600  0.735300  1.0  -0.0372
  C  C243  1  0.726900  0.667900  0.403900  1.0  -0.0963
  C  C244  1  0.672100  0.729900  0.401700  1.0  -0.1051
  C  C245  1  0.527200  0.758100  0.739100  1.0  0.0206
  C  C246  1  0.599500  0.812100  0.748400  1.0  -0.121
  C  C247  1  0.087000  0.775000  0.491300  1.0  -0.1112
  C  C248  1  0.810900  0.599200  0.748800  1.0  -0.0333
  C  C249  1  0.045000  0.758000  0.531900  1.0  -0.0491
  C  C250  1  0.910900  0.773000  0.508500  1.0  -0.1362
  C  C251  1  0.949600  0.770000  0.468900  1.0  -0.0406
  C  C252  1  0.761800  0.530900  0.743200  1.0  -0.0262
  C  C253  1  0.715600  0.479000  0.791700  1.0  0.056
  C  C254  1  0.766200  0.489400  0.725200  1.0  0.0909
  C  C255  1  0.488600  0.769100  0.721100  1.0  -0.0605
  C  C256  1  0.757000  0.449300  0.747000  1.0  0.192
  C  C257  1  0.496000  0.727000  0.788000  1.0  -0.1309
  C  C258  1  0.446600  0.749700  0.740800  1.0  0.1353
  C  C259  1  0.731000  0.529200  0.785300  1.0  -0.1318
  C  C260  1  0.395400  0.278200  0.088500  1.0  0.6479
  C  C261  1  0.161700  0.309800  0.193300  1.0  0.1436
  C  C262  1  0.208000  0.321000  0.178700  1.0  0.5763
  C  C263  1  0.310200  0.161100  0.192400  1.0  0.0873
  C  C264  1  0.323200  0.206600  0.178400  1.0  0.5914
  C  C265  1  0.282200  0.073300  0.223200  1.0  0.1435
  C  C266  1  0.570600  0.273900  0.948000  1.0  0.1997
  C  C267  1  0.428500  0.274500  0.052000  1.0  0.12
  C  C268  1  0.200000  0.254200  0.998200  1.0  0.0396
  C  C269  1  0.257300  0.202200  0.994600  1.0  -0.013
  C  C270  1  0.276200  0.219300  0.036900  1.0  -0.0297
  C  C271  1  0.282100  0.134200  0.165700  1.0  -0.0628
  C  C272  1  0.173500  0.172400  0.787400  1.0  0.6274
  C  C273  1  0.130100  0.286600  0.164700  1.0  -0.0083
  C  C274  1  0.271800  0.089200  0.179800  1.0  0.0221
  C  C275  1  0.218900  0.276600  0.035600  1.0  -0.0561
  C  C276  1  0.606100  0.277100  0.911000  1.0  0.5919
  C  C277  1  0.205100  0.205200  0.925300  1.0  0.1482
  C  C278  1  0.073200  0.284000  0.221400  1.0  0.0563
  C  C279  1  0.161400  0.217200  0.858500  1.0  -0.0266
  C  C280  1  0.181700  0.182400  0.834000  1.0  0.127
  C  C281  1  0.505400  0.272000  0.021500  1.0  0.1396
  C  C282  1  0.223000  0.225400  0.971700  1.0  0.0903
  C  C283  1  0.216600  0.162500  0.859400  1.0  -0.0382
  C  C284  1  0.526200  0.270800  0.942800  1.0  0.007
  C  C285  1  0.493200  0.270300  0.977800  1.0  0.275
  C  C286  1  0.474100  0.272700  0.057300  1.0  -0.0121
  C  C287  1  0.089300  0.270600  0.181200  1.0  0.0404
  C  C288  1  0.325100  0.141900  0.231900  1.0  0.0324
  C  C289  1  0.146500  0.321600  0.235300  1.0  -0.0372
  C  C290  1  0.226900  0.167900  0.903900  1.0  -0.0948
  C  C291  1  0.172100  0.229900  0.901700  1.0  -0.1038
  C  C292  1  0.027200  0.258100  0.239100  1.0  0.0206
  C  C293  1  0.099500  0.312100  0.248400  1.0  -0.121
  C  C294  1  0.587000  0.275000  0.991300  1.0  -0.1112
  C  C295  1  0.310900  0.099200  0.248800  1.0  -0.0333
  C  C296  1  0.545000  0.258000  0.031900  1.0  -0.0497
  C  C297  1  0.410900  0.273000  0.008500  1.0  -0.1362
  C  C298  1  0.449600  0.270000  0.968900  1.0  -0.0389
  C  C299  1  0.261800  0.030900  0.243200  1.0  -0.0262
  C  C300  1  0.215600  0.979000  0.291700  1.0  0.0584
  C  C301  1  0.266200  0.989400  0.225200  1.0  0.0909
  C  C302  1  0.988600  0.269100  0.221100  1.0  -0.0605
  C  C303  1  0.257000  0.949300  0.247000  1.0  0.192
  C  C304  1  0.996000  0.227000  0.288000  1.0  -0.1309
  C  C305  1  0.946600  0.249700  0.240800  1.0  0.1353
  C  C306  1  0.231000  0.029200  0.285300  1.0  -0.1318
  C  C307  1  0.104600  0.221800  0.588500  1.0  0.6475
  C  C308  1  0.338300  0.190200  0.693300  1.0  0.1438
  C  C309  1  0.292000  0.179000  0.678700  1.0  0.577
  C  C310  1  0.189800  0.338900  0.692400  1.0  0.0878
  C  C311  1  0.176800  0.293400  0.678400  1.0  0.5906
  C  C312  1  0.217800  0.426700  0.723200  1.0  0.1438
  C  C313  1  0.929400  0.226100  0.448000  1.0  0.199
  C  C314  1  0.071500  0.225500  0.552000  1.0  0.1205
  C  C315  1  0.300000  0.245800  0.498200  1.0  0.0368
  C  C316  1  0.242700  0.297800  0.494600  1.0  -0.0128
  C  C317  1  0.223800  0.280700  0.536900  1.0  -0.0278
  C  C318  1  0.217900  0.365800  0.665700  1.0  -0.0621
  C  C319  1  0.326500  0.327600  0.287400  1.0  0.6308
  C  C320  1  0.369900  0.213400  0.664700  1.0  -0.0045
  C  C321  1  0.228200  0.410800  0.679800  1.0  0.0201
  C  C322  1  0.281100  0.223400  0.535600  1.0  -0.0573
  C  C323  1  0.893900  0.222900  0.411000  1.0  0.5918
  C  C324  1  0.294900  0.294800  0.425300  1.0  0.139
  C  C325  1  0.426800  0.216000  0.721400  1.0  0.0553
  C  C326  1  0.338600  0.282800  0.358500  1.0  -0.0287
  C  C327  1  0.318300  0.317600  0.334000  1.0  0.1297
  C  C328  1  0.994600  0.228000  0.521500  1.0  0.1389
  C  C329  1  0.277000  0.274600  0.471700  1.0  0.0899
  C  C330  1  0.283400  0.337500  0.359400  1.0  -0.0396
  C  C331  1  0.973800  0.229200  0.442800  1.0  0.0094
  C  C332  1  0.006800  0.229700  0.477800  1.0  0.2719
  C  C333  1  0.025900  0.227300  0.557300  1.0  -0.0108
  C  C334  1  0.410700  0.229400  0.681200  1.0  0.0386
  C  C335  1  0.174900  0.358100  0.731900  1.0  0.0334
  C  C336  1  0.353500  0.178400  0.735300  1.0  -0.0355
  C  C337  1  0.273100  0.332100  0.403900  1.0  -0.0961
  C  C338  1  0.327900  0.270100  0.401700  1.0  -0.1066
  C  C339  1  0.472800  0.241900  0.739100  1.0  0.0194
  C  C340  1  0.400500  0.187900  0.748400  1.0  -0.1209
  C  C341  1  0.913000  0.225000  0.491300  1.0  -0.1138
  C  C342  1  0.189100  0.400800  0.748800  1.0  -0.0328
  C  C343  1  0.955000  0.242000  0.531900  1.0  -0.05
  C  C344  1  0.089100  0.227000  0.508500  1.0  -0.1367
  C  C345  1  0.050400  0.230000  0.468900  1.0  -0.0382
  C  C346  1  0.238200  0.469100  0.743200  1.0  -0.0253
  C  C347  1  0.284400  0.521000  0.791700  1.0  0.0556
  C  C348  1  0.233800  0.510600  0.725200  1.0  0.0904
  C  C349  1  0.511400  0.230900  0.721100  1.0  -0.0584
  C  C350  1  0.243000  0.550700  0.747000  1.0  0.1949
  C  C351  1  0.504000  0.273000  0.788000  1.0  -0.1324
  C  C352  1  0.553400  0.250300  0.740800  1.0  0.1349
  C  C353  1  0.269000  0.470800  0.785300  1.0  -0.1305
  C  C354  1  0.604600  0.721800  0.088500  1.0  0.6475
  C  C355  1  0.838300  0.690200  0.193300  1.0  0.1438
  C  C356  1  0.792000  0.679000  0.178700  1.0  0.577
  C  C357  1  0.689800  0.838900  0.192400  1.0  0.0878
  C  C358  1  0.676800  0.793400  0.178400  1.0  0.5906
  C  C359  1  0.717800  0.926700  0.223200  1.0  0.1438
  C  C360  1  0.429400  0.726100  0.948000  1.0  0.199
  C  C361  1  0.571500  0.725500  0.052000  1.0  0.1205
  C  C362  1  0.800000  0.745800  0.998200  1.0  0.0391
  C  C363  1  0.742700  0.797800  0.994600  1.0  -0.0128
  C  C364  1  0.723800  0.780700  0.036900  1.0  -0.0278
  C  C365  1  0.717900  0.865800  0.165700  1.0  -0.0621
  C  C366  1  0.826500  0.827600  0.787400  1.0  0.6264
  C  C367  1  0.869900  0.713400  0.164700  1.0  -0.0091
  C  C368  1  0.728200  0.910800  0.179800  1.0  0.0196
  C  C369  1  0.781100  0.723400  0.035600  1.0  -0.0573
  C  C370  1  0.393900  0.722900  0.911000  1.0  0.5918
  C  C371  1  0.794900  0.794800  0.925300  1.0  0.1476
  C  C372  1  0.926800  0.716000  0.221400  1.0  0.0553
  C  C373  1  0.838600  0.782800  0.858500  1.0  -0.0294
  C  C374  1  0.818300  0.817600  0.834000  1.0  0.1279
  C  C375  1  0.494600  0.728000  0.021500  1.0  0.1389
  C  C376  1  0.777000  0.774600  0.971700  1.0  0.0899
  C  C377  1  0.783400  0.837500  0.859400  1.0  -0.0378
  C  C378  1  0.473800  0.729200  0.942800  1.0  0.0072
  C  C379  1  0.506800  0.729700  0.977800  1.0  0.2757
  C  C380  1  0.525900  0.727300  0.057300  1.0  -0.0129
  C  C381  1  0.910700  0.729400  0.181200  1.0  0.0396
  C  C382  1  0.674900  0.858100  0.231900  1.0  0.0334
  C  C383  1  0.853500  0.678400  0.235300  1.0  -0.0355
  C  C384  1  0.773100  0.832100  0.903900  1.0  -0.0942
  C  C385  1  0.827900  0.770100  0.901700  1.0  -0.106
  C  C386  1  0.972800  0.741900  0.239100  1.0  0.0194
  C  C387  1  0.900500  0.687900  0.248400  1.0  -0.1209
  C  C388  1  0.413000  0.725000  0.991300  1.0  -0.1138
  C  C389  1  0.689100  0.900800  0.248800  1.0  -0.0328
  C  C390  1  0.455000  0.742000  0.031900  1.0  -0.0513
  C  C391  1  0.589100  0.727000  0.008500  1.0  -0.1367
  C  C392  1  0.550400  0.730000  0.968900  1.0  -0.0366
  C  C393  1  0.738200  0.969100  0.243200  1.0  -0.0253
  C  C394  1  0.784400  0.021000  0.291700  1.0  0.059
  C  C395  1  0.733800  0.010600  0.225200  1.0  0.0904
  C  C396  1  0.011400  0.730900  0.221100  1.0  -0.0584
  C  C397  1  0.743000  0.050700  0.247000  1.0  0.1949
  C  C398  1  0.004000  0.773000  0.288000  1.0  -0.1324
  C  C399  1  0.053400  0.750300  0.240800  1.0  0.1349
  C  C400  1  0.769000  0.970800  0.285300  1.0  -0.1305
  N  N401  1  0.242600  0.757600  0.442500  1.0  -0.2877
  N  N402  1  0.266300  0.446000  0.224800  1.0  -0.2697
  N  N403  1  0.554100  0.733200  0.222600  1.0  -0.0141
  N  N404  1  0.742600  0.257600  0.942500  1.0  -0.2877
  N  N405  1  0.766300  0.946000  0.724800  1.0  -0.2697
  N  N406  1  0.054100  0.233200  0.722600  1.0  -0.0141
  N  N407  1  0.757400  0.242400  0.442500  1.0  -0.289
  N  N408  1  0.733700  0.554000  0.224800  1.0  -0.2694
  N  N409  1  0.445900  0.266800  0.222600  1.0  -0.0161
  N  N410  1  0.257400  0.742400  0.942500  1.0  -0.289
  N  N411  1  0.233700  0.054000  0.724800  1.0  -0.2694
  N  N412  1  0.945900  0.766800  0.722600  1.0  -0.0161
  N  N413  1  0.757600  0.757400  0.557500  1.0  -0.2874
  N  N414  1  0.446000  0.733700  0.775200  1.0  -0.2664
  N  N415  1  0.733200  0.445900  0.777400  1.0  -0.0172
  N  N416  1  0.257600  0.257400  0.057500  1.0  -0.2874
  N  N417  1  0.946000  0.233700  0.275200  1.0  -0.2664
  N  N418  1  0.233200  0.945900  0.277400  1.0  -0.0172
  N  N419  1  0.242400  0.242600  0.557500  1.0  -0.2877
  N  N420  1  0.554000  0.266300  0.775200  1.0  -0.2642
  N  N421  1  0.266800  0.554100  0.777400  1.0  -0.0182
  N  N422  1  0.742400  0.742600  0.057500  1.0  -0.2877
  N  N423  1  0.054000  0.766300  0.275200  1.0  -0.2642
  N  N424  1  0.766800  0.054100  0.277400  1.0  -0.0182
  O  O425  1  0.177200  0.822200  0.330200  1.0  -0.9217
  O  O426  1  0.200700  0.723600  0.355100  1.0  -0.6787
  O  O427  1  0.147000  0.727600  0.298100  1.0  -0.6613
  O  O428  1  0.272800  0.852400  0.298500  1.0  -0.6453
  O  O429  1  0.218300  0.853500  0.422800  1.0  -0.683
  O  O430  1  0.218600  0.147900  0.578000  1.0  -0.6647
  O  O431  1  0.276000  0.799900  0.354900  1.0  -0.7001
  O  O432  1  0.358900  0.695100  0.732600  1.0  -0.6883
  O  O433  1  0.305100  0.640000  0.731800  1.0  -0.7032
  O  O434  1  0.219000  0.909000  0.370600  1.0  -0.6917
  O  O435  1  0.220300  0.090700  0.629200  1.0  -0.6982
  O  O436  1  0.677200  0.322200  0.830200  1.0  -0.9217
  O  O437  1  0.700700  0.223600  0.855100  1.0  -0.6787
  O  O438  1  0.647000  0.227600  0.798100  1.0  -0.6613
  O  O439  1  0.772800  0.352400  0.798500  1.0  -0.6453
  O  O440  1  0.718300  0.353500  0.922800  1.0  -0.683
  O  O441  1  0.718600  0.647900  0.078000  1.0  -0.6647
  O  O442  1  0.776000  0.299900  0.854900  1.0  -0.7001
  O  O443  1  0.858900  0.195100  0.232600  1.0  -0.6819
  O  O444  1  0.805100  0.140000  0.231800  1.0  -0.7024
  O  O445  1  0.719000  0.409000  0.870600  1.0  -0.6917
  O  O446  1  0.720300  0.590700  0.129200  1.0  -0.6982
  O  O447  1  0.822800  0.177800  0.330200  1.0  -0.9222
  O  O448  1  0.799300  0.276400  0.355100  1.0  -0.6799
  O  O449  1  0.853000  0.272400  0.298100  1.0  -0.6609
  O  O450  1  0.727200  0.147600  0.298500  1.0  -0.6452
  O  O451  1  0.781700  0.146500  0.422800  1.0  -0.6828
  O  O452  1  0.781400  0.852100  0.578000  1.0  -0.6658
  O  O453  1  0.724000  0.200100  0.354900  1.0  -0.7015
  O  O454  1  0.641100  0.304900  0.732600  1.0  -0.6885
  O  O455  1  0.694900  0.360000  0.731800  1.0  -0.7033
  O  O456  1  0.781000  0.091000  0.370600  1.0  -0.6909
  O  O457  1  0.779700  0.909300  0.629200  1.0  -0.6979
  O  O458  1  0.322800  0.677800  0.830200  1.0  -0.9222
  O  O459  1  0.299300  0.776400  0.855100  1.0  -0.6799
  O  O460  1  0.353000  0.772400  0.798100  1.0  -0.6609
  O  O461  1  0.227200  0.647600  0.798500  1.0  -0.6452
  O  O462  1  0.281700  0.646500  0.922800  1.0  -0.6828
  O  O463  1  0.281400  0.352100  0.078000  1.0  -0.6658
  O  O464  1  0.224000  0.700100  0.854900  1.0  -0.7015
  O  O465  1  0.141100  0.804900  0.232600  1.0  -0.6822
  O  O466  1  0.194900  0.860000  0.231800  1.0  -0.7031
  O  O467  1  0.281000  0.591000  0.870600  1.0  -0.6909
  O  O468  1  0.279700  0.409300  0.129200  1.0  -0.6979
  O  O469  1  0.822200  0.822800  0.669800  1.0  -0.9219
  O  O470  1  0.723600  0.799300  0.644900  1.0  -0.6835
  O  O471  1  0.727600  0.853000  0.701900  1.0  -0.6637
  O  O472  1  0.852400  0.727200  0.701500  1.0  -0.6429
  O  O473  1  0.853500  0.781700  0.577200  1.0  -0.6821
  O  O474  1  0.147900  0.781400  0.422000  1.0  -0.6685
  O  O475  1  0.799900  0.724000  0.645100  1.0  -0.6965
  O  O476  1  0.695100  0.641100  0.267400  1.0  -0.6861
  O  O477  1  0.640000  0.694900  0.268200  1.0  -0.7043
  O  O478  1  0.909000  0.781000  0.629400  1.0  -0.6912
  O  O479  1  0.090700  0.779700  0.370800  1.0  -0.6988
  O  O480  1  0.322200  0.322800  0.169800  1.0  -0.9219
  O  O481  1  0.223600  0.299300  0.144900  1.0  -0.6835
  O  O482  1  0.227600  0.353000  0.201900  1.0  -0.6637
  O  O483  1  0.352400  0.227200  0.201500  1.0  -0.6429
  O  O484  1  0.353500  0.281700  0.077200  1.0  -0.6821
  O  O485  1  0.647900  0.281400  0.922000  1.0  -0.6685
  O  O486  1  0.299900  0.224000  0.145100  1.0  -0.6965
  O  O487  1  0.195100  0.141100  0.767400  1.0  -0.6804
  O  O488  1  0.140000  0.194900  0.768200  1.0  -0.7036
  O  O489  1  0.409000  0.281000  0.129400  1.0  -0.6912
  O  O490  1  0.590700  0.279700  0.870800  1.0  -0.6988
  O  O491  1  0.177800  0.177200  0.669800  1.0  -0.9216
  O  O492  1  0.276400  0.200700  0.644900  1.0  -0.6827
  O  O493  1  0.272400  0.147000  0.701900  1.0  -0.6631
  O  O494  1  0.147600  0.272800  0.701500  1.0  -0.6443
  O  O495  1  0.146500  0.218300  0.577200  1.0  -0.6825
  O  O496  1  0.852100  0.218600  0.422000  1.0  -0.6681
  O  O497  1  0.200100  0.276000  0.645100  1.0  -0.6962
  O  O498  1  0.304900  0.358900  0.267400  1.0  -0.6853
  O  O499  1  0.360000  0.305100  0.268200  1.0  -0.7041
  O  O500  1  0.091000  0.219000  0.629400  1.0  -0.6907
  O  O501  1  0.909300  0.220300  0.370800  1.0  -0.6971
  O  O502  1  0.677800  0.677200  0.169800  1.0  -0.9216
  O  O503  1  0.776400  0.700700  0.144900  1.0  -0.6827
  O  O504  1  0.772400  0.647000  0.201900  1.0  -0.6631
  O  O505  1  0.647600  0.772800  0.201500  1.0  -0.6443
  O  O506  1  0.646500  0.718300  0.077200  1.0  -0.6825
  O  O507  1  0.352100  0.718600  0.922000  1.0  -0.6681
  O  O508  1  0.700100  0.776000  0.145100  1.0  -0.6962
  O  O509  1  0.804900  0.858900  0.767400  1.0  -0.6791
  O  O510  1  0.860000  0.805100  0.768200  1.0  -0.7034
  O  O511  1  0.591000  0.719000  0.129400  1.0  -0.6907
  O  O512  1  0.409300  0.720300  0.870800  1.0  -0.6971
