# generated using pymatgen
data_CuH8(C2N3)4
_symmetry_space_group_name_H-M   'P 1'
_cell_length_a   10.63320000
_cell_length_b   12.03610000
_cell_length_c   12.80520000
_cell_angle_alpha   90.00000000
_cell_angle_beta   92.25600000
_cell_angle_gamma   90.00000000
_symmetry_Int_Tables_number   1
_chemical_formula_structural   CuH8(C2N3)4
_chemical_formula_sum   'Cu4 H32 C32 N48'
_cell_volume   1637.56818507
_cell_formula_units_Z   4
loop_
 _symmetry_equiv_pos_site_id
 _symmetry_equiv_pos_as_xyz
  1  'x, y, z'
loop_
 _atom_site_type_symbol
 _atom_site_label
 _atom_site_symmetry_multiplicity
 _atom_site_fract_x
 _atom_site_fract_y
 _atom_site_fract_z
 _atom_site_occupancy
 _atom_site_charge
  Cu  Cu1  1  0.122270  0.370210  0.495150  1.0  0.7027
  Cu  Cu2  1  0.377730  0.870210  0.004850  1.0  0.702
  Cu  Cu3  1  0.877730  0.629790  0.504850  1.0  0.7015
  Cu  Cu4  1  0.622270  0.129790  0.995150  1.0  0.7032
  H  H5  1  0.290000  0.221000  0.649000  1.0  0.1984
  H  H6  1  0.027000  0.233000  0.847600  1.0  0.0551
  H  H7  1  0.371000  0.267200  0.906000  1.0  0.1904
  H  H8  1  0.205500  0.987500  0.837200  1.0  0.0766
  H  H9  1  0.275000  0.233000  0.329100  1.0  0.1112
  H  H10  1  0.089000  0.973000  0.403200  1.0  0.1697
  H  H11  1  0.198000  0.024400  0.138300  1.0  0.2065
  H  H12  1  0.433000  0.972300  0.378800  1.0  0.0407
  H  H13  1  0.210000  0.721000  0.851000  1.0  0.201
  H  H14  1  0.473000  0.733000  0.652400  1.0  0.0563
  H  H15  1  0.129000  0.767200  0.594000  1.0  0.1908
  H  H16  1  0.294500  0.487500  0.662800  1.0  0.0772
  H  H17  1  0.225000  0.733000  0.170900  1.0  0.1115
  H  H18  1  0.411000  0.473000  0.096800  1.0  0.1699
  H  H19  1  0.302000  0.524400  0.361700  1.0  0.2067
  H  H20  1  0.067000  0.472300  0.121200  1.0  0.0421
  H  H21  1  0.710000  0.779000  0.351000  1.0  0.201
  H  H22  1  0.973000  0.767000  0.152400  1.0  0.0565
  H  H23  1  0.629000  0.732800  0.094000  1.0  0.1904
  H  H24  1  0.794500  0.012500  0.162800  1.0  0.0767
  H  H25  1  0.725000  0.767000  0.670900  1.0  0.1118
  H  H26  1  0.911000  0.027000  0.596800  1.0  0.1666
  H  H27  1  0.802000  0.975600  0.861700  1.0  0.2066
  H  H28  1  0.567000  0.027700  0.621200  1.0  0.0421
  H  H29  1  0.790000  0.279000  0.149000  1.0  0.1988
  H  H30  1  0.527000  0.267000  0.347600  1.0  0.055
  H  H31  1  0.871000  0.232800  0.406000  1.0  0.1903
  H  H32  1  0.705500  0.512500  0.337200  1.0  0.0764
  H  H33  1  0.775000  0.267000  0.829100  1.0  0.1113
  H  H34  1  0.589000  0.527000  0.903200  1.0  0.1668
  H  H35  1  0.698000  0.475600  0.638300  1.0  0.2063
  H  H36  1  0.933000  0.527700  0.878800  1.0  0.041
  C  C37  1  0.218680  0.239050  0.676810  1.0  0.0781
  C  C38  1  0.068640  0.245440  0.787220  1.0  0.1282
  C  C39  1  0.354440  0.195610  0.905700  1.0  0.055
  C  C40  1  0.260830  0.038310  0.864540  1.0  0.0431
  C  C41  1  0.219790  0.190670  0.362980  1.0  0.0458
  C  C42  1  0.112030  0.043560  0.402580  1.0  0.0836
  C  C43  1  0.262280  0.998690  0.176840  1.0  0.0703
  C  C44  1  0.395800  0.968880  0.309540  1.0  0.0194
  C  C45  1  0.281320  0.739050  0.823190  1.0  0.0786
  C  C46  1  0.431360  0.745440  0.712780  1.0  0.1317
  C  C47  1  0.145560  0.695610  0.594300  1.0  0.0555
  C  C48  1  0.239170  0.538310  0.635460  1.0  0.0437
  C  C49  1  0.280210  0.690670  0.137020  1.0  0.0457
  C  C50  1  0.387970  0.543560  0.097420  1.0  0.0829
  C  C51  1  0.237720  0.498690  0.323160  1.0  0.0704
  C  C52  1  0.104200  0.468880  0.190460  1.0  0.0182
  C  C53  1  0.781320  0.760950  0.323190  1.0  0.078
  C  C54  1  0.931360  0.754560  0.212780  1.0  0.1319
  C  C55  1  0.645560  0.804390  0.094300  1.0  0.0545
  C  C56  1  0.739170  0.961690  0.135460  1.0  0.0437
  C  C57  1  0.780210  0.809330  0.637020  1.0  0.0458
  C  C58  1  0.887970  0.956440  0.597420  1.0  0.0848
  C  C59  1  0.737720  0.001310  0.823160  1.0  0.0704
  C  C60  1  0.604200  0.031120  0.690460  1.0  0.0182
  C  C61  1  0.718680  0.260950  0.176810  1.0  0.0777
  C  C62  1  0.568640  0.254560  0.287220  1.0  0.1283
  C  C63  1  0.854440  0.304390  0.405700  1.0  0.0555
  C  C64  1  0.760830  0.461690  0.364540  1.0  0.0433
  C  C65  1  0.719790  0.309330  0.862980  1.0  0.0461
  C  C66  1  0.612030  0.456440  0.902580  1.0  0.0852
  C  C67  1  0.762280  0.501310  0.676840  1.0  0.0704
  C  C68  1  0.895800  0.531120  0.809540  1.0  0.0194
  N  N69  1  0.126450  0.297130  0.635620  1.0  -0.2168
  N  N70  1  0.030440  0.302080  0.705300  1.0  -0.3371
  N  N71  1  0.185460  0.204570  0.772080  1.0  0.0097
  N  N72  1  0.408100  0.118530  0.963400  1.0  -0.3345
  N  N73  1  0.347830  0.018610  0.936750  1.0  -0.2599
  N  N74  1  0.262550  0.148540  0.843270  1.0  0.0016
  N  N75  1  0.137040  0.219080  0.429500  1.0  -0.2227
  N  N76  1  0.067550  0.125690  0.455460  1.0  -0.3288
  N  N77  1  0.207670  0.080840  0.343020  1.0  -0.0103
  N  N78  1  0.354350  0.938510  0.145610  1.0  -0.219
  N  N79  1  0.440140  0.918840  0.229180  1.0  -0.3569
  N  N80  1  0.284100  0.019920  0.280210  1.0  -0.0014
  N  N81  1  0.373550  0.797130  0.864380  1.0  -0.2162
  N  N82  1  0.469560  0.802080  0.794700  1.0  -0.3386
  N  N83  1  0.314540  0.704570  0.727920  1.0  0.0092
  N  N84  1  0.091900  0.618530  0.536600  1.0  -0.3337
  N  N85  1  0.152170  0.518610  0.563250  1.0  -0.2613
  N  N86  1  0.237450  0.648540  0.656730  1.0  0.0032
  N  N87  1  0.362960  0.719080  0.070500  1.0  -0.224
  N  N88  1  0.432450  0.625690  0.044540  1.0  -0.3303
  N  N89  1  0.292330  0.580840  0.156980  1.0  -0.0101
  N  N90  1  0.145650  0.438510  0.354390  1.0  -0.2192
  N  N91  1  0.059860  0.418840  0.270820  1.0  -0.3571
  N  N92  1  0.215900  0.519920  0.219790  1.0  -0.0019
  N  N93  1  0.873550  0.702870  0.364380  1.0  -0.2167
  N  N94  1  0.969560  0.697920  0.294700  1.0  -0.3384
  N  N95  1  0.814540  0.795430  0.227920  1.0  0.0089
  N  N96  1  0.591900  0.881470  0.036600  1.0  -0.334
  N  N97  1  0.652170  0.981390  0.063250  1.0  -0.2613
  N  N98  1  0.737450  0.851460  0.156730  1.0  0.0035
  N  N99  1  0.862960  0.780920  0.570500  1.0  -0.2232
  N  N100  1  0.932450  0.874310  0.544540  1.0  -0.3301
  N  N101  1  0.792330  0.919160  0.656980  1.0  -0.0106
  N  N102  1  0.645650  0.061490  0.854390  1.0  -0.2191
  N  N103  1  0.559860  0.081160  0.770820  1.0  -0.3569
  N  N104  1  0.715900  0.980080  0.719790  1.0  -0.0021
  N  N105  1  0.626450  0.202870  0.135620  1.0  -0.217
  N  N106  1  0.530440  0.197920  0.205300  1.0  -0.3376
  N  N107  1  0.685460  0.295430  0.272080  1.0  0.0094
  N  N108  1  0.908100  0.381470  0.463400  1.0  -0.3346
  N  N109  1  0.847830  0.481390  0.436750  1.0  -0.2606
  N  N110  1  0.762550  0.351460  0.343270  1.0  0.0017
  N  N111  1  0.637040  0.280920  0.929500  1.0  -0.2224
  N  N112  1  0.567550  0.374310  0.955460  1.0  -0.3285
  N  N113  1  0.707670  0.419160  0.843020  1.0  -0.0107
  N  N114  1  0.854350  0.561490  0.645610  1.0  -0.219
  N  N115  1  0.940140  0.581160  0.729180  1.0  -0.3574
  N  N116  1  0.784100  0.480080  0.780210  1.0  -0.0015
