# generated using pymatgen
data_Cu3H18C18N24O4F3
_symmetry_space_group_name_H-M   'P 1'
_cell_length_a   17.42590000
_cell_length_b   21.52090000
_cell_length_c   26.83260000
_cell_angle_alpha   90.00000000
_cell_angle_beta   90.00000000
_cell_angle_gamma   90.00000000
_symmetry_Int_Tables_number   1
_chemical_formula_structural   Cu3H18C18N24O4F3
_chemical_formula_sum   'Cu24 H144 C144 N192 O32 F24'
_cell_volume   10062.78986138
_cell_formula_units_Z   8
loop_
 _symmetry_equiv_pos_site_id
 _symmetry_equiv_pos_as_xyz
  1  'x, y, z'
loop_
 _atom_site_type_symbol
 _atom_site_label
 _atom_site_symmetry_multiplicity
 _atom_site_fract_x
 _atom_site_fract_y
 _atom_site_fract_z
 _atom_site_occupancy
 _atom_site_charge
  Cu  Cu1  1  0.727920  0.844770  0.781730  1.0  0.7463
  Cu  Cu2  1  0.750020  0.747510  0.874900  1.0  0.8388
  Cu  Cu3  1  0.773440  0.148590  0.033120  1.0  0.7031
  Cu  Cu4  1  0.772080  0.344770  0.718270  1.0  0.7462
  Cu  Cu5  1  0.749980  0.247510  0.625100  1.0  0.8392
  Cu  Cu6  1  0.726560  0.648590  0.466880  1.0  0.7024
  Cu  Cu7  1  0.272080  0.655230  0.781730  1.0  0.745
  Cu  Cu8  1  0.249980  0.752490  0.874900  1.0  0.8399
  Cu  Cu9  1  0.226560  0.351410  0.033120  1.0  0.7035
  Cu  Cu10  1  0.227920  0.155230  0.718270  1.0  0.7474
  Cu  Cu11  1  0.250020  0.252490  0.625100  1.0  0.8394
  Cu  Cu12  1  0.273440  0.851410  0.466880  1.0  0.7051
  Cu  Cu13  1  0.272080  0.155230  0.218270  1.0  0.7463
  Cu  Cu14  1  0.249980  0.252490  0.125100  1.0  0.8396
  Cu  Cu15  1  0.226560  0.851410  0.966880  1.0  0.7035
  Cu  Cu16  1  0.227920  0.655230  0.281730  1.0  0.7462
  Cu  Cu17  1  0.250020  0.752490  0.374900  1.0  0.8391
  Cu  Cu18  1  0.273440  0.351410  0.533120  1.0  0.7051
  Cu  Cu19  1  0.727920  0.344770  0.218270  1.0  0.7473
  Cu  Cu20  1  0.750020  0.247510  0.125100  1.0  0.8391
  Cu  Cu21  1  0.773440  0.648590  0.966880  1.0  0.7031
  Cu  Cu22  1  0.772080  0.844770  0.281730  1.0  0.7452
  Cu  Cu23  1  0.749980  0.747510  0.374900  1.0  0.8394
  Cu  Cu24  1  0.726560  0.148590  0.533120  1.0  0.7022
  H  H25  1  0.670500  0.753000  0.805400  1.0  0.3664
  H  H26  1  0.827400  0.742600  0.945200  1.0  0.3694
  H  H27  1  0.718700  0.983000  0.837500  1.0  0.1018
  H  H28  1  0.761700  0.885700  0.960000  1.0  0.0841
  H  H29  1  0.603400  0.012900  0.935800  1.0  0.0834
  H  H30  1  0.824100  0.031900  0.964900  1.0  0.1054
  H  H31  1  0.941400  0.823200  0.752800  1.0  0.091
  H  H32  1  0.923200  0.700400  0.862700  1.0  0.0956
  H  H33  1  0.580900  0.799600  0.889200  1.0  0.0862
  H  H34  1  0.555300  0.673800  0.996000  1.0  0.092
  H  H35  1  0.782900  0.110900  0.711400  1.0  0.0805
  H  H36  1  0.756200  0.010200  0.587800  1.0  0.0946
  H  H37  1  0.684200  0.969700  0.720500  1.0  0.088
  H  H38  1  0.899900  0.967500  0.675300  1.0  0.0916
  H  H39  1  0.744000  0.829200  0.659500  1.0  0.0974
  H  H40  1  0.622800  0.674700  0.679700  1.0  0.1017
  H  H41  1  0.748600  0.664100  0.589000  1.0  0.1029
  H  H42  1  0.607300  0.806700  0.573600  1.0  0.0912
  H  H43  1  0.829500  0.253000  0.694600  1.0  0.3676
  H  H44  1  0.672600  0.242600  0.554800  1.0  0.3695
  H  H45  1  0.781300  0.483000  0.662500  1.0  0.1011
  H  H46  1  0.738300  0.385700  0.540000  1.0  0.0856
  H  H47  1  0.896600  0.512900  0.564200  1.0  0.0837
  H  H48  1  0.675900  0.531900  0.535100  1.0  0.1061
  H  H49  1  0.558600  0.323200  0.747200  1.0  0.0918
  H  H50  1  0.576800  0.200400  0.637300  1.0  0.0953
  H  H51  1  0.919100  0.299600  0.610800  1.0  0.0857
  H  H52  1  0.944700  0.173800  0.504000  1.0  0.0916
  H  H53  1  0.717100  0.610900  0.788600  1.0  0.0835
  H  H54  1  0.743800  0.510200  0.912200  1.0  0.095
  H  H55  1  0.815800  0.469700  0.779500  1.0  0.0882
  H  H56  1  0.600100  0.467500  0.824700  1.0  0.0929
  H  H57  1  0.756000  0.329200  0.840500  1.0  0.0984
  H  H58  1  0.877200  0.174700  0.820300  1.0  0.102
  H  H59  1  0.751400  0.164100  0.911000  1.0  0.1024
  H  H60  1  0.892700  0.306700  0.926400  1.0  0.0906
  H  H61  1  0.329500  0.747000  0.805400  1.0  0.3664
  H  H62  1  0.172600  0.757400  0.945200  1.0  0.3701
  H  H63  1  0.281300  0.517000  0.837500  1.0  0.1015
  H  H64  1  0.238300  0.614300  0.960000  1.0  0.0842
  H  H65  1  0.396600  0.487100  0.935800  1.0  0.0836
  H  H66  1  0.175900  0.468100  0.964900  1.0  0.106
  H  H67  1  0.058600  0.676800  0.752800  1.0  0.0907
  H  H68  1  0.076800  0.799600  0.862700  1.0  0.0939
  H  H69  1  0.419100  0.700400  0.889200  1.0  0.0852
  H  H70  1  0.444700  0.826200  0.996000  1.0  0.0914
  H  H71  1  0.217100  0.389100  0.711400  1.0  0.0798
  H  H72  1  0.243800  0.489800  0.587800  1.0  0.0952
  H  H73  1  0.315800  0.530300  0.720500  1.0  0.0881
  H  H74  1  0.100100  0.532500  0.675300  1.0  0.0921
  H  H75  1  0.256000  0.670800  0.659500  1.0  0.0977
  H  H76  1  0.377200  0.825300  0.679700  1.0  0.1025
  H  H77  1  0.251400  0.835900  0.589000  1.0  0.1028
  H  H78  1  0.392700  0.693300  0.573600  1.0  0.0906
  H  H79  1  0.170500  0.247000  0.694600  1.0  0.3675
  H  H80  1  0.327400  0.257400  0.554800  1.0  0.3689
  H  H81  1  0.218700  0.017000  0.662500  1.0  0.1016
  H  H82  1  0.261700  0.114300  0.540000  1.0  0.0854
  H  H83  1  0.103400  0.987100  0.564200  1.0  0.0835
  H  H84  1  0.324100  0.968100  0.535100  1.0  0.1055
  H  H85  1  0.441400  0.176800  0.747200  1.0  0.0905
  H  H86  1  0.423200  0.299600  0.637300  1.0  0.0938
  H  H87  1  0.080900  0.200400  0.610800  1.0  0.0857
  H  H88  1  0.055300  0.326200  0.504000  1.0  0.0913
  H  H89  1  0.282900  0.889100  0.788600  1.0  0.0849
  H  H90  1  0.256200  0.989800  0.912200  1.0  0.096
  H  H91  1  0.184200  0.030300  0.779500  1.0  0.0883
  H  H92  1  0.399900  0.032500  0.824700  1.0  0.0922
  H  H93  1  0.244000  0.170800  0.840500  1.0  0.098
  H  H94  1  0.122800  0.325300  0.820300  1.0  0.103
  H  H95  1  0.248600  0.335900  0.911000  1.0  0.1024
  H  H96  1  0.107300  0.193300  0.926400  1.0  0.0904
  H  H97  1  0.329500  0.247000  0.194600  1.0  0.3669
  H  H98  1  0.172600  0.257400  0.054800  1.0  0.3689
  H  H99  1  0.281300  0.017000  0.162500  1.0  0.1016
  H  H100  1  0.238300  0.114300  0.040000  1.0  0.0856
  H  H101  1  0.396600  0.987100  0.064200  1.0  0.0836
  H  H102  1  0.175900  0.968100  0.035100  1.0  0.106
  H  H103  1  0.058600  0.176800  0.247200  1.0  0.0915
  H  H104  1  0.076800  0.299600  0.137300  1.0  0.096
  H  H105  1  0.419100  0.200400  0.110800  1.0  0.0857
  H  H106  1  0.444700  0.326200  0.004000  1.0  0.0918
  H  H107  1  0.217100  0.889100  0.288600  1.0  0.0837
  H  H108  1  0.243800  0.989800  0.412200  1.0  0.0955
  H  H109  1  0.315800  0.030300  0.279500  1.0  0.0883
  H  H110  1  0.100100  0.032500  0.324700  1.0  0.0931
  H  H111  1  0.256000  0.170800  0.340500  1.0  0.0985
  H  H112  1  0.377200  0.325300  0.320300  1.0  0.1023
  H  H113  1  0.251400  0.335900  0.411000  1.0  0.1027
  H  H114  1  0.392700  0.193300  0.426400  1.0  0.0909
  H  H115  1  0.170500  0.747000  0.305400  1.0  0.3671
  H  H116  1  0.327400  0.757400  0.445200  1.0  0.37
  H  H117  1  0.218700  0.517000  0.337500  1.0  0.1015
  H  H118  1  0.261700  0.614300  0.460000  1.0  0.0838
  H  H119  1  0.103400  0.487100  0.435800  1.0  0.0833
  H  H120  1  0.324100  0.468100  0.464900  1.0  0.1055
  H  H121  1  0.441400  0.676800  0.252800  1.0  0.0904
  H  H122  1  0.423200  0.799600  0.362700  1.0  0.0958
  H  H123  1  0.080900  0.700400  0.389200  1.0  0.0858
  H  H124  1  0.055300  0.826200  0.496000  1.0  0.0912
  H  H125  1  0.282900  0.389100  0.211400  1.0  0.0809
  H  H126  1  0.256200  0.489800  0.087800  1.0  0.0955
  H  H127  1  0.184200  0.530300  0.220500  1.0  0.0882
  H  H128  1  0.399900  0.532500  0.175300  1.0  0.0917
  H  H129  1  0.244000  0.670800  0.159500  1.0  0.0974
  H  H130  1  0.122800  0.825300  0.179700  1.0  0.103
  H  H131  1  0.248600  0.835900  0.089000  1.0  0.1025
  H  H132  1  0.107300  0.693300  0.073600  1.0  0.0901
  H  H133  1  0.670500  0.253000  0.194600  1.0  0.3681
  H  H134  1  0.827400  0.242600  0.054800  1.0  0.3694
  H  H135  1  0.718700  0.483000  0.162500  1.0  0.1012
  H  H136  1  0.761700  0.385700  0.040000  1.0  0.0853
  H  H137  1  0.603400  0.512900  0.064200  1.0  0.0836
  H  H138  1  0.824100  0.531900  0.035100  1.0  0.1056
  H  H139  1  0.941400  0.323200  0.247200  1.0  0.0911
  H  H140  1  0.923200  0.200400  0.137300  1.0  0.0934
  H  H141  1  0.580900  0.299600  0.110800  1.0  0.0857
  H  H142  1  0.555300  0.173800  0.004000  1.0  0.091
  H  H143  1  0.782900  0.610900  0.288600  1.0  0.0849
  H  H144  1  0.756200  0.510200  0.412200  1.0  0.0955
  H  H145  1  0.684200  0.469700  0.279500  1.0  0.088
  H  H146  1  0.899900  0.467500  0.324700  1.0  0.0924
  H  H147  1  0.744000  0.329200  0.340500  1.0  0.0979
  H  H148  1  0.622800  0.174700  0.320300  1.0  0.1021
  H  H149  1  0.748600  0.164100  0.411000  1.0  0.1026
  H  H150  1  0.607300  0.306700  0.426400  1.0  0.0912
  H  H151  1  0.829500  0.753000  0.305400  1.0  0.3661
  H  H152  1  0.672600  0.742600  0.445200  1.0  0.3695
  H  H153  1  0.781300  0.983000  0.337500  1.0  0.1016
  H  H154  1  0.738300  0.885700  0.460000  1.0  0.0845
  H  H155  1  0.896600  0.012900  0.435800  1.0  0.0838
  H  H156  1  0.675900  0.031900  0.464900  1.0  0.106
  H  H157  1  0.558600  0.823200  0.252800  1.0  0.0913
  H  H158  1  0.576800  0.700400  0.362700  1.0  0.0934
  H  H159  1  0.919100  0.799600  0.389200  1.0  0.0855
  H  H160  1  0.944700  0.673800  0.496000  1.0  0.0916
  H  H161  1  0.717100  0.110900  0.211400  1.0  0.0793
  H  H162  1  0.743800  0.010200  0.087800  1.0  0.0944
  H  H163  1  0.815800  0.969700  0.220500  1.0  0.0883
  H  H164  1  0.600100  0.967500  0.175300  1.0  0.0918
  H  H165  1  0.756000  0.829200  0.159500  1.0  0.0978
  H  H166  1  0.877200  0.674700  0.179700  1.0  0.1019
  H  H167  1  0.751400  0.664100  0.089000  1.0  0.1027
  H  H168  1  0.892700  0.806700  0.073600  1.0  0.0906
  C  C169  1  0.730900  0.949890  0.859560  1.0  0.0978
  C  C170  1  0.754400  0.896570  0.925980  1.0  0.0916
  C  C171  1  0.650200  0.028400  0.948970  1.0  0.1761
  C  C172  1  0.770300  0.038550  0.964770  1.0  0.0923
  C  C173  1  0.920780  0.797500  0.778290  1.0  0.1164
  C  C174  1  0.911000  0.730740  0.838170  1.0  0.095
  C  C175  1  0.591050  0.768120  0.913170  1.0  0.1119
  C  C176  1  0.577200  0.699890  0.971300  1.0  0.1477
  C  C177  1  0.774800  0.099520  0.677570  1.0  0.1344
  C  C178  1  0.759900  0.044350  0.610030  1.0  0.0988
  C  C179  1  0.736400  0.958250  0.716150  1.0  0.0998
  C  C180  1  0.853400  0.956580  0.691540  1.0  0.1636
  C  C181  1  0.714900  0.796960  0.674650  1.0  0.0741
  C  C182  1  0.649500  0.712500  0.685690  1.0  0.0901
  C  C183  1  0.715800  0.694610  0.574870  1.0  0.0826
  C  C184  1  0.639500  0.772400  0.566030  1.0  0.1068
  C  C185  1  0.566000  0.897200  0.807290  1.0  0.5101
  C  C186  1  0.488700  0.864000  0.794200  1.0  0.5079
  C  C187  1  0.769100  0.449890  0.640440  1.0  0.0999
  C  C188  1  0.745600  0.396570  0.574020  1.0  0.0935
  C  C189  1  0.849800  0.528400  0.551030  1.0  0.1796
  C  C190  1  0.729700  0.538550  0.535230  1.0  0.09
  C  C191  1  0.579220  0.297500  0.721710  1.0  0.1139
  C  C192  1  0.589000  0.230740  0.661830  1.0  0.0936
  C  C193  1  0.908950  0.268120  0.586830  1.0  0.1122
  C  C194  1  0.922800  0.199890  0.528700  1.0  0.146
  C  C195  1  0.725200  0.599520  0.822430  1.0  0.1354
  C  C196  1  0.740100  0.544350  0.889970  1.0  0.0968
  C  C197  1  0.763600  0.458250  0.783850  1.0  0.0992
  C  C198  1  0.646600  0.456580  0.808460  1.0  0.1614
  C  C199  1  0.785100  0.296960  0.825350  1.0  0.072
  C  C200  1  0.850500  0.212500  0.814310  1.0  0.0904
  C  C201  1  0.784200  0.194610  0.925130  1.0  0.0817
  C  C202  1  0.860500  0.272400  0.933970  1.0  0.1079
  C  C203  1  0.934000  0.397200  0.692710  1.0  0.5095
  C  C204  1  0.011300  0.364000  0.705800  1.0  0.5077
  C  C205  1  0.269100  0.550110  0.859560  1.0  0.0984
  C  C206  1  0.245600  0.603430  0.925980  1.0  0.0903
  C  C207  1  0.349800  0.471600  0.948970  1.0  0.1794
  C  C208  1  0.229700  0.461450  0.964770  1.0  0.0905
  C  C209  1  0.079220  0.702500  0.778290  1.0  0.1162
  C  C210  1  0.089000  0.769260  0.838170  1.0  0.0946
  C  C211  1  0.408950  0.731880  0.913170  1.0  0.1126
  C  C212  1  0.422800  0.800110  0.971300  1.0  0.1459
  C  C213  1  0.225200  0.400480  0.677570  1.0  0.1342
  C  C214  1  0.240100  0.455650  0.610030  1.0  0.0982
  C  C215  1  0.263600  0.541750  0.716150  1.0  0.0992
  C  C216  1  0.146600  0.543420  0.691540  1.0  0.1603
  C  C217  1  0.285100  0.703040  0.674650  1.0  0.0736
  C  C218  1  0.350500  0.787500  0.685690  1.0  0.0907
  C  C219  1  0.284200  0.805390  0.574870  1.0  0.0823
  C  C220  1  0.360500  0.727600  0.566030  1.0  0.1065
  C  C221  1  0.434000  0.602800  0.807290  1.0  0.5081
  C  C222  1  0.511300  0.636000  0.794200  1.0  0.5072
  C  C223  1  0.230900  0.050110  0.640440  1.0  0.0974
  C  C224  1  0.254400  0.103430  0.574020  1.0  0.0924
  C  C225  1  0.150200  0.971600  0.551030  1.0  0.1756
  C  C226  1  0.270300  0.961450  0.535230  1.0  0.0925
  C  C227  1  0.420780  0.202500  0.721710  1.0  0.1151
  C  C228  1  0.411000  0.269260  0.661830  1.0  0.0949
  C  C229  1  0.091050  0.231880  0.586830  1.0  0.1131
  C  C230  1  0.077200  0.300110  0.528700  1.0  0.1457
  C  C231  1  0.274800  0.900480  0.822430  1.0  0.1357
  C  C232  1  0.259900  0.955650  0.889970  1.0  0.0973
  C  C233  1  0.236400  0.041750  0.783850  1.0  0.0994
  C  C234  1  0.353400  0.043420  0.808460  1.0  0.1644
  C  C235  1  0.214900  0.203040  0.825350  1.0  0.0735
  C  C236  1  0.149500  0.287500  0.814310  1.0  0.0892
  C  C237  1  0.215800  0.305390  0.925130  1.0  0.0818
  C  C238  1  0.139500  0.227600  0.933970  1.0  0.1065
  C  C239  1  0.066000  0.102800  0.692710  1.0  0.5081
  C  C240  1  0.988700  0.136000  0.705800  1.0  0.508
  C  C241  1  0.269100  0.050110  0.140440  1.0  0.0989
  C  C242  1  0.245600  0.103430  0.074020  1.0  0.0933
  C  C243  1  0.349800  0.971600  0.051030  1.0  0.1796
  C  C244  1  0.229700  0.961450  0.035230  1.0  0.0904
  C  C245  1  0.079220  0.202500  0.221710  1.0  0.1146
  C  C246  1  0.089000  0.269260  0.161830  1.0  0.0948
  C  C247  1  0.408950  0.231880  0.086830  1.0  0.1133
  C  C248  1  0.422800  0.300110  0.028700  1.0  0.1458
  C  C249  1  0.225200  0.900480  0.322430  1.0  0.1352
  C  C250  1  0.240100  0.955650  0.389970  1.0  0.0972
  C  C251  1  0.263600  0.041750  0.283850  1.0  0.099
  C  C252  1  0.146600  0.043420  0.308460  1.0  0.161
  C  C253  1  0.285100  0.203040  0.325350  1.0  0.0723
  C  C254  1  0.350500  0.287500  0.314310  1.0  0.0904
  C  C255  1  0.284200  0.305390  0.425130  1.0  0.0817
  C  C256  1  0.360500  0.227600  0.433970  1.0  0.1077
  C  C257  1  0.434000  0.102800  0.192710  1.0  0.5083
  C  C258  1  0.511300  0.136000  0.205800  1.0  0.5071
  C  C259  1  0.230900  0.550110  0.359560  1.0  0.0966
  C  C260  1  0.254400  0.603430  0.425980  1.0  0.0912
  C  C261  1  0.150200  0.471600  0.448970  1.0  0.176
  C  C262  1  0.270300  0.461450  0.464770  1.0  0.0927
  C  C263  1  0.420780  0.702500  0.278290  1.0  0.1168
  C  C264  1  0.411000  0.769260  0.338170  1.0  0.0949
  C  C265  1  0.091050  0.731880  0.413170  1.0  0.1125
  C  C266  1  0.077200  0.800110  0.471300  1.0  0.1466
  C  C267  1  0.274800  0.400480  0.177570  1.0  0.134
  C  C268  1  0.259900  0.455650  0.110030  1.0  0.0988
  C  C269  1  0.236400  0.541750  0.216150  1.0  0.0996
  C  C270  1  0.353400  0.543420  0.191540  1.0  0.164
  C  C271  1  0.214900  0.703040  0.174650  1.0  0.0744
  C  C272  1  0.149500  0.787500  0.185690  1.0  0.0894
  C  C273  1  0.215800  0.805390  0.074870  1.0  0.0825
  C  C274  1  0.139500  0.727600  0.066030  1.0  0.1056
  C  C275  1  0.066000  0.602800  0.307290  1.0  0.5077
  C  C276  1  0.988700  0.636000  0.294200  1.0  0.508
  C  C277  1  0.730900  0.449890  0.140440  1.0  0.0985
  C  C278  1  0.754400  0.396570  0.074020  1.0  0.0927
  C  C279  1  0.650200  0.528400  0.051030  1.0  0.1757
  C  C280  1  0.770300  0.538550  0.035230  1.0  0.092
  C  C281  1  0.920780  0.297500  0.221710  1.0  0.1146
  C  C282  1  0.911000  0.230740  0.161830  1.0  0.0937
  C  C283  1  0.591050  0.268120  0.086830  1.0  0.112
  C  C284  1  0.577200  0.199890  0.028700  1.0  0.1468
  C  C285  1  0.774800  0.599520  0.322430  1.0  0.1361
  C  C286  1  0.759900  0.544350  0.389970  1.0  0.0978
  C  C287  1  0.736400  0.458250  0.283850  1.0  0.0996
  C  C288  1  0.853400  0.456580  0.308460  1.0  0.1641
  C  C289  1  0.714900  0.296960  0.325350  1.0  0.0731
  C  C290  1  0.649500  0.212500  0.314310  1.0  0.0899
  C  C291  1  0.715800  0.194610  0.425130  1.0  0.082
  C  C292  1  0.639500  0.272400  0.433970  1.0  0.1068
  C  C293  1  0.566000  0.397200  0.192710  1.0  0.5096
  C  C294  1  0.488700  0.364000  0.205800  1.0  0.5082
  C  C295  1  0.769100  0.949890  0.359560  1.0  0.0993
  C  C296  1  0.745600  0.896570  0.425980  1.0  0.0906
  C  C297  1  0.849800  0.028400  0.448970  1.0  0.1793
  C  C298  1  0.729700  0.038550  0.464770  1.0  0.0902
  C  C299  1  0.579220  0.797500  0.278290  1.0  0.1161
  C  C300  1  0.589000  0.730740  0.338170  1.0  0.0946
  C  C301  1  0.908950  0.768120  0.413170  1.0  0.1121
  C  C302  1  0.922800  0.699890  0.471300  1.0  0.1476
  C  C303  1  0.725200  0.099520  0.177570  1.0  0.1344
  C  C304  1  0.740100  0.044350  0.110030  1.0  0.0974
  C  C305  1  0.763600  0.958250  0.216150  1.0  0.0993
  C  C306  1  0.646600  0.956580  0.191540  1.0  0.1606
  C  C307  1  0.785100  0.796960  0.174650  1.0  0.0735
  C  C308  1  0.850500  0.712500  0.185690  1.0  0.0906
  C  C309  1  0.784200  0.694610  0.074870  1.0  0.0821
  C  C310  1  0.860500  0.772400  0.066030  1.0  0.1077
  C  C311  1  0.934000  0.897200  0.307290  1.0  0.5099
  C  C312  1  0.011300  0.864000  0.294200  1.0  0.5076
  N  N313  1  0.747230  0.893180  0.846510  1.0  -0.2854
  N  N314  1  0.762070  0.859390  0.889380  1.0  -0.2696
  N  N315  1  0.734300  0.953710  0.909540  1.0  0.0445
  N  N316  1  0.655200  0.075220  0.980030  1.0  -0.3598
  N  N317  1  0.733810  0.080300  0.989590  1.0  -0.1574
  N  N318  1  0.717640  0.005750  0.938420  1.0  0.069
  N  N319  1  0.850810  0.797040  0.792200  1.0  -0.2328
  N  N320  1  0.843840  0.754450  0.831030  1.0  -0.2635
  N  N321  1  0.961450  0.755560  0.805590  1.0  0.0468
  N  N322  1  0.654880  0.742530  0.920080  1.0  -0.1903
  N  N323  1  0.648210  0.698380  0.957730  1.0  -0.2985
  N  N324  1  0.538450  0.743630  0.945480  1.0  0.0423
  N  N325  1  0.763000  0.138290  0.640730  1.0  -0.2718
  N  N326  1  0.752850  0.102340  0.598360  1.0  -0.1752
  N  N327  1  0.773630  0.041040  0.659830  1.0  0.0339
  N  N328  1  0.769520  0.911340  0.737140  1.0  -0.1705
  N  N329  1  0.844360  0.908930  0.721270  1.0  -0.2686
  N  N330  1  0.786540  0.987890  0.687520  1.0  0.0614
  N  N331  1  0.701700  0.790880  0.721940  1.0  -0.2766
  N  N332  1  0.662500  0.736830  0.729240  1.0  -0.2453
  N  N333  1  0.680100  0.749410  0.650600  1.0  0.047
  N  N334  1  0.698270  0.699430  0.527820  1.0  -0.2723
  N  N335  1  0.650600  0.750720  0.522090  1.0  -0.2844
  N  N336  1  0.680100  0.739620  0.599980  1.0  0.0451
  N  N337  1  0.752770  0.393180  0.653490  1.0  -0.2865
  N  N338  1  0.737930  0.359390  0.610620  1.0  -0.2676
  N  N339  1  0.765700  0.453710  0.590460  1.0  0.0443
  N  N340  1  0.844800  0.575220  0.519970  1.0  -0.3618
  N  N341  1  0.766190  0.580300  0.510410  1.0  -0.1573
  N  N342  1  0.782360  0.505750  0.561580  1.0  0.0695
  N  N343  1  0.649190  0.297040  0.707800  1.0  -0.2337
  N  N344  1  0.656160  0.254450  0.668970  1.0  -0.2635
  N  N345  1  0.538550  0.255560  0.694410  1.0  0.0466
  N  N346  1  0.845120  0.242530  0.579920  1.0  -0.1905
  N  N347  1  0.851790  0.198380  0.542270  1.0  -0.2987
  N  N348  1  0.961550  0.243630  0.554520  1.0  0.0418
  N  N349  1  0.737000  0.638290  0.859270  1.0  -0.272
  N  N350  1  0.747150  0.602340  0.901640  1.0  -0.1767
  N  N351  1  0.726370  0.541040  0.840170  1.0  0.0335
  N  N352  1  0.730480  0.411340  0.762860  1.0  -0.1705
  N  N353  1  0.655640  0.408930  0.778730  1.0  -0.2681
  N  N354  1  0.713460  0.487890  0.812480  1.0  0.0614
  N  N355  1  0.798300  0.290880  0.778060  1.0  -0.278
  N  N356  1  0.837500  0.236830  0.770760  1.0  -0.2439
  N  N357  1  0.819900  0.249410  0.849400  1.0  0.0458
  N  N358  1  0.801730  0.199430  0.972180  1.0  -0.2718
  N  N359  1  0.849400  0.250720  0.977910  1.0  -0.2866
  N  N360  1  0.819900  0.239620  0.900020  1.0  0.0456
  N  N361  1  0.252770  0.606820  0.846510  1.0  -0.2854
  N  N362  1  0.237930  0.640610  0.889380  1.0  -0.2696
  N  N363  1  0.265700  0.546290  0.909540  1.0  0.0447
  N  N364  1  0.344800  0.424780  0.980030  1.0  -0.3632
  N  N365  1  0.266190  0.419700  0.989590  1.0  -0.1582
  N  N366  1  0.282360  0.494250  0.938420  1.0  0.0691
  N  N367  1  0.149190  0.702960  0.792200  1.0  -0.2329
  N  N368  1  0.156160  0.745550  0.831030  1.0  -0.2641
  N  N369  1  0.038550  0.744440  0.805590  1.0  0.0456
  N  N370  1  0.345120  0.757470  0.920080  1.0  -0.1903
  N  N371  1  0.351790  0.801620  0.957730  1.0  -0.2976
  N  N372  1  0.461550  0.756370  0.945480  1.0  0.0439
  N  N373  1  0.237000  0.361710  0.640730  1.0  -0.2718
  N  N374  1  0.247150  0.397660  0.598360  1.0  -0.1751
  N  N375  1  0.226370  0.458960  0.659830  1.0  0.0338
  N  N376  1  0.230480  0.588660  0.737140  1.0  -0.1699
  N  N377  1  0.155640  0.591070  0.721270  1.0  -0.2663
  N  N378  1  0.213460  0.512110  0.687520  1.0  0.0611
  N  N379  1  0.298300  0.709120  0.721940  1.0  -0.2774
  N  N380  1  0.337500  0.763170  0.729240  1.0  -0.2458
  N  N381  1  0.319900  0.750590  0.650600  1.0  0.0469
  N  N382  1  0.301730  0.800570  0.527820  1.0  -0.274
  N  N383  1  0.349400  0.749280  0.522090  1.0  -0.2823
  N  N384  1  0.319900  0.760380  0.599980  1.0  0.046
  N  N385  1  0.247230  0.106820  0.653490  1.0  -0.285
  N  N386  1  0.262070  0.140610  0.610620  1.0  -0.2697
  N  N387  1  0.234300  0.046290  0.590460  1.0  0.0446
  N  N388  1  0.155200  0.924780  0.519970  1.0  -0.3599
  N  N389  1  0.233810  0.919700  0.510410  1.0  -0.1578
  N  N390  1  0.217640  0.994250  0.561580  1.0  0.0695
  N  N391  1  0.350810  0.202960  0.707800  1.0  -0.2332
  N  N392  1  0.343840  0.245550  0.668970  1.0  -0.2629
  N  N393  1  0.461450  0.244440  0.694410  1.0  0.0461
  N  N394  1  0.154880  0.257470  0.579920  1.0  -0.19
  N  N395  1  0.148210  0.301620  0.542270  1.0  -0.2977
  N  N396  1  0.038450  0.256370  0.554520  1.0  0.0408
  N  N397  1  0.263000  0.861710  0.859270  1.0  -0.2718
  N  N398  1  0.252850  0.897660  0.901640  1.0  -0.177
  N  N399  1  0.273630  0.958960  0.840170  1.0  0.0335
  N  N400  1  0.269520  0.088660  0.762860  1.0  -0.1697
  N  N401  1  0.344360  0.091070  0.778730  1.0  -0.2656
  N  N402  1  0.286540  0.012110  0.812480  1.0  0.061
  N  N403  1  0.201700  0.209120  0.778060  1.0  -0.2783
  N  N404  1  0.162500  0.263170  0.770760  1.0  -0.2446
  N  N405  1  0.180100  0.250590  0.849400  1.0  0.0456
  N  N406  1  0.198270  0.300570  0.972180  1.0  -0.2709
  N  N407  1  0.150600  0.249280  0.977910  1.0  -0.2858
  N  N408  1  0.180100  0.260380  0.900020  1.0  0.0452
  N  N409  1  0.252770  0.106820  0.153490  1.0  -0.2861
  N  N410  1  0.237930  0.140610  0.110620  1.0  -0.2695
  N  N411  1  0.265700  0.046290  0.090460  1.0  0.0443
  N  N412  1  0.344800  0.924780  0.019970  1.0  -0.3627
  N  N413  1  0.266190  0.919700  0.010410  1.0  -0.1575
  N  N414  1  0.282360  0.994250  0.061580  1.0  0.0695
  N  N415  1  0.149190  0.202960  0.207800  1.0  -0.2332
  N  N416  1  0.156160  0.245550  0.168970  1.0  -0.2635
  N  N417  1  0.038550  0.244440  0.194410  1.0  0.0461
  N  N418  1  0.345120  0.257470  0.079920  1.0  -0.1907
  N  N419  1  0.351790  0.301620  0.042270  1.0  -0.2969
  N  N420  1  0.461550  0.256370  0.054520  1.0  0.0409
  N  N421  1  0.237000  0.861710  0.359270  1.0  -0.2719
  N  N422  1  0.247150  0.897660  0.401640  1.0  -0.1767
  N  N423  1  0.226370  0.958960  0.340170  1.0  0.0333
  N  N424  1  0.230480  0.088660  0.262860  1.0  -0.17
  N  N425  1  0.155640  0.091070  0.278730  1.0  -0.2651
  N  N426  1  0.213460  0.012110  0.312480  1.0  0.0611
  N  N427  1  0.298300  0.209120  0.278060  1.0  -0.2787
  N  N428  1  0.337500  0.263170  0.270760  1.0  -0.2442
  N  N429  1  0.319900  0.250590  0.349400  1.0  0.0456
  N  N430  1  0.301730  0.300570  0.472180  1.0  -0.2724
  N  N431  1  0.349400  0.249280  0.477910  1.0  -0.2851
  N  N432  1  0.319900  0.260380  0.400020  1.0  0.0457
  N  N433  1  0.247230  0.606820  0.346510  1.0  -0.2844
  N  N434  1  0.262070  0.640610  0.389380  1.0  -0.2698
  N  N435  1  0.234300  0.546290  0.409540  1.0  0.0446
  N  N436  1  0.155200  0.424780  0.480030  1.0  -0.3606
  N  N437  1  0.233810  0.419700  0.489590  1.0  -0.1583
  N  N438  1  0.217640  0.494250  0.438420  1.0  0.0691
  N  N439  1  0.350810  0.702960  0.292200  1.0  -0.2331
  N  N440  1  0.343840  0.745550  0.331030  1.0  -0.2634
  N  N441  1  0.461450  0.744440  0.305590  1.0  0.0464
  N  N442  1  0.154880  0.757470  0.420080  1.0  -0.1902
  N  N443  1  0.148210  0.801620  0.457730  1.0  -0.298
  N  N444  1  0.038450  0.756370  0.445480  1.0  0.043
  N  N445  1  0.263000  0.361710  0.140730  1.0  -0.2715
  N  N446  1  0.252850  0.397660  0.098360  1.0  -0.1753
  N  N447  1  0.273630  0.458960  0.159830  1.0  0.0341
  N  N448  1  0.269520  0.588660  0.237140  1.0  -0.17
  N  N449  1  0.344360  0.591070  0.221270  1.0  -0.2663
  N  N450  1  0.286540  0.512110  0.187520  1.0  0.061
  N  N451  1  0.201700  0.709120  0.221940  1.0  -0.2771
  N  N452  1  0.162500  0.763170  0.229240  1.0  -0.246
  N  N453  1  0.180100  0.750590  0.150600  1.0  0.0469
  N  N454  1  0.198270  0.800570  0.027820  1.0  -0.272
  N  N455  1  0.150600  0.749280  0.022090  1.0  -0.2833
  N  N456  1  0.180100  0.760380  0.099980  1.0  0.0454
  N  N457  1  0.747230  0.393180  0.153490  1.0  -0.2861
  N  N458  1  0.762070  0.359390  0.110620  1.0  -0.269
  N  N459  1  0.734300  0.453710  0.090460  1.0  0.0444
  N  N460  1  0.655200  0.575220  0.019970  1.0  -0.3591
  N  N461  1  0.733810  0.580300  0.010410  1.0  -0.1574
  N  N462  1  0.717640  0.505750  0.061580  1.0  0.0694
  N  N463  1  0.850810  0.297040  0.207800  1.0  -0.2333
  N  N464  1  0.843840  0.254450  0.168970  1.0  -0.2632
  N  N465  1  0.961450  0.255560  0.194410  1.0  0.0464
  N  N466  1  0.654880  0.242530  0.079920  1.0  -0.1903
  N  N467  1  0.648210  0.198380  0.042270  1.0  -0.2987
  N  N468  1  0.538450  0.243630  0.054520  1.0  0.0417
  N  N469  1  0.763000  0.638290  0.359270  1.0  -0.2722
  N  N470  1  0.752850  0.602340  0.401640  1.0  -0.1767
  N  N471  1  0.773630  0.541040  0.340170  1.0  0.0334
  N  N472  1  0.769520  0.411340  0.262860  1.0  -0.1703
  N  N473  1  0.844360  0.408930  0.278730  1.0  -0.2682
  N  N474  1  0.786540  0.487890  0.312480  1.0  0.0613
  N  N475  1  0.701700  0.290880  0.278060  1.0  -0.2776
  N  N476  1  0.662500  0.236830  0.270760  1.0  -0.2442
  N  N477  1  0.680100  0.249410  0.349400  1.0  0.0457
  N  N478  1  0.698270  0.199430  0.472180  1.0  -0.2706
  N  N479  1  0.650600  0.250720  0.477910  1.0  -0.2873
  N  N480  1  0.680100  0.239620  0.400020  1.0  0.0452
  N  N481  1  0.752770  0.893180  0.346510  1.0  -0.286
  N  N482  1  0.737930  0.859390  0.389380  1.0  -0.2685
  N  N483  1  0.765700  0.953710  0.409540  1.0  0.0445
  N  N484  1  0.844800  0.075220  0.480030  1.0  -0.3624
  N  N485  1  0.766190  0.080300  0.489590  1.0  -0.1574
  N  N486  1  0.782360  0.005750  0.438420  1.0  0.0691
  N  N487  1  0.649190  0.797040  0.292200  1.0  -0.2327
  N  N488  1  0.656160  0.754450  0.331030  1.0  -0.2639
  N  N489  1  0.538550  0.755560  0.305590  1.0  0.046
  N  N490  1  0.845120  0.742530  0.420080  1.0  -0.19
  N  N491  1  0.851790  0.698380  0.457730  1.0  -0.2979
  N  N492  1  0.961550  0.743630  0.445480  1.0  0.0434
  N  N493  1  0.737000  0.138290  0.140730  1.0  -0.2716
  N  N494  1  0.747150  0.102340  0.098360  1.0  -0.1745
  N  N495  1  0.726370  0.041040  0.159830  1.0  0.0339
  N  N496  1  0.730480  0.911340  0.237140  1.0  -0.1702
  N  N497  1  0.655640  0.908930  0.221270  1.0  -0.2689
  N  N498  1  0.713460  0.987890  0.187520  1.0  0.0617
  N  N499  1  0.798300  0.790880  0.221940  1.0  -0.2769
  N  N500  1  0.837500  0.736830  0.229240  1.0  -0.2448
  N  N501  1  0.819900  0.749410  0.150600  1.0  0.0471
  N  N502  1  0.801730  0.699430  0.027820  1.0  -0.274
  N  N503  1  0.849400  0.750720  0.022090  1.0  -0.2838
  N  N504  1  0.819900  0.739620  0.099980  1.0  0.0457
  O  O505  1  0.685980  0.782310  0.823790  1.0  -0.8916
  O  O506  1  0.813900  0.712750  0.926170  1.0  -0.8771
  O  O507  1  0.605380  0.900790  0.774120  1.0  -0.6479
  O  O508  1  0.566600  0.906800  0.853260  1.0  -0.586
  O  O509  1  0.814020  0.282310  0.676210  1.0  -0.8928
  O  O510  1  0.686100  0.212750  0.573830  1.0  -0.877
  O  O511  1  0.894620  0.400790  0.725880  1.0  -0.647
  O  O512  1  0.933400  0.406800  0.646740  1.0  -0.586
  O  O513  1  0.314020  0.717690  0.823790  1.0  -0.8914
  O  O514  1  0.186100  0.787250  0.926170  1.0  -0.8778
  O  O515  1  0.394620  0.599210  0.774120  1.0  -0.6478
  O  O516  1  0.433400  0.593200  0.853260  1.0  -0.5845
  O  O517  1  0.185980  0.217690  0.676210  1.0  -0.8932
  O  O518  1  0.313900  0.287250  0.573830  1.0  -0.8763
  O  O519  1  0.105380  0.099210  0.725880  1.0  -0.6477
  O  O520  1  0.066600  0.093200  0.646740  1.0  -0.586
  O  O521  1  0.314020  0.217690  0.176210  1.0  -0.893
  O  O522  1  0.186100  0.287250  0.073830  1.0  -0.8775
  O  O523  1  0.394620  0.099210  0.225880  1.0  -0.6473
  O  O524  1  0.433400  0.093200  0.146740  1.0  -0.5859
  O  O525  1  0.185980  0.717690  0.323790  1.0  -0.8916
  O  O526  1  0.313900  0.787250  0.426170  1.0  -0.8771
  O  O527  1  0.105380  0.599210  0.274120  1.0  -0.6485
  O  O528  1  0.066600  0.593200  0.353260  1.0  -0.5846
  O  O529  1  0.685980  0.282310  0.176210  1.0  -0.8932
  O  O530  1  0.813900  0.212750  0.073830  1.0  -0.8766
  O  O531  1  0.605380  0.400790  0.225880  1.0  -0.6481
  O  O532  1  0.566600  0.406800  0.146740  1.0  -0.5864
  O  O533  1  0.814020  0.782310  0.323790  1.0  -0.8913
  O  O534  1  0.686100  0.712750  0.426170  1.0  -0.877
  O  O535  1  0.894620  0.900790  0.274120  1.0  -0.6463
  O  O536  1  0.933400  0.906800  0.353260  1.0  -0.5853
  F  F537  1  0.460900  0.832400  0.832500  1.0  -0.2556
  F  F538  1  0.435600  0.904000  0.779100  1.0  -0.1944
  F  F539  1  0.498700  0.823000  0.756900  1.0  -0.2214
  F  F540  1  0.039100  0.332400  0.667500  1.0  -0.2575
  F  F541  1  0.064400  0.404000  0.720900  1.0  -0.1917
  F  F542  1  0.001300  0.323000  0.743100  1.0  -0.2202
  F  F543  1  0.539100  0.667600  0.832500  1.0  -0.2555
  F  F544  1  0.564400  0.596000  0.779100  1.0  -0.1935
  F  F545  1  0.501300  0.677000  0.756900  1.0  -0.2221
  F  F546  1  0.960900  0.167600  0.667500  1.0  -0.2566
  F  F547  1  0.935600  0.096000  0.720900  1.0  -0.1938
  F  F548  1  0.998700  0.177000  0.743100  1.0  -0.221
  F  F549  1  0.539100  0.167600  0.167500  1.0  -0.2568
  F  F550  1  0.564400  0.096000  0.220900  1.0  -0.1935
  F  F551  1  0.501300  0.177000  0.243100  1.0  -0.2205
  F  F552  1  0.960900  0.667600  0.332500  1.0  -0.2556
  F  F553  1  0.935600  0.596000  0.279100  1.0  -0.1937
  F  F554  1  0.998700  0.677000  0.256900  1.0  -0.2211
  F  F555  1  0.460900  0.332400  0.167500  1.0  -0.2569
  F  F556  1  0.435600  0.404000  0.220900  1.0  -0.1921
  F  F557  1  0.498700  0.323000  0.243100  1.0  -0.2209
  F  F558  1  0.039100  0.832400  0.332500  1.0  -0.2558
  F  F559  1  0.064400  0.904000  0.279100  1.0  -0.1941
  F  F560  1  0.001300  0.823000  0.256900  1.0  -0.2219
