# generated using pymatgen
data_Ni3H8C20(N3O2)4
_symmetry_space_group_name_H-M   'P 1'
_cell_length_a   8.19330000
_cell_length_b   8.86460000
_cell_length_c   12.20280000
_cell_angle_alpha   110.05700000
_cell_angle_beta   92.89700000
_cell_angle_gamma   105.74100000
_symmetry_Int_Tables_number   1
_chemical_formula_structural   Ni3H8C20(N3O2)4
_chemical_formula_sum   'Ni3 H8 C20 N12 O8'
_cell_volume   791.15033582
_cell_formula_units_Z   1
loop_
 _symmetry_equiv_pos_site_id
 _symmetry_equiv_pos_as_xyz
  1  'x, y, z'
loop_
 _atom_site_type_symbol
 _atom_site_label
 _atom_site_symmetry_multiplicity
 _atom_site_fract_x
 _atom_site_fract_y
 _atom_site_fract_z
 _atom_site_occupancy
 _atom_site_charge
  Ni  Ni1  1  0.026060  0.056550  0.179480  1.0  0.516
  Ni  Ni2  1  0.973940  0.943450  0.820520  1.0  0.5099
  Ni  Ni3  1  0.500000  0.500000  0.500000  1.0  0.9136
  H  H4  1  0.032700  0.781600  0.549500  1.0  0.1033
  H  H5  1  0.198500  0.624500  0.451900  1.0  0.1008
  H  H6  1  0.431500  0.669300  0.753500  1.0  0.1048
  H  H7  1  0.375700  0.869200  0.303700  1.0  0.1107
  H  H8  1  0.967300  0.218400  0.450500  1.0  0.1039
  H  H9  1  0.801500  0.375500  0.548100  1.0  0.1001
  H  H10  1  0.568500  0.330700  0.246500  1.0  0.1035
  H  H11  1  0.624300  0.130800  0.696300  1.0  0.11
  C  C12  1  0.247400  0.836700  0.896800  1.0  0.2857
  C  C13  1  0.244600  0.778700  0.768600  1.0  0.1279
  C  C14  1  0.112500  0.758200  0.592900  1.0  0.1181
  C  C15  1  0.214000  0.664700  0.534000  1.0  0.1011
  C  C16  1  0.348800  0.689400  0.710100  1.0  0.1315
  C  C17  1  0.273700  0.133400  0.394200  1.0  0.6867
  C  C18  1  0.391900  0.067800  0.451700  1.0  -0.1405
  C  C19  1  0.467700  0.147500  0.571200  1.0  -0.0854
  C  C20  1  0.451600  0.312700  0.652800  1.0  0.6836
  C  C21  1  0.425700  0.921900  0.382800  1.0  -0.0516
  C  C22  1  0.752600  0.163300  0.103200  1.0  0.2878
  C  C23  1  0.755400  0.221300  0.231400  1.0  0.1304
  C  C24  1  0.887500  0.241800  0.407100  1.0  0.119
  C  C25  1  0.786000  0.335300  0.466000  1.0  0.1012
  C  C26  1  0.651200  0.310600  0.289900  1.0  0.1319
  C  C27  1  0.726300  0.866600  0.605800  1.0  0.6876
  C  C28  1  0.608100  0.932200  0.548300  1.0  -0.14
  C  C29  1  0.532300  0.852500  0.428800  1.0  -0.0846
  C  C30  1  0.548400  0.687300  0.347200  1.0  0.683
  C  C31  1  0.574300  0.078100  0.617200  1.0  -0.0537
  N  N32  1  0.135900  0.914100  0.944040  1.0  -0.2595
  N  N33  1  0.166100  0.943400  0.059260  1.0  0.0248
  N  N34  1  0.291700  0.885900  0.080200  1.0  -0.0518
  N  N35  1  0.345000  0.817100  0.977700  1.0  -0.2745
  N  N36  1  0.126600  0.815300  0.710270  1.0  -0.2162
  N  N37  1  0.333200  0.631100  0.592030  1.0  -0.2518
  N  N38  1  0.864100  0.085900  0.055960  1.0  -0.2602
  N  N39  1  0.833900  0.056600  0.940740  1.0  0.0257
  N  N40  1  0.708300  0.114100  0.919800  1.0  -0.0519
  N  N41  1  0.655000  0.182900  0.022300  1.0  -0.2816
  N  N42  1  0.873400  0.184700  0.289730  1.0  -0.2162
  N  N43  1  0.666800  0.368900  0.407970  1.0  -0.2547
  O  O44  1  0.156700  0.023800  0.312500  1.0  -0.5291
  O  O45  1  0.294200  0.289000  0.427890  1.0  -0.5816
  O  O46  1  0.546700  0.444800  0.643320  1.0  -0.597
  O  O47  1  0.358000  0.313700  0.727000  1.0  -0.5082
  O  O48  1  0.843300  0.976200  0.687500  1.0  -0.5309
  O  O49  1  0.705800  0.711000  0.572110  1.0  -0.5812
  O  O50  1  0.453300  0.555200  0.356680  1.0  -0.5918
  O  O51  1  0.642000  0.686300  0.273000  1.0  -0.5085
