# generated using pymatgen
data_Zn5P4H9(CO3)8
_symmetry_space_group_name_H-M   'P 1'
_cell_length_a   10.24920000
_cell_length_b   11.07160000
_cell_length_c   12.89910000
_cell_angle_alpha   92.51800000
_cell_angle_beta   95.25500000
_cell_angle_gamma   107.33100000
_symmetry_Int_Tables_number   1
_chemical_formula_structural   Zn5P4H9(CO3)8
_chemical_formula_sum   'Zn10 P8 H18 C16 O48'
_cell_volume   1387.48928507
_cell_formula_units_Z   2
loop_
 _symmetry_equiv_pos_site_id
 _symmetry_equiv_pos_as_xyz
  1  'x, y, z'
loop_
 _atom_site_type_symbol
 _atom_site_label
 _atom_site_symmetry_multiplicity
 _atom_site_fract_x
 _atom_site_fract_y
 _atom_site_fract_z
 _atom_site_occupancy
 _atom_site_charge
  Zn  Zn1  1  0.615500  0.849090  0.669800  1.0  1.0744
  Zn  Zn2  1  0.978770  0.718570  0.989510  1.0  0.9625
  Zn  Zn3  1  0.382590  0.648280  0.325380  1.0  1.1358
  Zn  Zn4  1  0.924250  0.559820  0.412750  1.0  1.035
  Zn  Zn5  1  0.080080  0.941190  0.583570  1.0  1.0443
  Zn  Zn6  1  0.384500  0.150910  0.330200  1.0  1.0738
  Zn  Zn7  1  0.021230  0.281430  0.010490  1.0  0.9611
  Zn  Zn8  1  0.617410  0.351720  0.674620  1.0  1.1359
  Zn  Zn9  1  0.075750  0.440180  0.587250  1.0  1.0326
  Zn  Zn10  1  0.919920  0.058810  0.416430  1.0  1.0454
  P  P11  1  0.843570  0.916350  0.877770  1.0  1.5742
  P  P12  1  0.158040  0.569790  0.115770  1.0  1.5629
  P  P13  1  0.776770  0.771200  0.479150  1.0  1.5411
  P  P14  1  0.223150  0.726930  0.518000  1.0  1.5674
  P  P15  1  0.156430  0.083650  0.122230  1.0  1.5738
  P  P16  1  0.841960  0.430210  0.884230  1.0  1.5678
  P  P17  1  0.223230  0.228800  0.520850  1.0  1.5424
  P  P18  1  0.776850  0.273070  0.482000  1.0  1.5669
  H  H19  1  0.751200  0.047800  0.904100  1.0  0.5099
  H  H20  1  0.003400  0.096000  0.733500  1.0  0.3565
  H  H21  1  0.003500  0.406000  0.270900  1.0  0.3398
  H  H22  1  0.588800  0.602800  0.270500  1.0  0.2802
  H  H23  1  0.386000  0.920500  0.673900  1.0  0.4208
  H  H24  1  0.075700  0.013500  0.859800  1.0  0.1685
  H  H25  1  0.926600  0.483600  0.143200  1.0  0.1587
  H  H26  1  0.763200  0.754700  0.295300  1.0  0.1592
  H  H27  1  0.236000  0.747500  0.700600  1.0  0.1519
  H  H28  1  0.248800  0.952200  0.095900  1.0  0.5094
  H  H29  1  0.996600  0.904000  0.266500  1.0  0.3562
  H  H30  1  0.996500  0.594000  0.729100  1.0  0.3401
  H  H31  1  0.411200  0.397200  0.729500  1.0  0.2756
  H  H32  1  0.614000  0.079500  0.326100  1.0  0.4204
  H  H33  1  0.924300  0.986500  0.140200  1.0  0.1684
  H  H34  1  0.073400  0.516400  0.856800  1.0  0.1589
  H  H35  1  0.236800  0.245300  0.704700  1.0  0.1614
  H  H36  1  0.764000  0.252500  0.299400  1.0  0.1525
  C  C37  1  0.000000  0.957400  0.811900  1.0  -0.1818
  C  C38  1  0.035800  0.837100  0.782500  1.0  0.6911
  C  C39  1  0.005200  0.540900  0.187700  1.0  -0.1789
  C  C40  1  0.971300  0.663000  0.214300  1.0  0.7137
  C  C41  1  0.695000  0.754700  0.343800  1.0  -0.1866
  C  C42  1  0.635500  0.862800  0.323400  1.0  0.6988
  C  C43  1  0.304600  0.744800  0.653200  1.0  -0.2286
  C  C44  1  0.360500  0.636700  0.678500  1.0  0.7261
  C  C45  1  0.000000  0.042600  0.188100  1.0  -0.1819
  C  C46  1  0.964200  0.162900  0.217500  1.0  0.6902
  C  C47  1  0.994800  0.459100  0.812300  1.0  -0.1788
  C  C48  1  0.028700  0.337000  0.785700  1.0  0.7136
  C  C49  1  0.305000  0.245300  0.656200  1.0  -0.187
  C  C50  1  0.364500  0.137200  0.676600  1.0  0.6964
  C  C51  1  0.695400  0.255200  0.346800  1.0  -0.2276
  C  C52  1  0.639500  0.363300  0.321500  1.0  0.7272
  O  O53  1  0.722200  0.843800  0.802560  1.0  -0.7885
  O  O54  1  0.830600  0.047100  0.917900  1.0  -0.6568
  O  O55  1  0.869800  0.844400  0.970230  1.0  -0.7355
  O  O56  1  0.985600  0.019600  0.718860  1.0  -0.5902
  O  O57  1  0.064000  0.771700  0.853100  1.0  -0.5642
  O  O58  1  0.034900  0.806900  0.687650  1.0  -0.5316
  O  O59  1  0.133000  0.645400  0.024540  1.0  -0.7364
  O  O60  1  0.284000  0.644300  0.188360  1.0  -0.7781
  O  O61  1  0.167200  0.439500  0.079850  1.0  -0.7331
  O  O62  1  0.021100  0.482800  0.283280  1.0  -0.5838
  O  O63  1  0.970500  0.695800  0.308600  1.0  -0.534
  O  O64  1  0.944500  0.727500  0.142480  1.0  -0.5537
  O  O65  1  0.822100  0.654200  0.495200  1.0  -0.7729
  O  O66  1  0.898100  0.893500  0.486640  1.0  -0.8403
  O  O67  1  0.667300  0.778500  0.547350  1.0  -0.8734
  O  O68  1  0.584900  0.638700  0.326600  1.0  -0.5655
  O  O69  1  0.717800  0.973300  0.325510  1.0  -0.5875
  O  O70  1  0.507300  0.836500  0.305270  1.0  -0.5252
  O  O71  1  0.101800  0.605800  0.513590  1.0  -0.8375
  O  O72  1  0.179100  0.844400  0.500800  1.0  -0.7726
  O  O73  1  0.330900  0.716500  0.449600  1.0  -0.8337
  O  O74  1  0.416300  0.859900  0.671400  1.0  -0.5802
  O  O75  1  0.276900  0.527600  0.680050  1.0  -0.5752
  O  O76  1  0.488700  0.661400  0.698560  1.0  -0.5439
  O  O77  1  0.277800  0.156200  0.197440  1.0  -0.7893
  O  O78  1  0.169400  0.952900  0.082100  1.0  -0.6555
  O  O79  1  0.130200  0.155600  0.029770  1.0  -0.7342
  O  O80  1  0.014400  0.980400  0.281140  1.0  -0.5906
  O  O81  1  0.936000  0.228300  0.146900  1.0  -0.5641
  O  O82  1  0.965100  0.193100  0.312350  1.0  -0.5315
  O  O83  1  0.867000  0.354600  0.975460  1.0  -0.7372
  O  O84  1  0.716000  0.355700  0.811640  1.0  -0.7762
  O  O85  1  0.832800  0.560500  0.920150  1.0  -0.7345
  O  O86  1  0.978900  0.517200  0.716720  1.0  -0.5846
  O  O87  1  0.029500  0.304200  0.691400  1.0  -0.5334
  O  O88  1  0.055500  0.272500  0.857520  1.0  -0.5536
  O  O89  1  0.177900  0.345800  0.504800  1.0  -0.774
  O  O90  1  0.101900  0.106500  0.513360  1.0  -0.8377
  O  O91  1  0.332700  0.221500  0.452650  1.0  -0.8776
  O  O92  1  0.415100  0.361300  0.673400  1.0  -0.5708
  O  O93  1  0.282200  0.026700  0.674490  1.0  -0.5859
  O  O94  1  0.492700  0.163500  0.694730  1.0  -0.5245
  O  O95  1  0.898200  0.394200  0.486410  1.0  -0.8353
  O  O96  1  0.820900  0.155600  0.499200  1.0  -0.7734
  O  O97  1  0.669100  0.283500  0.550400  1.0  -0.8313
  O  O98  1  0.583700  0.140100  0.328600  1.0  -0.5822
  O  O99  1  0.723100  0.472400  0.319950  1.0  -0.5756
  O  O100  1  0.511300  0.338600  0.301440  1.0  -0.5449
