# generated using pymatgen
data_Cu3H30C38(N2O7)2
_symmetry_space_group_name_H-M   'P 1'
_cell_length_a   20.79290000
_cell_length_b   12.48710000
_cell_length_c   19.50250000
_cell_angle_alpha   90.00000000
_cell_angle_beta   97.32900000
_cell_angle_gamma   90.00000000
_symmetry_Int_Tables_number   1
_chemical_formula_structural   Cu3H30C38(N2O7)2
_chemical_formula_sum   'Cu12 H120 C152 N16 O56'
_cell_volume   5022.31770932
_cell_formula_units_Z   4
loop_
 _symmetry_equiv_pos_site_id
 _symmetry_equiv_pos_as_xyz
  1  'x, y, z'
loop_
 _atom_site_type_symbol
 _atom_site_label
 _atom_site_symmetry_multiplicity
 _atom_site_fract_x
 _atom_site_fract_y
 _atom_site_fract_z
 _atom_site_occupancy
 _atom_site_charge
  Cu  Cu1  1  0.302780  0.237030  0.187930  1.0  0.9107
  Cu  Cu2  1  0.390690  0.372360  0.149970  1.0  0.8489
  Cu  Cu3  1  0.519960  0.835610  0.437070  1.0  0.9023
  Cu  Cu4  1  0.802780  0.737030  0.187930  1.0  0.9108
  Cu  Cu5  1  0.890690  0.872360  0.149970  1.0  0.8489
  Cu  Cu6  1  0.019960  0.335610  0.437070  1.0  0.9024
  Cu  Cu7  1  0.697220  0.237030  0.812070  1.0  0.9112
  Cu  Cu8  1  0.609310  0.372360  0.850030  1.0  0.85
  Cu  Cu9  1  0.480040  0.835610  0.562930  1.0  0.9043
  Cu  Cu10  1  0.197220  0.737030  0.812070  1.0  0.9112
  Cu  Cu11  1  0.109310  0.872360  0.850030  1.0  0.85
  Cu  Cu12  1  0.980040  0.335610  0.562930  1.0  0.9047
  H  H13  1  0.258300  0.385700  0.376300  1.0  0.0922
  H  H14  1  0.568000  0.186100  0.026700  1.0  0.1061
  H  H15  1  0.472900  0.028300  0.242100  1.0  0.0919
  H  H16  1  0.317600  0.627200  0.502300  1.0  0.097
  H  H17  1  0.411500  0.563900  0.339900  1.0  0.1003
  H  H18  1  0.648000  0.970200  0.162400  1.0  0.0936
  H  H19  1  0.744300  0.070000  0.008300  1.0  0.1076
  H  H20  1  0.170700  0.504400  0.603500  1.0  0.1117
  H  H21  1  0.647300  0.824900  0.379100  1.0  0.0777
  H  H22  1  0.642900  0.121300  0.238500  1.0  0.0775
  H  H23  1  0.605800  0.231800  0.238700  1.0  0.0951
  H  H24  1  0.190400  0.676400  0.440100  1.0  0.0732
  H  H25  1  0.227600  0.711000  0.512500  1.0  0.0941
  H  H26  1  0.617400  0.785800  0.174000  1.0  0.1106
  H  H27  1  0.471300  0.823400  0.284600  1.0  0.0839
  H  H28  1  0.503200  0.198500  0.331300  1.0  0.0818
  H  H29  1  0.508600  0.075800  0.349900  1.0  0.0842
  H  H30  1  0.155400  0.679200  0.617100  1.0  0.0768
  H  H31  1  0.082600  0.647500  0.592300  1.0  0.0709
  H  H32  1  0.688700  0.798300  0.275100  1.0  0.1134
  H  H33  1  0.516000  0.332600  0.099600  1.0  0.0683
  H  H34  1  0.091900  0.694400  0.477200  1.0  0.0829
  H  H35  1  0.130000  0.788200  0.519300  1.0  0.089
  H  H36  1  0.604300  0.410200  0.057100  1.0  0.1204
  H  H37  1  0.507500  0.806100  0.178200  1.0  0.1158
  H  H38  1  0.437900  0.610500  0.124800  1.0  0.0888
  H  H39  1  0.519700  0.694000  0.069700  1.0  0.1039
  H  H40  1  0.609200  0.067800  0.334500  1.0  0.0649
  H  H41  1  0.607700  0.191800  0.348400  1.0  0.0519
  H  H42  1  0.610400  0.598100  0.053800  1.0  0.1121
  H  H43  1  0.758300  0.885700  0.376300  1.0  0.0922
  H  H44  1  0.068000  0.686100  0.026700  1.0  0.1061
  H  H45  1  0.972900  0.528300  0.242100  1.0  0.0919
  H  H46  1  0.817600  0.127200  0.502300  1.0  0.097
  H  H47  1  0.911500  0.063900  0.339900  1.0  0.1003
  H  H48  1  0.148000  0.470200  0.162400  1.0  0.0936
  H  H49  1  0.244300  0.570000  0.008300  1.0  0.1076
  H  H50  1  0.670700  0.004400  0.603500  1.0  0.1117
  H  H51  1  0.147300  0.324900  0.379100  1.0  0.0777
  H  H52  1  0.142900  0.621300  0.238500  1.0  0.0775
  H  H53  1  0.105800  0.731800  0.238700  1.0  0.0951
  H  H54  1  0.690400  0.176400  0.440100  1.0  0.0732
  H  H55  1  0.727600  0.211000  0.512500  1.0  0.0941
  H  H56  1  0.117400  0.285800  0.174000  1.0  0.1106
  H  H57  1  0.971300  0.323400  0.284600  1.0  0.0839
  H  H58  1  0.003200  0.698500  0.331300  1.0  0.0818
  H  H59  1  0.008600  0.575800  0.349900  1.0  0.0842
  H  H60  1  0.655400  0.179200  0.617100  1.0  0.0768
  H  H61  1  0.582600  0.147500  0.592300  1.0  0.0709
  H  H62  1  0.188700  0.298300  0.275100  1.0  0.1135
  H  H63  1  0.016000  0.832600  0.099600  1.0  0.0683
  H  H64  1  0.591900  0.194400  0.477200  1.0  0.0829
  H  H65  1  0.630000  0.288200  0.519300  1.0  0.089
  H  H66  1  0.104300  0.910200  0.057100  1.0  0.1204
  H  H67  1  0.007500  0.306100  0.178200  1.0  0.1158
  H  H68  1  0.937900  0.110500  0.124800  1.0  0.0888
  H  H69  1  0.019700  0.194000  0.069700  1.0  0.1039
  H  H70  1  0.109200  0.567800  0.334500  1.0  0.0649
  H  H71  1  0.107700  0.691800  0.348400  1.0  0.0519
  H  H72  1  0.110400  0.098100  0.053800  1.0  0.1121
  H  H73  1  0.741700  0.385700  0.623700  1.0  0.0932
  H  H74  1  0.432000  0.186100  0.973300  1.0  0.106
  H  H75  1  0.527100  0.028300  0.757900  1.0  0.0931
  H  H76  1  0.682400  0.627200  0.497700  1.0  0.097
  H  H77  1  0.588500  0.563900  0.660100  1.0  0.0995
  H  H78  1  0.352000  0.970200  0.837600  1.0  0.0925
  H  H79  1  0.255700  0.070000  0.991700  1.0  0.1078
  H  H80  1  0.829300  0.504400  0.396500  1.0  0.1109
  H  H81  1  0.352700  0.824900  0.620900  1.0  0.0764
  H  H82  1  0.357100  0.121300  0.761500  1.0  0.0786
  H  H83  1  0.394200  0.231800  0.761300  1.0  0.0954
  H  H84  1  0.809600  0.676400  0.559900  1.0  0.0733
  H  H85  1  0.772400  0.711000  0.487500  1.0  0.0915
  H  H86  1  0.382600  0.785800  0.826000  1.0  0.1105
  H  H87  1  0.528700  0.823400  0.715400  1.0  0.0852
  H  H88  1  0.496800  0.198500  0.668700  1.0  0.082
  H  H89  1  0.491400  0.075800  0.650100  1.0  0.0849
  H  H90  1  0.844600  0.679200  0.382900  1.0  0.0764
  H  H91  1  0.917400  0.647500  0.407700  1.0  0.0711
  H  H92  1  0.311300  0.798300  0.724900  1.0  0.1137
  H  H93  1  0.484000  0.332600  0.900400  1.0  0.0683
  H  H94  1  0.908100  0.694400  0.522800  1.0  0.0811
  H  H95  1  0.870000  0.788200  0.480700  1.0  0.0889
  H  H96  1  0.395700  0.410200  0.942900  1.0  0.1196
  H  H97  1  0.492500  0.806100  0.821800  1.0  0.116
  H  H98  1  0.562100  0.610500  0.875200  1.0  0.0887
  H  H99  1  0.480300  0.694000  0.930300  1.0  0.1037
  H  H100  1  0.390800  0.067800  0.665500  1.0  0.0638
  H  H101  1  0.392300  0.191800  0.651600  1.0  0.0527
  H  H102  1  0.389600  0.598100  0.946200  1.0  0.1115
  H  H103  1  0.241700  0.885700  0.623700  1.0  0.0932
  H  H104  1  0.932000  0.686100  0.973300  1.0  0.106
  H  H105  1  0.027100  0.528300  0.757900  1.0  0.0931
  H  H106  1  0.182400  0.127200  0.497700  1.0  0.097
  H  H107  1  0.088500  0.063900  0.660100  1.0  0.0995
  H  H108  1  0.852000  0.470200  0.837600  1.0  0.0925
  H  H109  1  0.755700  0.570000  0.991700  1.0  0.1078
  H  H110  1  0.329300  0.004400  0.396500  1.0  0.1109
  H  H111  1  0.852700  0.324900  0.620900  1.0  0.0764
  H  H112  1  0.857100  0.621300  0.761500  1.0  0.0786
  H  H113  1  0.894200  0.731800  0.761300  1.0  0.0954
  H  H114  1  0.309600  0.176400  0.559900  1.0  0.0733
  H  H115  1  0.272400  0.211000  0.487500  1.0  0.0915
  H  H116  1  0.882600  0.285800  0.826000  1.0  0.1105
  H  H117  1  0.028700  0.323400  0.715400  1.0  0.0852
  H  H118  1  0.996800  0.698500  0.668700  1.0  0.082
  H  H119  1  0.991400  0.575800  0.650100  1.0  0.0849
  H  H120  1  0.344600  0.179200  0.382900  1.0  0.0764
  H  H121  1  0.417400  0.147500  0.407700  1.0  0.0711
  H  H122  1  0.811300  0.298300  0.724900  1.0  0.1137
  H  H123  1  0.984000  0.832600  0.900400  1.0  0.0683
  H  H124  1  0.408100  0.194400  0.522800  1.0  0.0811
  H  H125  1  0.370000  0.288200  0.480700  1.0  0.0889
  H  H126  1  0.895700  0.910200  0.942900  1.0  0.1196
  H  H127  1  0.992500  0.306100  0.821800  1.0  0.116
  H  H128  1  0.062100  0.110500  0.875200  1.0  0.0887
  H  H129  1  0.980300  0.194000  0.930300  1.0  0.1037
  H  H130  1  0.890800  0.567800  0.665500  1.0  0.0638
  H  H131  1  0.892300  0.691800  0.651600  1.0  0.0527
  H  H132  1  0.889600  0.098100  0.946200  1.0  0.1115
  C  C133  1  0.436800  0.179400  0.216000  1.0  0.6655
  C  C134  1  0.656600  0.135000  0.007700  1.0  -0.1454
  C  C135  1  0.420900  0.691200  0.450600  1.0  0.6694
  C  C136  1  0.286000  0.443400  0.387400  1.0  -0.0494
  C  C137  1  0.600600  0.080700  0.103000  1.0  -0.0119
  C  C138  1  0.089100  0.468300  0.534500  1.0  0.6422
  C  C139  1  0.602500  0.141700  0.042900  1.0  -0.0503
  C  C140  1  0.541000  0.081300  0.138400  1.0  0.5806
  C  C141  1  0.656400  0.201100  0.943300  1.0  0.6701
  C  C142  1  0.490100  0.101400  0.243400  1.0  0.0171
  C  C143  1  0.278200  0.506200  0.444900  1.0  0.0082
  C  C144  1  0.322100  0.585600  0.463600  1.0  -0.0977
  C  C145  1  0.378800  0.548200  0.366700  1.0  0.0243
  C  C146  1  0.342300  0.398700  0.282600  1.0  0.6568
  C  C147  1  0.706000  0.007500  0.090600  1.0  -0.1171
  C  C148  1  0.334900  0.465600  0.346100  1.0  -0.1511
  C  C149  1  0.650600  0.013700  0.124100  1.0  -0.096
  C  C150  1  0.226800  0.477200  0.490400  1.0  0.5768
  C  C151  1  0.760100  0.933200  0.118000  1.0  0.6857
  C  C152  1  0.707900  0.071300  0.031400  1.0  0.0133
  C  C153  1  0.147500  0.537800  0.562100  1.0  0.0247
  C  C154  1  0.374200  0.606200  0.425500  1.0  -0.1472
  C  C155  1  0.618900  0.819800  0.338300  1.0  0.1686
  C  C156  1  0.602900  0.155600  0.247300  1.0  -0.0414
  C  C157  1  0.190800  0.671300  0.489800  1.0  -0.0007
  C  C158  1  0.601800  0.797300  0.216000  1.0  -0.097
  C  C159  1  0.515700  0.820100  0.282400  1.0  0.139
  C  C160  1  0.519600  0.130000  0.317700  1.0  -0.1673
  C  C161  1  0.126200  0.648400  0.579500  1.0  -0.1173
  C  C162  1  0.644200  0.804100  0.275900  1.0  -0.1259
  C  C163  1  0.517600  0.406800  0.096200  1.0  0.167
  C  C164  1  0.128600  0.711500  0.511300  1.0  -0.1467
  C  C165  1  0.571400  0.452700  0.070600  1.0  -0.1127
  C  C166  1  0.536800  0.807500  0.218500  1.0  -0.1263
  C  C167  1  0.470500  0.569100  0.109700  1.0  0.1487
  C  C168  1  0.522100  0.621200  0.079600  1.0  -0.0882
  C  C169  1  0.589600  0.135000  0.318000  1.0  -0.1694
  C  C170  1  0.573800  0.564000  0.066000  1.0  -0.1174
  C  C171  1  0.936800  0.679400  0.216000  1.0  0.6655
  C  C172  1  0.156600  0.635000  0.007700  1.0  -0.1454
  C  C173  1  0.920900  0.191200  0.450600  1.0  0.6694
  C  C174  1  0.786000  0.943400  0.387400  1.0  -0.0494
  C  C175  1  0.100600  0.580700  0.103000  1.0  -0.0119
  C  C176  1  0.589100  0.968300  0.534500  1.0  0.6422
  C  C177  1  0.102500  0.641700  0.042900  1.0  -0.0503
  C  C178  1  0.041000  0.581300  0.138400  1.0  0.5806
  C  C179  1  0.156400  0.701100  0.943300  1.0  0.6701
  C  C180  1  0.990100  0.601400  0.243400  1.0  0.0171
  C  C181  1  0.778200  0.006200  0.444900  1.0  0.0082
  C  C182  1  0.822100  0.085600  0.463600  1.0  -0.0977
  C  C183  1  0.878800  0.048200  0.366700  1.0  0.0243
  C  C184  1  0.842300  0.898700  0.282600  1.0  0.6568
  C  C185  1  0.206000  0.507500  0.090600  1.0  -0.1171
  C  C186  1  0.834900  0.965600  0.346100  1.0  -0.1511
  C  C187  1  0.150600  0.513700  0.124100  1.0  -0.096
  C  C188  1  0.726800  0.977200  0.490400  1.0  0.5768
  C  C189  1  0.260100  0.433200  0.118000  1.0  0.6857
  C  C190  1  0.207900  0.571300  0.031400  1.0  0.0133
  C  C191  1  0.647500  0.037800  0.562100  1.0  0.0247
  C  C192  1  0.874200  0.106200  0.425500  1.0  -0.1472
  C  C193  1  0.118900  0.319800  0.338300  1.0  0.1686
  C  C194  1  0.102900  0.655600  0.247300  1.0  -0.0414
  C  C195  1  0.690800  0.171300  0.489800  1.0  -0.0007
  C  C196  1  0.101800  0.297300  0.216000  1.0  -0.097
  C  C197  1  0.015700  0.320100  0.282400  1.0  0.139
  C  C198  1  0.019600  0.630000  0.317700  1.0  -0.1673
  C  C199  1  0.626200  0.148400  0.579500  1.0  -0.1173
  C  C200  1  0.144200  0.304100  0.275900  1.0  -0.1259
  C  C201  1  0.017600  0.906800  0.096200  1.0  0.167
  C  C202  1  0.628600  0.211500  0.511300  1.0  -0.1467
  C  C203  1  0.071400  0.952700  0.070600  1.0  -0.1127
  C  C204  1  0.036800  0.307500  0.218500  1.0  -0.1263
  C  C205  1  0.970500  0.069100  0.109700  1.0  0.1487
  C  C206  1  0.022100  0.121200  0.079600  1.0  -0.0882
  C  C207  1  0.089600  0.635000  0.318000  1.0  -0.1694
  C  C208  1  0.073800  0.064000  0.066000  1.0  -0.1174
  C  C209  1  0.563200  0.179400  0.784000  1.0  0.6655
  C  C210  1  0.343400  0.135000  0.992300  1.0  -0.1452
  C  C211  1  0.579100  0.691200  0.549400  1.0  0.671
  C  C212  1  0.714000  0.443400  0.612600  1.0  -0.0497
  C  C213  1  0.399400  0.080700  0.897000  1.0  -0.0126
  C  C214  1  0.910900  0.468300  0.465500  1.0  0.6453
  C  C215  1  0.397500  0.141700  0.957100  1.0  -0.0498
  C  C216  1  0.459000  0.081300  0.861600  1.0  0.5804
  C  C217  1  0.343600  0.201100  0.056700  1.0  0.6705
  C  C218  1  0.509900  0.101400  0.756600  1.0  0.0194
  C  C219  1  0.721800  0.506200  0.555100  1.0  0.0071
  C  C220  1  0.677900  0.585600  0.536400  1.0  -0.0985
  C  C221  1  0.621200  0.548200  0.633300  1.0  0.0234
  C  C222  1  0.657700  0.398700  0.717400  1.0  0.6568
  C  C223  1  0.294000  0.007500  0.909400  1.0  -0.1174
  C  C224  1  0.665100  0.465600  0.653900  1.0  -0.1513
  C  C225  1  0.349400  0.013700  0.875900  1.0  -0.0988
  C  C226  1  0.773200  0.477200  0.509600  1.0  0.5779
  C  C227  1  0.239900  0.933200  0.882000  1.0  0.6848
  C  C228  1  0.292100  0.071300  0.968600  1.0  0.011
  C  C229  1  0.852500  0.537800  0.437900  1.0  0.022
  C  C230  1  0.625800  0.606200  0.574500  1.0  -0.1483
  C  C231  1  0.381100  0.819800  0.661700  1.0  0.1679
  C  C232  1  0.397100  0.155600  0.752700  1.0  -0.0402
  C  C233  1  0.809200  0.671300  0.510200  1.0  0.0009
  C  C234  1  0.398200  0.797300  0.784000  1.0  -0.0968
  C  C235  1  0.484300  0.820100  0.717600  1.0  0.1389
  C  C236  1  0.480400  0.130000  0.682300  1.0  -0.1673
  C  C237  1  0.873800  0.648400  0.420500  1.0  -0.1172
  C  C238  1  0.355800  0.804100  0.724100  1.0  -0.1259
  C  C239  1  0.482400  0.406800  0.903800  1.0  0.1664
  C  C240  1  0.871400  0.711500  0.488700  1.0  -0.1469
  C  C241  1  0.428600  0.452700  0.929400  1.0  -0.1136
  C  C242  1  0.463200  0.807500  0.781500  1.0  -0.1252
  C  C243  1  0.529500  0.569100  0.890300  1.0  0.1492
  C  C244  1  0.477900  0.621200  0.920400  1.0  -0.0883
  C  C245  1  0.410400  0.135000  0.682000  1.0  -0.1684
  C  C246  1  0.426200  0.564000  0.934000  1.0  -0.1202
  C  C247  1  0.063200  0.679400  0.784000  1.0  0.6655
  C  C248  1  0.843400  0.635000  0.992300  1.0  -0.1452
  C  C249  1  0.079100  0.191200  0.549400  1.0  0.671
  C  C250  1  0.214000  0.943400  0.612600  1.0  -0.0497
  C  C251  1  0.899400  0.580700  0.897000  1.0  -0.0126
  C  C252  1  0.410900  0.968300  0.465500  1.0  0.6453
  C  C253  1  0.897500  0.641700  0.957100  1.0  -0.0498
  C  C254  1  0.959000  0.581300  0.861600  1.0  0.5804
  C  C255  1  0.843600  0.701100  0.056700  1.0  0.6705
  C  C256  1  0.009900  0.601400  0.756600  1.0  0.0194
  C  C257  1  0.221800  0.006200  0.555100  1.0  0.0071
  C  C258  1  0.177900  0.085600  0.536400  1.0  -0.0985
  C  C259  1  0.121200  0.048200  0.633300  1.0  0.0234
  C  C260  1  0.157700  0.898700  0.717400  1.0  0.6568
  C  C261  1  0.794000  0.507500  0.909400  1.0  -0.1174
  C  C262  1  0.165100  0.965600  0.653900  1.0  -0.1513
  C  C263  1  0.849400  0.513700  0.875900  1.0  -0.0988
  C  C264  1  0.273200  0.977200  0.509600  1.0  0.5779
  C  C265  1  0.739900  0.433200  0.882000  1.0  0.6848
  C  C266  1  0.792100  0.571300  0.968600  1.0  0.011
  C  C267  1  0.352500  0.037800  0.437900  1.0  0.022
  C  C268  1  0.125800  0.106200  0.574500  1.0  -0.1483
  C  C269  1  0.881100  0.319800  0.661700  1.0  0.1679
  C  C270  1  0.897100  0.655600  0.752700  1.0  -0.0402
  C  C271  1  0.309200  0.171300  0.510200  1.0  0.0009
  C  C272  1  0.898200  0.297300  0.784000  1.0  -0.0968
  C  C273  1  0.984300  0.320100  0.717600  1.0  0.1389
  C  C274  1  0.980400  0.630000  0.682300  1.0  -0.1673
  C  C275  1  0.373800  0.148400  0.420500  1.0  -0.1172
  C  C276  1  0.855800  0.304100  0.724100  1.0  -0.1259
  C  C277  1  0.982400  0.906800  0.903800  1.0  0.1664
  C  C278  1  0.371400  0.211500  0.488700  1.0  -0.1469
  C  C279  1  0.928600  0.952700  0.929400  1.0  -0.1136
  C  C280  1  0.963200  0.307500  0.781500  1.0  -0.1252
  C  C281  1  0.029500  0.069100  0.890300  1.0  0.1492
  C  C282  1  0.977900  0.121200  0.920400  1.0  -0.0883
  C  C283  1  0.910400  0.635000  0.682000  1.0  -0.1684
  C  C284  1  0.926200  0.064000  0.934000  1.0  -0.1202
  N  N285  1  0.556100  0.827800  0.341000  1.0  -0.3272
  N  N286  1  0.192700  0.559400  0.512400  1.0  -0.1422
  N  N287  1  0.545600  0.107200  0.204000  1.0  -0.1068
  N  N288  1  0.468500  0.463500  0.116100  1.0  -0.335
  N  N289  1  0.056100  0.327800  0.341000  1.0  -0.3272
  N  N290  1  0.692700  0.059400  0.512400  1.0  -0.1422
  N  N291  1  0.045600  0.607200  0.204000  1.0  -0.1068
  N  N292  1  0.968500  0.963500  0.116100  1.0  -0.335
  N  N293  1  0.443900  0.827800  0.659000  1.0  -0.3301
  N  N294  1  0.807300  0.559400  0.487600  1.0  -0.1438
  N  N295  1  0.454400  0.107200  0.796000  1.0  -0.1062
  N  N296  1  0.531500  0.463500  0.883900  1.0  -0.3386
  N  N297  1  0.943900  0.327800  0.659000  1.0  -0.3301
  N  N298  1  0.307300  0.059400  0.487600  1.0  -0.1438
  N  N299  1  0.954400  0.607200  0.796000  1.0  -0.1062
  N  N300  1  0.031500  0.963500  0.883900  1.0  -0.3386
  O  O301  1  0.461100  0.717700  0.409500  1.0  -0.584
  O  O302  1  0.056700  0.433200  0.579200  1.0  -0.5759
  O  O303  1  0.453100  0.268800  0.195500  1.0  -0.571
  O  O304  1  0.377000  0.436200  0.240800  1.0  -0.5987
  O  O305  1  0.309000  0.315000  0.274800  1.0  -0.5811
  O  O306  1  0.077900  0.451700  0.469500  1.0  -0.5737
  O  O307  1  0.419180  0.731500  0.510200  1.0  -0.5951
  O  O308  1  0.618210  0.278100  0.932300  1.0  -0.5674
  O  O309  1  0.817700  0.958800  0.108000  1.0  -0.5823
  O  O310  1  0.379600  0.149400  0.221600  1.0  -0.5957
  O  O311  1  0.743800  0.850700  0.148800  1.0  -0.5746
  O  O312  1  0.698700  0.173400  0.903000  1.0  -0.5997
  O  O313  1  0.219400  0.383800  0.506400  1.0  -0.5753
  O  O314  1  0.487100  0.054500  0.105700  1.0  -0.5888
  O  O315  1  0.961100  0.217700  0.409500  1.0  -0.584
  O  O316  1  0.556700  0.933200  0.579200  1.0  -0.5759
  O  O317  1  0.953100  0.768800  0.195500  1.0  -0.571
  O  O318  1  0.877000  0.936200  0.240800  1.0  -0.5989
  O  O319  1  0.809000  0.815000  0.274800  1.0  -0.5811
  O  O320  1  0.577900  0.951700  0.469500  1.0  -0.5737
  O  O321  1  0.919180  0.231500  0.510200  1.0  -0.5951
  O  O322  1  0.118210  0.778100  0.932300  1.0  -0.5674
  O  O323  1  0.317700  0.458800  0.108000  1.0  -0.5822
  O  O324  1  0.879600  0.649400  0.221600  1.0  -0.5957
  O  O325  1  0.243800  0.350700  0.148800  1.0  -0.5728
  O  O326  1  0.198700  0.673400  0.903000  1.0  -0.5994
  O  O327  1  0.719400  0.883800  0.506400  1.0  -0.5746
  O  O328  1  0.987100  0.554500  0.105700  1.0  -0.5888
  O  O329  1  0.538900  0.717700  0.590500  1.0  -0.5835
  O  O330  1  0.943300  0.433200  0.420800  1.0  -0.5778
  O  O331  1  0.546900  0.268800  0.804500  1.0  -0.5707
  O  O332  1  0.623000  0.436200  0.759200  1.0  -0.5985
  O  O333  1  0.691000  0.315000  0.725200  1.0  -0.5807
  O  O334  1  0.922100  0.451700  0.530500  1.0  -0.5758
  O  O335  1  0.580820  0.731500  0.489800  1.0  -0.5966
  O  O336  1  0.381790  0.278100  0.067700  1.0  -0.5665
  O  O337  1  0.182300  0.958800  0.892000  1.0  -0.5829
  O  O338  1  0.620400  0.149400  0.778400  1.0  -0.5949
  O  O339  1  0.256200  0.850700  0.851200  1.0  -0.5745
  O  O340  1  0.301300  0.173400  0.097000  1.0  -0.5989
  O  O341  1  0.780600  0.383800  0.493600  1.0  -0.5749
  O  O342  1  0.512900  0.054500  0.894300  1.0  -0.5893
  O  O343  1  0.038900  0.217700  0.590500  1.0  -0.5835
  O  O344  1  0.443300  0.933200  0.420800  1.0  -0.5778
  O  O345  1  0.046900  0.768800  0.804500  1.0  -0.5707
  O  O346  1  0.123000  0.936200  0.759200  1.0  -0.5988
  O  O347  1  0.191000  0.815000  0.725200  1.0  -0.5807
  O  O348  1  0.422100  0.951700  0.530500  1.0  -0.5758
  O  O349  1  0.080820  0.231500  0.489800  1.0  -0.5966
  O  O350  1  0.881790  0.778100  0.067700  1.0  -0.5664
  O  O351  1  0.682300  0.458800  0.892000  1.0  -0.5826
  O  O352  1  0.120400  0.649400  0.778400  1.0  -0.5949
  O  O353  1  0.756200  0.350700  0.851200  1.0  -0.5745
  O  O354  1  0.801300  0.673400  0.097000  1.0  -0.5989
  O  O355  1  0.280600  0.883800  0.493600  1.0  -0.5748
  O  O356  1  0.012900  0.554500  0.894300  1.0  -0.5893
