# generated using pymatgen
data_HoH15(C11O2)3
_symmetry_space_group_name_H-M   'P 1'
_cell_length_a   21.40300000
_cell_length_b   34.25500000
_cell_length_c   8.02300000
_cell_angle_alpha   90.00000000
_cell_angle_beta   90.00000000
_cell_angle_gamma   90.00000000
_symmetry_Int_Tables_number   1
_chemical_formula_structural   HoH15(C11O2)3
_chemical_formula_sum   'Ho4 H60 C132 O24'
_cell_volume   5882.14079459
_cell_formula_units_Z   4
loop_
 _symmetry_equiv_pos_site_id
 _symmetry_equiv_pos_as_xyz
  1  'x, y, z'
loop_
 _atom_site_type_symbol
 _atom_site_label
 _atom_site_symmetry_multiplicity
 _atom_site_fract_x
 _atom_site_fract_y
 _atom_site_fract_z
 _atom_site_occupancy
 _atom_site_charge
  Ho  Ho1  1  0.750000  0.233700  0.883000  1.0  2.158
  Ho  Ho2  1  0.250000  0.733700  0.383000  1.0  2.158
  Ho  Ho3  1  0.250000  0.766300  0.883000  1.0  2.1536
  Ho  Ho4  1  0.750000  0.266300  0.383000  1.0  2.1536
  H  H5  1  0.845300  0.930500  0.472900  1.0  0.124
  H  H6  1  0.970600  0.795500  0.267400  1.0  0.113
  H  H7  1  0.061900  0.759700  0.315200  1.0  0.0662
  H  H8  1  0.060400  0.793600  0.799100  1.0  0.1253
  H  H9  1  0.969100  0.829400  0.751400  1.0  0.1189
  H  H10  1  0.345300  0.430500  0.972900  1.0  0.124
  H  H11  1  0.470600  0.295500  0.767400  1.0  0.113
  H  H12  1  0.561900  0.259700  0.815200  1.0  0.0662
  H  H13  1  0.560400  0.293600  0.299100  1.0  0.1253
  H  H14  1  0.469100  0.329400  0.251400  1.0  0.1189
  H  H15  1  0.154700  0.069500  0.472900  1.0  0.124
  H  H16  1  0.029400  0.204500  0.267400  1.0  0.1134
  H  H17  1  0.938100  0.240300  0.315200  1.0  0.0664
  H  H18  1  0.939600  0.206400  0.799100  1.0  0.1241
  H  H19  1  0.030900  0.170600  0.751400  1.0  0.1185
  H  H20  1  0.654700  0.569500  0.972900  1.0  0.124
  H  H21  1  0.529400  0.704500  0.767400  1.0  0.1134
  H  H22  1  0.438100  0.740300  0.815200  1.0  0.0664
  H  H23  1  0.439600  0.706400  0.299100  1.0  0.1241
  H  H24  1  0.530900  0.670600  0.251400  1.0  0.1185
  H  H25  1  0.345300  0.069500  0.472900  1.0  0.1235
  H  H26  1  0.470600  0.204500  0.267400  1.0  0.1132
  H  H27  1  0.561900  0.240300  0.315200  1.0  0.066
  H  H28  1  0.560400  0.206400  0.799100  1.0  0.1251
  H  H29  1  0.469100  0.170600  0.751400  1.0  0.1189
  H  H30  1  0.845300  0.569500  0.972900  1.0  0.1235
  H  H31  1  0.970600  0.704500  0.767400  1.0  0.1132
  H  H32  1  0.061900  0.740300  0.815200  1.0  0.066
  H  H33  1  0.060400  0.706400  0.299100  1.0  0.1251
  H  H34  1  0.969100  0.670600  0.251400  1.0  0.1189
  H  H35  1  0.654700  0.930500  0.472900  1.0  0.124
  H  H36  1  0.529400  0.795500  0.267400  1.0  0.1132
  H  H37  1  0.438100  0.759700  0.315200  1.0  0.0664
  H  H38  1  0.439600  0.793600  0.799100  1.0  0.124
  H  H39  1  0.530900  0.829400  0.751400  1.0  0.1189
  H  H40  1  0.154700  0.430500  0.972900  1.0  0.124
  H  H41  1  0.029400  0.295500  0.767400  1.0  0.1132
  H  H42  1  0.938100  0.259700  0.815200  1.0  0.0664
  H  H43  1  0.939600  0.293600  0.299100  1.0  0.124
  H  H44  1  0.030900  0.329400  0.251400  1.0  0.1189
  H  H45  1  0.750000  0.129300  0.757400  1.0  0.1061
  H  H46  1  0.750000  0.061000  0.752300  1.0  0.1157
  H  H47  1  0.750000  0.063100  0.247200  1.0  0.1161
  H  H48  1  0.750000  0.131400  0.252300  1.0  0.1056
  H  H49  1  0.750000  0.830300  0.430400  1.0  0.1452
  H  H50  1  0.250000  0.629300  0.257400  1.0  0.1061
  H  H51  1  0.250000  0.561000  0.252300  1.0  0.1157
  H  H52  1  0.250000  0.563100  0.747200  1.0  0.1161
  H  H53  1  0.250000  0.631400  0.752300  1.0  0.1056
  H  H54  1  0.250000  0.330300  0.930400  1.0  0.1452
  H  H55  1  0.250000  0.870700  0.757400  1.0  0.1058
  H  H56  1  0.250000  0.939000  0.752300  1.0  0.1152
  H  H57  1  0.250000  0.936900  0.247200  1.0  0.1161
  H  H58  1  0.250000  0.868600  0.252300  1.0  0.106
  H  H59  1  0.250000  0.169700  0.430400  1.0  0.1457
  H  H60  1  0.750000  0.370700  0.257400  1.0  0.1058
  H  H61  1  0.750000  0.439000  0.252300  1.0  0.1152
  H  H62  1  0.750000  0.436900  0.747200  1.0  0.1161
  H  H63  1  0.750000  0.368600  0.752300  1.0  0.106
  H  H64  1  0.750000  0.669700  0.930400  1.0  0.1457
  C  C65  1  0.807500  0.916200  0.462000  1.0  -0.0827
  C  C66  1  0.809100  0.875900  0.433000  1.0  0.2269
  C  C67  1  0.861300  0.854900  0.451000  1.0  0.0291
  C  C68  1  0.909400  0.836200  0.478000  1.0  0.0753
  C  C69  1  0.961200  0.815800  0.505000  1.0  0.1251
  C  C70  1  0.989000  0.795100  0.375000  1.0  -0.1484
  C  C71  1  0.043000  0.773800  0.404000  1.0  -0.142
  C  C72  1  0.069800  0.773300  0.562000  1.0  -0.0914
  C  C73  1  0.042000  0.794000  0.691000  1.0  -0.1384
  C  C74  1  0.988000  0.815300  0.663000  1.0  -0.1472
  C  C75  1  0.130000  0.761800  0.644000  1.0  0.3145
  C  C76  1  0.307500  0.416200  0.962000  1.0  -0.0827
  C  C77  1  0.309100  0.375900  0.933000  1.0  0.2269
  C  C78  1  0.361300  0.354900  0.951000  1.0  0.0291
  C  C79  1  0.409400  0.336200  0.978000  1.0  0.0753
  C  C80  1  0.461200  0.315800  0.005000  1.0  0.1251
  C  C81  1  0.489000  0.295100  0.875000  1.0  -0.1484
  C  C82  1  0.543000  0.273800  0.904000  1.0  -0.142
  C  C83  1  0.569800  0.273300  0.062000  1.0  -0.0914
  C  C84  1  0.542000  0.294000  0.191000  1.0  -0.1384
  C  C85  1  0.488000  0.315300  0.163000  1.0  -0.1472
  C  C86  1  0.630000  0.261800  0.144000  1.0  0.3145
  C  C87  1  0.192500  0.083800  0.462000  1.0  -0.0846
  C  C88  1  0.190900  0.124100  0.433000  1.0  0.2269
  C  C89  1  0.138700  0.145100  0.451000  1.0  0.0286
  C  C90  1  0.090600  0.163800  0.478000  1.0  0.0756
  C  C91  1  0.038800  0.184200  0.505000  1.0  0.126
  C  C92  1  0.011000  0.204900  0.375000  1.0  -0.1484
  C  C93  1  0.957000  0.226200  0.404000  1.0  -0.1402
  C  C94  1  0.930200  0.226700  0.562000  1.0  -0.0915
  C  C95  1  0.958000  0.206000  0.691000  1.0  -0.1354
  C  C96  1  0.012000  0.184700  0.663000  1.0  -0.1444
  C  C97  1  0.870000  0.238200  0.644000  1.0  0.3141
  C  C98  1  0.692500  0.583800  0.962000  1.0  -0.0846
  C  C99  1  0.690900  0.624100  0.933000  1.0  0.2269
  C  C100  1  0.638700  0.645100  0.951000  1.0  0.0286
  C  C101  1  0.590600  0.663800  0.978000  1.0  0.0756
  C  C102  1  0.538800  0.684200  0.005000  1.0  0.126
  C  C103  1  0.511000  0.704900  0.875000  1.0  -0.1484
  C  C104  1  0.457000  0.726200  0.904000  1.0  -0.1402
  C  C105  1  0.430200  0.726700  0.062000  1.0  -0.0915
  C  C106  1  0.458000  0.706000  0.191000  1.0  -0.1354
  C  C107  1  0.512000  0.684700  0.163000  1.0  -0.1444
  C  C108  1  0.370000  0.738200  0.144000  1.0  0.3141
  C  C109  1  0.307500  0.083800  0.462000  1.0  -0.0837
  C  C110  1  0.309100  0.124100  0.433000  1.0  0.2264
  C  C111  1  0.361300  0.145100  0.451000  1.0  0.029
  C  C112  1  0.409400  0.163800  0.478000  1.0  0.0755
  C  C113  1  0.461200  0.184200  0.505000  1.0  0.1248
  C  C114  1  0.489000  0.204900  0.375000  1.0  -0.148
  C  C115  1  0.543000  0.226200  0.404000  1.0  -0.1414
  C  C116  1  0.569800  0.226700  0.562000  1.0  -0.0912
  C  C117  1  0.542000  0.206000  0.691000  1.0  -0.1424
  C  C118  1  0.488000  0.184700  0.663000  1.0  -0.1455
  C  C119  1  0.630000  0.238200  0.644000  1.0  0.3146
  C  C120  1  0.807500  0.583800  0.962000  1.0  -0.0837
  C  C121  1  0.809100  0.624100  0.933000  1.0  0.2264
  C  C122  1  0.861300  0.645100  0.951000  1.0  0.029
  C  C123  1  0.909400  0.663800  0.978000  1.0  0.0755
  C  C124  1  0.961200  0.684200  0.005000  1.0  0.1248
  C  C125  1  0.989000  0.704900  0.875000  1.0  -0.148
  C  C126  1  0.043000  0.726200  0.904000  1.0  -0.1414
  C  C127  1  0.069800  0.726700  0.062000  1.0  -0.0912
  C  C128  1  0.042000  0.706000  0.191000  1.0  -0.1424
  C  C129  1  0.988000  0.684700  0.163000  1.0  -0.1455
  C  C130  1  0.130000  0.738200  0.144000  1.0  0.3146
  C  C131  1  0.692500  0.916200  0.462000  1.0  -0.0857
  C  C132  1  0.690900  0.875900  0.433000  1.0  0.2262
  C  C133  1  0.638700  0.854900  0.451000  1.0  0.0286
  C  C134  1  0.590600  0.836200  0.478000  1.0  0.0753
  C  C135  1  0.538800  0.815800  0.505000  1.0  0.1266
  C  C136  1  0.511000  0.795100  0.375000  1.0  -0.1486
  C  C137  1  0.457000  0.773800  0.404000  1.0  -0.1405
  C  C138  1  0.430200  0.773300  0.562000  1.0  -0.0914
  C  C139  1  0.458000  0.794000  0.691000  1.0  -0.1415
  C  C140  1  0.512000  0.815300  0.663000  1.0  -0.1453
  C  C141  1  0.370000  0.761800  0.644000  1.0  0.314
  C  C142  1  0.192500  0.416200  0.962000  1.0  -0.0857
  C  C143  1  0.190900  0.375900  0.933000  1.0  0.2262
  C  C144  1  0.138700  0.354900  0.951000  1.0  0.0286
  C  C145  1  0.090600  0.336200  0.978000  1.0  0.0753
  C  C146  1  0.038800  0.315800  0.005000  1.0  0.1266
  C  C147  1  0.011000  0.295100  0.875000  1.0  -0.1486
  C  C148  1  0.957000  0.273800  0.904000  1.0  -0.1405
  C  C149  1  0.930200  0.273300  0.062000  1.0  -0.0914
  C  C150  1  0.958000  0.294000  0.191000  1.0  -0.1415
  C  C151  1  0.012000  0.315300  0.163000  1.0  -0.1453
  C  C152  1  0.870000  0.261800  0.144000  1.0  0.314
  C  C153  1  0.750000  0.178600  0.519000  1.0  0.6602
  C  C154  1  0.750000  0.136800  0.505000  1.0  -0.1133
  C  C155  1  0.750000  0.115900  0.654000  1.0  -0.098
  C  C156  1  0.750000  0.075300  0.651000  1.0  -0.1155
  C  C157  1  0.750000  0.055600  0.499000  1.0  0.0067
  C  C158  1  0.750000  0.076500  0.351000  1.0  -0.1149
  C  C159  1  0.750000  0.117100  0.354000  1.0  -0.0515
  C  C160  1  0.750000  0.013000  0.492430  1.0  0.0474
  C  C161  1  0.750000  0.976700  0.487000  1.0  0.0625
  C  C162  1  0.750000  0.935200  0.475000  1.0  0.0514
  C  C163  1  0.750000  0.858000  0.432000  1.0  -0.0526
  C  C164  1  0.250000  0.678600  0.019000  1.0  0.6602
  C  C165  1  0.250000  0.636800  0.005000  1.0  -0.1133
  C  C166  1  0.250000  0.615900  0.154000  1.0  -0.098
  C  C167  1  0.250000  0.575300  0.151000  1.0  -0.1155
  C  C168  1  0.250000  0.555600  0.999000  1.0  0.0067
  C  C169  1  0.250000  0.576500  0.851000  1.0  -0.1149
  C  C170  1  0.250000  0.617100  0.854000  1.0  -0.0515
  C  C171  1  0.250000  0.513000  0.992430  1.0  0.0474
  C  C172  1  0.250000  0.476700  0.987000  1.0  0.0625
  C  C173  1  0.250000  0.435200  0.975000  1.0  0.0514
  C  C174  1  0.250000  0.358000  0.932000  1.0  -0.0526
  C  C175  1  0.250000  0.821400  0.519000  1.0  0.6602
  C  C176  1  0.250000  0.863200  0.505000  1.0  -0.1137
  C  C177  1  0.250000  0.884100  0.654000  1.0  -0.0982
  C  C178  1  0.250000  0.924700  0.651000  1.0  -0.1156
  C  C179  1  0.250000  0.944400  0.499000  1.0  0.0039
  C  C180  1  0.250000  0.923500  0.351000  1.0  -0.1144
  C  C181  1  0.250000  0.882900  0.354000  1.0  -0.0521
  C  C182  1  0.250000  0.987000  0.492430  1.0  0.0472
  C  C183  1  0.250000  0.023300  0.487000  1.0  0.0625
  C  C184  1  0.250000  0.064800  0.475000  1.0  0.0516
  C  C185  1  0.250000  0.142000  0.432000  1.0  -0.0531
  C  C186  1  0.750000  0.321400  0.019000  1.0  0.6602
  C  C187  1  0.750000  0.363200  0.005000  1.0  -0.1137
  C  C188  1  0.750000  0.384100  0.154000  1.0  -0.0982
  C  C189  1  0.750000  0.424700  0.151000  1.0  -0.1156
  C  C190  1  0.750000  0.444400  0.999000  1.0  0.0039
  C  C191  1  0.750000  0.423500  0.851000  1.0  -0.1144
  C  C192  1  0.750000  0.382900  0.854000  1.0  -0.0521
  C  C193  1  0.750000  0.487000  0.992430  1.0  0.0472
  C  C194  1  0.750000  0.523300  0.987000  1.0  0.0625
  C  C195  1  0.750000  0.564800  0.975000  1.0  0.0516
  C  C196  1  0.750000  0.642000  0.932000  1.0  -0.0531
  O  O197  1  0.150300  0.752200  0.773000  1.0  -0.6391
  O  O198  1  0.188000  0.765400  0.528000  1.0  -0.7901
  O  O199  1  0.650300  0.252200  0.273000  1.0  -0.6391
  O  O200  1  0.688000  0.265400  0.028000  1.0  -0.7901
  O  O201  1  0.849700  0.247800  0.773000  1.0  -0.6384
  O  O202  1  0.812000  0.234600  0.528000  1.0  -0.7909
  O  O203  1  0.349700  0.747800  0.273000  1.0  -0.6384
  O  O204  1  0.312000  0.734600  0.028000  1.0  -0.7909
  O  O205  1  0.650300  0.247800  0.773000  1.0  -0.6383
  O  O206  1  0.688000  0.234600  0.528000  1.0  -0.7909
  O  O207  1  0.150300  0.747800  0.273000  1.0  -0.6383
  O  O208  1  0.188000  0.734600  0.028000  1.0  -0.7909
  O  O209  1  0.349700  0.752200  0.773000  1.0  -0.6372
  O  O210  1  0.312000  0.765400  0.528000  1.0  -0.7901
  O  O211  1  0.849700  0.252200  0.273000  1.0  -0.6372
  O  O212  1  0.812000  0.265400  0.028000  1.0  -0.7901
  O  O213  1  0.750000  0.196300  0.666000  1.0  -0.6596
  O  O214  1  0.750000  0.197100  0.382000  1.0  -0.6433
  O  O215  1  0.250000  0.696300  0.166000  1.0  -0.6596
  O  O216  1  0.250000  0.697100  0.882000  1.0  -0.6433
  O  O217  1  0.250000  0.803700  0.666000  1.0  -0.6587
  O  O218  1  0.250000  0.802900  0.382000  1.0  -0.6435
  O  O219  1  0.750000  0.303700  0.166000  1.0  -0.6587
  O  O220  1  0.750000  0.302900  0.882000  1.0  -0.6435
