# generated using pymatgen
data_ZnH26C28(N3O2)2
_symmetry_space_group_name_H-M   'P 1'
_cell_length_a   10.59200000
_cell_length_b   13.12000000
_cell_length_c   22.30600000
_cell_angle_alpha   90.00000000
_cell_angle_beta   90.00000000
_cell_angle_gamma   100.81300000
_symmetry_Int_Tables_number   1
_chemical_formula_structural   ZnH26C28(N3O2)2
_chemical_formula_sum   'Zn4 H104 C112 N24 O16'
_cell_volume   3044.76096762
_cell_formula_units_Z   4
loop_
 _symmetry_equiv_pos_site_id
 _symmetry_equiv_pos_as_xyz
  1  'x, y, z'
loop_
 _atom_site_type_symbol
 _atom_site_label
 _atom_site_symmetry_multiplicity
 _atom_site_fract_x
 _atom_site_fract_y
 _atom_site_fract_z
 _atom_site_occupancy
 _atom_site_charge
  Zn  Zn1  1  0.777250  0.484480  0.138410  1.0  0.9024
  Zn  Zn2  1  0.304660  0.987700  0.070780  1.0  0.9163
  Zn  Zn3  1  0.222750  0.515520  0.638410  1.0  0.9023
  Zn  Zn4  1  0.695340  0.012300  0.570780  1.0  0.916
  H  H5  1  0.476000  0.705800  0.240800  1.0  0.0801
  H  H6  1  0.358300  0.491500  0.363000  1.0  0.1142
  H  H7  1  0.208100  0.520600  0.430500  1.0  0.0969
  H  H8  1  0.080100  0.618500  0.473700  1.0  0.1152
  H  H9  1  0.977200  0.772200  0.472300  1.0  0.1222
  H  H10  1  0.101100  0.992400  0.349300  1.0  0.1079
  H  H11  1  0.615600  0.623200  0.208000  1.0  0.1181
  H  H12  1  0.465800  0.378100  0.311800  1.0  0.144
  H  H13  1  0.632500  0.332000  0.250500  1.0  0.1101
  H  H14  1  0.880400  0.894000  0.514300  1.0  0.0726
  H  H15  1  0.921400  0.059800  0.371100  1.0  0.1188
  H  H16  1  0.767500  0.123400  0.438000  1.0  0.1241
  H  H17  1  0.478700  0.160700  0.937800  1.0  0.1181
  H  H18  1  0.397200  0.434900  0.976400  1.0  0.1083
  H  H19  1  0.240000  0.509600  0.912000  1.0  0.1279
  H  H20  1  0.094600  0.484300  0.836100  1.0  0.1152
  H  H21  1  0.991600  0.381700  0.749700  1.0  0.1184
  H  H22  1  0.069800  0.103300  0.720300  1.0  0.0975
  H  H23  1  0.596700  0.468400  0.024600  1.0  0.1147
  H  H24  1  0.542500  0.159600  0.040000  1.0  0.1203
  H  H25  1  0.688000  0.238700  0.120100  1.0  0.1259
  H  H26  1  0.866100  0.065800  0.684700  1.0  0.0991
  H  H27  1  0.937700  0.360100  0.638300  1.0  0.1145
  H  H28  1  0.784300  0.271300  0.568400  1.0  0.1109
  H  H29  1  0.293700  0.259700  0.205200  1.0  0.0947
  H  H30  1  0.296300  0.329400  0.091200  1.0  0.0603
  H  H31  1  0.380400  0.376000  0.146600  1.0  0.0687
  H  H32  1  0.242300  0.481300  0.164300  1.0  0.0626
  H  H33  1  0.155600  0.431600  0.110700  1.0  0.0721
  H  H34  1  0.056400  0.373300  0.278300  1.0  0.1107
  H  H35  1  0.172500  0.459600  0.258900  1.0  0.0973
  H  H36  1  0.192300  0.345200  0.268100  1.0  0.1088
  H  H37  1  0.999500  0.112200  0.209300  1.0  0.1112
  H  H38  1  0.002800  0.203500  0.254900  1.0  0.1089
  H  H39  1  0.122200  0.149500  0.248600  1.0  0.1133
  H  H40  1  0.943300  0.209600  0.131600  1.0  0.1147
  H  H41  1  0.041600  0.136700  0.118800  1.0  0.1097
  H  H42  1  0.063300  0.248300  0.090900  1.0  0.0992
  H  H43  1  0.854700  0.816600  0.090000  1.0  0.0817
  H  H44  1  0.832300  0.763000  0.972200  1.0  0.0777
  H  H45  1  0.913100  0.865200  0.000300  1.0  0.0637
  H  H46  1  0.757600  0.943400  0.958000  1.0  0.0664
  H  H47  1  0.656500  0.838700  0.956100  1.0  0.0745
  H  H48  1  0.711800  0.063100  0.058500  1.0  0.1058
  H  H49  1  0.823500  0.014800  0.031000  1.0  0.0898
  H  H50  1  0.782600  0.992400  0.098000  1.0  0.1021
  H  H51  1  0.682600  0.908700  0.155500  1.0  0.1184
  H  H52  1  0.686400  0.792400  0.169900  1.0  0.1022
  H  H53  1  0.554800  0.826100  0.156600  1.0  0.1223
  H  H54  1  0.574200  0.664300  0.065300  1.0  0.1
  H  H55  1  0.509900  0.740300  0.026600  1.0  0.1114
  H  H56  1  0.484400  0.731400  0.095800  1.0  0.1021
  H  H57  1  0.524000  0.294200  0.740800  1.0  0.0793
  H  H58  1  0.641700  0.508500  0.863000  1.0  0.1147
  H  H59  1  0.791900  0.479400  0.930500  1.0  0.0966
  H  H60  1  0.919900  0.381500  0.973700  1.0  0.1148
  H  H61  1  0.022800  0.227800  0.972300  1.0  0.1221
  H  H62  1  0.898900  0.007600  0.849300  1.0  0.1081
  H  H63  1  0.384400  0.376800  0.708000  1.0  0.1176
  H  H64  1  0.534200  0.621900  0.811800  1.0  0.143
  H  H65  1  0.367500  0.668000  0.750500  1.0  0.1122
  H  H66  1  0.119600  0.106000  0.014300  1.0  0.0729
  H  H67  1  0.078600  0.940200  0.871100  1.0  0.1192
  H  H68  1  0.232500  0.876600  0.938000  1.0  0.1231
  H  H69  1  0.521300  0.839300  0.437800  1.0  0.1176
  H  H70  1  0.602800  0.565100  0.476400  1.0  0.1064
  H  H71  1  0.760000  0.490400  0.412000  1.0  0.1281
  H  H72  1  0.905400  0.515700  0.336100  1.0  0.1146
  H  H73  1  0.008400  0.618300  0.249700  1.0  0.1179
  H  H74  1  0.930200  0.896700  0.220300  1.0  0.0971
  H  H75  1  0.403300  0.531600  0.524600  1.0  0.1145
  H  H76  1  0.457500  0.840400  0.540000  1.0  0.1196
  H  H77  1  0.312000  0.761300  0.620100  1.0  0.1256
  H  H78  1  0.133900  0.934200  0.184700  1.0  0.0986
  H  H79  1  0.062300  0.639900  0.138300  1.0  0.1138
  H  H80  1  0.215700  0.728700  0.068400  1.0  0.1101
  H  H81  1  0.706300  0.740300  0.705200  1.0  0.0933
  H  H82  1  0.703700  0.670600  0.591200  1.0  0.0596
  H  H83  1  0.619600  0.624000  0.646600  1.0  0.0705
  H  H84  1  0.757700  0.518700  0.664300  1.0  0.0614
  H  H85  1  0.844400  0.568400  0.610700  1.0  0.0717
  H  H86  1  0.943600  0.626700  0.778300  1.0  0.1095
  H  H87  1  0.827500  0.540400  0.758900  1.0  0.095
  H  H88  1  0.807700  0.654800  0.768100  1.0  0.1082
  H  H89  1  0.000500  0.887800  0.709300  1.0  0.1083
  H  H90  1  0.997200  0.796500  0.754900  1.0  0.1081
  H  H91  1  0.877800  0.850500  0.748600  1.0  0.1123
  H  H92  1  0.056700  0.790400  0.631600  1.0  0.1145
  H  H93  1  0.958400  0.863300  0.618800  1.0  0.1091
  H  H94  1  0.936700  0.751700  0.590900  1.0  0.0985
  H  H95  1  0.145300  0.183400  0.590000  1.0  0.0823
  H  H96  1  0.167700  0.237000  0.472200  1.0  0.0778
  H  H97  1  0.086900  0.134800  0.500300  1.0  0.0611
  H  H98  1  0.242400  0.056600  0.458000  1.0  0.0665
  H  H99  1  0.343500  0.161300  0.456100  1.0  0.0757
  H  H100  1  0.288200  0.936900  0.558500  1.0  0.1061
  H  H101  1  0.176500  0.985200  0.531000  1.0  0.0893
  H  H102  1  0.217400  0.007600  0.598000  1.0  0.1029
  H  H103  1  0.317400  0.091300  0.655500  1.0  0.1188
  H  H104  1  0.313600  0.207600  0.669900  1.0  0.1024
  H  H105  1  0.445200  0.173900  0.656600  1.0  0.1226
  H  H106  1  0.425800  0.335700  0.565300  1.0  0.1015
  H  H107  1  0.490100  0.259700  0.526600  1.0  0.1123
  H  H108  1  0.515600  0.268600  0.595800  1.0  0.1015
  C  C109  1  0.425300  0.684500  0.274200  1.0  0.1291
  C  C110  1  0.432900  0.589200  0.298800  1.0  0.0389
  C  C111  1  0.356600  0.556200  0.346300  1.0  -0.1334
  C  C112  1  0.279100  0.615200  0.369600  1.0  0.0567
  C  C113  1  0.206400  0.585500  0.414200  1.0  -0.1251
  C  C114  1  0.126000  0.643600  0.439600  1.0  -0.1334
  C  C115  1  0.110000  0.741500  0.415500  1.0  0.0253
  C  C116  1  0.028100  0.796300  0.439400  1.0  -0.1287
  C  C117  1  0.022700  0.891200  0.412700  1.0  0.0679
  C  C118  1  0.105300  0.928200  0.366100  1.0  0.1062
  C  C119  1  0.189600  0.773300  0.370300  1.0  0.1396
  C  C120  1  0.274200  0.707900  0.344700  1.0  0.146
  C  C121  1  0.601300  0.558000  0.225900  1.0  0.1204
  C  C122  1  0.517100  0.421000  0.284700  1.0  -0.15
  C  C123  1  0.607600  0.396300  0.249700  1.0  0.0813
  C  C124  1  0.870800  0.944600  0.486400  1.0  0.1623
  C  C125  1  0.895900  0.032800  0.408700  1.0  -0.1075
  C  C126  1  0.808600  0.068100  0.445600  1.0  0.0121
  C  C127  1  0.431900  0.212100  0.929000  1.0  0.1265
  C  C128  1  0.445200  0.301400  0.964400  1.0  0.0757
  C  C129  1  0.383800  0.376100  0.952200  1.0  -0.1113
  C  C130  1  0.299500  0.370600  0.904700  1.0  0.0196
  C  C131  1  0.228200  0.448200  0.890100  1.0  -0.1322
  C  C132  1  0.142500  0.433300  0.844100  1.0  -0.088
  C  C133  1  0.123700  0.344000  0.808500  1.0  0.0132
  C  C134  1  0.036000  0.329500  0.760100  1.0  -0.0993
  C  C135  1  0.016900  0.239600  0.729100  1.0  0.1141
  C  C136  1  0.084400  0.163800  0.743000  1.0  0.0956
  C  C137  1  0.186800  0.267100  0.820700  1.0  0.1192
  C  C138  1  0.280900  0.278300  0.870900  1.0  0.1215
  C  C139  1  0.604200  0.402100  0.037000  1.0  0.1393
  C  C140  1  0.572200  0.230200  0.045900  1.0  -0.1073
  C  C141  1  0.653500  0.273900  0.089800  1.0  0.0189
  C  C142  1  0.865300  0.127100  0.664000  1.0  0.1717
  C  C143  1  0.904500  0.289300  0.638900  1.0  -0.084
  C  C144  1  0.820600  0.240800  0.600100  1.0  0.0058
  C  C145  1  0.964300  0.390300  0.180600  1.0  0.6345
  C  C146  1  0.101000  0.364700  0.190100  1.0  -0.0235
  C  C147  1  0.107600  0.248900  0.178800  1.0  0.2181
  C  C148  1  0.249100  0.253300  0.166500  1.0  -0.2071
  C  C149  1  0.294500  0.344200  0.133700  1.0  -0.095
  C  C150  1  0.197300  0.416300  0.147400  1.0  -0.1529
  C  C151  1  0.133500  0.388000  0.254600  1.0  -0.3458
  C  C152  1  0.053000  0.171400  0.227400  1.0  -0.3627
  C  C153  1  0.032300  0.207200  0.125300  1.0  -0.3995
  C  C154  1  0.532100  0.939200  0.034400  1.0  0.5859
  C  C155  1  0.659600  0.912400  0.039700  1.0  -0.0216
  C  C156  1  0.661600  0.815600  0.075800  1.0  0.1934
  C  C157  1  0.790500  0.779500  0.062200  1.0  -0.2244
  C  C158  1  0.829500  0.819900  0.999700  1.0  -0.1042
  C  C159  1  0.720800  0.881900  0.980700  1.0  -0.1527
  C  C160  1  0.752300  0.003500  0.058400  1.0  -0.3286
  C  C161  1  0.644600  0.838000  0.146700  1.0  -0.377
  C  C162  1  0.547100  0.730100  0.064900  1.0  -0.3786
  C  C163  1  0.786000  0.667900  0.071900  1.0  0.7076
  C  C164  1  0.278500  0.152700  0.134500  1.0  0.6312
  C  C165  1  0.574700  0.315500  0.774200  1.0  0.1286
  C  C166  1  0.567100  0.410800  0.798800  1.0  0.0388
  C  C167  1  0.643400  0.443800  0.846300  1.0  -0.1341
  C  C168  1  0.720900  0.384800  0.869600  1.0  0.0565
  C  C169  1  0.793600  0.414500  0.914200  1.0  -0.126
  C  C170  1  0.874000  0.356400  0.939600  1.0  -0.1337
  C  C171  1  0.890000  0.258500  0.915500  1.0  0.0263
  C  C172  1  0.971900  0.203700  0.939400  1.0  -0.1292
  C  C173  1  0.977300  0.108800  0.912700  1.0  0.0679
  C  C174  1  0.894700  0.071800  0.866100  1.0  0.1064
  C  C175  1  0.810400  0.226700  0.870300  1.0  0.1393
  C  C176  1  0.725800  0.292100  0.844700  1.0  0.1444
  C  C177  1  0.398700  0.442000  0.725900  1.0  0.1203
  C  C178  1  0.482900  0.579000  0.784700  1.0  -0.1528
  C  C179  1  0.392400  0.603700  0.749700  1.0  0.0801
  C  C180  1  0.129200  0.055400  0.986400  1.0  0.1639
  C  C181  1  0.104100  0.967200  0.908700  1.0  -0.1096
  C  C182  1  0.191400  0.931900  0.945600  1.0  0.0119
  C  C183  1  0.568100  0.787900  0.429000  1.0  0.1264
  C  C184  1  0.554800  0.698600  0.464400  1.0  0.0753
  C  C185  1  0.616200  0.623900  0.452200  1.0  -0.1045
  C  C186  1  0.700500  0.629400  0.404700  1.0  0.0199
  C  C187  1  0.771800  0.551800  0.390100  1.0  -0.133
  C  C188  1  0.857500  0.566700  0.344100  1.0  -0.0865
  C  C189  1  0.876300  0.656000  0.308500  1.0  0.0122
  C  C190  1  0.964000  0.670500  0.260100  1.0  -0.0993
  C  C191  1  0.983100  0.760400  0.229100  1.0  0.1148
  C  C192  1  0.915600  0.836200  0.243000  1.0  0.0956
  C  C193  1  0.813200  0.732900  0.320700  1.0  0.1186
  C  C194  1  0.719100  0.721700  0.370900  1.0  0.122
  C  C195  1  0.395800  0.597900  0.537000  1.0  0.1402
  C  C196  1  0.427800  0.769800  0.545900  1.0  -0.1062
  C  C197  1  0.346500  0.726100  0.589800  1.0  0.0183
  C  C198  1  0.134700  0.872900  0.164000  1.0  0.1693
  C  C199  1  0.095500  0.710700  0.138900  1.0  -0.0828
  C  C200  1  0.179400  0.759200  0.100100  1.0  0.0056
  C  C201  1  0.035700  0.609700  0.680600  1.0  0.6366
  C  C202  1  0.899000  0.635300  0.690100  1.0  -0.0239
  C  C203  1  0.892400  0.751100  0.678800  1.0  0.2183
  C  C204  1  0.750900  0.746700  0.666500  1.0  -0.1787
  C  C205  1  0.705500  0.655800  0.633700  1.0  -0.0949
  C  C206  1  0.802700  0.583700  0.647400  1.0  -0.1521
  C  C207  1  0.866500  0.612000  0.754600  1.0  -0.3419
  C  C208  1  0.947000  0.828600  0.727400  1.0  -0.3674
  C  C209  1  0.967700  0.792800  0.625300  1.0  -0.4001
  C  C210  1  0.467900  0.060800  0.534400  1.0  0.6518
  C  C211  1  0.340400  0.087600  0.539700  1.0  -0.0121
  C  C212  1  0.338400  0.184400  0.575800  1.0  0.1935
  C  C213  1  0.209500  0.220500  0.562200  1.0  -0.2255
  C  C214  1  0.170500  0.180100  0.499700  1.0  -0.1018
  C  C215  1  0.279200  0.118100  0.480700  1.0  -0.1537
  C  C216  1  0.247700  0.996500  0.558400  1.0  -0.3314
  C  C217  1  0.355400  0.162000  0.646700  1.0  -0.3742
  C  C218  1  0.452900  0.269900  0.564900  1.0  -0.377
  C  C219  1  0.214000  0.332100  0.571900  1.0  0.7098
  C  C220  1  0.721500  0.847300  0.634500  1.0  0.6303
  N  N221  1  0.350500  0.748400  0.294800  1.0  -0.3329
  N  N222  1  0.193800  0.872600  0.343800  1.0  -0.3299
  N  N223  1  0.514400  0.523900  0.272400  1.0  0.0243
  N  N224  1  0.661500  0.476500  0.211800  1.0  -0.3959
  N  N225  1  0.938200  0.954300  0.435000  1.0  0.0605
  N  N226  1  0.794100  0.005800  0.495700  1.0  -0.3703
  N  N227  1  0.347000  0.201100  0.880100  1.0  -0.3461
  N  N228  1  0.173000  0.172000  0.788800  1.0  -0.3729
  N  N229  1  0.542200  0.309100  0.011800  1.0  -0.0154
  N  N230  1  0.675300  0.379300  0.081400  1.0  -0.3452
  N  N231  1  0.936100  0.220700  0.680400  1.0  0.0422
  N  N232  1  0.795100  0.132700  0.615400  1.0  -0.4002
  N  N233  1  0.649500  0.251600  0.794800  1.0  -0.3319
  N  N234  1  0.806200  0.127400  0.843800  1.0  -0.331
  N  N235  1  0.485600  0.476100  0.772400  1.0  0.0243
  N  N236  1  0.338500  0.523500  0.711800  1.0  -0.3974
  N  N237  1  0.061800  0.045700  0.935000  1.0  0.06
  N  N238  1  0.205900  0.994200  0.995700  1.0  -0.3691
  N  N239  1  0.653000  0.798900  0.380100  1.0  -0.348
  N  N240  1  0.827000  0.828000  0.288800  1.0  -0.3895
  N  N241  1  0.457800  0.690900  0.511800  1.0  -0.0152
  N  N242  1  0.324700  0.620700  0.581400  1.0  -0.3473
  N  N243  1  0.063900  0.779300  0.180400  1.0  0.0422
  N  N244  1  0.204900  0.867300  0.115400  1.0  -0.4008
  O  O245  1  0.952300  0.466700  0.152200  1.0  -0.5769
  O  O246  1  0.868800  0.331300  0.206900  1.0  -0.6056
  O  O247  1  0.279500  0.133200  0.090100  1.0  -0.5072
  O  O248  1  0.292400  0.090600  0.184100  1.0  -0.7338
  O  O249  1  0.483500  0.978300  0.071700  1.0  -0.5973
  O  O250  1  0.462700  0.905200  0.992600  1.0  -0.6622
  O  O251  1  0.784300  0.609100  0.029800  1.0  -0.6007
  O  O252  1  0.780900  0.630700  0.122700  1.0  -0.6312
  O  O253  1  0.047700  0.533300  0.652200  1.0  -0.5778
  O  O254  1  0.131200  0.668700  0.706900  1.0  -0.618
  O  O255  1  0.720500  0.866800  0.590100  1.0  -0.5087
  O  O256  1  0.707600  0.909400  0.684100  1.0  -0.7326
  O  O257  1  0.516500  0.021700  0.571700  1.0  -0.5959
  O  O258  1  0.537300  0.094800  0.492600  1.0  -0.6608
  O  O259  1  0.215700  0.390900  0.529800  1.0  -0.5989
  O  O260  1  0.219100  0.369300  0.622700  1.0  -0.6324
