# generated using pymatgen
data_Co2H17C29N4O11
_symmetry_space_group_name_H-M   'P 1'
_cell_length_a   10.55300000
_cell_length_b   12.78900000
_cell_length_c   14.44300000
_cell_angle_alpha   112.20600000
_cell_angle_beta   90.40100000
_cell_angle_gamma   94.83900000
_symmetry_Int_Tables_number   1
_chemical_formula_structural   Co2H17C29N4O11
_chemical_formula_sum   'Co4 H34 C58 N8 O22'
_cell_volume   1796.65581313
_cell_formula_units_Z   2
loop_
 _symmetry_equiv_pos_site_id
 _symmetry_equiv_pos_as_xyz
  1  'x, y, z'
loop_
 _atom_site_type_symbol
 _atom_site_label
 _atom_site_symmetry_multiplicity
 _atom_site_fract_x
 _atom_site_fract_y
 _atom_site_fract_z
 _atom_site_occupancy
 _atom_site_charge
  Co  Co1  1  0.263730  0.423540  0.229620  1.0  0.9638
  Co  Co2  1  0.817870  0.271140  0.678330  1.0  1.0014
  Co  Co3  1  0.736270  0.576460  0.770380  1.0  0.9624
  Co  Co4  1  0.182130  0.728860  0.321670  1.0  0.992
  H  H5  1  0.337000  0.602000  0.366000  1.0  0.4051
  H  H6  1  0.376000  0.612000  0.278000  1.0  0.4436
  H  H7  1  0.289000  0.250300  0.427600  1.0  0.1126
  H  H8  1  0.217700  0.281400  0.708600  1.0  0.1183
  H  H9  1  0.287600  0.559200  0.644100  1.0  0.1192
  H  H10  1  0.401100  0.650000  0.008200  1.0  0.1256
  H  H11  1  0.027400  0.647800  0.955100  1.0  0.114
  H  H12  1  0.207900  0.236200  0.014300  1.0  0.1264
  H  H13  1  0.213700  0.171800  0.257800  1.0  0.1101
  H  H14  1  0.166800  0.989800  0.116800  1.0  0.1291
  H  H15  1  0.168300  0.128000  0.868900  1.0  0.1226
  H  H16  1  0.128800  0.008800  0.703300  1.0  0.1339
  H  H17  1  0.105900  0.742000  0.784600  1.0  0.1017
  H  H18  1  0.140100  0.862300  0.951200  1.0  0.1172
  H  H19  1  0.187100  0.886700  0.554200  1.0  0.1039
  H  H20  1  0.005900  0.639200  0.618200  1.0  0.1356
  H  H21  1  0.028500  0.575200  0.437800  1.0  0.1014
  H  H22  1  0.663000  0.398000  0.634000  1.0  0.403
  H  H23  1  0.624000  0.388000  0.722000  1.0  0.4413
  H  H24  1  0.711000  0.749700  0.572400  1.0  0.1117
  H  H25  1  0.782300  0.718600  0.291400  1.0  0.1194
  H  H26  1  0.712400  0.440800  0.355900  1.0  0.1193
  H  H27  1  0.598900  0.350000  0.991800  1.0  0.1256
  H  H28  1  0.972600  0.352200  0.044900  1.0  0.1136
  H  H29  1  0.792100  0.763800  0.985700  1.0  0.1271
  H  H30  1  0.786300  0.828200  0.742200  1.0  0.1116
  H  H31  1  0.833200  0.010200  0.883200  1.0  0.1292
  H  H32  1  0.831700  0.872000  0.131100  1.0  0.1229
  H  H33  1  0.871200  0.991200  0.296700  1.0  0.1344
  H  H34  1  0.894100  0.258000  0.215400  1.0  0.1016
  H  H35  1  0.859900  0.137700  0.048800  1.0  0.1176
  H  H36  1  0.812900  0.113300  0.445800  1.0  0.1039
  H  H37  1  0.994100  0.360800  0.381800  1.0  0.1378
  H  H38  1  0.971500  0.424800  0.562200  1.0  0.1013
  C  C39  1  0.320400  0.464600  0.447800  1.0  0.6789
  C  C40  1  0.294400  0.412500  0.524100  1.0  -0.1467
  C  C41  1  0.280500  0.295800  0.494500  1.0  -0.0036
  C  C42  1  0.254400  0.245700  0.562800  1.0  -0.1229
  C  C43  1  0.236900  0.314400  0.662400  1.0  -0.025
  C  C44  1  0.248100  0.431800  0.692900  1.0  0.0399
  C  C45  1  0.278200  0.480600  0.623700  1.0  -0.0395
  C  C46  1  0.248700  0.117400  0.530100  1.0  0.7241
  C  C47  1  0.233600  0.508600  0.800100  1.0  -0.0072
  C  C48  1  0.341700  0.553100  0.865500  1.0  -0.0448
  C  C49  1  0.329700  0.624800  0.964700  1.0  -0.0256
  C  C50  1  0.212100  0.658400  0.998700  1.0  -0.0844
  C  C51  1  0.105500  0.621000  0.933600  1.0  -0.0583
  C  C52  1  0.115700  0.543200  0.835700  1.0  -0.0708
  C  C53  1  0.470200  0.519300  0.826200  1.0  0.7269
  C  C54  1  0.193900  0.730700  0.107800  1.0  0.7494
  C  C55  1  0.994300  0.493200  0.773000  1.0  0.6949
  C  C56  1  0.204000  0.197800  0.057700  1.0  0.1346
  C  C57  1  0.207000  0.162200  0.190800  1.0  0.024
  C  C58  1  0.180800  0.060800  0.112900  1.0  -0.1828
  C  C59  1  0.157500  0.007500  0.926200  1.0  0.1325
  C  C60  1  0.155100  0.050100  0.852000  1.0  -0.0936
  C  C61  1  0.133200  0.979000  0.752700  1.0  -0.1958
  C  C62  1  0.118100  0.863200  0.727800  1.0  0.1508
  C  C63  1  0.118900  0.820000  0.801600  1.0  -0.1083
  C  C64  1  0.139000  0.891900  0.901500  1.0  -0.1626
  C  C65  1  0.145300  0.817000  0.547200  1.0  0.1428
  C  C66  1  0.044900  0.680900  0.583900  1.0  -0.1292
  C  C67  1  0.058000  0.646400  0.484300  1.0  0.062
  C  C68  1  0.679600  0.535400  0.552200  1.0  0.6792
  C  C69  1  0.705600  0.587500  0.475900  1.0  -0.147
  C  C70  1  0.719500  0.704200  0.505500  1.0  -0.003
  C  C71  1  0.745600  0.754300  0.437200  1.0  -0.1229
  C  C72  1  0.763100  0.685600  0.337600  1.0  -0.0255
  C  C73  1  0.751900  0.568200  0.307100  1.0  0.0384
  C  C74  1  0.721800  0.519400  0.376300  1.0  -0.0365
  C  C75  1  0.751300  0.882600  0.469900  1.0  0.7264
  C  C76  1  0.766400  0.491400  0.199900  1.0  -0.0074
  C  C77  1  0.658300  0.446900  0.134500  1.0  -0.0449
  C  C78  1  0.670300  0.375200  0.035300  1.0  -0.0254
  C  C79  1  0.787900  0.341600  0.001300  1.0  -0.085
  C  C80  1  0.894500  0.379000  0.066400  1.0  -0.0578
  C  C81  1  0.884300  0.456800  0.164300  1.0  -0.0702
  C  C82  1  0.529800  0.480700  0.173800  1.0  0.7259
  C  C83  1  0.806100  0.269300  0.892200  1.0  0.7492
  C  C84  1  0.005700  0.506800  0.227000  1.0  0.6964
  C  C85  1  0.796000  0.802200  0.942300  1.0  0.134
  C  C86  1  0.793000  0.837800  0.809200  1.0  0.0208
  C  C87  1  0.819200  0.939200  0.887100  1.0  -0.1826
  C  C88  1  0.842500  0.992500  0.073800  1.0  0.1306
  C  C89  1  0.844900  0.949900  0.148000  1.0  -0.0934
  C  C90  1  0.866800  0.021000  0.247300  1.0  -0.1961
  C  C91  1  0.881900  0.136800  0.272200  1.0  0.1503
  C  C92  1  0.881100  0.180000  0.198400  1.0  -0.1095
  C  C93  1  0.861000  0.108100  0.098500  1.0  -0.163
  C  C94  1  0.854700  0.183000  0.452800  1.0  0.1437
  C  C95  1  0.955100  0.319100  0.416100  1.0  -0.1301
  C  C96  1  0.942000  0.353600  0.515700  1.0  0.0633
  N  N97  1  0.222000  0.247600  0.155600  1.0  -0.3605
  N  N98  1  0.179300  0.084200  0.028100  1.0  0.0542
  N  N99  1  0.101000  0.790800  0.624500  1.0  0.0454
  N  N100  1  0.121400  0.731500  0.461100  1.0  -0.3898
  N  N101  1  0.778000  0.752400  0.844400  1.0  -0.362
  N  N102  1  0.820700  0.915800  0.971900  1.0  0.054
  N  N103  1  0.899000  0.209200  0.375500  1.0  0.0462
  N  N104  1  0.878600  0.268500  0.538900  1.0  -0.3898
  O  O105  1  0.298900  0.398700  0.358200  1.0  -0.5992
  O  O106  1  0.360700  0.567600  0.476210  1.0  -0.5843
  O  O107  1  0.232700  0.059400  0.439300  1.0  -0.5453
  O  O108  1  0.268600  0.077900  0.594400  1.0  -0.5143
  O  O109  1  0.544100  0.594400  0.812900  1.0  -0.5814
  O  O110  1  0.494000  0.419100  0.807900  1.0  -0.593
  O  O111  1  0.245100  0.701200  0.172030  1.0  -0.6045
  O  O112  1  0.124800  0.810200  0.126200  1.0  -0.5789
  O  O113  1  0.966600  0.389600  0.753330  1.0  -0.6034
  O  O114  1  0.930900  0.557700  0.747310  1.0  -0.5856
  O  O115  1  0.312900  0.606300  0.311750  1.0  -0.8983
  O  O116  1  0.701100  0.601300  0.641800  1.0  -0.5998
  O  O117  1  0.639300  0.432400  0.523790  1.0  -0.5838
  O  O118  1  0.767300  0.940600  0.560700  1.0  -0.5468
  O  O119  1  0.731400  0.922100  0.405600  1.0  -0.5141
  O  O120  1  0.455900  0.405600  0.187100  1.0  -0.5827
  O  O121  1  0.506000  0.580900  0.192100  1.0  -0.593
  O  O122  1  0.754900  0.298800  0.827970  1.0  -0.6057
  O  O123  1  0.875200  0.189800  0.873800  1.0  -0.5815
  O  O124  1  0.033400  0.610400  0.246670  1.0  -0.601
  O  O125  1  0.069100  0.442300  0.252690  1.0  -0.5866
  O  O126  1  0.687100  0.393700  0.688250  1.0  -0.8936
