# generated using pymatgen
data_V(PO3)2
_symmetry_space_group_name_H-M   'P 1'
_cell_length_a   9.24300000
_cell_length_b   8.81700000
_cell_length_c   9.68400000
_cell_angle_alpha   90.00000000
_cell_angle_beta   120.92000000
_cell_angle_gamma   90.00000000
_symmetry_Int_Tables_number   1
_chemical_formula_structural   V(PO3)2
_chemical_formula_sum   'V4 P8 O24'
_cell_volume   677.04564592
_cell_formula_units_Z   4
loop_
 _symmetry_equiv_pos_site_id
 _symmetry_equiv_pos_as_xyz
  1  'x, y, z'
loop_
 _atom_site_type_symbol
 _atom_site_label
 _atom_site_symmetry_multiplicity
 _atom_site_fract_x
 _atom_site_fract_y
 _atom_site_fract_z
 _atom_site_occupancy
 _atom_site_charge
  V  V1  1  0.000000  0.607300  0.750000  1.0  2.0865
  V  V2  1  0.000000  0.392700  0.250000  1.0  2.0866
  V  V3  1  0.500000  0.889600  0.750000  1.0  1.8198
  V  V4  1  0.500000  0.110400  0.250000  1.0  1.8199
  P  P5  1  0.257600  0.898300  0.926500  1.0  1.0718
  P  P6  1  0.167400  0.667100  0.527200  1.0  1.1512
  P  P7  1  0.742400  0.898300  0.573500  1.0  1.0618
  P  P8  1  0.832600  0.667100  0.972800  1.0  1.1414
  P  P9  1  0.742400  0.101700  0.073500  1.0  1.0543
  P  P10  1  0.832600  0.332900  0.472800  1.0  1.129
  P  P11  1  0.257600  0.101700  0.426500  1.0  1.0646
  P  P12  1  0.167400  0.332900  0.027200  1.0  1.1392
  O  O13  1  0.136000  0.601000  0.655000  1.0  -0.7541
  O  O14  1  0.346000  0.743000  0.590000  1.0  -0.675
  O  O15  1  0.152000  0.552000  0.395000  1.0  -0.658
  O  O16  1  0.356000  0.942000  0.104000  1.0  -0.6674
  O  O17  1  0.137000  0.768000  0.895000  1.0  -0.7496
  O  O18  1  0.369000  0.885000  0.861000  1.0  -0.6515
  O  O19  1  0.864000  0.601000  0.845000  1.0  -0.7536
  O  O20  1  0.654000  0.743000  0.910000  1.0  -0.6769
  O  O21  1  0.848000  0.552000  0.105000  1.0  -0.6575
  O  O22  1  0.644000  0.942000  0.396000  1.0  -0.6671
  O  O23  1  0.863000  0.768000  0.605000  1.0  -0.7494
  O  O24  1  0.631000  0.885000  0.639000  1.0  -0.6512
  O  O25  1  0.864000  0.399000  0.345000  1.0  -0.753
  O  O26  1  0.654000  0.257000  0.410000  1.0  -0.6755
  O  O27  1  0.848000  0.448000  0.605000  1.0  -0.66
  O  O28  1  0.644000  0.058000  0.896000  1.0  -0.668
  O  O29  1  0.863000  0.232000  0.105000  1.0  -0.7484
  O  O30  1  0.631000  0.115000  0.139000  1.0  -0.6528
  O  O31  1  0.136000  0.399000  0.155000  1.0  -0.7527
  O  O32  1  0.346000  0.257000  0.090000  1.0  -0.6763
  O  O33  1  0.152000  0.448000  0.895000  1.0  -0.6608
  O  O34  1  0.356000  0.058000  0.604000  1.0  -0.6684
  O  O35  1  0.137000  0.232000  0.395000  1.0  -0.7496
  O  O36  1  0.369000  0.115000  0.361000  1.0  -0.6496
