# generated using pymatgen
data_Cu2P2C5O6
_symmetry_space_group_name_H-M   'P 1'
_cell_length_a   22.37730000
_cell_length_b   6.76330000
_cell_length_c   4.35290000
_cell_angle_alpha   90.00000000
_cell_angle_beta   90.00000000
_cell_angle_gamma   90.00000000
_symmetry_Int_Tables_number   1
_chemical_formula_structural   Cu2P2C5O6
_chemical_formula_sum   'Cu4 P4 C10 O12'
_cell_volume   658.78700868
_cell_formula_units_Z   2
loop_
 _symmetry_equiv_pos_site_id
 _symmetry_equiv_pos_as_xyz
  1  'x, y, z'
loop_
 _atom_site_type_symbol
 _atom_site_label
 _atom_site_symmetry_multiplicity
 _atom_site_fract_x
 _atom_site_fract_y
 _atom_site_fract_z
 _atom_site_occupancy
 _atom_site_charge
  Cu  Cu1  1  0.000000  0.500000  0.000000  1.0  0.8607
  Cu  Cu2  1  0.500000  0.000000  0.000000  1.0  0.8607
  Cu  Cu3  1  0.000000  0.000000  0.000000  1.0  0.8607
  Cu  Cu4  1  0.500000  0.500000  0.000000  1.0  0.8607
  P  P5  1  0.066600  0.750000  0.499900  1.0  1.478
  P  P6  1  0.433400  0.750000  0.499900  1.0  1.4749
  P  P7  1  0.933400  0.250000  0.500100  1.0  1.4749
  P  P8  1  0.566600  0.250000  0.500100  1.0  1.4779
  C  C9  1  0.138800  0.750000  0.308000  1.0  -0.0644
  C  C10  1  0.193200  0.750000  0.544000  1.0  0.0317
  C  C11  1  0.361200  0.750000  0.308000  1.0  -0.0659
  C  C12  1  0.306800  0.750000  0.544000  1.0  0.0331
  C  C13  1  0.861200  0.250000  0.692000  1.0  -0.0676
  C  C14  1  0.806800  0.250000  0.456000  1.0  0.032
  C  C15  1  0.638800  0.250000  0.692000  1.0  -0.0659
  C  C16  1  0.693200  0.250000  0.456000  1.0  0.031
  C  C17  1  0.250000  0.750000  0.366000  1.0  0.0404
  C  C18  1  0.750000  0.250000  0.634000  1.0  0.0407
  O  O19  1  0.059600  0.936300  0.690500  1.0  -0.7298
  O  O20  1  0.440400  0.563700  0.690500  1.0  -0.73
  O  O21  1  0.940400  0.436300  0.309500  1.0  -0.7301
  O  O22  1  0.559600  0.063700  0.309500  1.0  -0.7299
  O  O23  1  0.940400  0.063700  0.309500  1.0  -0.7302
  O  O24  1  0.559600  0.436300  0.309500  1.0  -0.7297
  O  O25  1  0.059600  0.563700  0.690500  1.0  -0.7301
  O  O26  1  0.440400  0.936300  0.690500  1.0  -0.7299
  O  O27  1  0.018600  0.750000  0.236800  1.0  -0.8638
  O  O28  1  0.481400  0.750000  0.236800  1.0  -0.8632
  O  O29  1  0.981400  0.250000  0.763200  1.0  -0.8631
  O  O30  1  0.518600  0.250000  0.763200  1.0  -0.8637
