# generated using pymatgen
data_Fe(PO3)2
_symmetry_space_group_name_H-M   'P 1'
_cell_length_a   9.24700000
_cell_length_b   8.82400000
_cell_length_c   9.69300000
_cell_angle_alpha   90.00000000
_cell_angle_beta   120.72000000
_cell_angle_gamma   90.00000000
_symmetry_Int_Tables_number   1
_chemical_formula_structural   Fe(PO3)2
_chemical_formula_sum   'Fe4 P8 O24'
_cell_volume   679.92085916
_cell_formula_units_Z   4
loop_
 _symmetry_equiv_pos_site_id
 _symmetry_equiv_pos_as_xyz
  1  'x, y, z'
loop_
 _atom_site_type_symbol
 _atom_site_label
 _atom_site_symmetry_multiplicity
 _atom_site_fract_x
 _atom_site_fract_y
 _atom_site_fract_z
 _atom_site_occupancy
 _atom_site_charge
  Fe  Fe1  1  0.000000  0.609600  0.750000  1.0  1.367
  Fe  Fe2  1  0.000000  0.390400  0.250000  1.0  1.367
  Fe  Fe3  1  0.500000  0.887700  0.750000  1.0  1.0588
  Fe  Fe4  1  0.500000  0.112300  0.250000  1.0  1.0588
  P  P5  1  0.263200  0.897500  0.931500  1.0  1.1661
  P  P6  1  0.164700  0.667600  0.526900  1.0  1.2315
  P  P7  1  0.736800  0.897500  0.568500  1.0  1.1558
  P  P8  1  0.835300  0.667600  0.973100  1.0  1.2285
  P  P9  1  0.736800  0.102500  0.068500  1.0  1.1495
  P  P10  1  0.835300  0.332400  0.473100  1.0  1.2167
  P  P11  1  0.263200  0.102500  0.431500  1.0  1.1598
  P  P12  1  0.164700  0.332400  0.026900  1.0  1.2202
  O  O13  1  0.143000  0.596000  0.658000  1.0  -0.6161
  O  O14  1  0.332000  0.735000  0.586000  1.0  -0.5792
  O  O15  1  0.149000  0.556000  0.395000  1.0  -0.5962
  O  O16  1  0.347000  0.941000  0.107000  1.0  -0.5604
  O  O17  1  0.138000  0.770000  0.901000  1.0  -0.6399
  O  O18  1  0.374000  0.882000  0.868000  1.0  -0.6032
  O  O19  1  0.857000  0.596000  0.842000  1.0  -0.6153
  O  O20  1  0.668000  0.735000  0.914000  1.0  -0.5816
  O  O21  1  0.851000  0.556000  0.105000  1.0  -0.5941
  O  O22  1  0.653000  0.941000  0.393000  1.0  -0.5599
  O  O23  1  0.862000  0.770000  0.599000  1.0  -0.6375
  O  O24  1  0.626000  0.882000  0.632000  1.0  -0.6031
  O  O25  1  0.857000  0.404000  0.342000  1.0  -0.6136
  O  O26  1  0.668000  0.265000  0.414000  1.0  -0.582
  O  O27  1  0.851000  0.444000  0.605000  1.0  -0.5983
  O  O28  1  0.653000  0.059000  0.893000  1.0  -0.5614
  O  O29  1  0.862000  0.230000  0.099000  1.0  -0.637
  O  O30  1  0.626000  0.118000  0.132000  1.0  -0.604
  O  O31  1  0.143000  0.404000  0.158000  1.0  -0.6137
  O  O32  1  0.332000  0.265000  0.086000  1.0  -0.5798
  O  O33  1  0.149000  0.444000  0.895000  1.0  -0.5997
  O  O34  1  0.347000  0.059000  0.607000  1.0  -0.5619
  O  O35  1  0.138000  0.230000  0.401000  1.0  -0.6401
  O  O36  1  0.374000  0.118000  0.368000  1.0  -0.6019
