# generated using pymatgen
data_CuPC2O3
_symmetry_space_group_name_H-M   'P 1'
_cell_length_a   20.03050000
_cell_length_b   6.67130000
_cell_length_c   4.39960000
_cell_angle_alpha   90.00000000
_cell_angle_beta   91.37900000
_cell_angle_gamma   90.00000000
_symmetry_Int_Tables_number   1
_chemical_formula_structural   CuPC2O3
_chemical_formula_sum   'Cu4 P4 C8 O12'
_cell_volume   587.74596290
_cell_formula_units_Z   4
loop_
 _symmetry_equiv_pos_site_id
 _symmetry_equiv_pos_as_xyz
  1  'x, y, z'
loop_
 _atom_site_type_symbol
 _atom_site_label
 _atom_site_symmetry_multiplicity
 _atom_site_fract_x
 _atom_site_fract_y
 _atom_site_fract_z
 _atom_site_occupancy
 _atom_site_charge
  Cu  Cu1  1  0.250000  0.250000  0.000000  1.0  0.853
  Cu  Cu2  1  0.750000  0.250000  0.000000  1.0  0.853
  Cu  Cu3  1  0.750000  0.750000  0.000000  1.0  0.853
  Cu  Cu4  1  0.250000  0.750000  0.000000  1.0  0.853
  P  P5  1  0.175000  0.500000  0.478800  1.0  1.4759
  P  P6  1  0.675000  0.000000  0.478800  1.0  1.4759
  P  P7  1  0.825000  0.500000  0.521200  1.0  1.4761
  P  P8  1  0.325000  0.000000  0.521200  1.0  1.4761
  C  C9  1  0.096100  0.500000  0.667000  1.0  -0.0492
  C  C10  1  0.036900  0.500000  0.438000  1.0  0.0091
  C  C11  1  0.596100  0.000000  0.667000  1.0  -0.0492
  C  C12  1  0.536900  0.000000  0.438000  1.0  0.0091
  C  C13  1  0.903900  0.500000  0.333000  1.0  -0.045
  C  C14  1  0.963100  0.500000  0.562000  1.0  0.0071
  C  C15  1  0.403900  0.000000  0.333000  1.0  -0.045
  C  C16  1  0.463100  0.000000  0.562000  1.0  0.0071
  O  O17  1  0.181500  0.304000  0.300800  1.0  -0.7268
  O  O18  1  0.681500  0.804000  0.300800  1.0  -0.7268
  O  O19  1  0.818500  0.304000  0.699200  1.0  -0.7265
  O  O20  1  0.318500  0.804000  0.699200  1.0  -0.7265
  O  O21  1  0.818500  0.696000  0.699200  1.0  -0.7267
  O  O22  1  0.318500  0.196000  0.699200  1.0  -0.7267
  O  O23  1  0.181500  0.696000  0.300800  1.0  -0.7266
  O  O24  1  0.681500  0.196000  0.300800  1.0  -0.7266
  O  O25  1  0.272300  0.000000  0.253000  1.0  -0.8368
  O  O26  1  0.772300  0.500000  0.253000  1.0  -0.8368
  O  O27  1  0.727700  0.000000  0.747000  1.0  -0.8366
  O  O28  1  0.227700  0.500000  0.747000  1.0  -0.8366
