# generated using pymatgen
data_CuPH4C2O3
_symmetry_space_group_name_H-M   'P 1'
_cell_length_a   4.39990000
_cell_length_b   6.67080000
_cell_length_c   10.55870000
_cell_angle_alpha   108.41500000
_cell_angle_beta   91.18690000
_cell_angle_gamma   90.00000000
_symmetry_Int_Tables_number   1
_chemical_formula_structural   CuPH4C2O3
_chemical_formula_sum   'Cu2 P2 H8 C4 O6'
_cell_volume   293.96747543
_cell_formula_units_Z   2
loop_
 _symmetry_equiv_pos_site_id
 _symmetry_equiv_pos_as_xyz
  1  'x, y, z'
loop_
 _atom_site_type_symbol
 _atom_site_label
 _atom_site_symmetry_multiplicity
 _atom_site_fract_x
 _atom_site_fract_y
 _atom_site_fract_z
 _atom_site_occupancy
 _atom_site_charge
  Cu  Cu1  1  0.500000  0.000000  0.500000  1.0  1.0218
  Cu  Cu2  1  0.500000  0.500000  0.500000  1.0  1.0217
  P  P3  1  0.980600  0.174220  0.348440  1.0  1.4909
  P  P4  1  0.019400  0.825780  0.651560  1.0  1.4814
  H  H5  1  0.230000  0.997000  0.184000  1.0  0.1391
  H  H6  1  0.803000  0.961000  0.064000  1.0  0.0459
  H  H7  1  0.770000  0.813000  0.816000  1.0  0.1358
  H  H8  1  0.197000  0.897000  0.936000  1.0  0.0464
  H  H9  1  0.770000  0.003000  0.816000  1.0  0.1391
  H  H10  1  0.197000  0.039000  0.936000  1.0  0.0418
  H  H11  1  0.230000  0.187000  0.184000  1.0  0.1362
  H  H12  1  0.803000  0.103000  0.064000  1.0  0.0499
  C  C13  1  0.136000  0.091300  0.182600  1.0  -0.4035
  C  C14  1  0.924000  0.033300  0.066600  1.0  -0.0165
  C  C15  1  0.864000  0.908700  0.817400  1.0  -0.401
  C  C16  1  0.076000  0.966700  0.933400  1.0  -0.0327
  O  O17  1  0.792100  0.991100  0.363000  1.0  -0.796
  O  O18  1  0.207900  0.628100  0.637000  1.0  -0.7976
  O  O19  1  0.207900  0.008900  0.637000  1.0  -0.7952
  O  O20  1  0.792100  0.371900  0.363000  1.0  -0.7963
  O  O21  1  0.255000  0.224500  0.449000  1.0  -0.8548
  O  O22  1  0.745000  0.775500  0.551000  1.0  -0.8562
