# generated using pymatgen
data_LaH4C5O8
_symmetry_space_group_name_H-M   'P 1'
_cell_length_a   6.10920000
_cell_length_b   7.68660000
_cell_length_c   22.69870000
_cell_angle_alpha   90.00000000
_cell_angle_beta   91.65700000
_cell_angle_gamma   90.00000000
_symmetry_Int_Tables_number   1
_chemical_formula_structural   LaH4C5O8
_chemical_formula_sum   'La4 H16 C20 O32'
_cell_volume   1065.46200798
_cell_formula_units_Z   4
loop_
 _symmetry_equiv_pos_site_id
 _symmetry_equiv_pos_as_xyz
  1  'x, y, z'
loop_
 _atom_site_type_symbol
 _atom_site_label
 _atom_site_symmetry_multiplicity
 _atom_site_fract_x
 _atom_site_fract_y
 _atom_site_fract_z
 _atom_site_occupancy
 _atom_site_charge
  La  La1  1  0.454870  0.501720  0.853900  1.0  2.1167
  La  La2  1  0.545130  0.001720  0.646100  1.0  2.1153
  La  La3  1  0.545130  0.498280  0.146100  1.0  2.1148
  La  La4  1  0.454870  0.998280  0.353900  1.0  2.1168
  H  H5  1  0.302000  0.724000  0.758100  1.0  0.3744
  H  H6  1  0.444000  0.625000  0.616600  1.0  0.4458
  H  H7  1  0.041600  0.478000  0.717600  1.0  0.1145
  H  H8  1  0.120200  0.565600  0.625100  1.0  0.1211
  H  H9  1  0.698000  0.224000  0.741900  1.0  0.3738
  H  H10  1  0.556000  0.125000  0.883400  1.0  0.4486
  H  H11  1  0.958400  0.978000  0.782400  1.0  0.1153
  H  H12  1  0.879800  0.065600  0.874900  1.0  0.1218
  H  H13  1  0.698000  0.276000  0.241900  1.0  0.3735
  H  H14  1  0.556000  0.375000  0.383400  1.0  0.4504
  H  H15  1  0.958400  0.522000  0.282400  1.0  0.1152
  H  H16  1  0.879800  0.434400  0.374900  1.0  0.1211
  H  H17  1  0.302000  0.776000  0.258100  1.0  0.3756
  H  H18  1  0.444000  0.875000  0.116600  1.0  0.4481
  H  H19  1  0.041600  0.022000  0.217600  1.0  0.1151
  H  H20  1  0.120200  0.934400  0.125100  1.0  0.1211
  C  C21  1  0.361400  0.394100  0.711270  1.0  0.6678
  C  C22  1  0.184000  0.535400  0.714450  1.0  0.0712
  C  C23  1  0.182600  0.639100  0.656670  1.0  0.0487
  C  C24  1  0.046600  0.805800  0.659860  1.0  0.6842
  C  C25  1  0.582400  0.576000  0.998700  1.0  0.5639
  C  C26  1  0.638600  0.894100  0.788730  1.0  0.6677
  C  C27  1  0.816000  0.035400  0.785550  1.0  0.071
  C  C28  1  0.817400  0.139100  0.843330  1.0  0.0494
  C  C29  1  0.953400  0.305800  0.840140  1.0  0.6849
  C  C30  1  0.417600  0.076000  0.501300  1.0  0.5635
  C  C31  1  0.638600  0.605900  0.288730  1.0  0.667
  C  C32  1  0.816000  0.464600  0.285550  1.0  0.0709
  C  C33  1  0.817400  0.360900  0.343330  1.0  0.05
  C  C34  1  0.953400  0.194200  0.340140  1.0  0.6854
  C  C35  1  0.417600  0.424000  0.001300  1.0  0.5644
  C  C36  1  0.361400  0.105900  0.211270  1.0  0.6677
  C  C37  1  0.184000  0.964600  0.214450  1.0  0.0711
  C  C38  1  0.182600  0.860900  0.156670  1.0  0.0483
  C  C39  1  0.046600  0.694200  0.159860  1.0  0.6838
  C  C40  1  0.582400  0.924000  0.498700  1.0  0.5645
  O  O41  1  0.511100  0.397900  0.750780  1.0  -0.6703
  O  O42  1  0.350600  0.286900  0.670200  1.0  -0.6541
  O  O43  1  0.220200  0.640200  0.765360  1.0  -0.6148
  O  O44  1  0.399800  0.685900  0.641750  1.0  -0.6283
  O  O45  1  0.145500  0.947300  0.654670  1.0  -0.6651
  O  O46  1  0.846200  0.789300  0.666667  1.0  -0.6699
  O  O47  1  0.623500  0.631900  0.948240  1.0  -0.6604
  O  O48  1  0.661500  0.630600  0.046300  1.0  -0.6488
  O  O49  1  0.488900  0.897900  0.749220  1.0  -0.6714
  O  O50  1  0.649400  0.786900  0.829800  1.0  -0.6524
  O  O51  1  0.779800  0.140200  0.734640  1.0  -0.6132
  O  O52  1  0.600200  0.185900  0.858250  1.0  -0.6286
  O  O53  1  0.854500  0.447300  0.845330  1.0  -0.6645
  O  O54  1  0.153800  0.289300  0.833330  1.0  -0.6711
  O  O55  1  0.376500  0.131900  0.551760  1.0  -0.6611
  O  O56  1  0.338500  0.130600  0.453700  1.0  -0.649
  O  O57  1  0.488900  0.602100  0.249220  1.0  -0.671
  O  O58  1  0.649400  0.713100  0.329800  1.0  -0.653
  O  O59  1  0.779800  0.359800  0.234640  1.0  -0.6159
  O  O60  1  0.600200  0.314100  0.358250  1.0  -0.6284
  O  O61  1  0.854500  0.052700  0.345330  1.0  -0.6652
  O  O62  1  0.153800  0.210700  0.333333  1.0  -0.6711
  O  O63  1  0.376500  0.368100  0.051760  1.0  -0.6578
  O  O64  1  0.338500  0.369400  0.953700  1.0  -0.6481
  O  O65  1  0.511100  0.102100  0.250780  1.0  -0.6701
  O  O66  1  0.350600  0.213100  0.170200  1.0  -0.6531
  O  O67  1  0.220200  0.859800  0.265360  1.0  -0.6164
  O  O68  1  0.399800  0.814100  0.141750  1.0  -0.628
  O  O69  1  0.145500  0.552700  0.154670  1.0  -0.6654
  O  O70  1  0.846200  0.710700  0.166670  1.0  -0.6697
  O  O71  1  0.623500  0.868100  0.448240  1.0  -0.6588
  O  O72  1  0.661500  0.869400  0.546300  1.0  -0.6488
