# generated using pymatgen
data_LaH2C5O8
_symmetry_space_group_name_H-M   'P 1'
_cell_length_a   6.10710000
_cell_length_b   7.69620000
_cell_length_c   22.70200000
_cell_angle_alpha   90.00000000
_cell_angle_beta   91.64500000
_cell_angle_gamma   90.00000000
_symmetry_Int_Tables_number   1
_chemical_formula_structural   LaH2C5O8
_chemical_formula_sum   'La4 H8 C20 O32'
_cell_volume   1066.58746717
_cell_formula_units_Z   4
loop_
 _symmetry_equiv_pos_site_id
 _symmetry_equiv_pos_as_xyz
  1  'x, y, z'
loop_
 _atom_site_type_symbol
 _atom_site_label
 _atom_site_symmetry_multiplicity
 _atom_site_fract_x
 _atom_site_fract_y
 _atom_site_fract_z
 _atom_site_occupancy
 _atom_site_charge
  La  La1  1  0.545140  0.998240  0.146050  1.0  2.1003
  La  La2  1  0.454860  0.498240  0.353950  1.0  2.1008
  La  La3  1  0.454860  0.001760  0.853950  1.0  2.1007
  La  La4  1  0.545140  0.501760  0.646050  1.0  2.1007
  H  H5  1  0.959600  0.020700  0.282700  1.0  0.1443
  H  H6  1  0.886200  0.932700  0.374400  1.0  0.1523
  H  H7  1  0.040400  0.520700  0.217300  1.0  0.1421
  H  H8  1  0.113800  0.432700  0.125600  1.0  0.1491
  H  H9  1  0.040400  0.979300  0.717300  1.0  0.1419
  H  H10  1  0.113800  0.067300  0.625600  1.0  0.1493
  H  H11  1  0.959600  0.479300  0.782700  1.0  0.1448
  H  H12  1  0.886200  0.567300  0.874400  1.0  0.1523
  C  C13  1  0.639900  0.103100  0.288600  1.0  0.6912
  C  C14  1  0.817500  0.963000  0.286300  1.0  0.046
  C  C15  1  0.821900  0.859900  0.343000  1.0  0.0393
  C  C16  1  0.953300  0.694200  0.339700  1.0  0.7039
  C  C17  1  0.583800  0.075100  0.999200  1.0  0.5614
  C  C18  1  0.360100  0.603100  0.211400  1.0  0.6897
  C  C19  1  0.182500  0.463000  0.213700  1.0  0.0471
  C  C20  1  0.178100  0.359900  0.157000  1.0  0.0389
  C  C21  1  0.046700  0.194200  0.160300  1.0  0.7044
  C  C22  1  0.416200  0.575100  0.500800  1.0  0.5607
  C  C23  1  0.360100  0.896900  0.711400  1.0  0.6886
  C  C24  1  0.182500  0.037000  0.713700  1.0  0.0478
  C  C25  1  0.178100  0.140100  0.657000  1.0  0.0397
  C  C26  1  0.046700  0.305800  0.660300  1.0  0.7047
  C  C27  1  0.416200  0.924900  0.000800  1.0  0.5615
  C  C28  1  0.639900  0.396900  0.788600  1.0  0.6906
  C  C29  1  0.817500  0.537000  0.786300  1.0  0.0465
  C  C30  1  0.821900  0.640100  0.843000  1.0  0.0391
  C  C31  1  0.953300  0.805800  0.839700  1.0  0.7036
  C  C32  1  0.583800  0.424900  0.499200  1.0  0.5605
  O  O33  1  0.489400  0.103200  0.249200  1.0  -0.5872
  O  O34  1  0.650000  0.212800  0.329900  1.0  -0.6041
  O  O35  1  0.779800  0.856500  0.234700  1.0  -0.3958
  O  O36  1  0.600200  0.814600  0.358600  1.0  -0.4338
  O  O37  1  0.856400  0.552400  0.345400  1.0  -0.6485
  O  O38  1  0.153400  0.709500  0.333400  1.0  -0.6227
  O  O39  1  0.623600  0.132300  0.948000  1.0  -0.581
  O  O40  1  0.659400  0.130600  0.046400  1.0  -0.5571
  O  O41  1  0.510600  0.603200  0.250800  1.0  -0.5891
  O  O42  1  0.350000  0.712800  0.170100  1.0  -0.6035
  O  O43  1  0.220200  0.356500  0.265300  1.0  -0.4047
  O  O44  1  0.399800  0.314600  0.141400  1.0  -0.426
  O  O45  1  0.143600  0.052400  0.154600  1.0  -0.6494
  O  O46  1  0.846600  0.209500  0.166600  1.0  -0.6253
  O  O47  1  0.376400  0.632300  0.552000  1.0  -0.5864
  O  O48  1  0.340600  0.630600  0.453600  1.0  -0.5578
  O  O49  1  0.510600  0.896800  0.750800  1.0  -0.5891
  O  O50  1  0.350000  0.787200  0.670100  1.0  -0.6022
  O  O51  1  0.220200  0.143500  0.765300  1.0  -0.4038
  O  O52  1  0.399800  0.185400  0.641400  1.0  -0.426
  O  O53  1  0.143600  0.447600  0.654600  1.0  -0.6485
  O  O54  1  0.846600  0.290500  0.666667  1.0  -0.6334
  O  O55  1  0.376400  0.867700  0.052000  1.0  -0.5845
  O  O56  1  0.340600  0.869400  0.953600  1.0  -0.5575
  O  O57  1  0.489400  0.396800  0.749200  1.0  -0.5872
  O  O58  1  0.650000  0.287200  0.829900  1.0  -0.6019
  O  O59  1  0.779800  0.643500  0.734700  1.0  -0.3956
  O  O60  1  0.600200  0.685400  0.858600  1.0  -0.4333
  O  O61  1  0.856400  0.947600  0.845400  1.0  -0.6492
  O  O62  1  0.153400  0.790500  0.833400  1.0  -0.6222
  O  O63  1  0.623600  0.367700  0.448000  1.0  -0.58
  O  O64  1  0.659400  0.369400  0.546400  1.0  -0.5571
