# generated using pymatgen
data_Cd5H48C84(NO6)4
_symmetry_space_group_name_H-M   'P 1'
_cell_length_a   14.41440000
_cell_length_b   23.39640000
_cell_length_c   15.56410000
_cell_angle_alpha   90.00000000
_cell_angle_beta   107.63200000
_cell_angle_gamma   90.00000000
_symmetry_Int_Tables_number   1
_chemical_formula_structural   Cd5H48C84(NO6)4
_chemical_formula_sum   'Cd10 H96 C168 N8 O48'
_cell_volume   5002.33052216
_cell_formula_units_Z   2
loop_
 _symmetry_equiv_pos_site_id
 _symmetry_equiv_pos_as_xyz
  1  'x, y, z'
loop_
 _atom_site_type_symbol
 _atom_site_label
 _atom_site_symmetry_multiplicity
 _atom_site_fract_x
 _atom_site_fract_y
 _atom_site_fract_z
 _atom_site_occupancy
 _atom_site_charge
  Cd  Cd1  1  0.246840  0.444740  0.582520  1.0  1.0286
  Cd  Cd2  1  0.273710  0.308440  0.692520  1.0  1.0646
  Cd  Cd3  1  0.753160  0.944740  0.917480  1.0  1.0293
  Cd  Cd4  1  0.726290  0.808440  0.807480  1.0  1.0636
  Cd  Cd5  1  0.753160  0.555260  0.417480  1.0  1.0293
  Cd  Cd6  1  0.726290  0.691560  0.307480  1.0  1.0652
  Cd  Cd7  1  0.246840  0.055260  0.082520  1.0  1.0286
  Cd  Cd8  1  0.273710  0.191560  0.192520  1.0  1.0671
  Cd  Cd9  1  0.000000  0.500000  0.500000  1.0  1.14
  Cd  Cd10  1  0.000000  0.000000  0.000000  1.0  1.14
  H  H11  1  0.606600  0.227300  0.625600  1.0  0.1412
  H  H12  1  0.457900  0.272900  0.594100  1.0  0.1239
  H  H13  1  0.595200  0.423000  0.662000  1.0  0.1174
  H  H14  1  0.742800  0.376100  0.703800  1.0  0.1186
  H  H15  1  0.693200  0.229000  0.808500  1.0  0.1432
  H  H16  1  0.083100  0.332300  0.740400  1.0  0.1144
  H  H17  1  0.695200  0.138200  0.863800  1.0  0.1238
  H  H18  1  0.716000  0.002900  0.343400  1.0  0.1555
  H  H19  1  0.964000  0.287700  0.788200  1.0  0.1393
  H  H20  1  0.968800  0.047300  0.230700  1.0  0.109
  H  H21  1  0.100300  0.124100  0.689800  1.0  0.1173
  H  H22  1  0.983500  0.055900  0.623500  1.0  0.1173
  H  H23  1  0.767300  0.079100  0.584600  1.0  0.142
  H  H24  1  0.902400  0.185200  0.697000  1.0  0.1203
  H  H25  1  0.856300  0.944300  0.470200  1.0  0.133
  H  H26  1  0.979000  0.072100  0.375600  1.0  0.1126
  H  H27  1  0.918000  0.098000  0.771100  1.0  0.1132
  H  H28  1  0.775400  0.306700  0.538900  1.0  0.1461
  H  H29  1  0.998100  0.225300  0.475500  1.0  0.1219
  H  H30  1  0.712000  0.972800  0.201300  1.0  0.1224
  H  H31  1  0.710800  0.017600  0.675300  1.0  0.1176
  H  H32  1  0.798400  0.883200  0.560600  1.0  0.1179
  H  H33  1  0.891900  0.352600  0.495000  1.0  0.1017
  H  H34  1  0.874200  0.159500  0.412100  1.0  0.1451
  H  H35  1  0.393400  0.727300  0.874400  1.0  0.1412
  H  H36  1  0.542100  0.772900  0.905900  1.0  0.1243
  H  H37  1  0.404800  0.923000  0.838000  1.0  0.1173
  H  H38  1  0.257200  0.876100  0.796200  1.0  0.1193
  H  H39  1  0.306800  0.729000  0.691500  1.0  0.1427
  H  H40  1  0.916900  0.832300  0.759600  1.0  0.1136
  H  H41  1  0.304800  0.638200  0.636200  1.0  0.1236
  H  H42  1  0.284000  0.502900  0.156600  1.0  0.1554
  H  H43  1  0.036000  0.787700  0.711800  1.0  0.1401
  H  H44  1  0.031200  0.547300  0.269300  1.0  0.1087
  H  H45  1  0.899700  0.624100  0.810200  1.0  0.117
  H  H46  1  0.016500  0.555900  0.876500  1.0  0.117
  H  H47  1  0.232700  0.579100  0.915400  1.0  0.1415
  H  H48  1  0.097600  0.685200  0.803000  1.0  0.1206
  H  H49  1  0.143700  0.444300  0.029800  1.0  0.1319
  H  H50  1  0.021000  0.572100  0.124400  1.0  0.113
  H  H51  1  0.082000  0.598000  0.728900  1.0  0.1123
  H  H52  1  0.224600  0.806700  0.961100  1.0  0.1463
  H  H53  1  0.001900  0.725300  0.024500  1.0  0.1213
  H  H54  1  0.288000  0.472800  0.298700  1.0  0.1228
  H  H55  1  0.289200  0.517600  0.824700  1.0  0.1187
  H  H56  1  0.201600  0.383200  0.939400  1.0  0.118
  H  H57  1  0.108100  0.852600  0.005000  1.0  0.1011
  H  H58  1  0.125800  0.659500  0.087900  1.0  0.1457
  H  H59  1  0.393400  0.772700  0.374400  1.0  0.141
  H  H60  1  0.542100  0.727100  0.405900  1.0  0.1244
  H  H61  1  0.404800  0.577000  0.338000  1.0  0.1164
  H  H62  1  0.257200  0.623900  0.296200  1.0  0.1193
  H  H63  1  0.306800  0.771000  0.191500  1.0  0.1425
  H  H64  1  0.916900  0.667700  0.259600  1.0  0.1139
  H  H65  1  0.304800  0.861800  0.136200  1.0  0.1236
  H  H66  1  0.284000  0.997100  0.656600  1.0  0.1557
  H  H67  1  0.036000  0.712300  0.211800  1.0  0.14
  H  H68  1  0.031200  0.952700  0.769300  1.0  0.1087
  H  H69  1  0.899700  0.875900  0.310200  1.0  0.1171
  H  H70  1  0.016500  0.944100  0.376500  1.0  0.1171
  H  H71  1  0.232700  0.920900  0.415400  1.0  0.1421
  H  H72  1  0.097600  0.814800  0.303000  1.0  0.1205
  H  H73  1  0.143700  0.055700  0.529800  1.0  0.1318
  H  H74  1  0.021000  0.927900  0.624400  1.0  0.1128
  H  H75  1  0.082000  0.902000  0.228900  1.0  0.1128
  H  H76  1  0.224600  0.693300  0.461100  1.0  0.1462
  H  H77  1  0.001900  0.774700  0.524500  1.0  0.1217
  H  H78  1  0.288000  0.027200  0.798700  1.0  0.1231
  H  H79  1  0.289200  0.982400  0.324700  1.0  0.1186
  H  H80  1  0.201600  0.116800  0.439400  1.0  0.1178
  H  H81  1  0.108100  0.647400  0.505000  1.0  0.101
  H  H82  1  0.125800  0.840500  0.587900  1.0  0.1458
  H  H83  1  0.606600  0.272700  0.125600  1.0  0.1415
  H  H84  1  0.457900  0.227100  0.094100  1.0  0.1245
  H  H85  1  0.595200  0.077000  0.162000  1.0  0.1158
  H  H86  1  0.742800  0.123900  0.203800  1.0  0.1187
  H  H87  1  0.693200  0.271000  0.308500  1.0  0.1431
  H  H88  1  0.083100  0.167700  0.240400  1.0  0.114
  H  H89  1  0.695200  0.361800  0.363800  1.0  0.1238
  H  H90  1  0.716000  0.497100  0.843400  1.0  0.1554
  H  H91  1  0.964000  0.212300  0.288200  1.0  0.1394
  H  H92  1  0.968800  0.452700  0.730700  1.0  0.1091
  H  H93  1  0.100300  0.375900  0.189800  1.0  0.1176
  H  H94  1  0.983500  0.444100  0.123500  1.0  0.117
  H  H95  1  0.767300  0.420900  0.084600  1.0  0.1424
  H  H96  1  0.902400  0.314800  0.197000  1.0  0.1204
  H  H97  1  0.856300  0.555700  0.970200  1.0  0.1332
  H  H98  1  0.979000  0.427900  0.875600  1.0  0.1124
  H  H99  1  0.918000  0.402000  0.271100  1.0  0.1126
  H  H100  1  0.775400  0.193300  0.038900  1.0  0.1463
  H  H101  1  0.998100  0.274700  0.975500  1.0  0.1214
  H  H102  1  0.712000  0.527200  0.701300  1.0  0.1228
  H  H103  1  0.710800  0.482400  0.175300  1.0  0.118
  H  H104  1  0.798400  0.616800  0.060600  1.0  0.1184
  H  H105  1  0.891900  0.147400  0.995000  1.0  0.1017
  H  H106  1  0.874200  0.340500  0.912100  1.0  0.145
  C  C107  1  0.416100  0.382200  0.604700  1.0  0.7076
  C  C108  1  0.510300  0.352400  0.625200  1.0  -0.1121
  C  C109  1  0.689200  0.297000  0.672600  1.0  0.1973
  C  C110  1  0.604000  0.266300  0.636100  1.0  -0.1727
  C  C111  1  0.515100  0.293900  0.615200  1.0  -0.0198
  C  C112  1  0.597100  0.383400  0.657100  1.0  -0.0111
  C  C113  1  0.685500  0.355400  0.681400  1.0  -0.166
  C  C114  1  0.734500  0.201600  0.796700  1.0  -0.1966
  C  C115  1  0.794000  0.215500  0.741500  1.0  0.1659
  C  C116  1  0.999400  0.347900  0.612600  1.0  -0.161
  C  C117  1  0.070200  0.380600  0.580600  1.0  0.7023
  C  C118  1  0.063000  0.181000  0.589100  1.0  -0.1062
  C  C119  1  0.020700  0.327800  0.700600  1.0  -0.0245
  C  C120  1  0.738300  0.148100  0.832200  1.0  -0.0244
  C  C121  1  0.144100  0.222900  0.628700  1.0  0.6899
  C  C122  1  0.817200  0.017500  0.519300  1.0  0.1853
  C  C123  1  0.840300  0.006600  0.200100  1.0  -0.1471
  C  C124  1  0.767900  0.010800  0.321500  1.0  -0.1829
  C  C125  1  0.949600  0.300900  0.729300  1.0  -0.1358
  C  C126  1  0.918700  0.037100  0.253700  1.0  -0.0202
  C  C127  1  0.056900  0.130900  0.632900  1.0  -0.0337
  C  C128  1  0.986300  0.089800  0.593300  1.0  -0.1388
  C  C129  1  0.773800  0.039800  0.579900  1.0  -0.1827
  C  C130  1  0.862000  0.176300  0.731700  1.0  -0.1474
  C  C131  1  0.827000  0.959000  0.511100  1.0  -0.1681
  C  C132  1  0.849500  0.040300  0.374900  1.0  0.1587
  C  C133  1  0.921000  0.099600  0.509700  1.0  0.1144
  C  C134  1  0.924200  0.052800  0.340200  1.0  -0.1733
  C  C135  1  0.869600  0.123400  0.774400  1.0  -0.0223
  C  C136  1  0.836700  0.312700  0.579900  1.0  -0.1995
  C  C137  1  0.747900  0.944900  0.628100  1.0  -0.1153
  C  C138  1  0.995000  0.191400  0.505600  1.0  -0.0442
  C  C139  1  0.857200  0.293800  0.669700  1.0  0.1867
  C  C140  1  0.765200  0.993600  0.235900  1.0  -0.0104
  C  C141  1  0.739700  0.002500  0.634300  1.0  0.0123
  C  C142  1  0.792300  0.922600  0.565500  1.0  -0.002
  C  C143  1  0.906500  0.339500  0.554000  1.0  0.0057
  C  C144  1  0.921600  0.151400  0.466300  1.0  -0.1466
  C  C145  1  0.805300  0.108000  0.822100  1.0  -0.1291
  C  C146  1  0.835600  0.990300  0.107800  1.0  0.7053
  C  C147  1  0.716900  0.906000  0.689300  1.0  0.7217
  C  C148  1  0.806800  0.049600  0.860500  1.0  0.6955
  C  C149  1  0.583900  0.882200  0.895300  1.0  0.7076
  C  C150  1  0.489700  0.852400  0.874800  1.0  -0.1122
  C  C151  1  0.310800  0.797000  0.827400  1.0  0.1985
  C  C152  1  0.396000  0.766300  0.863900  1.0  -0.173
  C  C153  1  0.484900  0.793900  0.884800  1.0  -0.0203
  C  C154  1  0.402900  0.883400  0.842900  1.0  -0.0115
  C  C155  1  0.314500  0.855400  0.818600  1.0  -0.1647
  C  C156  1  0.265500  0.701600  0.703300  1.0  -0.1937
  C  C157  1  0.206000  0.715500  0.758500  1.0  0.1663
  C  C158  1  0.000600  0.847900  0.887400  1.0  -0.1616
  C  C159  1  0.929800  0.880600  0.919400  1.0  0.7035
  C  C160  1  0.937000  0.681000  0.910900  1.0  -0.1061
  C  C161  1  0.979300  0.827800  0.799400  1.0  -0.0217
  C  C162  1  0.261700  0.648100  0.667800  1.0  -0.0249
  C  C163  1  0.855900  0.722900  0.871300  1.0  0.6882
  C  C164  1  0.182800  0.517500  0.980700  1.0  0.1841
  C  C165  1  0.159700  0.506600  0.299900  1.0  -0.1476
  C  C166  1  0.232100  0.510800  0.178500  1.0  -0.1815
  C  C167  1  0.050400  0.800900  0.770700  1.0  -0.1372
  C  C168  1  0.081300  0.537100  0.246300  1.0  -0.0196
  C  C169  1  0.943100  0.630900  0.867100  1.0  -0.0338
  C  C170  1  0.013700  0.589800  0.906700  1.0  -0.139
  C  C171  1  0.226200  0.539800  0.920100  1.0  -0.1812
  C  C172  1  0.138000  0.676300  0.768300  1.0  -0.1468
  C  C173  1  0.173000  0.459000  0.988900  1.0  -0.1667
  C  C174  1  0.150500  0.540300  0.125100  1.0  0.1582
  C  C175  1  0.079000  0.599600  0.990300  1.0  0.1159
  C  C176  1  0.075800  0.552800  0.159800  1.0  -0.1723
  C  C177  1  0.130400  0.623400  0.725600  1.0  -0.0212
  C  C178  1  0.163300  0.812700  0.920100  1.0  -0.2006
  C  C179  1  0.252100  0.444900  0.871900  1.0  -0.1134
  C  C180  1  0.005000  0.691400  0.994400  1.0  -0.0453
  C  C181  1  0.142800  0.793800  0.830300  1.0  0.1877
  C  C182  1  0.234800  0.493600  0.264100  1.0  -0.011
  C  C183  1  0.260300  0.502500  0.865700  1.0  0.0131
  C  C184  1  0.207700  0.422600  0.934500  1.0  -0.001
  C  C185  1  0.093500  0.839500  0.946000  1.0  0.005
  C  C186  1  0.078400  0.651400  0.033700  1.0  -0.1468
  C  C187  1  0.194700  0.608000  0.677900  1.0  -0.1274
  C  C188  1  0.164400  0.490300  0.392200  1.0  0.7049
  C  C189  1  0.283100  0.406000  0.810700  1.0  0.7224
  C  C190  1  0.193200  0.549600  0.639500  1.0  0.6943
  C  C191  1  0.583900  0.617800  0.395300  1.0  0.7073
  C  C192  1  0.489700  0.647600  0.374800  1.0  -0.1118
  C  C193  1  0.310800  0.703000  0.327400  1.0  0.1981
  C  C194  1  0.396000  0.733700  0.363900  1.0  -0.1733
  C  C195  1  0.484900  0.706100  0.384800  1.0  -0.0196
  C  C196  1  0.402900  0.616600  0.342900  1.0  -0.011
  C  C197  1  0.314500  0.644600  0.318600  1.0  -0.165
  C  C198  1  0.265500  0.798400  0.203300  1.0  -0.1938
  C  C199  1  0.206000  0.784500  0.258500  1.0  0.1662
  C  C200  1  0.000600  0.652100  0.387400  1.0  -0.1611
  C  C201  1  0.929800  0.619400  0.419400  1.0  0.7029
  C  C202  1  0.937000  0.819000  0.410900  1.0  -0.1062
  C  C203  1  0.979300  0.672200  0.299400  1.0  -0.0217
  C  C204  1  0.261700  0.851900  0.167800  1.0  -0.0242
  C  C205  1  0.855900  0.777100  0.371300  1.0  0.6882
  C  C206  1  0.182800  0.982500  0.480700  1.0  0.1842
  C  C207  1  0.159700  0.993400  0.799900  1.0  -0.1469
  C  C208  1  0.232100  0.989200  0.678500  1.0  -0.1824
  C  C209  1  0.050400  0.699100  0.270700  1.0  -0.1376
  C  C210  1  0.081300  0.962900  0.746300  1.0  -0.0197
  C  C211  1  0.943100  0.869100  0.367100  1.0  -0.0338
  C  C212  1  0.013700  0.910200  0.406700  1.0  -0.1394
  C  C213  1  0.226200  0.960200  0.420100  1.0  -0.1799
  C  C214  1  0.138000  0.823700  0.268300  1.0  -0.146
  C  C215  1  0.173000  0.041000  0.488900  1.0  -0.168
  C  C216  1  0.150500  0.959700  0.625100  1.0  0.1582
  C  C217  1  0.079000  0.900400  0.490300  1.0  0.1154
  C  C218  1  0.075800  0.947200  0.659800  1.0  -0.1722
  C  C219  1  0.130400  0.876600  0.225600  1.0  -0.0208
  C  C220  1  0.163300  0.687300  0.420100  1.0  -0.2007
  C  C221  1  0.252100  0.055100  0.371900  1.0  -0.1137
  C  C222  1  0.005000  0.808600  0.494400  1.0  -0.0456
  C  C223  1  0.142800  0.706200  0.330300  1.0  0.1872
  C  C224  1  0.234800  0.006400  0.764100  1.0  -0.0132
  C  C225  1  0.260300  0.997500  0.365700  1.0  0.0131
  C  C226  1  0.207700  0.077400  0.434500  1.0  -0.0013
  C  C227  1  0.093500  0.660500  0.446000  1.0  0.005
  C  C228  1  0.078400  0.848600  0.533700  1.0  -0.1461
  C  C229  1  0.194700  0.892000  0.177900  1.0  -0.1269
  C  C230  1  0.164400  0.009700  0.892200  1.0  0.7048
  C  C231  1  0.283100  0.094000  0.310700  1.0  0.7227
  C  C232  1  0.193200  0.950400  0.139500  1.0  0.6942
  C  C233  1  0.416100  0.117800  0.104700  1.0  0.7076
  C  C234  1  0.510300  0.147600  0.125200  1.0  -0.1127
  C  C235  1  0.689200  0.203000  0.172600  1.0  0.1967
  C  C236  1  0.604000  0.233700  0.136100  1.0  -0.1725
  C  C237  1  0.515100  0.206100  0.115200  1.0  -0.0203
  C  C238  1  0.597100  0.116600  0.157100  1.0  -0.0111
  C  C239  1  0.685500  0.144600  0.181400  1.0  -0.1662
  C  C240  1  0.734500  0.298400  0.296700  1.0  -0.1968
  C  C241  1  0.794000  0.284500  0.241500  1.0  0.1657
  C  C242  1  0.999400  0.152100  0.112600  1.0  -0.1612
  C  C243  1  0.070200  0.119400  0.080600  1.0  0.7019
  C  C244  1  0.063000  0.319000  0.089100  1.0  -0.1063
  C  C245  1  0.020700  0.172200  0.200600  1.0  -0.0247
  C  C246  1  0.738300  0.351900  0.332200  1.0  -0.0246
  C  C247  1  0.144100  0.277100  0.128700  1.0  0.6899
  C  C248  1  0.817200  0.482500  0.019300  1.0  0.1856
  C  C249  1  0.840300  0.493400  0.700100  1.0  -0.1455
  C  C250  1  0.767900  0.489200  0.821500  1.0  -0.1827
  C  C251  1  0.949600  0.199100  0.229300  1.0  -0.1365
  C  C252  1  0.918700  0.462900  0.753700  1.0  -0.0198
  C  C253  1  0.056900  0.369100  0.132900  1.0  -0.0341
  C  C254  1  0.986300  0.410200  0.093300  1.0  -0.1388
  C  C255  1  0.773800  0.460200  0.079900  1.0  -0.1805
  C  C256  1  0.862000  0.323700  0.231700  1.0  -0.1467
  C  C257  1  0.827000  0.541000  0.011100  1.0  -0.1692
  C  C258  1  0.849500  0.459700  0.874900  1.0  0.1587
  C  C259  1  0.921000  0.400400  0.009700  1.0  0.1139
  C  C260  1  0.924200  0.447200  0.840200  1.0  -0.1733
  C  C261  1  0.869600  0.376600  0.274400  1.0  -0.0212
  C  C262  1  0.836700  0.187300  0.079900  1.0  -0.1992
  C  C263  1  0.747900  0.555100  0.128100  1.0  -0.115
  C  C264  1  0.995000  0.308600  0.005600  1.0  -0.0443
  C  C265  1  0.857200  0.206200  0.169700  1.0  0.1863
  C  C266  1  0.765200  0.506400  0.735900  1.0  -0.0108
  C  C267  1  0.739700  0.497500  0.134300  1.0  0.0123
  C  C268  1  0.792300  0.577400  0.065500  1.0  -0.003
  C  C269  1  0.906500  0.160500  0.054000  1.0  0.0056
  C  C270  1  0.921600  0.348600  0.966300  1.0  -0.1459
  C  C271  1  0.805300  0.392000  0.322100  1.0  -0.1281
  C  C272  1  0.835600  0.509700  0.607800  1.0  0.7068
  C  C273  1  0.716900  0.594000  0.189300  1.0  0.7229
  C  C274  1  0.806800  0.450400  0.360500  1.0  0.6955
  N  N275  1  0.782300  0.268800  0.698400  1.0  -0.1462
  N  N276  1  0.853600  0.055800  0.464800  1.0  -0.2232
  N  N277  1  0.217700  0.768800  0.801600  1.0  -0.1459
  N  N278  1  0.146400  0.555800  0.035200  1.0  -0.2226
  N  N279  1  0.217700  0.731200  0.301600  1.0  -0.1461
  N  N280  1  0.146400  0.944200  0.535200  1.0  -0.2232
  N  N281  1  0.782300  0.231200  0.198400  1.0  -0.1463
  N  N282  1  0.853600  0.444200  0.964800  1.0  -0.2243
  O  O283  1  0.412900  0.435600  0.600100  1.0  -0.5977
  O  O284  1  0.337500  0.352300  0.591200  1.0  -0.7266
  O  O285  1  0.160000  0.381000  0.632300  1.0  -0.6881
  O  O286  1  0.045100  0.407200  0.509300  1.0  -0.6513
  O  O287  1  0.186800  0.223000  0.709900  1.0  -0.5766
  O  O288  1  0.166600  0.258500  0.576100  1.0  -0.5837
  O  O289  1  0.675300  0.926100  0.742800  1.0  -0.6517
  O  O290  1  0.775500  0.952000  0.066600  1.0  -0.6313
  O  O291  1  0.894000  0.016500  0.073100  1.0  -0.657
  O  O292  1  0.731300  0.852500  0.681900  1.0  -0.6003
  O  O293  1  0.877800  0.016700  0.868600  1.0  -0.6531
  O  O294  1  0.731400  0.035100  0.878500  1.0  -0.5519
  O  O295  1  0.587100  0.935600  0.899900  1.0  -0.5987
  O  O296  1  0.662500  0.852300  0.908800  1.0  -0.7271
  O  O297  1  0.840000  0.881000  0.867700  1.0  -0.6868
  O  O298  1  0.954900  0.907200  0.990700  1.0  -0.6509
  O  O299  1  0.813200  0.723000  0.790100  1.0  -0.5772
  O  O300  1  0.833400  0.758500  0.923900  1.0  -0.5853
  O  O301  1  0.324700  0.426100  0.757200  1.0  -0.6518
  O  O302  1  0.224500  0.452000  0.433400  1.0  -0.632
  O  O303  1  0.106000  0.516500  0.426900  1.0  -0.6571
  O  O304  1  0.268700  0.352500  0.818100  1.0  -0.6001
  O  O305  1  0.122200  0.516700  0.631400  1.0  -0.6527
  O  O306  1  0.268600  0.535100  0.621500  1.0  -0.5517
  O  O307  1  0.587100  0.564400  0.399900  1.0  -0.5958
  O  O308  1  0.662500  0.647700  0.408800  1.0  -0.7277
  O  O309  1  0.840000  0.619000  0.367700  1.0  -0.6873
  O  O310  1  0.954900  0.592800  0.490700  1.0  -0.6512
  O  O311  1  0.813200  0.777000  0.290100  1.0  -0.5777
  O  O312  1  0.833400  0.741500  0.423900  1.0  -0.5852
  O  O313  1  0.324700  0.073900  0.257200  1.0  -0.6521
  O  O314  1  0.224500  0.048000  0.933400  1.0  -0.6319
  O  O315  1  0.106000  0.983500  0.926900  1.0  -0.6575
  O  O316  1  0.268700  0.147500  0.318100  1.0  -0.5976
  O  O317  1  0.122200  0.983300  0.131400  1.0  -0.6525
  O  O318  1  0.268600  0.964900  0.121500  1.0  -0.5516
  O  O319  1  0.412900  0.064400  0.100100  1.0  -0.5965
  O  O320  1  0.337500  0.147700  0.091200  1.0  -0.7262
  O  O321  1  0.160000  0.119000  0.132300  1.0  -0.6885
  O  O322  1  0.045100  0.092800  0.009300  1.0  -0.6517
  O  O323  1  0.186800  0.277000  0.209900  1.0  -0.5769
  O  O324  1  0.166600  0.241500  0.076100  1.0  -0.5851
  O  O325  1  0.675300  0.573900  0.242800  1.0  -0.6517
  O  O326  1  0.775500  0.548000  0.566600  1.0  -0.6343
  O  O327  1  0.894000  0.483500  0.573100  1.0  -0.6564
  O  O328  1  0.731300  0.647500  0.181900  1.0  -0.5997
  O  O329  1  0.877800  0.483300  0.368600  1.0  -0.6531
  O  O330  1  0.731400  0.464900  0.378500  1.0  -0.5519
