# generated using pymatgen
data_CoH16C19N3O2
_symmetry_space_group_name_H-M   'P 1'
_cell_length_a   10.89500000
_cell_length_b   17.52000000
_cell_length_c   20.54500000
_cell_angle_alpha   90.00000000
_cell_angle_beta   99.16000000
_cell_angle_gamma   90.00000000
_symmetry_Int_Tables_number   1
_chemical_formula_structural   CoH16C19N3O2
_chemical_formula_sum   'Co8 H128 C152 N24 O16'
_cell_volume   3871.62769107
_cell_formula_units_Z   8
loop_
 _symmetry_equiv_pos_site_id
 _symmetry_equiv_pos_as_xyz
  1  'x, y, z'
loop_
 _atom_site_type_symbol
 _atom_site_label
 _atom_site_symmetry_multiplicity
 _atom_site_fract_x
 _atom_site_fract_y
 _atom_site_fract_z
 _atom_site_occupancy
 _atom_site_charge
  Co  Co1  1  0.618940  0.960070  0.442890  1.0  0.7068
  Co  Co2  1  0.118940  0.460070  0.442890  1.0  0.7068
  Co  Co3  1  0.381060  0.960070  0.057110  1.0  0.7055
  Co  Co4  1  0.881060  0.460070  0.057110  1.0  0.7055
  Co  Co5  1  0.381060  0.039930  0.557110  1.0  0.7052
  Co  Co6  1  0.881060  0.539930  0.557110  1.0  0.7052
  Co  Co7  1  0.618940  0.039930  0.942890  1.0  0.7066
  Co  Co8  1  0.118940  0.539930  0.942890  1.0  0.7066
  H  H9  1  0.360000  0.057900  0.848300  1.0  0.0626
  H  H10  1  0.591300  0.888500  0.874500  1.0  0.0632
  H  H11  1  0.678600  0.812300  0.528300  1.0  0.0644
  H  H12  1  0.123800  0.921700  0.696100  1.0  0.0932
  H  H13  1  0.827400  0.762000  0.607200  1.0  0.1068
  H  H14  1  0.025500  0.953800  0.598200  1.0  0.1119
  H  H15  1  0.456000  0.810700  0.810900  1.0  0.1122
  H  H16  1  0.869900  0.998000  0.519900  1.0  0.0643
  H  H17  1  0.294500  0.737900  0.782900  1.0  0.0834
  H  H18  1  0.007200  0.710500  0.647500  1.0  0.0629
  H  H19  1  0.219100  0.986200  0.781400  1.0  0.1077
  H  H20  1  0.298700  0.800200  0.427500  1.0  0.0688
  H  H21  1  0.406400  0.761500  0.557900  1.0  0.081
  H  H22  1  0.463500  0.740500  0.494700  1.0  0.0658
  H  H23  1  0.144200  0.865300  0.469300  1.0  0.075
  H  H24  1  0.201900  0.841900  0.541500  1.0  0.0689
  H  H25  1  0.860000  0.557900  0.848300  1.0  0.0626
  H  H26  1  0.091300  0.388500  0.874500  1.0  0.0632
  H  H27  1  0.178600  0.312300  0.528300  1.0  0.0644
  H  H28  1  0.623800  0.421700  0.696100  1.0  0.0932
  H  H29  1  0.327400  0.262000  0.607200  1.0  0.1068
  H  H30  1  0.525500  0.453800  0.598200  1.0  0.1119
  H  H31  1  0.956000  0.310700  0.810900  1.0  0.1122
  H  H32  1  0.369900  0.498000  0.519900  1.0  0.0643
  H  H33  1  0.794500  0.237900  0.782900  1.0  0.0834
  H  H34  1  0.507200  0.210500  0.647500  1.0  0.0629
  H  H35  1  0.719100  0.486200  0.781400  1.0  0.1077
  H  H36  1  0.798700  0.300200  0.427500  1.0  0.0688
  H  H37  1  0.906400  0.261500  0.557900  1.0  0.081
  H  H38  1  0.963500  0.240500  0.494700  1.0  0.0658
  H  H39  1  0.644200  0.365300  0.469300  1.0  0.075
  H  H40  1  0.701900  0.341900  0.541500  1.0  0.0689
  H  H41  1  0.640000  0.057900  0.651700  1.0  0.062
  H  H42  1  0.408700  0.888500  0.625500  1.0  0.0638
  H  H43  1  0.321400  0.812300  0.971700  1.0  0.0647
  H  H44  1  0.876200  0.921700  0.803900  1.0  0.0933
  H  H45  1  0.172600  0.762000  0.892800  1.0  0.1078
  H  H46  1  0.974500  0.953800  0.901800  1.0  0.1128
  H  H47  1  0.544000  0.810700  0.689100  1.0  0.1117
  H  H48  1  0.130100  0.998000  0.980100  1.0  0.0642
  H  H49  1  0.705500  0.737900  0.717100  1.0  0.0838
  H  H50  1  0.992800  0.710500  0.852500  1.0  0.0626
  H  H51  1  0.780900  0.986200  0.718600  1.0  0.1078
  H  H52  1  0.701300  0.800200  0.072500  1.0  0.0672
  H  H53  1  0.593600  0.761500  0.942100  1.0  0.0815
  H  H54  1  0.536500  0.740500  0.005300  1.0  0.0653
  H  H55  1  0.855800  0.865300  0.030700  1.0  0.0725
  H  H56  1  0.798100  0.841900  0.958500  1.0  0.0692
  H  H57  1  0.140000  0.557900  0.651700  1.0  0.062
  H  H58  1  0.908700  0.388500  0.625500  1.0  0.0638
  H  H59  1  0.821400  0.312300  0.971700  1.0  0.0647
  H  H60  1  0.376200  0.421700  0.803900  1.0  0.0933
  H  H61  1  0.672600  0.262000  0.892800  1.0  0.1078
  H  H62  1  0.474500  0.453800  0.901800  1.0  0.1128
  H  H63  1  0.044000  0.310700  0.689100  1.0  0.1117
  H  H64  1  0.630100  0.498000  0.980100  1.0  0.0642
  H  H65  1  0.205500  0.237900  0.717100  1.0  0.0838
  H  H66  1  0.492800  0.210500  0.852500  1.0  0.0626
  H  H67  1  0.280900  0.486200  0.718600  1.0  0.1078
  H  H68  1  0.201300  0.300200  0.072500  1.0  0.0672
  H  H69  1  0.093600  0.261500  0.942100  1.0  0.0815
  H  H70  1  0.036500  0.240500  0.005300  1.0  0.0653
  H  H71  1  0.355800  0.365300  0.030700  1.0  0.0725
  H  H72  1  0.298100  0.341900  0.958500  1.0  0.0692
  H  H73  1  0.640000  0.942100  0.151700  1.0  0.0625
  H  H74  1  0.408700  0.111500  0.125500  1.0  0.0638
  H  H75  1  0.321400  0.187700  0.471700  1.0  0.0645
  H  H76  1  0.876200  0.078300  0.303900  1.0  0.0948
  H  H77  1  0.172600  0.238000  0.392800  1.0  0.1082
  H  H78  1  0.974500  0.046200  0.401800  1.0  0.1119
  H  H79  1  0.544000  0.189300  0.189100  1.0  0.1128
  H  H80  1  0.130100  0.002000  0.480100  1.0  0.0643
  H  H81  1  0.705500  0.262100  0.217100  1.0  0.0836
  H  H82  1  0.992800  0.289500  0.352500  1.0  0.0628
  H  H83  1  0.780900  0.013800  0.218600  1.0  0.1081
  H  H84  1  0.701300  0.199800  0.572500  1.0  0.0673
  H  H85  1  0.593600  0.238500  0.442100  1.0  0.082
  H  H86  1  0.536500  0.259500  0.505300  1.0  0.0658
  H  H87  1  0.855800  0.134700  0.530700  1.0  0.074
  H  H88  1  0.798100  0.158100  0.458500  1.0  0.0693
  H  H89  1  0.140000  0.442100  0.151700  1.0  0.0625
  H  H90  1  0.908700  0.611500  0.125500  1.0  0.0638
  H  H91  1  0.821400  0.687700  0.471700  1.0  0.0645
  H  H92  1  0.376200  0.578300  0.303900  1.0  0.0948
  H  H93  1  0.672600  0.738000  0.392800  1.0  0.1082
  H  H94  1  0.474500  0.546200  0.401800  1.0  0.1119
  H  H95  1  0.044000  0.689300  0.189100  1.0  0.1128
  H  H96  1  0.630100  0.502000  0.480100  1.0  0.0643
  H  H97  1  0.205500  0.762100  0.217100  1.0  0.0836
  H  H98  1  0.492800  0.789500  0.352500  1.0  0.0628
  H  H99  1  0.280900  0.513800  0.218600  1.0  0.1081
  H  H100  1  0.201300  0.699800  0.572500  1.0  0.0673
  H  H101  1  0.093600  0.738500  0.442100  1.0  0.082
  H  H102  1  0.036500  0.759500  0.505300  1.0  0.0658
  H  H103  1  0.355800  0.634700  0.530700  1.0  0.074
  H  H104  1  0.298100  0.658100  0.458500  1.0  0.0693
  H  H105  1  0.360000  0.942100  0.348300  1.0  0.0621
  H  H106  1  0.591300  0.111500  0.374500  1.0  0.0633
  H  H107  1  0.678600  0.187700  0.028300  1.0  0.0647
  H  H108  1  0.123800  0.078300  0.196100  1.0  0.0947
  H  H109  1  0.827400  0.238000  0.107200  1.0  0.1075
  H  H110  1  0.025500  0.046200  0.098200  1.0  0.1118
  H  H111  1  0.456000  0.189300  0.310900  1.0  0.1135
  H  H112  1  0.869900  0.002000  0.019900  1.0  0.0639
  H  H113  1  0.294500  0.262100  0.282900  1.0  0.0826
  H  H114  1  0.007200  0.289500  0.147500  1.0  0.0628
  H  H115  1  0.219100  0.013800  0.281400  1.0  0.108
  H  H116  1  0.298700  0.199800  0.927500  1.0  0.0677
  H  H117  1  0.406400  0.238500  0.057900  1.0  0.0813
  H  H118  1  0.463500  0.259500  0.994700  1.0  0.0662
  H  H119  1  0.144200  0.134700  0.969300  1.0  0.0764
  H  H120  1  0.201900  0.158100  0.041500  1.0  0.0684
  H  H121  1  0.860000  0.442100  0.348300  1.0  0.0621
  H  H122  1  0.091300  0.611500  0.374500  1.0  0.0633
  H  H123  1  0.178600  0.687700  0.028300  1.0  0.0647
  H  H124  1  0.623800  0.578300  0.196100  1.0  0.0947
  H  H125  1  0.327400  0.738000  0.107200  1.0  0.1075
  H  H126  1  0.525500  0.546200  0.098200  1.0  0.1118
  H  H127  1  0.956000  0.689300  0.310900  1.0  0.1135
  H  H128  1  0.369900  0.502000  0.019900  1.0  0.0639
  H  H129  1  0.794500  0.762100  0.282900  1.0  0.0826
  H  H130  1  0.507200  0.789500  0.147500  1.0  0.0628
  H  H131  1  0.719100  0.513800  0.281400  1.0  0.108
  H  H132  1  0.798700  0.699800  0.927500  1.0  0.0677
  H  H133  1  0.906400  0.738500  0.057900  1.0  0.0813
  H  H134  1  0.963500  0.759500  0.994700  1.0  0.0662
  H  H135  1  0.644200  0.634700  0.969300  1.0  0.0764
  H  H136  1  0.701900  0.658100  0.041500  1.0  0.0684
  C  C137  1  0.379700  0.007400  0.840600  1.0  0.1652
  C  C138  1  0.514300  0.908200  0.856200  1.0  0.17
  C  C139  1  0.317800  0.888400  0.788400  1.0  0.0794
  C  C140  1  0.394600  0.885400  0.479700  1.0  0.67
  C  C141  1  0.749200  0.841200  0.542900  1.0  0.1712
  C  C142  1  0.946800  0.852000  0.612700  1.0  0.0729
  C  C143  1  0.226500  0.838700  0.747030  1.0  0.0186
  C  C144  1  0.131200  0.869000  0.701160  1.0  -0.1098
  C  C145  1  0.838600  0.810300  0.590200  1.0  -0.2115
  C  C146  1  0.046900  0.821300  0.662870  1.0  -0.0229
  C  C147  1  0.955700  0.923700  0.585000  1.0  -0.203
  C  C148  1  0.433700  0.860900  0.817600  1.0  -0.2102
  C  C149  1  0.861200  0.950000  0.537900  1.0  0.1666
  C  C150  1  0.232000  0.759300  0.752200  1.0  0.1626
  C  C151  1  0.063100  0.743100  0.672700  1.0  0.1694
  C  C152  1  0.293900  0.964300  0.800600  1.0  -0.1931
  C  C153  1  0.314600  0.814500  0.474200  1.0  -0.1846
  C  C154  1  0.386200  0.748400  0.511500  1.0  -0.1397
  C  C155  1  0.189800  0.825600  0.495800  1.0  -0.1449
  C  C156  1  0.879700  0.507400  0.840600  1.0  0.1652
  C  C157  1  0.014300  0.408200  0.856200  1.0  0.17
  C  C158  1  0.817800  0.388400  0.788400  1.0  0.0794
  C  C159  1  0.894600  0.385400  0.479700  1.0  0.67
  C  C160  1  0.249200  0.341200  0.542900  1.0  0.1712
  C  C161  1  0.446800  0.352000  0.612700  1.0  0.0729
  C  C162  1  0.726500  0.338700  0.747030  1.0  0.0186
  C  C163  1  0.631200  0.369000  0.701160  1.0  -0.1098
  C  C164  1  0.338600  0.310300  0.590200  1.0  -0.2115
  C  C165  1  0.546900  0.321300  0.662870  1.0  -0.0229
  C  C166  1  0.455700  0.423700  0.585000  1.0  -0.203
  C  C167  1  0.933700  0.360900  0.817600  1.0  -0.2102
  C  C168  1  0.361200  0.450000  0.537900  1.0  0.1666
  C  C169  1  0.732000  0.259300  0.752200  1.0  0.1626
  C  C170  1  0.563100  0.243100  0.672700  1.0  0.1694
  C  C171  1  0.793900  0.464300  0.800600  1.0  -0.1931
  C  C172  1  0.814600  0.314500  0.474200  1.0  -0.1846
  C  C173  1  0.886200  0.248400  0.511500  1.0  -0.1397
  C  C174  1  0.689800  0.325600  0.495800  1.0  -0.1449
  C  C175  1  0.620300  0.007400  0.659400  1.0  0.1667
  C  C176  1  0.485700  0.908200  0.643800  1.0  0.1703
  C  C177  1  0.682200  0.888400  0.711600  1.0  0.0787
  C  C178  1  0.605400  0.885400  0.020300  1.0  0.6712
  C  C179  1  0.250800  0.841200  0.957100  1.0  0.1719
  C  C180  1  0.053200  0.852000  0.887300  1.0  0.0737
  C  C181  1  0.773500  0.838700  0.752970  1.0  0.0179
  C  C182  1  0.868800  0.869000  0.798840  1.0  -0.1096
  C  C183  1  0.161400  0.810300  0.909800  1.0  -0.2113
  C  C184  1  0.953100  0.821300  0.837130  1.0  -0.0238
  C  C185  1  0.044300  0.923700  0.915000  1.0  -0.2024
  C  C186  1  0.566300  0.860900  0.682400  1.0  -0.2106
  C  C187  1  0.138800  0.950000  0.962100  1.0  0.1663
  C  C188  1  0.768000  0.759300  0.747800  1.0  0.163
  C  C189  1  0.936900  0.743100  0.827300  1.0  0.1699
  C  C190  1  0.706100  0.964300  0.699400  1.0  -0.1931
  C  C191  1  0.685400  0.814500  0.025800  1.0  -0.1774
  C  C192  1  0.613800  0.748400  0.988500  1.0  -0.1397
  C  C193  1  0.810200  0.825600  0.004200  1.0  -0.1445
  C  C194  1  0.120300  0.507400  0.659400  1.0  0.1667
  C  C195  1  0.985700  0.408200  0.643800  1.0  0.1703
  C  C196  1  0.182200  0.388400  0.711600  1.0  0.0787
  C  C197  1  0.105400  0.385400  0.020300  1.0  0.6712
  C  C198  1  0.750800  0.341200  0.957100  1.0  0.1719
  C  C199  1  0.553200  0.352000  0.887300  1.0  0.0737
  C  C200  1  0.273500  0.338700  0.752970  1.0  0.0179
  C  C201  1  0.368800  0.369000  0.798840  1.0  -0.1096
  C  C202  1  0.661400  0.310300  0.909800  1.0  -0.2113
  C  C203  1  0.453100  0.321300  0.837130  1.0  -0.0238
  C  C204  1  0.544300  0.423700  0.915000  1.0  -0.2024
  C  C205  1  0.066300  0.360900  0.682400  1.0  -0.2106
  C  C206  1  0.638800  0.450000  0.962100  1.0  0.1663
  C  C207  1  0.268000  0.259300  0.747800  1.0  0.163
  C  C208  1  0.436900  0.243100  0.827300  1.0  0.1697
  C  C209  1  0.206100  0.464300  0.699400  1.0  -0.1931
  C  C210  1  0.185400  0.314500  0.025800  1.0  -0.1774
  C  C211  1  0.113800  0.248400  0.988500  1.0  -0.1397
  C  C212  1  0.310200  0.325600  0.004200  1.0  -0.1445
  C  C213  1  0.620300  0.992600  0.159400  1.0  0.1657
  C  C214  1  0.485700  0.091800  0.143800  1.0  0.1705
  C  C215  1  0.682200  0.111600  0.211600  1.0  0.0788
  C  C216  1  0.605400  0.114600  0.520300  1.0  0.6702
  C  C217  1  0.250800  0.158800  0.457100  1.0  0.1717
  C  C218  1  0.053200  0.148000  0.387300  1.0  0.0737
  C  C219  1  0.773500  0.161300  0.252970  1.0  0.0186
  C  C220  1  0.868800  0.131000  0.298840  1.0  -0.1093
  C  C221  1  0.161400  0.189700  0.409800  1.0  -0.2115
  C  C222  1  0.953100  0.178700  0.337130  1.0  -0.0241
  C  C223  1  0.044300  0.076300  0.415000  1.0  -0.2006
  C  C224  1  0.566300  0.139100  0.182400  1.0  -0.2118
  C  C225  1  0.138800  0.050000  0.462100  1.0  0.1663
  C  C226  1  0.768000  0.240700  0.247800  1.0  0.1604
  C  C227  1  0.936900  0.256900  0.327300  1.0  0.169
  C  C228  1  0.706100  0.035700  0.199400  1.0  -0.1933
  C  C229  1  0.685400  0.185500  0.525800  1.0  -0.1782
  C  C230  1  0.613800  0.251600  0.488500  1.0  -0.1398
  C  C231  1  0.810200  0.174400  0.504200  1.0  -0.1452
  C  C232  1  0.120300  0.492600  0.159400  1.0  0.1657
  C  C233  1  0.985700  0.591800  0.143800  1.0  0.1705
  C  C234  1  0.182200  0.611600  0.211600  1.0  0.0788
  C  C235  1  0.105400  0.614600  0.520300  1.0  0.6702
  C  C236  1  0.750800  0.658800  0.457100  1.0  0.1717
  C  C237  1  0.553200  0.648000  0.387300  1.0  0.0737
  C  C238  1  0.273500  0.661300  0.252970  1.0  0.0186
  C  C239  1  0.368800  0.631000  0.298840  1.0  -0.1093
  C  C240  1  0.661400  0.689700  0.409800  1.0  -0.2115
  C  C241  1  0.453100  0.678700  0.337130  1.0  -0.0241
  C  C242  1  0.544300  0.576300  0.415000  1.0  -0.2006
  C  C243  1  0.066300  0.639100  0.182400  1.0  -0.2118
  C  C244  1  0.638800  0.550000  0.462100  1.0  0.1663
  C  C245  1  0.268000  0.740700  0.247800  1.0  0.1604
  C  C246  1  0.436900  0.756900  0.327300  1.0  0.169
  C  C247  1  0.206100  0.535700  0.199400  1.0  -0.1933
  C  C248  1  0.185400  0.685500  0.525800  1.0  -0.1782
  C  C249  1  0.113800  0.751600  0.488500  1.0  -0.1398
  C  C250  1  0.310200  0.674400  0.504200  1.0  -0.1452
  C  C251  1  0.379700  0.992600  0.340600  1.0  0.1645
  C  C252  1  0.514300  0.091800  0.356200  1.0  0.1695
  C  C253  1  0.317800  0.111600  0.288400  1.0  0.0793
  C  C254  1  0.394600  0.114600  0.979700  1.0  0.6696
  C  C255  1  0.749200  0.158800  0.042900  1.0  0.1708
  C  C256  1  0.946800  0.148000  0.112700  1.0  0.0729
  C  C257  1  0.226500  0.161300  0.247030  1.0  0.019
  C  C258  1  0.131200  0.131000  0.201160  1.0  -0.1087
  C  C259  1  0.838600  0.189700  0.090200  1.0  -0.2113
  C  C260  1  0.046900  0.178700  0.162870  1.0  -0.0231
  C  C261  1  0.955700  0.076300  0.085000  1.0  -0.2023
  C  C262  1  0.433700  0.139100  0.317600  1.0  -0.211
  C  C263  1  0.861200  0.050000  0.037900  1.0  0.1657
  C  C264  1  0.232000  0.240700  0.252200  1.0  0.1605
  C  C265  1  0.063100  0.256900  0.172700  1.0  0.1676
  C  C266  1  0.293900  0.035700  0.300600  1.0  -0.1926
  C  C267  1  0.314600  0.185500  0.974200  1.0  -0.1789
  C  C268  1  0.386200  0.251600  0.011500  1.0  -0.1397
  C  C269  1  0.189800  0.174400  0.995800  1.0  -0.1455
  C  C270  1  0.879700  0.492600  0.340600  1.0  0.1645
  C  C271  1  0.014300  0.591800  0.356200  1.0  0.1695
  C  C272  1  0.817800  0.611600  0.288400  1.0  0.0793
  C  C273  1  0.894600  0.614600  0.979700  1.0  0.6696
  C  C274  1  0.249200  0.658800  0.042900  1.0  0.1708
  C  C275  1  0.446800  0.648000  0.112700  1.0  0.0729
  C  C276  1  0.726500  0.661300  0.247030  1.0  0.019
  C  C277  1  0.631200  0.631000  0.201160  1.0  -0.1087
  C  C278  1  0.338600  0.689700  0.090200  1.0  -0.2113
  C  C279  1  0.546900  0.678700  0.162870  1.0  -0.0231
  C  C280  1  0.455700  0.576300  0.085000  1.0  -0.2023
  C  C281  1  0.933700  0.639100  0.317600  1.0  -0.211
  C  C282  1  0.361200  0.550000  0.037900  1.0  0.1657
  C  C283  1  0.732000  0.740700  0.252200  1.0  0.1605
  C  C284  1  0.563100  0.756900  0.172700  1.0  0.1676
  C  C285  1  0.793900  0.535700  0.300600  1.0  -0.1926
  C  C286  1  0.814600  0.685500  0.974200  1.0  -0.1789
  C  C287  1  0.886200  0.751600  0.011500  1.0  -0.1397
  C  C288  1  0.689800  0.674400  0.995800  1.0  -0.1455
  N  N289  1  0.490300  0.980800  0.869380  1.0  -0.367
  N  N290  1  0.757600  0.910700  0.516510  1.0  -0.3821
  N  N291  1  0.152800  0.712200  0.715700  1.0  -0.4301
  N  N292  1  0.990300  0.480800  0.869380  1.0  -0.367
  N  N293  1  0.257600  0.410700  0.516510  1.0  -0.3821
  N  N294  1  0.652800  0.212200  0.715700  1.0  -0.4301
  N  N295  1  0.509700  0.980800  0.630620  1.0  -0.3673
  N  N296  1  0.242400  0.910700  0.983490  1.0  -0.381
  N  N297  1  0.847200  0.712200  0.784300  1.0  -0.4301
  N  N298  1  0.009700  0.480800  0.630620  1.0  -0.3673
  N  N299  1  0.742400  0.410700  0.983490  1.0  -0.381
  N  N300  1  0.347200  0.212200  0.784300  1.0  -0.4301
  N  N301  1  0.509700  0.019200  0.130620  1.0  -0.3681
  N  N302  1  0.242400  0.089300  0.483490  1.0  -0.3807
  N  N303  1  0.847200  0.287800  0.284300  1.0  -0.432
  N  N304  1  0.009700  0.519200  0.130620  1.0  -0.3681
  N  N305  1  0.742400  0.589300  0.483490  1.0  -0.3807
  N  N306  1  0.347200  0.787800  0.284300  1.0  -0.432
  N  N307  1  0.490300  0.019200  0.369380  1.0  -0.3657
  N  N308  1  0.757600  0.089300  0.016510  1.0  -0.383
  N  N309  1  0.152800  0.287800  0.215700  1.0  -0.4322
  N  N310  1  0.990300  0.519200  0.369380  1.0  -0.3657
  N  N311  1  0.257600  0.589300  0.016510  1.0  -0.383
  N  N312  1  0.652800  0.787800  0.215700  1.0  -0.4322
  O  O313  1  0.355800  0.943860  0.503880  1.0  -0.6421
  O  O314  1  0.496300  0.880560  0.458470  1.0  -0.6065
  O  O315  1  0.855800  0.443860  0.503880  1.0  -0.6421
  O  O316  1  0.996300  0.380560  0.458470  1.0  -0.6065
  O  O317  1  0.644200  0.943860  0.996120  1.0  -0.6418
  O  O318  1  0.503700  0.880560  0.041530  1.0  -0.6108
  O  O319  1  0.144200  0.443860  0.996120  1.0  -0.6418
  O  O320  1  0.003700  0.380560  0.041530  1.0  -0.6108
  O  O321  1  0.644200  0.056140  0.496120  1.0  -0.6409
  O  O322  1  0.503700  0.119440  0.541530  1.0  -0.6091
  O  O323  1  0.144200  0.556140  0.496120  1.0  -0.6409
  O  O324  1  0.003700  0.619440  0.541530  1.0  -0.6091
  O  O325  1  0.355800  0.056140  0.003880  1.0  -0.6405
  O  O326  1  0.496300  0.119440  0.958470  1.0  -0.6068
  O  O327  1  0.855800  0.556140  0.003880  1.0  -0.6405
  O  O328  1  0.996300  0.619440  0.958470  1.0  -0.6068
