# generated using pymatgen
data_Er2Cu3H30C24(NO4)6
_symmetry_space_group_name_H-M   'P 1'
_cell_length_a   13.31690000
_cell_length_b   13.31690000
_cell_length_c   14.29700000
_cell_angle_alpha   90.00000000
_cell_angle_beta   90.00000000
_cell_angle_gamma   120.00000000
_symmetry_Int_Tables_number   1
_chemical_formula_structural   Er2Cu3H30C24(NO4)6
_chemical_formula_sum   'Er4 Cu6 H60 C48 N12 O48'
_cell_volume   2195.74461298
_cell_formula_units_Z   2
loop_
 _symmetry_equiv_pos_site_id
 _symmetry_equiv_pos_as_xyz
  1  'x, y, z'
loop_
 _atom_site_type_symbol
 _atom_site_label
 _atom_site_symmetry_multiplicity
 _atom_site_fract_x
 _atom_site_fract_y
 _atom_site_fract_z
 _atom_site_occupancy
 _atom_site_charge
  Er  Er1  1  0.333333  0.666667  0.845680  1.0  1.4355
  Er  Er2  1  0.333333  0.666667  0.345680  1.0  1.4355
  Er  Er3  1  0.666667  0.333333  0.180540  1.0  1.4647
  Er  Er4  1  0.666667  0.333333  0.680540  1.0  1.4647
  Cu  Cu5  1  0.000500  0.500200  0.013300  1.0  0.8719
  Cu  Cu6  1  0.499700  0.999500  0.013300  1.0  0.8719
  Cu  Cu7  1  0.499800  0.500300  0.013300  1.0  0.8723
  Cu  Cu8  1  0.499700  0.500200  0.513300  1.0  0.8717
  Cu  Cu9  1  0.499800  0.999500  0.513300  1.0  0.8721
  Cu  Cu10  1  0.000500  0.500300  0.513300  1.0  0.8715
  H  H11  1  0.018800  0.669100  0.935700  1.0  0.2533
  H  H12  1  0.973600  0.323900  0.093400  1.0  0.2601
  H  H13  1  0.922000  0.609200  0.822900  1.0  0.1442
  H  H14  1  0.810100  0.548400  0.885400  1.0  0.1263
  H  H15  1  0.097500  0.406900  0.211500  1.0  0.1478
  H  H16  1  0.200900  0.471000  0.141600  1.0  0.138
  H  H17  1  0.958100  0.701300  0.061900  1.0  0.1197
  H  H18  1  0.858300  0.675400  0.991500  1.0  0.1132
  H  H19  1  0.038200  0.290500  0.959100  1.0  0.1289
  H  H20  1  0.135300  0.312100  0.032400  1.0  0.1107
  H  H21  1  0.650300  0.981200  0.935700  1.0  0.2551
  H  H22  1  0.350300  0.026400  0.093400  1.0  0.2601
  H  H23  1  0.687200  0.078000  0.822900  1.0  0.1469
  H  H24  1  0.738300  0.189900  0.885400  1.0  0.1242
  H  H25  1  0.309400  0.902500  0.211500  1.0  0.1476
  H  H26  1  0.270100  0.799100  0.141600  1.0  0.1337
  H  H27  1  0.743200  0.041900  0.061900  1.0  0.1252
  H  H28  1  0.817100  0.141700  0.991500  1.0  0.1109
  H  H29  1  0.252300  0.961800  0.959100  1.0  0.1271
  H  H30  1  0.176800  0.864700  0.032400  1.0  0.1123
  H  H31  1  0.330900  0.349700  0.935700  1.0  0.2568
  H  H32  1  0.676100  0.649700  0.093400  1.0  0.2594
  H  H33  1  0.390800  0.312800  0.822900  1.0  0.1448
  H  H34  1  0.451600  0.261700  0.885400  1.0  0.1215
  H  H35  1  0.593100  0.690600  0.211500  1.0  0.1402
  H  H36  1  0.529000  0.729900  0.141600  1.0  0.1333
  H  H37  1  0.298700  0.256800  0.061900  1.0  0.1222
  H  H38  1  0.324600  0.182900  0.991500  1.0  0.1114
  H  H39  1  0.709500  0.747700  0.959100  1.0  0.1277
  H  H40  1  0.687900  0.823200  0.032400  1.0  0.1098
  H  H41  1  0.650300  0.669100  0.435700  1.0  0.2532
  H  H42  1  0.350300  0.323900  0.593400  1.0  0.2605
  H  H43  1  0.687200  0.609200  0.322900  1.0  0.1451
  H  H44  1  0.738300  0.548400  0.385400  1.0  0.1293
  H  H45  1  0.309400  0.406900  0.711500  1.0  0.1467
  H  H46  1  0.270100  0.471000  0.641600  1.0  0.1369
  H  H47  1  0.743200  0.701300  0.561900  1.0  0.1224
  H  H48  1  0.817100  0.675400  0.491500  1.0  0.1106
  H  H49  1  0.252300  0.290500  0.459100  1.0  0.1253
  H  H50  1  0.176800  0.312100  0.532400  1.0  0.1109
  H  H51  1  0.330900  0.981200  0.435700  1.0  0.255
  H  H52  1  0.676100  0.026400  0.593400  1.0  0.2594
  H  H53  1  0.390800  0.078000  0.322900  1.0  0.1461
  H  H54  1  0.451600  0.189900  0.385400  1.0  0.1243
  H  H55  1  0.593100  0.902500  0.711500  1.0  0.1406
  H  H56  1  0.529000  0.799100  0.641600  1.0  0.1333
  H  H57  1  0.298700  0.041900  0.561900  1.0  0.1251
  H  H58  1  0.324600  0.141700  0.491500  1.0  0.1108
  H  H59  1  0.709500  0.961800  0.459100  1.0  0.1279
  H  H60  1  0.687900  0.864700  0.532400  1.0  0.1109
  H  H61  1  0.018800  0.349700  0.435700  1.0  0.2571
  H  H62  1  0.973600  0.649700  0.593400  1.0  0.2602
  H  H63  1  0.922000  0.312800  0.322900  1.0  0.1443
  H  H64  1  0.810100  0.261700  0.385400  1.0  0.1215
  H  H65  1  0.097500  0.690600  0.711500  1.0  0.1466
  H  H66  1  0.200900  0.729900  0.641600  1.0  0.1321
  H  H67  1  0.958100  0.256800  0.561900  1.0  0.1209
  H  H68  1  0.858300  0.182900  0.491500  1.0  0.1133
  H  H69  1  0.038200  0.747700  0.459100  1.0  0.1283
  H  H70  1  0.135300  0.823200  0.532400  1.0  0.1109
  C  C71  1  0.129700  0.564000  0.178500  1.0  0.7396
  C  C72  1  0.874300  0.436200  0.853900  1.0  0.6795
  C  C73  1  0.886300  0.557500  0.875700  1.0  -0.1947
  C  C74  1  0.123500  0.455900  0.156400  1.0  -0.2238
  C  C75  1  0.897700  0.641000  0.024000  1.0  -0.2121
  C  C76  1  0.095600  0.347000  0.001300  1.0  -0.1678
  C  C77  1  0.187200  0.462100  0.944500  1.0  0.6294
  C  C78  1  0.814800  0.552000  0.086300  1.0  0.7292
  C  C79  1  0.434300  0.870300  0.178500  1.0  0.7412
  C  C80  1  0.561900  0.125700  0.853900  1.0  0.6772
  C  C81  1  0.671200  0.113700  0.875700  1.0  -0.1985
  C  C82  1  0.332400  0.876500  0.156400  1.0  -0.2237
  C  C83  1  0.743300  0.102300  0.024000  1.0  -0.2093
  C  C84  1  0.251400  0.904400  0.001300  1.0  -0.167
  C  C85  1  0.274900  0.812800  0.944500  1.0  0.6282
  C  C86  1  0.737200  0.185200  0.086300  1.0  0.7295
  C  C87  1  0.436000  0.565700  0.178500  1.0  0.7401
  C  C88  1  0.563800  0.438100  0.853900  1.0  0.6802
  C  C89  1  0.442500  0.328800  0.875700  1.0  -0.1965
  C  C90  1  0.544100  0.667600  0.156400  1.0  -0.2229
  C  C91  1  0.359000  0.256700  0.024000  1.0  -0.2093
  C  C92  1  0.653000  0.748600  0.001300  1.0  -0.1623
  C  C93  1  0.537900  0.725100  0.944500  1.0  0.6285
  C  C94  1  0.448000  0.262800  0.086300  1.0  0.7301
  C  C95  1  0.434300  0.564000  0.678500  1.0  0.7399
  C  C96  1  0.561900  0.436200  0.353900  1.0  0.6802
  C  C97  1  0.671200  0.557500  0.375700  1.0  -0.1961
  C  C98  1  0.332400  0.455900  0.656400  1.0  -0.2248
  C  C99  1  0.743300  0.641000  0.524000  1.0  -0.2112
  C  C100  1  0.251400  0.347000  0.501300  1.0  -0.1673
  C  C101  1  0.274900  0.462100  0.444500  1.0  0.6332
  C  C102  1  0.737200  0.552000  0.586300  1.0  0.73
  C  C103  1  0.436000  0.870300  0.678500  1.0  0.7399
  C  C104  1  0.563800  0.125700  0.353900  1.0  0.6786
  C  C105  1  0.442500  0.113700  0.375700  1.0  -0.1957
  C  C106  1  0.544100  0.876500  0.656400  1.0  -0.2246
  C  C107  1  0.359000  0.102300  0.524000  1.0  -0.2097
  C  C108  1  0.653000  0.904400  0.501300  1.0  -0.1668
  C  C109  1  0.537900  0.812800  0.444500  1.0  0.6286
  C  C110  1  0.448000  0.185200  0.586300  1.0  0.73
  C  C111  1  0.129700  0.565700  0.678500  1.0  0.7404
  C  C112  1  0.874300  0.438100  0.353900  1.0  0.6808
  C  C113  1  0.886300  0.328800  0.375700  1.0  -0.1973
  C  C114  1  0.123500  0.667600  0.656400  1.0  -0.225
  C  C115  1  0.897700  0.256700  0.524000  1.0  -0.209
  C  C116  1  0.095600  0.748600  0.501300  1.0  -0.1612
  C  C117  1  0.187200  0.725100  0.444500  1.0  0.6289
  C  C118  1  0.814800  0.262800  0.586300  1.0  0.73
  N  N119  1  0.952800  0.604400  0.954200  1.0  -0.211
  N  N120  1  0.039300  0.386100  0.071200  1.0  -0.272
  N  N121  1  0.651600  0.047200  0.954200  1.0  -0.2124
  N  N122  1  0.346800  0.960700  0.071200  1.0  -0.2716
  N  N123  1  0.395600  0.348400  0.954200  1.0  -0.2121
  N  N124  1  0.613900  0.653200  0.071200  1.0  -0.2721
  N  N125  1  0.651600  0.604400  0.454200  1.0  -0.2132
  N  N126  1  0.346800  0.386100  0.571200  1.0  -0.2722
  N  N127  1  0.395600  0.047200  0.454200  1.0  -0.2095
  N  N128  1  0.613900  0.960700  0.571200  1.0  -0.2738
  N  N129  1  0.952800  0.348400  0.454200  1.0  -0.2134
  N  N130  1  0.039300  0.653200  0.571200  1.0  -0.2721
  O  O131  1  0.190600  0.555800  0.955000  1.0  -0.6114
  O  O132  1  0.076100  0.598300  0.123600  1.0  -0.5701
  O  O133  1  0.811300  0.455900  0.074600  1.0  -0.7186
  O  O134  1  0.928200  0.402400  0.906100  1.0  -0.5285
  O  O135  1  0.252400  0.446200  0.884300  1.0  -0.6326
  O  O136  1  0.758900  0.568000  0.141100  1.0  -0.5917
  O  O137  1  0.814800  0.376900  0.784400  1.0  -0.6398
  O  O138  1  0.185300  0.615900  0.245400  1.0  -0.5854
  O  O139  1  0.365200  0.809400  0.955000  1.0  -0.612
  O  O140  1  0.522200  0.923900  0.123600  1.0  -0.5693
  O  O141  1  0.644600  0.188700  0.074600  1.0  -0.7133
  O  O142  1  0.474200  0.071800  0.906100  1.0  -0.5293
  O  O143  1  0.193800  0.747600  0.884300  1.0  -0.6333
  O  O144  1  0.809100  0.241100  0.141100  1.0  -0.592
  O  O145  1  0.562100  0.185200  0.784400  1.0  -0.6376
  O  O146  1  0.430600  0.814700  0.245400  1.0  -0.5824
  O  O147  1  0.444200  0.634800  0.955000  1.0  -0.6113
  O  O148  1  0.401700  0.477800  0.123600  1.0  -0.5701
  O  O149  1  0.544100  0.355400  0.074600  1.0  -0.7171
  O  O150  1  0.597600  0.525800  0.906100  1.0  -0.5298
  O  O151  1  0.553800  0.806200  0.884300  1.0  -0.6328
  O  O152  1  0.432000  0.190900  0.141100  1.0  -0.5931
  O  O153  1  0.623100  0.437900  0.784400  1.0  -0.6386
  O  O154  1  0.384100  0.569400  0.245400  1.0  -0.5846
  O  O155  1  0.365200  0.555800  0.455000  1.0  -0.6121
  O  O156  1  0.522200  0.598300  0.623600  1.0  -0.5699
  O  O157  1  0.644600  0.455900  0.574600  1.0  -0.7186
  O  O158  1  0.474200  0.402400  0.406100  1.0  -0.5287
  O  O159  1  0.193800  0.446200  0.384300  1.0  -0.6331
  O  O160  1  0.809100  0.568000  0.641100  1.0  -0.5915
  O  O161  1  0.562100  0.376900  0.284400  1.0  -0.6398
  O  O162  1  0.430600  0.615900  0.745400  1.0  -0.5852
  O  O163  1  0.444200  0.809400  0.455000  1.0  -0.6091
  O  O164  1  0.401700  0.923900  0.623600  1.0  -0.569
  O  O165  1  0.544100  0.188700  0.574600  1.0  -0.7161
  O  O166  1  0.597600  0.071800  0.406100  1.0  -0.5301
  O  O167  1  0.553800  0.747600  0.384300  1.0  -0.633
  O  O168  1  0.432000  0.241100  0.641100  1.0  -0.5925
  O  O169  1  0.623100  0.185200  0.284400  1.0  -0.6376
  O  O170  1  0.384100  0.814700  0.745400  1.0  -0.5831
  O  O171  1  0.190600  0.634800  0.455000  1.0  -0.6116
  O  O172  1  0.076100  0.477800  0.623600  1.0  -0.5707
  O  O173  1  0.811300  0.355400  0.574600  1.0  -0.7163
  O  O174  1  0.928200  0.525800  0.406100  1.0  -0.5287
  O  O175  1  0.252400  0.806200  0.384300  1.0  -0.6325
  O  O176  1  0.758900  0.190900  0.641100  1.0  -0.5923
  O  O177  1  0.814800  0.437900  0.284400  1.0  -0.6351
  O  O178  1  0.185300  0.569400  0.745400  1.0  -0.5839
