# generated using pymatgen
data_CuH22C26(N2O3)2
_symmetry_space_group_name_H-M   'P 1'
_cell_length_a   9.99830000
_cell_length_b   11.01590000
_cell_length_c   12.37460000
_cell_angle_alpha   90.95500000
_cell_angle_beta   110.69400000
_cell_angle_gamma   95.11600000
_symmetry_Int_Tables_number   1
_chemical_formula_structural   CuH22C26(N2O3)2
_chemical_formula_sum   'Cu2 H44 C52 N8 O12'
_cell_volume   1268.22805821
_cell_formula_units_Z   2
loop_
 _symmetry_equiv_pos_site_id
 _symmetry_equiv_pos_as_xyz
  1  'x, y, z'
loop_
 _atom_site_type_symbol
 _atom_site_label
 _atom_site_symmetry_multiplicity
 _atom_site_fract_x
 _atom_site_fract_y
 _atom_site_fract_z
 _atom_site_occupancy
 _atom_site_charge
  Cu  Cu1  1  0.675350  0.876990  0.503470  1.0  0.8744
  Cu  Cu2  1  0.324650  0.123010  0.496530  1.0  0.873
  H  H3  1  0.079100  0.537200  0.261100  1.0  0.1089
  H  H4  1  0.952500  0.348000  0.247100  1.0  0.1036
  H  H5  1  0.782900  0.317700  0.335600  1.0  0.1036
  H  H6  1  0.723700  0.483600  0.422500  1.0  0.1192
  H  H7  1  0.028500  0.816700  0.366600  1.0  0.078
  H  H8  1  0.875800  0.054200  0.447000  1.0  0.081
  H  H9  1  0.932600  0.116300  0.289300  1.0  0.1155
  H  H10  1  0.572700  0.914400  0.080700  1.0  0.1239
  H  H11  1  0.531300  0.852300  0.244800  1.0  0.0812
  H  H12  1  0.983700  0.939800  0.176000  1.0  0.0719
  H  H13  1  0.102600  0.040500  0.163500  1.0  0.083
  H  H14  1  0.018400  0.174100  0.984100  1.0  0.0997
  H  H15  1  0.854100  0.146200  0.900200  1.0  0.1025
  H  H16  1  0.443100  0.593800  0.822900  1.0  0.0759
  H  H17  1  0.361100  0.607000  0.912200  1.0  0.0928
  H  H18  1  0.519000  0.604100  0.131300  1.0  0.093
  H  H19  1  0.686400  0.591600  0.160800  1.0  0.0856
  H  H20  1  0.538100  0.859100  0.849500  1.0  0.1156
  H  H21  1  0.543300  0.926600  0.675800  1.0  0.0758
  H  H22  1  0.784000  0.672500  0.654200  1.0  0.0744
  H  H23  1  0.794300  0.603800  0.831300  1.0  0.124
  H  H24  1  0.253000  0.680200  0.377500  1.0  0.0846
  H  H25  1  0.920900  0.462800  0.738900  1.0  0.1101
  H  H26  1  0.047500  0.652000  0.752900  1.0  0.103
  H  H27  1  0.217100  0.682300  0.664400  1.0  0.1042
  H  H28  1  0.276300  0.516400  0.577500  1.0  0.1203
  H  H29  1  0.971500  0.183300  0.633400  1.0  0.0786
  H  H30  1  0.124200  0.945800  0.553000  1.0  0.0812
  H  H31  1  0.067400  0.883700  0.710700  1.0  0.1157
  H  H32  1  0.427300  0.085600  0.919300  1.0  0.1243
  H  H33  1  0.468700  0.147700  0.755200  1.0  0.0813
  H  H34  1  0.016300  0.060200  0.824000  1.0  0.073
  H  H35  1  0.897400  0.959500  0.836500  1.0  0.0837
  H  H36  1  0.981600  0.825900  0.015900  1.0  0.1001
  H  H37  1  0.145900  0.853800  0.099800  1.0  0.1027
  H  H38  1  0.556900  0.406200  0.177100  1.0  0.0744
  H  H39  1  0.638900  0.393000  0.087800  1.0  0.0943
  H  H40  1  0.481000  0.395900  0.868700  1.0  0.0932
  H  H41  1  0.313600  0.408400  0.839200  1.0  0.0847
  H  H42  1  0.461900  0.140900  0.150500  1.0  0.1151
  H  H43  1  0.456700  0.073400  0.324200  1.0  0.0762
  H  H44  1  0.216000  0.327500  0.345800  1.0  0.0753
  H  H45  1  0.205700  0.396200  0.168700  1.0  0.1247
  H  H46  1  0.747000  0.319800  0.622500  1.0  0.085
  C  C47  1  0.829100  0.713600  0.456300  1.0  0.6802
  C  C48  1  0.870200  0.610200  0.398200  1.0  -0.0995
  C  C49  1  0.982100  0.627000  0.353500  1.0  0.0265
  C  C50  1  0.008100  0.527100  0.295700  1.0  -0.1449
  C  C51  1  0.933200  0.414300  0.287600  1.0  -0.1105
  C  C52  1  0.830600  0.396800  0.337500  1.0  -0.0976
  C  C53  1  0.797300  0.494900  0.390700  1.0  -0.068
  C  C54  1  0.072400  0.743500  0.367800  1.0  -0.1385
  C  C55  1  0.305000  0.869900  0.405400  1.0  0.6893
  C  C56  1  0.814300  0.024600  0.371600  1.0  0.1653
  C  C57  1  0.848300  0.062800  0.277900  1.0  -0.2146
  C  C58  1  0.758800  0.022500  0.167300  1.0  -0.0076
  C  C59  1  0.637500  0.943400  0.155100  1.0  -0.2072
  C  C60  1  0.613100  0.908000  0.253500  1.0  0.1593
  C  C61  1  0.783200  0.071300  0.062700  1.0  0.5765
  C  C62  1  0.018000  0.982900  0.119700  1.0  -0.0125
  C  C63  1  0.938800  0.108500  0.951100  1.0  -0.0077
  C  C64  1  0.439700  0.568400  0.898300  1.0  -0.0176
  C  C65  1  0.588800  0.566100  0.104700  1.0  0.0114
  C  C66  1  0.681000  0.683400  0.978700  1.0  0.6111
  C  C67  1  0.665100  0.722700  0.859900  1.0  0.0089
  C  C68  1  0.590700  0.819500  0.811100  1.0  -0.2
  C  C69  1  0.593000  0.858400  0.707000  1.0  0.149
  C  C70  1  0.733900  0.711700  0.695100  1.0  0.1617
  C  C71  1  0.739500  0.669400  0.800000  1.0  -0.1959
  C  C72  1  0.211000  0.753200  0.382300  1.0  -0.2038
  C  C73  1  0.170900  0.286400  0.543700  1.0  0.6803
  C  C74  1  0.129800  0.389800  0.601800  1.0  -0.0993
  C  C75  1  0.017900  0.373000  0.646500  1.0  0.0285
  C  C76  1  0.991900  0.472900  0.704300  1.0  -0.1442
  C  C77  1  0.066800  0.585700  0.712400  1.0  -0.1138
  C  C78  1  0.169400  0.603200  0.662500  1.0  -0.0961
  C  C79  1  0.202700  0.505100  0.609300  1.0  -0.0693
  C  C80  1  0.927600  0.256500  0.632200  1.0  -0.1386
  C  C81  1  0.695000  0.130100  0.594600  1.0  0.6881
  C  C82  1  0.185700  0.975400  0.628400  1.0  0.1655
  C  C83  1  0.151700  0.937200  0.722100  1.0  -0.2147
  C  C84  1  0.241200  0.977500  0.832700  1.0  -0.0062
  C  C85  1  0.362500  0.056600  0.844900  1.0  -0.2073
  C  C86  1  0.386900  0.092000  0.746500  1.0  0.1588
  C  C87  1  0.216800  0.928700  0.937300  1.0  0.5763
  C  C88  1  0.982000  0.017100  0.880300  1.0  -0.0104
  C  C89  1  0.061200  0.891500  0.048900  1.0  -0.009
  C  C90  1  0.560300  0.431600  0.101700  1.0  -0.0171
  C  C91  1  0.411200  0.433900  0.895300  1.0  0.01
  C  C92  1  0.319000  0.316600  0.021300  1.0  0.6101
  C  C93  1  0.334900  0.277300  0.140100  1.0  0.0082
  C  C94  1  0.409300  0.180500  0.188900  1.0  -0.2022
  C  C95  1  0.407000  0.141600  0.293000  1.0  0.1481
  C  C96  1  0.266100  0.288300  0.304900  1.0  0.1634
  C  C97  1  0.260500  0.330600  0.200000  1.0  -0.1937
  C  C98  1  0.789000  0.246800  0.617700  1.0  -0.2061
  N  N99  1  0.661700  0.804900  0.647600  1.0  -0.3186
  N  N100  1  0.698500  0.947800  0.360800  1.0  -0.3269
  N  N101  1  0.904100  0.050900  0.044800  1.0  -0.1676
  N  N102  1  0.577400  0.608900  0.991000  1.0  -0.1368
  N  N103  1  0.338300  0.195100  0.352400  1.0  -0.3167
  N  N104  1  0.301500  0.052200  0.639200  1.0  -0.3284
  N  N105  1  0.095900  0.949100  0.955200  1.0  -0.1645
  N  N106  1  0.422600  0.391100  0.009000  1.0  -0.1393
  O  O107  1  0.693900  0.714300  0.438100  1.0  -0.5933
  O  O108  1  0.919900  0.793900  0.517600  1.0  -0.5916
  O  O109  1  0.245500  0.966700  0.411000  1.0  -0.6211
  O  O110  1  0.432700  0.866700  0.417100  1.0  -0.6456
  O  O111  1  0.690500  0.130300  0.997900  1.0  -0.5616
  O  O112  1  0.789400  0.719200  0.059900  1.0  -0.5184
  O  O113  1  0.306100  0.285700  0.561900  1.0  -0.5927
  O  O114  1  0.080100  0.206100  0.482400  1.0  -0.5928
  O  O115  1  0.754500  0.033300  0.589000  1.0  -0.6215
  O  O116  1  0.567300  0.133300  0.582900  1.0  -0.6458
  O  O117  1  0.309500  0.869700  0.002100  1.0  -0.5626
  O  O118  1  0.210600  0.280800  0.940100  1.0  -0.5196
