# generated using pymatgen
data_V3(PO3)4
_symmetry_space_group_name_H-M   'P 1'
_cell_length_a   19.07660000
_cell_length_b   9.16570000
_cell_length_c   14.18060000
_cell_angle_alpha   90.00000000
_cell_angle_beta   90.00000000
_cell_angle_gamma   90.00000000
_symmetry_Int_Tables_number   1
_chemical_formula_structural   V3(PO3)4
_chemical_formula_sum   'V12 P16 O48'
_cell_volume   2479.48347759
_cell_formula_units_Z   4
loop_
 _symmetry_equiv_pos_site_id
 _symmetry_equiv_pos_as_xyz
  1  'x, y, z'
loop_
 _atom_site_type_symbol
 _atom_site_label
 _atom_site_symmetry_multiplicity
 _atom_site_fract_x
 _atom_site_fract_y
 _atom_site_fract_z
 _atom_site_occupancy
 _atom_site_charge
  V  V1  1  0.139160  0.230730  0.134490  1.0  1.3467
  V  V2  1  0.999580  0.716600  0.351350  1.0  1.3163
  V  V3  1  0.245560  0.753270  0.337420  1.0  1.3301
  V  V4  1  0.860840  0.769270  0.634490  1.0  1.3467
  V  V5  1  0.000420  0.283400  0.851350  1.0  1.3172
  V  V6  1  0.754440  0.246730  0.837420  1.0  1.3313
  V  V7  1  0.639160  0.269270  0.134490  1.0  1.3468
  V  V8  1  0.499580  0.783400  0.351350  1.0  1.3163
  V  V9  1  0.745560  0.746730  0.337420  1.0  1.3305
  V  V10  1  0.360840  0.730730  0.634490  1.0  1.3463
  V  V11  1  0.500420  0.216600  0.851350  1.0  1.3171
  V  V12  1  0.254440  0.253270  0.837420  1.0  1.3308
  P  P13  1  0.115680  0.925760  0.237660  1.0  0.9996
  P  P14  1  0.123930  0.063680  0.931630  1.0  0.8263
  P  P15  1  0.122410  0.529830  0.260830  1.0  1.015
  P  P16  1  0.136160  0.458030  0.950720  1.0  0.8562
  P  P17  1  0.884320  0.074240  0.737660  1.0  1.0001
  P  P18  1  0.876070  0.936320  0.431630  1.0  0.8398
  P  P19  1  0.877590  0.470170  0.760830  1.0  1.0148
  P  P20  1  0.863840  0.541970  0.450720  1.0  0.8442
  P  P21  1  0.615680  0.574240  0.237660  1.0  0.9995
  P  P22  1  0.623930  0.436320  0.931630  1.0  0.8379
  P  P23  1  0.622410  0.970170  0.260830  1.0  1.0145
  P  P24  1  0.636160  0.041970  0.950720  1.0  0.8445
  P  P25  1  0.384320  0.425760  0.737660  1.0  1.0003
  P  P26  1  0.376070  0.563680  0.431630  1.0  0.8278
  P  P27  1  0.377590  0.029830  0.760830  1.0  1.0153
  P  P28  1  0.363840  0.958030  0.450720  1.0  0.8559
  O  O29  1  0.099100  0.088500  0.226100  1.0  -0.6071
  O  O30  1  0.171900  0.902200  0.312200  1.0  -0.6492
  O  O31  1  0.048300  0.844200  0.257000  1.0  -0.6357
  O  O32  1  0.106400  0.100800  0.032200  1.0  -0.6445
  O  O33  1  0.198100  0.103700  0.904900  1.0  -0.6686
  O  O34  1  0.070600  0.122900  0.861500  1.0  -0.6568
  O  O35  1  0.140500  0.372200  0.241800  1.0  -0.6522
  O  O36  1  0.048000  0.543000  0.297500  1.0  -0.6091
  O  O37  1  0.175300  0.594500  0.328900  1.0  -0.6515
  O  O38  1  0.144900  0.399800  0.049700  1.0  -0.6545
  O  O39  1  0.063600  0.430600  0.912200  1.0  -0.6234
  O  O40  1  0.194900  0.414700  0.885600  1.0  -0.6396
  O  O41  1  0.900900  0.911500  0.726100  1.0  -0.6072
  O  O42  1  0.828100  0.097800  0.812200  1.0  -0.6486
  O  O43  1  0.951700  0.155800  0.757000  1.0  -0.6342
  O  O44  1  0.893600  0.899200  0.532200  1.0  -0.6441
  O  O45  1  0.801900  0.896300  0.404900  1.0  -0.6672
  O  O46  1  0.929400  0.877100  0.361500  1.0  -0.6557
  O  O47  1  0.859500  0.627800  0.741800  1.0  -0.6538
  O  O48  1  0.952000  0.457000  0.797500  1.0  -0.6101
  O  O49  1  0.824700  0.405500  0.828900  1.0  -0.6518
  O  O50  1  0.855100  0.600200  0.549700  1.0  -0.6541
  O  O51  1  0.936400  0.569400  0.412200  1.0  -0.6247
  O  O52  1  0.805100  0.585300  0.385600  1.0  -0.6394
  O  O53  1  0.599100  0.411500  0.226100  1.0  -0.6074
  O  O54  1  0.671900  0.597800  0.312200  1.0  -0.6497
  O  O55  1  0.548300  0.655800  0.257000  1.0  -0.6354
  O  O56  1  0.606400  0.399200  0.032200  1.0  -0.6448
  O  O57  1  0.698100  0.396300  0.904900  1.0  -0.6676
  O  O58  1  0.570600  0.377100  0.861500  1.0  -0.6567
  O  O59  1  0.640500  0.127800  0.241800  1.0  -0.653
  O  O60  1  0.548000  0.957000  0.297500  1.0  -0.6084
  O  O61  1  0.675300  0.905500  0.328900  1.0  -0.6511
  O  O62  1  0.644900  0.100200  0.049700  1.0  -0.6547
  O  O63  1  0.563600  0.069400  0.912200  1.0  -0.6231
  O  O64  1  0.694900  0.085300  0.885600  1.0  -0.6395
  O  O65  1  0.400900  0.588500  0.726100  1.0  -0.6069
  O  O66  1  0.328100  0.402200  0.812200  1.0  -0.649
  O  O67  1  0.451700  0.344200  0.757000  1.0  -0.6348
  O  O68  1  0.393600  0.600800  0.532200  1.0  -0.6443
  O  O69  1  0.301900  0.603700  0.404900  1.0  -0.6681
  O  O70  1  0.429400  0.622900  0.361500  1.0  -0.656
  O  O71  1  0.359500  0.872200  0.741800  1.0  -0.6529
  O  O72  1  0.452000  0.043000  0.797500  1.0  -0.6113
  O  O73  1  0.324700  0.094500  0.828900  1.0  -0.6523
  O  O74  1  0.355100  0.899800  0.549700  1.0  -0.6542
  O  O75  1  0.436400  0.930600  0.412200  1.0  -0.6237
  O  O76  1  0.305100  0.914700  0.385600  1.0  -0.6399
