# generated using pymatgen
data_Cd2H6C19(O4F3)2
_symmetry_space_group_name_H-M   'P 1'
_cell_length_a   7.72010000
_cell_length_b   23.25070000
_cell_length_c   23.25070000
_cell_angle_alpha   61.20840000
_cell_angle_beta   83.64550000
_cell_angle_gamma   96.35450000
_symmetry_Int_Tables_number   1
_chemical_formula_structural   Cd2H6C19(O4F3)2
_chemical_formula_sum   'Cd12 H36 C114 O48 F36'
_cell_volume   3570.03606190
_cell_formula_units_Z   6
loop_
 _symmetry_equiv_pos_site_id
 _symmetry_equiv_pos_as_xyz
  1  'x, y, z'
loop_
 _atom_site_type_symbol
 _atom_site_label
 _atom_site_symmetry_multiplicity
 _atom_site_fract_x
 _atom_site_fract_y
 _atom_site_fract_z
 _atom_site_occupancy
 _atom_site_charge
  Cd  Cd1  1  0.745630  0.524220  0.437160  1.0  1.0487
  Cd  Cd2  1  0.182970  0.478280  0.400880  1.0  1.0585
  Cd  Cd3  1  0.182790  0.437160  0.038620  1.0  1.0482
  Cd  Cd4  1  0.583850  0.400880  0.120840  1.0  1.0599
  Cd  Cd5  1  0.221410  0.038620  0.524220  1.0  1.0487
  Cd  Cd6  1  0.704690  0.120840  0.478280  1.0  1.0647
  Cd  Cd7  1  0.254370  0.475780  0.562840  1.0  1.0487
  Cd  Cd8  1  0.817030  0.521720  0.599120  1.0  1.0578
  Cd  Cd9  1  0.817210  0.562840  0.961380  1.0  1.0481
  Cd  Cd10  1  0.416150  0.599120  0.879160  1.0  1.0661
  Cd  Cd11  1  0.778590  0.961380  0.475780  1.0  1.0497
  Cd  Cd12  1  0.295310  0.879160  0.521720  1.0  1.0599
  H  H13  1  0.536700  0.704200  0.298300  1.0  0.1152
  H  H14  1  0.397700  0.792100  0.241900  1.0  0.1251
  H  H15  1  0.969700  0.700400  0.390200  1.0  0.1282
  H  H16  1  0.115000  0.830100  0.375900  1.0  0.1306
  H  H17  1  0.525900  0.832200  0.359400  1.0  0.1288
  H  H18  1  0.714100  0.819700  0.284200  1.0  0.1088
  H  H19  1  0.835000  0.298300  0.997500  1.0  0.1157
  H  H20  1  0.639600  0.241900  0.966000  1.0  0.1262
  H  H21  1  0.359900  0.390200  0.909400  1.0  0.1294
  H  H22  1  0.490900  0.375900  0.794000  1.0  0.1317
  H  H23  1  0.885300  0.359400  0.808400  1.0  0.1286
  H  H24  1  0.998300  0.284200  0.896100  1.0  0.108
  H  H25  1  0.832500  0.997500  0.704200  1.0  0.1151
  H  H26  1  0.605600  0.966000  0.792100  1.0  0.1272
  H  H27  1  0.269300  0.909400  0.700400  1.0  0.1287
  H  H28  1  0.284900  0.794000  0.830100  1.0  0.1327
  H  H29  1  0.693700  0.808400  0.832200  1.0  0.1286
  H  H30  1  0.894400  0.896100  0.819700  1.0  0.108
  H  H31  1  0.463300  0.295800  0.701700  1.0  0.1154
  H  H32  1  0.602300  0.207900  0.758100  1.0  0.1251
  H  H33  1  0.030300  0.299600  0.609800  1.0  0.129
  H  H34  1  0.885000  0.169900  0.624100  1.0  0.1314
  H  H35  1  0.474100  0.167800  0.640600  1.0  0.1281
  H  H36  1  0.285900  0.180300  0.715800  1.0  0.1095
  H  H37  1  0.165000  0.701700  0.002500  1.0  0.1151
  H  H38  1  0.360400  0.758100  0.034000  1.0  0.1264
  H  H39  1  0.640100  0.609800  0.090600  1.0  0.129
  H  H40  1  0.509100  0.624100  0.206000  1.0  0.1311
  H  H41  1  0.114700  0.640600  0.191600  1.0  0.1282
  H  H42  1  0.001700  0.715800  0.103900  1.0  0.1083
  H  H43  1  0.167500  0.002500  0.295800  1.0  0.1155
  H  H44  1  0.394400  0.034000  0.207900  1.0  0.1283
  H  H45  1  0.730700  0.090600  0.299600  1.0  0.128
  H  H46  1  0.715100  0.206000  0.169900  1.0  0.1318
  H  H47  1  0.306300  0.191600  0.167800  1.0  0.1282
  H  H48  1  0.105600  0.103900  0.180300  1.0  0.1078
  C  C49  1  0.344430  0.650910  0.379920  1.0  -0.0909
  C  C50  1  0.424300  0.704020  0.317620  1.0  -0.0141
  C  C51  1  0.340710  0.756690  0.283560  1.0  -0.122
  C  C52  1  0.172180  0.649960  0.407620  1.0  -0.0492
  C  C53  1  0.085680  0.702200  0.372560  1.0  -0.0536
  C  C54  1  0.170800  0.757450  0.311050  1.0  0.073
  C  C55  1  0.444810  0.595480  0.413350  1.0  0.7045
  C  C56  1  0.081800  0.596590  0.476590  1.0  0.6877
  C  C57  1  0.073610  0.815020  0.273490  1.0  -0.2476
  C  C58  1  0.205920  0.882970  0.231610  1.0  0.6881
  C  C59  1  0.986100  0.800320  0.224320  1.0  0.7089
  C  C60  1  0.936020  0.823480  0.321520  1.0  0.059
  C  C61  1  0.997120  0.831850  0.371590  1.0  -0.0812
  C  C62  1  0.886080  0.842840  0.415700  1.0  -0.1028
  C  C63  1  0.707210  0.843220  0.411790  1.0  -0.0061
  C  C64  1  0.645420  0.833240  0.362180  1.0  -0.0648
  C  C65  1  0.758060  0.824710  0.317530  1.0  -0.1355
  C  C66  1  0.967580  0.854130  0.466290  1.0  0.7194
  C  C67  1  0.572060  0.853000  0.456820  1.0  0.7024
  C  C68  1  0.724350  0.379920  0.969170  1.0  -0.097
  C  C69  1  0.741920  0.317620  0.978360  1.0  -0.0128
  C  C70  1  0.624270  0.283560  0.959750  1.0  -0.1237
  C  C71  1  0.579800  0.407620  0.942420  1.0  -0.0476
  C  C72  1  0.458240  0.372560  0.925240  1.0  -0.0543
  C  C73  1  0.481850  0.311050  0.931500  1.0  0.0718
  C  C74  1  0.858160  0.413350  0.991170  1.0  0.7031
  C  C75  1  0.558390  0.476590  0.926820  1.0  0.6834
  C  C76  1  0.347100  0.273490  0.911490  1.0  -0.2473
  C  C77  1  0.437530  0.231610  0.885420  1.0  0.6979
  C  C78  1  0.210420  0.224320  0.975360  1.0  0.7093
  C  C79  1  0.257540  0.321520  0.855000  1.0  0.0602
  C  C80  1  0.368710  0.371590  0.796560  1.0  -0.0835
  C  C81  1  0.301780  0.415700  0.741460  1.0  -0.1065
  C  C82  1  0.119000  0.411790  0.744990  1.0  -0.0073
  C  C83  1  0.007600  0.362180  0.804580  1.0  -0.066
  C  C84  1  0.075590  0.317530  0.857760  1.0  -0.1361
  C  C85  1  0.433870  0.466290  0.679580  1.0  0.7187
  C  C86  1  0.028880  0.456820  0.690180  1.0  0.6996
  C  C87  1  0.693520  0.969170  0.650910  1.0  -0.0926
  C  C88  1  0.720280  0.978360  0.704020  1.0  -0.0136
  C  C89  1  0.584020  0.959750  0.756690  1.0  -0.1241
  C  C90  1  0.522220  0.942420  0.649960  1.0  -0.0434
  C  C91  1  0.383480  0.925240  0.702200  1.0  -0.0509
  C  C92  1  0.413350  0.931500  0.757450  1.0  0.0719
  C  C93  1  0.849330  0.991170  0.595480  1.0  0.704
  C  C94  1  0.485210  0.926820  0.596590  1.0  0.6861
  C  C95  1  0.258590  0.911490  0.815020  1.0  -0.245
  C  C96  1  0.322950  0.885420  0.882970  1.0  0.6973
  C  C97  1  0.185780  0.975360  0.800320  1.0  0.7081
  C  C98  1  0.112540  0.855000  0.823480  1.0  0.0604
  C  C99  1  0.165270  0.796560  0.831850  1.0  -0.0837
  C  C100  1  0.043240  0.741460  0.842840  1.0  -0.1047
  C  C101  1  0.863990  0.744990  0.843220  1.0  -0.0041
  C  C102  1  0.812180  0.804580  0.833240  1.0  -0.0578
  C  C103  1  0.933350  0.857760  0.824710  1.0  -0.1356
  C  C104  1  0.113450  0.679580  0.854130  1.0  0.7161
  C  C105  1  0.719060  0.690180  0.853000  1.0  0.7027
  C  C106  1  0.655570  0.349090  0.620080  1.0  -0.0908
  C  C107  1  0.575700  0.295980  0.682380  1.0  -0.0125
  C  C108  1  0.659290  0.243310  0.716440  1.0  -0.1233
  C  C109  1  0.827820  0.350040  0.592380  1.0  -0.0426
  C  C110  1  0.914320  0.297800  0.627440  1.0  -0.0536
  C  C111  1  0.829200  0.242550  0.688950  1.0  0.0727
  C  C112  1  0.555190  0.404520  0.586650  1.0  0.7033
  C  C113  1  0.918200  0.403410  0.523410  1.0  0.6858
  C  C114  1  0.926390  0.184980  0.726510  1.0  -0.2466
  C  C115  1  0.794080  0.117030  0.768390  1.0  0.6987
  C  C116  1  0.013900  0.199680  0.775680  1.0  0.7104
  C  C117  1  0.063980  0.176520  0.678480  1.0  0.0597
  C  C118  1  0.002880  0.168150  0.628410  1.0  -0.0812
  C  C119  1  0.113920  0.157160  0.584300  1.0  -0.102
  C  C120  1  0.292790  0.156780  0.588210  1.0  -0.0057
  C  C121  1  0.354580  0.166760  0.637820  1.0  -0.0598
  C  C122  1  0.241940  0.175290  0.682470  1.0  -0.1375
  C  C123  1  0.032420  0.145870  0.533710  1.0  0.7192
  C  C124  1  0.427940  0.147000  0.543180  1.0  0.7028
  C  C125  1  0.275650  0.620080  0.030830  1.0  -0.0975
  C  C126  1  0.258080  0.682380  0.021640  1.0  -0.0119
  C  C127  1  0.375730  0.716440  0.040250  1.0  -0.1219
  C  C128  1  0.420200  0.592380  0.057580  1.0  -0.0445
  C  C129  1  0.541760  0.627440  0.074760  1.0  -0.0556
  C  C130  1  0.518150  0.688950  0.068500  1.0  0.0724
  C  C131  1  0.141840  0.586650  0.008830  1.0  0.7027
  C  C132  1  0.441610  0.523410  0.073180  1.0  0.6807
  C  C133  1  0.652900  0.726510  0.088510  1.0  -0.2477
  C  C134  1  0.562470  0.768390  0.114580  1.0  0.694
  C  C135  1  0.789580  0.775680  0.024640  1.0  0.7096
  C  C136  1  0.742460  0.678480  0.145000  1.0  0.0613
  C  C137  1  0.631290  0.628410  0.203440  1.0  -0.0815
  C  C138  1  0.698220  0.584300  0.258540  1.0  -0.1057
  C  C139  1  0.881000  0.588210  0.255010  1.0  -0.0064
  C  C140  1  0.992400  0.637820  0.195420  1.0  -0.0602
  C  C141  1  0.924410  0.682470  0.142240  1.0  -0.1367
  C  C142  1  0.566130  0.533710  0.320420  1.0  0.7172
  C  C143  1  0.971120  0.543180  0.309820  1.0  0.7028
  C  C144  1  0.306480  0.030830  0.349090  1.0  -0.0929
  C  C145  1  0.279720  0.021640  0.295980  1.0  -0.0132
  C  C146  1  0.415980  0.040250  0.243310  1.0  -0.1244
  C  C147  1  0.477780  0.057580  0.350040  1.0  -0.0462
  C  C148  1  0.616520  0.074760  0.297800  1.0  -0.0541
  C  C149  1  0.586650  0.068500  0.242550  1.0  0.0718
  C  C150  1  0.150670  0.008830  0.404520  1.0  0.7034
  C  C151  1  0.514790  0.073180  0.403410  1.0  0.6829
  C  C152  1  0.741410  0.088510  0.184980  1.0  -0.247
  C  C153  1  0.677050  0.114580  0.117030  1.0  0.6964
  C  C154  1  0.814220  0.024640  0.199680  1.0  0.7094
  C  C155  1  0.887460  0.145000  0.176520  1.0  0.061
  C  C156  1  0.834730  0.203440  0.168150  1.0  -0.0832
  C  C157  1  0.956760  0.258540  0.157160  1.0  -0.1032
  C  C158  1  0.136010  0.255010  0.156780  1.0  -0.0016
  C  C159  1  0.187820  0.195420  0.166760  1.0  -0.0627
  C  C160  1  0.066650  0.142240  0.175290  1.0  -0.1364
  C  C161  1  0.886550  0.320420  0.145870  1.0  0.7226
  C  C162  1  0.280940  0.309820  0.147000  1.0  0.7053
  O  O163  1  0.608830  0.610500  0.402210  1.0  -0.5564
  O  O164  1  0.358750  0.535070  0.449120  1.0  -0.7396
  O  O165  1  0.164620  0.580650  0.523590  1.0  -0.6645
  O  O166  1  0.919940  0.570440  0.485720  1.0  -0.6893
  O  O167  1  0.871990  0.863440  0.507370  1.0  -0.6494
  O  O168  1  0.130090  0.852820  0.464050  1.0  -0.5907
  O  O169  1  0.464100  0.803910  0.501810  1.0  -0.5492
  O  O170  1  0.562890  0.912510  0.443940  1.0  -0.6875
  O  O171  1  0.011040  0.402210  0.987290  1.0  -0.5572
  O  O172  1  0.807870  0.449120  0.015810  1.0  -0.7378
  O  O173  1  0.688210  0.523590  0.895760  1.0  -0.6625
  O  O174  1  0.405660  0.485720  0.943840  1.0  -0.6898
  O  O175  1  0.379360  0.507370  0.629190  1.0  -0.6476
  O  O176  1  0.594140  0.464050  0.683130  1.0  -0.587
  O  O177  1  0.965910  0.501810  0.694280  1.0  -0.5498
  O  O178  1  0.006830  0.443940  0.643550  1.0  -0.691
  O  O179  1  0.998330  0.987290  0.610500  1.0  -0.5582
  O  O180  1  0.823680  0.015810  0.535070  1.0  -0.7391
  O  O181  1  0.583970  0.895760  0.580650  1.0  -0.6605
  O  O182  1  0.349500  0.943840  0.570440  1.0  -0.6892
  O  O183  1  0.008550  0.629190  0.863440  1.0  -0.6511
  O  O184  1  0.277270  0.683130  0.852820  1.0  -0.5869
  O  O185  1  0.660190  0.694280  0.803910  1.0  -0.5534
  O  O186  1  0.650380  0.643550  0.912510  1.0  -0.6908
  O  O187  1  0.391170  0.389500  0.597790  1.0  -0.5562
  O  O188  1  0.641250  0.464930  0.550880  1.0  -0.7373
  O  O189  1  0.835380  0.419350  0.476410  1.0  -0.6621
  O  O190  1  0.080060  0.429560  0.514280  1.0  -0.6867
  O  O191  1  0.128010  0.136560  0.492630  1.0  -0.6529
  O  O192  1  0.869910  0.147180  0.535950  1.0  -0.5883
  O  O193  1  0.535900  0.196090  0.498190  1.0  -0.5464
  O  O194  1  0.437110  0.087490  0.556060  1.0  -0.6879
  O  O195  1  0.988960  0.597790  0.012710  1.0  -0.555
  O  O196  1  0.192130  0.550880  0.984190  1.0  -0.7407
  O  O197  1  0.311790  0.476410  0.104240  1.0  -0.6624
  O  O198  1  0.594340  0.514280  0.056160  1.0  -0.6871
  O  O199  1  0.620640  0.492630  0.370810  1.0  -0.6491
  O  O200  1  0.405860  0.535950  0.316870  1.0  -0.5874
  O  O201  1  0.034090  0.498190  0.305720  1.0  -0.5461
  O  O202  1  0.993170  0.556060  0.356450  1.0  -0.6894
  O  O203  1  0.001670  0.012710  0.389500  1.0  -0.557
  O  O204  1  0.176320  0.984190  0.464930  1.0  -0.7371
  O  O205  1  0.416030  0.104240  0.419350  1.0  -0.6613
  O  O206  1  0.650500  0.056160  0.429560  1.0  -0.6861
  O  O207  1  0.991450  0.370810  0.136560  1.0  -0.6514
  O  O208  1  0.722730  0.316870  0.147180  1.0  -0.5864
  O  O209  1  0.339810  0.305720  0.196090  1.0  -0.5535
  O  O210  1  0.349620  0.356450  0.087490  1.0  -0.6906
  F  F211  1  0.122810  0.934490  0.212360  1.0  -0.1775
  F  F212  1  0.301620  0.890350  0.176590  1.0  -0.1815
  F  F213  1  0.320870  0.890030  0.268220  1.0  -0.1826
  F  F214  1  0.911360  0.850300  0.183820  1.0  -0.1752
  F  F215  1  0.100660  0.788710  0.185530  1.0  -0.1926
  F  F216  1  0.858770  0.745220  0.257810  1.0  -0.1891
  F  F217  1  0.335170  0.212360  0.853150  1.0  -0.1786
  F  F218  1  0.478210  0.176590  0.933060  1.0  -0.1825
  F  F219  1  0.589090  0.268220  0.841750  1.0  -0.1798
  F  F220  1  0.095180  0.183820  0.965880  1.0  -0.1916
  F  F221  1  0.286190  0.185530  0.025760  1.0  -0.1911
  F  F222  1  0.116580  0.257810  0.996970  1.0  -0.1902
  F  F223  1  0.188320  0.853150  0.934490  1.0  -0.1761
  F  F224  1  0.411270  0.933060  0.890350  1.0  -0.1841
  F  F225  1  0.430840  0.841750  0.890030  1.0  -0.1798
  F  F226  1  0.061060  0.965880  0.850300  1.0  -0.1859
  F  F227  1  0.311950  0.025760  0.788710  1.0  -0.1916
  F  F228  1  0.113550  0.996970  0.745220  1.0  -0.1918
  F  F229  1  0.877190  0.065510  0.787640  1.0  -0.177
  F  F230  1  0.698380  0.109650  0.823410  1.0  -0.1838
  F  F231  1  0.679130  0.109970  0.731780  1.0  -0.1807
  F  F232  1  0.088640  0.149700  0.816180  1.0  -0.1774
  F  F233  1  0.899340  0.211290  0.814470  1.0  -0.1923
  F  F234  1  0.141230  0.254780  0.742190  1.0  -0.1898
  F  F235  1  0.664830  0.787640  0.146850  1.0  -0.1786
  F  F236  1  0.521790  0.823410  0.066940  1.0  -0.179
  F  F237  1  0.410910  0.731780  0.158250  1.0  -0.1794
  F  F238  1  0.904820  0.816180  0.034120  1.0  -0.1892
  F  F239  1  0.713810  0.814470  0.974240  1.0  -0.1906
  F  F240  1  0.883420  0.742190  0.003030  1.0  -0.1896
  F  F241  1  0.811680  0.146850  0.065510  1.0  -0.178
  F  F242  1  0.588730  0.066940  0.109650  1.0  -0.1844
  F  F243  1  0.569160  0.158250  0.109970  1.0  -0.1786
  F  F244  1  0.938940  0.034120  0.149700  1.0  -0.1878
  F  F245  1  0.688050  0.974240  0.211290  1.0  -0.1907
  F  F246  1  0.886450  0.003030  0.254780  1.0  -0.1902
