# generated using pymatgen
data_Nd2H6C18(SO4)3
_symmetry_space_group_name_H-M   'P 1'
_cell_length_a   17.24890000
_cell_length_b   11.75390000
_cell_length_c   17.75270000
_cell_angle_alpha   90.00000000
_cell_angle_beta   105.38400000
_cell_angle_gamma   90.00000000
_symmetry_Int_Tables_number   1
_chemical_formula_structural   Nd2H6C18(SO4)3
_chemical_formula_sum   'Nd8 H24 C72 S12 O48'
_cell_volume   3470.25357141
_cell_formula_units_Z   4
loop_
 _symmetry_equiv_pos_site_id
 _symmetry_equiv_pos_as_xyz
  1  'x, y, z'
loop_
 _atom_site_type_symbol
 _atom_site_label
 _atom_site_symmetry_multiplicity
 _atom_site_fract_x
 _atom_site_fract_y
 _atom_site_fract_z
 _atom_site_occupancy
 _atom_site_charge
  Nd  Nd1  1  0.512470  0.102890  0.914610  1.0  2.3152
  Nd  Nd2  1  0.486820  0.062220  0.611850  1.0  2.2879
  Nd  Nd3  1  0.987530  0.602890  0.585390  1.0  2.316
  Nd  Nd4  1  0.013180  0.562220  0.888150  1.0  2.2871
  Nd  Nd5  1  0.487530  0.897110  0.085390  1.0  2.3156
  Nd  Nd6  1  0.513180  0.937780  0.388150  1.0  2.2867
  Nd  Nd7  1  0.012470  0.397110  0.414610  1.0  2.3147
  Nd  Nd8  1  0.986820  0.437780  0.111850  1.0  2.2881
  H  H9  1  0.792600  0.445800  0.586700  1.0  0.0941
  H  H10  1  0.313500  0.293900  0.822600  1.0  0.1116
  H  H11  1  0.666800  0.356300  0.592900  1.0  0.1189
  H  H12  1  0.188800  0.398700  0.766200  1.0  0.1064
  H  H13  1  0.776100  0.732500  0.790800  1.0  0.1121
  H  H14  1  0.662000  0.849600  0.721900  1.0  0.1049
  H  H15  1  0.707400  0.945800  0.913300  1.0  0.0944
  H  H16  1  0.186500  0.793900  0.677400  1.0  0.1119
  H  H17  1  0.833200  0.856300  0.907100  1.0  0.1193
  H  H18  1  0.311200  0.898700  0.733800  1.0  0.1064
  H  H19  1  0.723900  0.232500  0.709200  1.0  0.1126
  H  H20  1  0.838000  0.349600  0.778100  1.0  0.1046
  H  H21  1  0.207400  0.554200  0.413300  1.0  0.0939
  H  H22  1  0.686500  0.706100  0.177400  1.0  0.1133
  H  H23  1  0.333200  0.643700  0.407100  1.0  0.1187
  H  H24  1  0.811200  0.601300  0.233800  1.0  0.1056
  H  H25  1  0.223900  0.267500  0.209200  1.0  0.1124
  H  H26  1  0.338000  0.150400  0.278100  1.0  0.1043
  H  H27  1  0.292600  0.054200  0.086700  1.0  0.0945
  H  H28  1  0.813500  0.206100  0.322600  1.0  0.1132
  H  H29  1  0.166800  0.143700  0.092900  1.0  0.1188
  H  H30  1  0.688800  0.101300  0.266200  1.0  0.1068
  H  H31  1  0.276100  0.767500  0.290800  1.0  0.1117
  H  H32  1  0.162000  0.650400  0.221900  1.0  0.1046
  C  C33  1  0.680200  0.801000  0.617700  1.0  -0.2056
  C  C34  1  0.795000  0.684600  0.687000  1.0  -0.2036
  C  C35  1  0.619000  0.862600  0.556800  1.0  0.754
  C  C36  1  0.105300  0.367500  0.607900  1.0  0.7651
  C  C37  1  0.803800  0.330900  0.505000  1.0  -0.1915
  C  C38  1  0.868100  0.611500  0.711100  1.0  0.7311
  C  C39  1  0.376900  0.142900  0.730300  1.0  0.7601
  C  C40  1  0.676900  0.240800  0.510700  1.0  -0.2076
  C  C41  1  0.881200  0.354500  0.486200  1.0  0.7471
  C  C42  1  0.607200  0.162100  0.499900  1.0  0.8035
  C  C43  1  0.178300  0.318200  0.661900  1.0  -0.2102
  C  C44  1  0.770200  0.383100  0.556900  1.0  -0.0498
  C  C45  1  0.303400  0.213600  0.719200  1.0  -0.2156
  C  C46  1  0.283100  0.285500  0.771200  1.0  -0.05
  C  C47  1  0.697500  0.331400  0.560300  1.0  -0.0766
  C  C48  1  0.211100  0.346300  0.738700  1.0  -0.0837
  C  C49  1  0.759100  0.739100  0.736700  1.0  -0.0666
  C  C50  1  0.693100  0.806500  0.697000  1.0  -0.0681
  C  C51  1  0.819800  0.301000  0.882300  1.0  -0.2048
  C  C52  1  0.705000  0.184600  0.813000  1.0  -0.2038
  C  C53  1  0.881000  0.362600  0.943200  1.0  0.7548
  C  C54  1  0.394700  0.867500  0.892100  1.0  0.7646
  C  C55  1  0.696200  0.830900  0.995000  1.0  -0.1919
  C  C56  1  0.631900  0.111500  0.788900  1.0  0.73
  C  C57  1  0.123100  0.642900  0.769700  1.0  0.7598
  C  C58  1  0.823100  0.740800  0.989300  1.0  -0.2072
  C  C59  1  0.618800  0.854500  0.013800  1.0  0.7461
  C  C60  1  0.892800  0.662100  0.000100  1.0  0.8035
  C  C61  1  0.321700  0.818200  0.838100  1.0  -0.2091
  C  C62  1  0.729800  0.883100  0.943100  1.0  -0.0497
  C  C63  1  0.196600  0.713600  0.780800  1.0  -0.2154
  C  C64  1  0.216900  0.785500  0.728800  1.0  -0.0484
  C  C65  1  0.802500  0.831400  0.939700  1.0  -0.0757
  C  C66  1  0.288900  0.846300  0.761300  1.0  -0.0833
  C  C67  1  0.740900  0.239100  0.763300  1.0  -0.0676
  C  C68  1  0.806900  0.306500  0.803000  1.0  -0.0686
  C  C69  1  0.319800  0.199000  0.382300  1.0  -0.205
  C  C70  1  0.205000  0.315400  0.313000  1.0  -0.2037
  C  C71  1  0.381000  0.137400  0.443200  1.0  0.7541
  C  C72  1  0.894700  0.632500  0.392100  1.0  0.7655
  C  C73  1  0.196200  0.669100  0.495000  1.0  -0.1931
  C  C74  1  0.131900  0.388500  0.288900  1.0  0.7309
  C  C75  1  0.623100  0.857100  0.269700  1.0  0.7603
  C  C76  1  0.323100  0.759200  0.489300  1.0  -0.2073
  C  C77  1  0.118800  0.645500  0.513800  1.0  0.745
  C  C78  1  0.392800  0.837900  0.500100  1.0  0.8039
  C  C79  1  0.821700  0.681800  0.338100  1.0  -0.2104
  C  C80  1  0.229800  0.616900  0.443100  1.0  -0.0496
  C  C81  1  0.696600  0.786400  0.280800  1.0  -0.2151
  C  C82  1  0.716900  0.714500  0.228800  1.0  -0.0486
  C  C83  1  0.302500  0.668600  0.439700  1.0  -0.0753
  C  C84  1  0.788900  0.653700  0.261300  1.0  -0.0832
  C  C85  1  0.240900  0.260900  0.263300  1.0  -0.0676
  C  C86  1  0.306900  0.193500  0.303000  1.0  -0.0689
  C  C87  1  0.180200  0.699000  0.117700  1.0  -0.2047
  C  C88  1  0.295000  0.815400  0.187000  1.0  -0.2031
  C  C89  1  0.119000  0.637400  0.056800  1.0  0.7536
  C  C90  1  0.605300  0.132500  0.107900  1.0  0.7656
  C  C91  1  0.303800  0.169100  0.005000  1.0  -0.1913
  C  C92  1  0.368100  0.888500  0.211100  1.0  0.7315
  C  C93  1  0.876900  0.357100  0.230300  1.0  0.7606
  C  C94  1  0.176900  0.259200  0.010700  1.0  -0.2069
  C  C95  1  0.381200  0.145500  0.986200  1.0  0.7462
  C  C96  1  0.107200  0.337900  0.999900  1.0  0.8039
  C  C97  1  0.678300  0.181800  0.161900  1.0  -0.2097
  C  C98  1  0.270200  0.116900  0.056900  1.0  -0.0495
  C  C99  1  0.803400  0.286400  0.219200  1.0  -0.2145
  C  C100  1  0.783100  0.214500  0.271200  1.0  -0.0497
  C  C101  1  0.197500  0.168600  0.060300  1.0  -0.0763
  C  C102  1  0.711100  0.153700  0.238700  1.0  -0.0836
  C  C103  1  0.259100  0.760900  0.236700  1.0  -0.0664
  C  C104  1  0.193100  0.693500  0.197000  1.0  -0.0683
  S  S105  1  0.745970  0.218790  0.458410  1.0  0.1669
  S  S106  1  0.748460  0.713780  0.591360  1.0  0.1555
  S  S107  1  0.234050  0.217900  0.628710  1.0  0.151
  S  S108  1  0.754030  0.718790  0.041590  1.0  0.1652
  S  S109  1  0.751540  0.213780  0.908640  1.0  0.1535
  S  S110  1  0.265950  0.717900  0.871290  1.0  0.1514
  S  S111  1  0.254030  0.781210  0.541590  1.0  0.166
  S  S112  1  0.251540  0.286220  0.408640  1.0  0.1529
  S  S113  1  0.765950  0.782100  0.371290  1.0  0.1523
  S  S114  1  0.245970  0.281210  0.958410  1.0  0.167
  S  S115  1  0.248460  0.786220  0.091360  1.0  0.1552
  S  S116  1  0.734050  0.282100  0.128710  1.0  0.1503
  O  O117  1  0.429700  0.155500  0.794000  1.0  -0.7154
  O  O118  1  0.574300  0.933400  0.579800  1.0  -0.7753
  O  O119  1  0.920000  0.444400  0.511300  1.0  -0.8533
  O  O120  1  0.897200  0.595600  0.781500  1.0  -0.7298
  O  O121  1  0.894900  0.568800  0.656300  1.0  -0.6811
  O  O122  1  0.068400  0.443600  0.635100  1.0  -0.7029
  O  O123  1  0.906200  0.283900  0.445000  1.0  -0.6861
  O  O124  1  0.563900  0.173800  0.546100  1.0  -0.7144
  O  O125  1  0.616100  0.843600  0.486600  1.0  -0.6326
  O  O126  1  0.085800  0.330600  0.538800  1.0  -0.7684
  O  O127  1  0.598700  0.089900  0.445900  1.0  -0.7326
  O  O128  1  0.381300  0.077300  0.675800  1.0  -0.6674
  O  O129  1  0.070300  0.655500  0.706000  1.0  -0.7145
  O  O130  1  0.925700  0.433400  0.920200  1.0  -0.7747
  O  O131  1  0.580000  0.944400  0.988700  1.0  -0.8532
  O  O132  1  0.602800  0.095600  0.718500  1.0  -0.7301
  O  O133  1  0.605100  0.068800  0.843700  1.0  -0.6818
  O  O134  1  0.431600  0.943600  0.864900  1.0  -0.7055
  O  O135  1  0.593800  0.783900  0.055000  1.0  -0.6863
  O  O136  1  0.936100  0.673800  0.953900  1.0  -0.7133
  O  O137  1  0.883900  0.343600  0.013400  1.0  -0.6315
  O  O138  1  0.414200  0.830600  0.961200  1.0  -0.7683
  O  O139  1  0.901300  0.589900  0.054100  1.0  -0.7282
  O  O140  1  0.118700  0.577300  0.824200  1.0  -0.666
  O  O141  1  0.570300  0.844500  0.206000  1.0  -0.7146
  O  O142  1  0.425700  0.066600  0.420200  1.0  -0.7748
  O  O143  1  0.080000  0.555600  0.488700  1.0  -0.8529
  O  O144  1  0.102800  0.404400  0.218500  1.0  -0.7306
  O  O145  1  0.105100  0.431200  0.343700  1.0  -0.681
  O  O146  1  0.931600  0.556400  0.364900  1.0  -0.7059
  O  O147  1  0.093800  0.716100  0.555000  1.0  -0.6867
  O  O148  1  0.436100  0.826200  0.453900  1.0  -0.714
  O  O149  1  0.383900  0.156400  0.513400  1.0  -0.6321
  O  O150  1  0.914200  0.669400  0.461200  1.0  -0.7702
  O  O151  1  0.401300  0.910100  0.554100  1.0  -0.7272
  O  O152  1  0.618700  0.922700  0.324200  1.0  -0.666
  O  O153  1  0.929700  0.344500  0.294000  1.0  -0.7151
  O  O154  1  0.074300  0.566600  0.079800  1.0  -0.7758
  O  O155  1  0.420000  0.055600  0.011300  1.0  -0.8529
  O  O156  1  0.397200  0.904400  0.281500  1.0  -0.7293
  O  O157  1  0.394900  0.931200  0.156300  1.0  -0.6812
  O  O158  1  0.568400  0.056400  0.135100  1.0  -0.7037
  O  O159  1  0.406200  0.216100  0.945000  1.0  -0.6864
  O  O160  1  0.063900  0.326200  0.046100  1.0  -0.7138
  O  O161  1  0.116100  0.656400  0.986600  1.0  -0.6316
  O  O162  1  0.585800  0.169400  0.038800  1.0  -0.7711
  O  O163  1  0.098700  0.410100  0.945900  1.0  -0.7318
  O  O164  1  0.881300  0.422700  0.175800  1.0  -0.6667
