# generated using pymatgen
data_CdH14C24S(NO)4
_symmetry_space_group_name_H-M   'P 1'
_cell_length_a   16.08500000
_cell_length_b   16.08490000
_cell_length_c   20.24600000
_cell_angle_alpha   90.00000000
_cell_angle_beta   90.00000000
_cell_angle_gamma   90.00000000
_symmetry_Int_Tables_number   1
_chemical_formula_structural   CdH14C24S(NO)4
_chemical_formula_sum   'Cd8 H112 C192 S8 N32 O32'
_cell_volume   5238.15883166
_cell_formula_units_Z   8
loop_
 _symmetry_equiv_pos_site_id
 _symmetry_equiv_pos_as_xyz
  1  'x, y, z'
loop_
 _atom_site_type_symbol
 _atom_site_label
 _atom_site_symmetry_multiplicity
 _atom_site_fract_x
 _atom_site_fract_y
 _atom_site_fract_z
 _atom_site_occupancy
 _atom_site_charge
  Cd  Cd1  1  0.912920  0.616530  0.320930  1.0  1.0196
  Cd  Cd2  1  0.087080  0.616530  0.179070  1.0  1.019
  Cd  Cd3  1  0.412920  0.616530  0.679070  1.0  1.0197
  Cd  Cd4  1  0.587080  0.616530  0.820930  1.0  1.0192
  Cd  Cd5  1  0.587080  0.383470  0.320930  1.0  1.0192
  Cd  Cd6  1  0.412920  0.383470  0.179070  1.0  1.0197
  Cd  Cd7  1  0.087080  0.383470  0.679070  1.0  1.0188
  Cd  Cd8  1  0.912920  0.383470  0.820930  1.0  1.0196
  H  H9  1  0.813400  0.462500  0.277100  1.0  0.0781
  H  H10  1  0.808000  0.320600  0.272300  1.0  0.1151
  H  H11  1  0.033100  0.313900  0.357000  1.0  0.1267
  H  H12  1  0.031900  0.456000  0.359100  1.0  0.0803
  H  H13  1  0.974400  0.044000  0.396000  1.0  0.1184
  H  H14  1  0.977300  0.187300  0.396300  1.0  0.1105
  H  H15  1  0.029000  0.919400  0.355300  1.0  0.1371
  H  H16  1  0.805300  0.915200  0.268400  1.0  0.1185
  H  H17  1  0.810300  0.773000  0.271500  1.0  0.0727
  H  H18  1  0.026800  0.777200  0.355600  1.0  0.0873
  H  H19  1  0.292400  0.624400  0.342900  1.0  0.0965
  H  H20  1  0.369500  0.626600  0.438800  1.0  0.1087
  H  H21  1  0.162400  0.605800  0.545500  1.0  0.0948
  H  H22  1  0.084000  0.606200  0.449300  1.0  0.1067
  H  H23  1  0.186600  0.462500  0.222900  1.0  0.0782
  H  H24  1  0.192000  0.320600  0.227700  1.0  0.1153
  H  H25  1  0.966900  0.313900  0.143000  1.0  0.1263
  H  H26  1  0.968100  0.456000  0.140900  1.0  0.08
  H  H27  1  0.025600  0.044000  0.104000  1.0  0.1195
  H  H28  1  0.022700  0.187300  0.103700  1.0  0.1108
  H  H29  1  0.971000  0.919400  0.144700  1.0  0.1376
  H  H30  1  0.194700  0.915200  0.231600  1.0  0.1181
  H  H31  1  0.189700  0.773000  0.228500  1.0  0.073
  H  H32  1  0.973200  0.777200  0.144400  1.0  0.0869
  H  H33  1  0.707600  0.624400  0.157100  1.0  0.0963
  H  H34  1  0.630500  0.626600  0.061200  1.0  0.1106
  H  H35  1  0.837600  0.605800  0.954500  1.0  0.0952
  H  H36  1  0.916000  0.606200  0.050700  1.0  0.1069
  H  H37  1  0.313400  0.462500  0.722900  1.0  0.0781
  H  H38  1  0.308000  0.320600  0.727700  1.0  0.1149
  H  H39  1  0.533100  0.313900  0.643000  1.0  0.1258
  H  H40  1  0.531900  0.456000  0.640900  1.0  0.08
  H  H41  1  0.474400  0.044000  0.604000  1.0  0.1196
  H  H42  1  0.477300  0.187300  0.603700  1.0  0.1112
  H  H43  1  0.529000  0.919400  0.644700  1.0  0.1379
  H  H44  1  0.305300  0.915200  0.731600  1.0  0.1185
  H  H45  1  0.310300  0.773000  0.728500  1.0  0.0731
  H  H46  1  0.526800  0.777200  0.644400  1.0  0.0864
  H  H47  1  0.792400  0.624400  0.657100  1.0  0.0965
  H  H48  1  0.869500  0.626600  0.561200  1.0  0.1089
  H  H49  1  0.662400  0.605800  0.454500  1.0  0.0953
  H  H50  1  0.584000  0.606200  0.550700  1.0  0.107
  H  H51  1  0.686600  0.462500  0.777100  1.0  0.078
  H  H52  1  0.692000  0.320600  0.772300  1.0  0.1154
  H  H53  1  0.466900  0.313900  0.857000  1.0  0.1268
  H  H54  1  0.468100  0.456000  0.859100  1.0  0.0801
  H  H55  1  0.525600  0.044000  0.896000  1.0  0.1182
  H  H56  1  0.522700  0.187300  0.896300  1.0  0.1102
  H  H57  1  0.471000  0.919400  0.855300  1.0  0.1371
  H  H58  1  0.694700  0.915200  0.768400  1.0  0.1183
  H  H59  1  0.689700  0.773000  0.771500  1.0  0.0725
  H  H60  1  0.473200  0.777200  0.855600  1.0  0.087
  H  H61  1  0.207600  0.624400  0.842900  1.0  0.0965
  H  H62  1  0.130500  0.626600  0.938800  1.0  0.1101
  H  H63  1  0.337600  0.605800  0.045500  1.0  0.0951
  H  H64  1  0.416000  0.606200  0.949300  1.0  0.1066
  H  H65  1  0.686600  0.537500  0.277100  1.0  0.0779
  H  H66  1  0.692000  0.679400  0.272300  1.0  0.1153
  H  H67  1  0.466900  0.686100  0.357000  1.0  0.1273
  H  H68  1  0.468100  0.544000  0.359100  1.0  0.0803
  H  H69  1  0.525600  0.956000  0.396000  1.0  0.1184
  H  H70  1  0.522700  0.812700  0.396300  1.0  0.11
  H  H71  1  0.471000  0.080600  0.355300  1.0  0.1375
  H  H72  1  0.694700  0.084800  0.268400  1.0  0.1184
  H  H73  1  0.689700  0.227000  0.271500  1.0  0.0722
  H  H74  1  0.473200  0.222800  0.355600  1.0  0.0871
  H  H75  1  0.207600  0.375600  0.342900  1.0  0.0962
  H  H76  1  0.130500  0.373400  0.438800  1.0  0.11
  H  H77  1  0.337600  0.394200  0.545500  1.0  0.0955
  H  H78  1  0.416000  0.393800  0.449300  1.0  0.1067
  H  H79  1  0.313400  0.537500  0.222900  1.0  0.0777
  H  H80  1  0.308000  0.679400  0.227700  1.0  0.1148
  H  H81  1  0.533100  0.686100  0.143000  1.0  0.1261
  H  H82  1  0.531900  0.544000  0.140900  1.0  0.0801
  H  H83  1  0.474400  0.956000  0.104000  1.0  0.1197
  H  H84  1  0.477300  0.812700  0.103700  1.0  0.1113
  H  H85  1  0.529000  0.080600  0.144700  1.0  0.1379
  H  H86  1  0.305300  0.084800  0.231600  1.0  0.1186
  H  H87  1  0.310300  0.227000  0.228500  1.0  0.0728
  H  H88  1  0.526800  0.222800  0.144400  1.0  0.0865
  H  H89  1  0.792400  0.375600  0.157100  1.0  0.0969
  H  H90  1  0.869500  0.373400  0.061200  1.0  0.1087
  H  H91  1  0.662400  0.394200  0.954500  1.0  0.0951
  H  H92  1  0.584000  0.393800  0.050700  1.0  0.1066
  H  H93  1  0.186600  0.537500  0.722900  1.0  0.0778
  H  H94  1  0.192000  0.679400  0.727700  1.0  0.115
  H  H95  1  0.966900  0.686100  0.643000  1.0  0.1269
  H  H96  1  0.968100  0.544000  0.640900  1.0  0.0799
  H  H97  1  0.025600  0.956000  0.604000  1.0  0.1197
  H  H98  1  0.022700  0.812700  0.603700  1.0  0.1111
  H  H99  1  0.971000  0.080600  0.644700  1.0  0.1376
  H  H100  1  0.194700  0.084800  0.731600  1.0  0.1183
  H  H101  1  0.189700  0.227000  0.728500  1.0  0.0726
  H  H102  1  0.973200  0.222800  0.644400  1.0  0.087
  H  H103  1  0.707600  0.375600  0.657100  1.0  0.0966
  H  H104  1  0.630500  0.373400  0.561200  1.0  0.1102
  H  H105  1  0.837600  0.394200  0.454500  1.0  0.0952
  H  H106  1  0.916000  0.393800  0.550700  1.0  0.1066
  H  H107  1  0.813400  0.537500  0.777100  1.0  0.0778
  H  H108  1  0.808000  0.679400  0.772300  1.0  0.1151
  H  H109  1  0.033100  0.686100  0.857000  1.0  0.1269
  H  H110  1  0.031900  0.544000  0.859100  1.0  0.0807
  H  H111  1  0.974400  0.956000  0.896000  1.0  0.1185
  H  H112  1  0.977300  0.812700  0.896300  1.0  0.1102
  H  H113  1  0.029000  0.080600  0.855300  1.0  0.1373
  H  H114  1  0.805300  0.084800  0.768400  1.0  0.1186
  H  H115  1  0.810300  0.227000  0.771500  1.0  0.0723
  H  H116  1  0.026800  0.222800  0.855600  1.0  0.0873
  H  H117  1  0.292400  0.375600  0.842900  1.0  0.0965
  H  H118  1  0.369500  0.373400  0.938800  1.0  0.1088
  H  H119  1  0.162400  0.394200  0.045500  1.0  0.0951
  H  H120  1  0.084000  0.393800  0.949300  1.0  0.1066
  C  C121  1  0.858190  0.432170  0.293200  1.0  0.1844
  C  C122  1  0.854430  0.346580  0.290160  1.0  -0.1943
  C  C123  1  0.919860  0.299660  0.313750  1.0  0.101
  C  C124  1  0.987600  0.342790  0.340260  1.0  -0.1954
  C  C125  1  0.986350  0.428300  0.341360  1.0  0.1905
  C  C126  1  0.918850  0.207580  0.311660  1.0  0.0057
  C  C127  1  0.883520  0.162820  0.257580  1.0  0.1279
  C  C128  1  0.883070  0.073680  0.256550  1.0  0.1657
  C  C129  1  0.917440  0.026780  0.309890  1.0  0.0004
  C  C130  1  0.951200  0.072220  0.360390  1.0  -0.1032
  C  C131  1  0.952400  0.160400  0.360830  1.0  -0.101
  C  C132  1  0.983600  0.891160  0.337630  1.0  -0.2208
  C  C133  1  0.916870  0.935190  0.310790  1.0  0.1104
  C  C134  1  0.851500  0.888750  0.286300  1.0  -0.1927
  C  C135  1  0.854900  0.803010  0.288500  1.0  0.1895
  C  C136  1  0.981700  0.805510  0.337750  1.0  0.1877
  C  C137  1  0.130550  0.617070  0.322970  1.0  0.6986
  C  C138  1  0.180010  0.616840  0.386380  1.0  -0.1444
  C  C139  1  0.265800  0.621700  0.383630  1.0  -0.0205
  C  C140  1  0.311900  0.622800  0.441230  1.0  0.001
  C  C141  1  0.274030  0.618170  0.502130  1.0  -0.1271
  C  C142  1  0.188700  0.610700  0.504850  1.0  -0.0168
  C  C143  1  0.141600  0.610600  0.446920  1.0  -0.0325
  C  C144  1  0.325600  0.619490  0.564200  1.0  0.6978
  C  C145  1  0.141810  0.432170  0.206800  1.0  0.1839
  C  C146  1  0.145570  0.346580  0.209840  1.0  -0.1963
  C  C147  1  0.080140  0.299660  0.186250  1.0  0.0995
  C  C148  1  0.012400  0.342790  0.159740  1.0  -0.1977
  C  C149  1  0.013650  0.428300  0.158640  1.0  0.19
  C  C150  1  0.081150  0.207580  0.188340  1.0  0.0049
  C  C151  1  0.116480  0.162820  0.242420  1.0  0.1277
  C  C152  1  0.116930  0.073680  0.243450  1.0  0.167
  C  C153  1  0.082560  0.026780  0.190110  1.0  -0.0009
  C  C154  1  0.048800  0.072220  0.139610  1.0  -0.1033
  C  C155  1  0.047600  0.160400  0.139170  1.0  -0.101
  C  C156  1  0.016400  0.891160  0.162370  1.0  -0.2179
  C  C157  1  0.083130  0.935190  0.189210  1.0  0.1115
  C  C158  1  0.148500  0.888750  0.213700  1.0  -0.1923
  C  C159  1  0.145100  0.803010  0.211500  1.0  0.1894
  C  C160  1  0.018300  0.805510  0.162250  1.0  0.1884
  C  C161  1  0.869450  0.617070  0.177030  1.0  0.6975
  C  C162  1  0.819990  0.616840  0.113620  1.0  -0.1415
  C  C163  1  0.734200  0.621700  0.116370  1.0  -0.0211
  C  C164  1  0.688100  0.622800  0.058770  1.0  0.0023
  C  C165  1  0.725970  0.618170  0.997870  1.0  -0.1265
  C  C166  1  0.811300  0.610700  0.995150  1.0  -0.019
  C  C167  1  0.858400  0.610600  0.053080  1.0  -0.0312
  C  C168  1  0.674400  0.619490  0.935800  1.0  0.6987
  C  C169  1  0.358190  0.432170  0.706800  1.0  0.184
  C  C170  1  0.354430  0.346580  0.709840  1.0  -0.1947
  C  C171  1  0.419860  0.299660  0.686250  1.0  0.0997
  C  C172  1  0.487600  0.342790  0.659740  1.0  -0.198
  C  C173  1  0.486350  0.428300  0.658640  1.0  0.1907
  C  C174  1  0.418850  0.207580  0.688340  1.0  0.0049
  C  C175  1  0.383520  0.162820  0.742420  1.0  0.128
  C  C176  1  0.383070  0.073680  0.743450  1.0  0.1658
  C  C177  1  0.417440  0.026780  0.690110  1.0  -0.0012
  C  C178  1  0.451200  0.072220  0.639610  1.0  -0.1031
  C  C179  1  0.452400  0.160400  0.639170  1.0  -0.0998
  C  C180  1  0.483600  0.891160  0.662370  1.0  -0.2184
  C  C181  1  0.416870  0.935190  0.689210  1.0  0.1113
  C  C182  1  0.351500  0.888750  0.713700  1.0  -0.1925
  C  C183  1  0.354900  0.803010  0.711500  1.0  0.1893
  C  C184  1  0.481700  0.805510  0.662250  1.0  0.1881
  C  C185  1  0.630550  0.617070  0.677030  1.0  0.6989
  C  C186  1  0.680010  0.616840  0.613620  1.0  -0.1429
  C  C187  1  0.765800  0.621700  0.616370  1.0  -0.0213
  C  C188  1  0.811900  0.622800  0.558770  1.0  -0.0
  C  C189  1  0.774030  0.618170  0.497870  1.0  -0.1267
  C  C190  1  0.688700  0.610700  0.495150  1.0  -0.0177
  C  C191  1  0.641600  0.610600  0.553080  1.0  -0.0312
  C  C192  1  0.825600  0.619490  0.435800  1.0  0.6988
  C  C193  1  0.641810  0.432170  0.793200  1.0  0.1843
  C  C194  1  0.645570  0.346580  0.790160  1.0  -0.1954
  C  C195  1  0.580140  0.299660  0.813750  1.0  0.1005
  C  C196  1  0.512400  0.342790  0.840260  1.0  -0.1964
  C  C197  1  0.513650  0.428300  0.841360  1.0  0.1897
  C  C198  1  0.581150  0.207580  0.811660  1.0  0.0058
  C  C199  1  0.616480  0.162820  0.757580  1.0  0.1276
  C  C200  1  0.616930  0.073680  0.756550  1.0  0.1669
  C  C201  1  0.582560  0.026780  0.809890  1.0  0.0015
  C  C202  1  0.548800  0.072220  0.860390  1.0  -0.1027
  C  C203  1  0.547600  0.160400  0.860830  1.0  -0.1012
  C  C204  1  0.516400  0.891160  0.837630  1.0  -0.2216
  C  C205  1  0.583130  0.935190  0.810790  1.0  0.1116
  C  C206  1  0.648500  0.888750  0.786300  1.0  -0.1922
  C  C207  1  0.645100  0.803010  0.788500  1.0  0.1896
  C  C208  1  0.518300  0.805510  0.837750  1.0  0.1873
  C  C209  1  0.369450  0.617070  0.822970  1.0  0.6973
  C  C210  1  0.319990  0.616840  0.886380  1.0  -0.1432
  C  C211  1  0.234200  0.621700  0.883630  1.0  -0.0206
  C  C212  1  0.188100  0.622800  0.941230  1.0  0.0034
  C  C213  1  0.225970  0.618170  0.002130  1.0  -0.1267
  C  C214  1  0.311300  0.610700  0.004850  1.0  -0.0181
  C  C215  1  0.358400  0.610600  0.946920  1.0  -0.0324
  C  C216  1  0.174400  0.619490  0.064200  1.0  0.6979
  C  C217  1  0.641810  0.567830  0.293200  1.0  0.1835
  C  C218  1  0.645570  0.653420  0.290160  1.0  -0.1954
  C  C219  1  0.580140  0.700340  0.313750  1.0  0.0996
  C  C220  1  0.512400  0.657210  0.340260  1.0  -0.1966
  C  C221  1  0.513650  0.571700  0.341360  1.0  0.1907
  C  C222  1  0.581150  0.792420  0.311660  1.0  0.0058
  C  C223  1  0.616480  0.837180  0.257580  1.0  0.1274
  C  C224  1  0.616930  0.926320  0.256550  1.0  0.1672
  C  C225  1  0.582560  0.973220  0.309890  1.0  0.0011
  C  C226  1  0.548800  0.927780  0.360390  1.0  -0.1026
  C  C227  1  0.547600  0.839600  0.360830  1.0  -0.1017
  C  C228  1  0.516400  0.108840  0.337630  1.0  -0.2225
  C  C229  1  0.583130  0.064810  0.310790  1.0  0.1127
  C  C230  1  0.648500  0.111250  0.286300  1.0  -0.1926
  C  C231  1  0.645100  0.196990  0.288500  1.0  0.19
  C  C232  1  0.518300  0.194490  0.337750  1.0  0.1873
  C  C233  1  0.369450  0.382930  0.322970  1.0  0.6973
  C  C234  1  0.319990  0.383160  0.386380  1.0  -0.1434
  C  C235  1  0.234200  0.378300  0.383630  1.0  -0.0205
  C  C236  1  0.188100  0.377200  0.441230  1.0  0.0031
  C  C237  1  0.225970  0.381830  0.502130  1.0  -0.1269
  C  C238  1  0.311300  0.389300  0.504850  1.0  -0.0183
  C  C239  1  0.358400  0.389400  0.446920  1.0  -0.0326
  C  C240  1  0.174400  0.380510  0.564200  1.0  0.6985
  C  C241  1  0.358190  0.567830  0.206800  1.0  0.1839
  C  C242  1  0.354430  0.653420  0.209840  1.0  -0.1955
  C  C243  1  0.419860  0.700340  0.186250  1.0  0.1
  C  C244  1  0.487600  0.657210  0.159740  1.0  -0.198
  C  C245  1  0.486350  0.571700  0.158640  1.0  0.1906
  C  C246  1  0.418850  0.792420  0.188340  1.0  0.0049
  C  C247  1  0.383520  0.837180  0.242420  1.0  0.1273
  C  C248  1  0.383070  0.926320  0.243450  1.0  0.1664
  C  C249  1  0.417440  0.973220  0.190110  1.0  0.0
  C  C250  1  0.451200  0.927780  0.139610  1.0  -0.1034
  C  C251  1  0.452400  0.839600  0.139170  1.0  -0.1002
  C  C252  1  0.483600  0.108840  0.162370  1.0  -0.219
  C  C253  1  0.416870  0.064810  0.189210  1.0  0.1102
  C  C254  1  0.351500  0.111250  0.213700  1.0  -0.1929
  C  C255  1  0.354900  0.196990  0.211500  1.0  0.1893
  C  C256  1  0.481700  0.194490  0.162250  1.0  0.1888
  C  C257  1  0.630550  0.382930  0.177030  1.0  0.6989
  C  C258  1  0.680010  0.383160  0.113620  1.0  -0.1427
  C  C259  1  0.765800  0.378300  0.116370  1.0  -0.0217
  C  C260  1  0.811900  0.377200  0.058770  1.0  -0.0003
  C  C261  1  0.774030  0.381830  0.997870  1.0  -0.1261
  C  C262  1  0.688700  0.389300  0.995150  1.0  -0.0175
  C  C263  1  0.641600  0.389400  0.053080  1.0  -0.0317
  C  C264  1  0.825600  0.380510  0.935800  1.0  0.6987
  C  C265  1  0.141810  0.567830  0.706800  1.0  0.1834
  C  C266  1  0.145570  0.653420  0.709840  1.0  -0.1965
  C  C267  1  0.080140  0.700340  0.686250  1.0  0.0997
  C  C268  1  0.012400  0.657210  0.659740  1.0  -0.1981
  C  C269  1  0.013650  0.571700  0.658640  1.0  0.1903
  C  C270  1  0.081150  0.792420  0.688340  1.0  0.0045
  C  C271  1  0.116480  0.837180  0.742420  1.0  0.1274
  C  C272  1  0.116930  0.926320  0.743450  1.0  0.167
  C  C273  1  0.082560  0.973220  0.690110  1.0  1e-04
  C  C274  1  0.048800  0.927780  0.639610  1.0  -0.1034
  C  C275  1  0.047600  0.839600  0.639170  1.0  -0.1015
  C  C276  1  0.016400  0.108840  0.662370  1.0  -0.2186
  C  C277  1  0.083130  0.064810  0.689210  1.0  0.1105
  C  C278  1  0.148500  0.111250  0.713700  1.0  -0.1925
  C  C279  1  0.145100  0.196990  0.711500  1.0  0.1898
  C  C280  1  0.018300  0.194490  0.662250  1.0  0.1888
  C  C281  1  0.869450  0.382930  0.677030  1.0  0.6976
  C  C282  1  0.819990  0.383160  0.613620  1.0  -0.1417
  C  C283  1  0.734200  0.378300  0.616370  1.0  -0.0213
  C  C284  1  0.688100  0.377200  0.558770  1.0  0.002
  C  C285  1  0.725970  0.381830  0.497870  1.0  -0.1262
  C  C286  1  0.811300  0.389300  0.495150  1.0  -0.0197
  C  C287  1  0.858400  0.389400  0.553080  1.0  -0.0321
  C  C288  1  0.674400  0.380510  0.435800  1.0  0.6991
  C  C289  1  0.858190  0.567830  0.793200  1.0  0.1838
  C  C290  1  0.854430  0.653420  0.790160  1.0  -0.1947
  C  C291  1  0.919860  0.700340  0.813750  1.0  0.0999
  C  C292  1  0.987600  0.657210  0.840260  1.0  -0.1955
  C  C293  1  0.986350  0.571700  0.841360  1.0  0.1912
  C  C294  1  0.918850  0.792420  0.811660  1.0  0.0064
  C  C295  1  0.883520  0.837180  0.757580  1.0  0.1276
  C  C296  1  0.883070  0.926320  0.756550  1.0  0.1665
  C  C297  1  0.917440  0.973220  0.809890  1.0  -0.0002
  C  C298  1  0.951200  0.927780  0.860390  1.0  -0.1033
  C  C299  1  0.952400  0.839600  0.860830  1.0  -0.1012
  C  C300  1  0.983600  0.108840  0.837630  1.0  -0.2215
  C  C301  1  0.916870  0.064810  0.810790  1.0  0.1117
  C  C302  1  0.851500  0.111250  0.786300  1.0  -0.1932
  C  C303  1  0.854900  0.196990  0.788500  1.0  0.1898
  C  C304  1  0.981700  0.194490  0.837750  1.0  0.1882
  C  C305  1  0.130550  0.382930  0.822970  1.0  0.6986
  C  C306  1  0.180010  0.383160  0.886380  1.0  -0.1444
  C  C307  1  0.265800  0.378300  0.883630  1.0  -0.0202
  C  C308  1  0.311900  0.377200  0.941230  1.0  0.0008
  C  C309  1  0.274030  0.381830  0.002130  1.0  -0.1273
  C  C310  1  0.188700  0.389300  0.004850  1.0  -0.016
  C  C311  1  0.141600  0.389400  0.946920  1.0  -0.0323
  C  C312  1  0.325600  0.380510  0.064200  1.0  0.6981
  S  S313  1  0.824340  0.120130  0.155500  1.0  0.088
  S  S314  1  0.175660  0.120130  0.344500  1.0  0.0834
  S  S315  1  0.324340  0.120130  0.844500  1.0  0.0829
  S  S316  1  0.675660  0.120130  0.655500  1.0  0.0885
  S  S317  1  0.675660  0.879870  0.155500  1.0  0.0877
  S  S318  1  0.324340  0.879870  0.344500  1.0  0.0827
  S  S319  1  0.175660  0.879870  0.844500  1.0  0.0828
  S  S320  1  0.824340  0.879870  0.655500  1.0  0.0874
  N  N321  1  0.850730  0.041700  0.200520  1.0  -0.3323
  N  N322  1  0.851130  0.196630  0.202180  1.0  -0.3651
  N  N323  1  0.923020  0.473680  0.318160  1.0  -0.3576
  N  N324  1  0.918910  0.761230  0.313800  1.0  -0.3293
  N  N325  1  0.149270  0.041700  0.299480  1.0  -0.3315
  N  N326  1  0.148870  0.196630  0.297820  1.0  -0.365
  N  N327  1  0.076980  0.473680  0.181840  1.0  -0.3581
  N  N328  1  0.081090  0.761230  0.186200  1.0  -0.3293
  N  N329  1  0.350730  0.041700  0.799480  1.0  -0.3313
  N  N330  1  0.351130  0.196630  0.797820  1.0  -0.3647
  N  N331  1  0.423020  0.473680  0.681840  1.0  -0.358
  N  N332  1  0.418910  0.761230  0.686200  1.0  -0.3295
  N  N333  1  0.649270  0.041700  0.700520  1.0  -0.333
  N  N334  1  0.648870  0.196630  0.702180  1.0  -0.3662
  N  N335  1  0.576980  0.473680  0.818160  1.0  -0.3577
  N  N336  1  0.581090  0.761230  0.813800  1.0  -0.3289
  N  N337  1  0.649270  0.958300  0.200520  1.0  -0.3331
  N  N338  1  0.648870  0.803370  0.202180  1.0  -0.3663
  N  N339  1  0.576980  0.526320  0.318160  1.0  -0.3571
  N  N340  1  0.581090  0.238770  0.313800  1.0  -0.329
  N  N341  1  0.350730  0.958300  0.299480  1.0  -0.3315
  N  N342  1  0.351130  0.803370  0.297820  1.0  -0.3637
  N  N343  1  0.423020  0.526320  0.181840  1.0  -0.3572
  N  N344  1  0.418910  0.238770  0.186200  1.0  -0.3289
  N  N345  1  0.149270  0.958300  0.799480  1.0  -0.3312
  N  N346  1  0.148870  0.803370  0.797820  1.0  -0.3649
  N  N347  1  0.076980  0.526320  0.681840  1.0  -0.3572
  N  N348  1  0.081090  0.238770  0.686200  1.0  -0.3286
  N  N349  1  0.850730  0.958300  0.700520  1.0  -0.3323
  N  N350  1  0.851130  0.803370  0.702180  1.0  -0.3648
  N  N351  1  0.923020  0.526320  0.818160  1.0  -0.3572
  N  N352  1  0.918910  0.238770  0.813800  1.0  -0.3295
  O  O353  1  0.053710  0.618500  0.326410  1.0  -0.684
  O  O354  1  0.170340  0.616050  0.269770  1.0  -0.5938
  O  O355  1  0.402200  0.625900  0.560240  1.0  -0.6379
  O  O356  1  0.290240  0.614100  0.617890  1.0  -0.5703
  O  O357  1  0.946290  0.618500  0.173590  1.0  -0.684
  O  O358  1  0.829660  0.616050  0.230230  1.0  -0.5933
  O  O359  1  0.597800  0.625900  0.939760  1.0  -0.6383
  O  O360  1  0.709760  0.614100  0.882110  1.0  -0.5692
  O  O361  1  0.553710  0.618500  0.673590  1.0  -0.6844
  O  O362  1  0.670340  0.616050  0.730230  1.0  -0.5932
  O  O363  1  0.902200  0.625900  0.439760  1.0  -0.6368
  O  O364  1  0.790240  0.614100  0.382110  1.0  -0.5693
  O  O365  1  0.446290  0.618500  0.826410  1.0  -0.6836
  O  O366  1  0.329660  0.616050  0.769770  1.0  -0.594
  O  O367  1  0.097800  0.625900  0.060240  1.0  -0.6394
  O  O368  1  0.209760  0.614100  0.117890  1.0  -0.5698
  O  O369  1  0.446290  0.381500  0.326410  1.0  -0.6836
  O  O370  1  0.329660  0.383950  0.269770  1.0  -0.5941
  O  O371  1  0.097800  0.374100  0.560240  1.0  -0.6396
  O  O372  1  0.209760  0.385900  0.617890  1.0  -0.5699
  O  O373  1  0.553710  0.381500  0.173590  1.0  -0.6841
  O  O374  1  0.670340  0.383950  0.230230  1.0  -0.5928
  O  O375  1  0.902200  0.374100  0.939760  1.0  -0.637
  O  O376  1  0.790240  0.385900  0.882110  1.0  -0.5698
  O  O377  1  0.946290  0.381500  0.673590  1.0  -0.6839
  O  O378  1  0.829660  0.383950  0.730230  1.0  -0.5931
  O  O379  1  0.597800  0.374100  0.439760  1.0  -0.6383
  O  O380  1  0.709760  0.385900  0.382110  1.0  -0.5696
  O  O381  1  0.053710  0.381500  0.826410  1.0  -0.6838
  O  O382  1  0.170340  0.383950  0.769770  1.0  -0.5938
  O  O383  1  0.402200  0.374100  0.060240  1.0  -0.6382
  O  O384  1  0.290240  0.385900  0.117890  1.0  -0.5704
