# generated using pymatgen
data_ZnH20C28(NO2)2
_symmetry_space_group_name_H-M   'P 1'
_cell_length_a   31.32560000
_cell_length_b   5.88880000
_cell_length_c   20.44850000
_cell_angle_alpha   90.00000000
_cell_angle_beta   102.22900000
_cell_angle_gamma   90.00000000
_symmetry_Int_Tables_number   1
_chemical_formula_structural   ZnH20C28(NO2)2
_chemical_formula_sum   'Zn4 H80 C112 N8 O16'
_cell_volume   3686.54442272
_cell_formula_units_Z   4
loop_
 _symmetry_equiv_pos_site_id
 _symmetry_equiv_pos_as_xyz
  1  'x, y, z'
loop_
 _atom_site_type_symbol
 _atom_site_label
 _atom_site_symmetry_multiplicity
 _atom_site_fract_x
 _atom_site_fract_y
 _atom_site_fract_z
 _atom_site_occupancy
 _atom_site_charge
  Zn  Zn1  1  0.500000  0.321140  0.250000  1.0  0.8537
  Zn  Zn2  1  0.000000  0.821140  0.250000  1.0  0.8537
  Zn  Zn3  1  0.500000  0.678860  0.750000  1.0  0.8541
  Zn  Zn4  1  0.000000  0.178860  0.750000  1.0  0.8541
  H  H5  1  0.425500  0.320300  0.131200  1.0  0.0785
  H  H6  1  0.367500  0.545500  0.081300  1.0  0.1208
  H  H7  1  0.402200  0.996400  0.232300  1.0  0.126
  H  H8  1  0.459600  0.760500  0.278200  1.0  0.0774
  H  H9  1  0.337300  0.079700  0.149100  1.0  0.0974
  H  H10  1  0.323700  0.816700  0.035300  1.0  0.0898
  H  H11  1  0.292000  0.338300  0.105500  1.0  0.1245
  H  H12  1  0.263900  0.916700  0.945900  1.0  0.1135
  H  H13  1  0.520600  0.816900  0.410000  1.0  0.1059
  H  H14  1  0.467600  0.358400  0.485500  1.0  0.1054
  H  H15  1  0.925500  0.820300  0.131200  1.0  0.0785
  H  H16  1  0.867500  0.045500  0.081300  1.0  0.1208
  H  H17  1  0.902200  0.496400  0.232300  1.0  0.126
  H  H18  1  0.959600  0.260500  0.278200  1.0  0.0774
  H  H19  1  0.837300  0.579700  0.149100  1.0  0.0974
  H  H20  1  0.823700  0.316700  0.035300  1.0  0.0898
  H  H21  1  0.792000  0.838300  0.105500  1.0  0.1245
  H  H22  1  0.763900  0.416700  0.945900  1.0  0.1135
  H  H23  1  0.020600  0.316900  0.410000  1.0  0.1059
  H  H24  1  0.967600  0.858400  0.485500  1.0  0.1054
  H  H25  1  0.574500  0.320300  0.368800  1.0  0.0789
  H  H26  1  0.632500  0.545500  0.418700  1.0  0.1207
  H  H27  1  0.597800  0.996400  0.267700  1.0  0.1263
  H  H28  1  0.540400  0.760500  0.221800  1.0  0.0774
  H  H29  1  0.662700  0.079700  0.350900  1.0  0.0955
  H  H30  1  0.676300  0.816700  0.464700  1.0  0.0906
  H  H31  1  0.708000  0.338300  0.394500  1.0  0.1249
  H  H32  1  0.736100  0.916700  0.554100  1.0  0.1143
  H  H33  1  0.479400  0.816900  0.090000  1.0  0.106
  H  H34  1  0.532400  0.358400  0.014500  1.0  0.1054
  H  H35  1  0.074500  0.820300  0.368800  1.0  0.0789
  H  H36  1  0.132500  0.045500  0.418700  1.0  0.1207
  H  H37  1  0.097800  0.496400  0.267700  1.0  0.1263
  H  H38  1  0.040400  0.260500  0.221800  1.0  0.0774
  H  H39  1  0.162700  0.579700  0.350900  1.0  0.0955
  H  H40  1  0.176300  0.316700  0.464700  1.0  0.0906
  H  H41  1  0.208000  0.838300  0.394500  1.0  0.1249
  H  H42  1  0.236100  0.416700  0.554100  1.0  0.1143
  H  H43  1  0.979400  0.316900  0.090000  1.0  0.106
  H  H44  1  0.032400  0.858400  0.014500  1.0  0.1054
  H  H45  1  0.574500  0.679700  0.868800  1.0  0.0788
  H  H46  1  0.632500  0.454500  0.918700  1.0  0.1202
  H  H47  1  0.597800  0.003600  0.767700  1.0  0.126
  H  H48  1  0.540400  0.239500  0.721800  1.0  0.0774
  H  H49  1  0.662700  0.920300  0.850900  1.0  0.0957
  H  H50  1  0.676300  0.183300  0.964700  1.0  0.0906
  H  H51  1  0.708000  0.661700  0.894500  1.0  0.1247
  H  H52  1  0.736100  0.083300  0.054100  1.0  0.1141
  H  H53  1  0.479400  0.183100  0.590000  1.0  0.1058
  H  H54  1  0.532400  0.641600  0.514500  1.0  0.1057
  H  H55  1  0.074500  0.179700  0.868800  1.0  0.0788
  H  H56  1  0.132500  0.954500  0.918700  1.0  0.1202
  H  H57  1  0.097800  0.503600  0.767700  1.0  0.126
  H  H58  1  0.040400  0.739500  0.721800  1.0  0.0774
  H  H59  1  0.162700  0.420300  0.850900  1.0  0.0957
  H  H60  1  0.176300  0.683300  0.964700  1.0  0.0906
  H  H61  1  0.208000  0.161700  0.894500  1.0  0.1247
  H  H62  1  0.236100  0.583300  0.054100  1.0  0.1141
  H  H63  1  0.979400  0.683100  0.590000  1.0  0.1058
  H  H64  1  0.032400  0.141600  0.514500  1.0  0.1057
  H  H65  1  0.425500  0.679700  0.631200  1.0  0.0785
  H  H66  1  0.367500  0.454500  0.581300  1.0  0.1206
  H  H67  1  0.402200  0.003600  0.732300  1.0  0.1258
  H  H68  1  0.459600  0.239500  0.778200  1.0  0.0776
  H  H69  1  0.337300  0.920300  0.649100  1.0  0.0975
  H  H70  1  0.323700  0.183300  0.535300  1.0  0.0899
  H  H71  1  0.292000  0.661700  0.605500  1.0  0.1242
  H  H72  1  0.263900  0.083300  0.445900  1.0  0.1135
  H  H73  1  0.520600  0.183100  0.910000  1.0  0.1058
  H  H74  1  0.467600  0.641600  0.985500  1.0  0.1053
  H  H75  1  0.925500  0.179700  0.631200  1.0  0.0785
  H  H76  1  0.867500  0.954500  0.581300  1.0  0.1206
  H  H77  1  0.902200  0.503600  0.732300  1.0  0.1258
  H  H78  1  0.959600  0.739500  0.778200  1.0  0.0776
  H  H79  1  0.837300  0.420300  0.649100  1.0  0.0975
  H  H80  1  0.823700  0.683300  0.535300  1.0  0.0899
  H  H81  1  0.792000  0.161700  0.605500  1.0  0.1242
  H  H82  1  0.763900  0.583300  0.445900  1.0  0.1135
  H  H83  1  0.020600  0.683100  0.910000  1.0  0.1058
  H  H84  1  0.967600  0.141600  0.985500  1.0  0.1053
  C  C85  1  0.420710  0.459900  0.151770  1.0  0.1697
  C  C86  1  0.386160  0.593800  0.121750  1.0  -0.1952
  C  C87  1  0.378390  0.800300  0.150480  1.0  0.1308
  C  C88  1  0.406510  0.858700  0.210290  1.0  -0.1883
  C  C89  1  0.440550  0.716700  0.237580  1.0  0.1592
  C  C90  1  0.342930  0.957400  0.121820  1.0  -0.1358
  C  C91  1  0.318510  0.942200  0.061770  1.0  -0.1316
  C  C92  1  0.283370  0.102200  0.030850  1.0  0.0062
  C  C93  1  0.274930  0.301800  0.062620  1.0  -0.1242
  C  C94  1  0.258370  0.051800  0.968140  1.0  -0.0778
  C  C95  1  0.487100  0.224500  0.371630  1.0  0.6358
  C  C96  1  0.493310  0.105000  0.437870  1.0  -0.1293
  C  C97  1  0.512300  0.891600  0.446580  1.0  -0.0317
  C  C98  1  0.480880  0.212600  0.491480  1.0  -0.0377
  C  C99  1  0.920710  0.959900  0.151770  1.0  0.1697
  C  C100  1  0.886160  0.093800  0.121750  1.0  -0.1952
  C  C101  1  0.878390  0.300300  0.150480  1.0  0.1308
  C  C102  1  0.906510  0.358700  0.210290  1.0  -0.1883
  C  C103  1  0.940550  0.216700  0.237580  1.0  0.1592
  C  C104  1  0.842930  0.457400  0.121820  1.0  -0.1358
  C  C105  1  0.818510  0.442200  0.061770  1.0  -0.1316
  C  C106  1  0.783370  0.602200  0.030850  1.0  0.0062
  C  C107  1  0.774930  0.801800  0.062620  1.0  -0.1242
  C  C108  1  0.758370  0.551800  0.968140  1.0  -0.0778
  C  C109  1  0.987100  0.724500  0.371630  1.0  0.6358
  C  C110  1  0.993310  0.605000  0.437870  1.0  -0.1293
  C  C111  1  0.012300  0.391600  0.446580  1.0  -0.0317
  C  C112  1  0.980880  0.712600  0.491480  1.0  -0.0377
  C  C113  1  0.579290  0.459900  0.348230  1.0  0.1702
  C  C114  1  0.613840  0.593800  0.378250  1.0  -0.1966
  C  C115  1  0.621610  0.800300  0.349520  1.0  0.1287
  C  C116  1  0.593490  0.858700  0.289710  1.0  -0.1893
  C  C117  1  0.559450  0.716700  0.262420  1.0  0.1606
  C  C118  1  0.657070  0.957400  0.378180  1.0  -0.1355
  C  C119  1  0.681490  0.942200  0.438230  1.0  -0.1329
  C  C120  1  0.716630  0.102200  0.469150  1.0  0.006
  C  C121  1  0.725070  0.301800  0.437380  1.0  -0.1239
  C  C122  1  0.741630  0.051800  0.531860  1.0  -0.0776
  C  C123  1  0.512900  0.224500  0.128370  1.0  0.6364
  C  C124  1  0.506690  0.105000  0.062130  1.0  -0.1288
  C  C125  1  0.487700  0.891600  0.053420  1.0  -0.0319
  C  C126  1  0.519120  0.212600  0.008520  1.0  -0.0383
  C  C127  1  0.079290  0.959900  0.348230  1.0  0.1702
  C  C128  1  0.113840  0.093800  0.378250  1.0  -0.1966
  C  C129  1  0.121610  0.300300  0.349520  1.0  0.1287
  C  C130  1  0.093490  0.358700  0.289710  1.0  -0.1893
  C  C131  1  0.059450  0.216700  0.262420  1.0  0.1606
  C  C132  1  0.157070  0.457400  0.378180  1.0  -0.1355
  C  C133  1  0.181490  0.442200  0.438230  1.0  -0.1329
  C  C134  1  0.216630  0.602200  0.469150  1.0  0.006
  C  C135  1  0.225070  0.801800  0.437380  1.0  -0.1239
  C  C136  1  0.241630  0.551800  0.531860  1.0  -0.0776
  C  C137  1  0.012900  0.724500  0.128370  1.0  0.6364
  C  C138  1  0.006690  0.605000  0.062130  1.0  -0.1288
  C  C139  1  0.987700  0.391600  0.053420  1.0  -0.0319
  C  C140  1  0.019120  0.712600  0.008520  1.0  -0.0383
  C  C141  1  0.579290  0.540100  0.848230  1.0  0.1703
  C  C142  1  0.613840  0.406200  0.878250  1.0  -0.1967
  C  C143  1  0.621610  0.199700  0.849520  1.0  0.1293
  C  C144  1  0.593490  0.141300  0.789710  1.0  -0.1895
  C  C145  1  0.559450  0.283300  0.762420  1.0  0.1603
  C  C146  1  0.657070  0.042600  0.878180  1.0  -0.1357
  C  C147  1  0.681490  0.057800  0.938230  1.0  -0.1325
  C  C148  1  0.716630  0.897800  0.969150  1.0  0.0063
  C  C149  1  0.725070  0.698200  0.937380  1.0  -0.125
  C  C150  1  0.741630  0.948200  0.031860  1.0  -0.0784
  C  C151  1  0.512900  0.775500  0.628370  1.0  0.6363
  C  C152  1  0.506690  0.895000  0.562130  1.0  -0.1287
  C  C153  1  0.487700  0.108400  0.553420  1.0  -0.0316
  C  C154  1  0.519120  0.787400  0.508520  1.0  -0.0416
  C  C155  1  0.079290  0.040100  0.848230  1.0  0.1703
  C  C156  1  0.113840  0.906200  0.878250  1.0  -0.1967
  C  C157  1  0.121610  0.699700  0.849520  1.0  0.1293
  C  C158  1  0.093490  0.641300  0.789710  1.0  -0.1895
  C  C159  1  0.059450  0.783300  0.762420  1.0  0.1603
  C  C160  1  0.157070  0.542600  0.878180  1.0  -0.1357
  C  C161  1  0.181490  0.557800  0.938230  1.0  -0.1325
  C  C162  1  0.216630  0.397800  0.969150  1.0  0.0063
  C  C163  1  0.225070  0.198200  0.937380  1.0  -0.125
  C  C164  1  0.241630  0.448200  0.031860  1.0  -0.0784
  C  C165  1  0.012900  0.275500  0.628370  1.0  0.6363
  C  C166  1  0.006690  0.395000  0.562130  1.0  -0.1287
  C  C167  1  0.987700  0.608400  0.553420  1.0  -0.0316
  C  C168  1  0.019120  0.287400  0.508520  1.0  -0.0416
  C  C169  1  0.420710  0.540100  0.651770  1.0  0.1701
  C  C170  1  0.386160  0.406200  0.621750  1.0  -0.1948
  C  C171  1  0.378390  0.199700  0.650480  1.0  0.1314
  C  C172  1  0.406510  0.141300  0.710290  1.0  -0.188
  C  C173  1  0.440550  0.283300  0.737580  1.0  0.1589
  C  C174  1  0.342930  0.042600  0.621820  1.0  -0.137
  C  C175  1  0.318510  0.057800  0.561770  1.0  -0.1314
  C  C176  1  0.283370  0.897800  0.530850  1.0  0.0064
  C  C177  1  0.274930  0.698200  0.562620  1.0  -0.1251
  C  C178  1  0.258370  0.948200  0.468140  1.0  -0.079
  C  C179  1  0.487100  0.775500  0.871630  1.0  0.6355
  C  C180  1  0.493310  0.895000  0.937870  1.0  -0.1296
  C  C181  1  0.512300  0.108400  0.946580  1.0  -0.0312
  C  C182  1  0.480880  0.787400  0.991480  1.0  -0.0401
  C  C183  1  0.920710  0.040100  0.651770  1.0  0.1701
  C  C184  1  0.886160  0.906200  0.621750  1.0  -0.1948
  C  C185  1  0.878390  0.699700  0.650480  1.0  0.1314
  C  C186  1  0.906510  0.641300  0.710290  1.0  -0.188
  C  C187  1  0.940550  0.783300  0.737580  1.0  0.1589
  C  C188  1  0.842930  0.542600  0.621820  1.0  -0.137
  C  C189  1  0.818510  0.557800  0.561770  1.0  -0.1314
  C  C190  1  0.783370  0.397800  0.530850  1.0  0.0064
  C  C191  1  0.774930  0.198200  0.562620  1.0  -0.1251
  C  C192  1  0.758370  0.448200  0.468140  1.0  -0.079
  C  C193  1  0.987100  0.275500  0.871630  1.0  0.6355
  C  C194  1  0.993310  0.395000  0.937870  1.0  -0.1296
  C  C195  1  0.012300  0.608400  0.946580  1.0  -0.0312
  C  C196  1  0.980880  0.287400  0.991480  1.0  -0.0401
  N  N197  1  0.448000  0.519600  0.209300  1.0  -0.3338
  N  N198  1  0.948000  0.019600  0.209300  1.0  -0.3338
  N  N199  1  0.552000  0.519600  0.290700  1.0  -0.3337
  N  N200  1  0.052000  0.019600  0.290700  1.0  -0.3337
  N  N201  1  0.552000  0.480400  0.790700  1.0  -0.3339
  N  N202  1  0.052000  0.980400  0.790700  1.0  -0.3339
  N  N203  1  0.448000  0.480400  0.709300  1.0  -0.3348
  N  N204  1  0.948000  0.980400  0.709300  1.0  -0.3348
  O  O205  1  0.497440  0.111600  0.323590  1.0  -0.6063
  O  O206  1  0.473900  0.422300  0.365960  1.0  -0.5727
  O  O207  1  0.997440  0.611600  0.323590  1.0  -0.6063
  O  O208  1  0.973900  0.922300  0.365960  1.0  -0.5727
  O  O209  1  0.502560  0.111600  0.176410  1.0  -0.6067
  O  O210  1  0.526100  0.422300  0.134040  1.0  -0.5716
  O  O211  1  0.002560  0.611600  0.176410  1.0  -0.6067
  O  O212  1  0.026100  0.922300  0.134040  1.0  -0.5716
  O  O213  1  0.502560  0.888400  0.676410  1.0  -0.6067
  O  O214  1  0.526100  0.577700  0.634040  1.0  -0.5727
  O  O215  1  0.002560  0.388400  0.676410  1.0  -0.6067
  O  O216  1  0.026100  0.077700  0.634040  1.0  -0.5727
  O  O217  1  0.497440  0.888400  0.823590  1.0  -0.6059
  O  O218  1  0.473900  0.577700  0.865960  1.0  -0.572
  O  O219  1  0.997440  0.388400  0.823590  1.0  -0.6059
  O  O220  1  0.973900  0.077700  0.865960  1.0  -0.572
