# generated using pymatgen
data_CdH36C40(N2O)4
_symmetry_space_group_name_H-M   'P 1'
_cell_length_a   23.40400000
_cell_length_b   11.09710000
_cell_length_c   20.76600000
_cell_angle_alpha   90.00000000
_cell_angle_beta   120.47600000
_cell_angle_gamma   90.00000000
_symmetry_Int_Tables_number   1
_chemical_formula_structural   CdH36C40(N2O)4
_chemical_formula_sum   'Cd4 H144 C160 N32 O16'
_cell_volume   4648.14784342
_cell_formula_units_Z   4
loop_
 _symmetry_equiv_pos_site_id
 _symmetry_equiv_pos_as_xyz
  1  'x, y, z'
loop_
 _atom_site_type_symbol
 _atom_site_label
 _atom_site_symmetry_multiplicity
 _atom_site_fract_x
 _atom_site_fract_y
 _atom_site_fract_z
 _atom_site_occupancy
 _atom_site_charge
  Cd  Cd1  1  0.500000  0.718020  0.250000  1.0  0.7546
  Cd  Cd2  1  0.000000  0.218020  0.250000  1.0  0.7546
  Cd  Cd3  1  0.500000  0.281980  0.750000  1.0  0.7489
  Cd  Cd4  1  0.000000  0.781980  0.750000  1.0  0.7489
  H  H5  1  0.597600  0.136000  0.404400  1.0  0.29
  H  H6  1  0.563100  0.943000  0.361500  1.0  0.0621
  H  H7  1  0.375600  0.861400  0.244000  1.0  0.0617
  H  H8  1  0.346300  0.056900  0.244000  1.0  0.0956
  H  H9  1  0.427400  0.204300  0.303500  1.0  0.106
  H  H10  1  0.617000  0.424700  0.427200  1.0  0.1261
  H  H11  1  0.623500  0.389800  0.358600  1.0  0.1304
  H  H12  1  0.704300  0.238900  0.373400  1.0  0.0859
  H  H13  1  0.692600  0.338400  0.549100  1.0  0.1009
  H  H14  1  0.753500  0.569800  0.356500  1.0  0.2532
  H  H15  1  0.652400  0.644300  0.307300  1.0  0.0838
  H  H16  1  0.574500  0.732500  0.428100  1.0  0.0645
  H  H17  1  0.667500  0.668100  0.534600  1.0  0.1022
  H  H18  1  0.756400  0.587900  0.527600  1.0  0.0972
  H  H19  1  0.849200  0.373200  0.406500  1.0  0.1036
  H  H20  1  0.840300  0.496400  0.365600  1.0  0.0905
  H  H21  1  0.958400  0.305900  0.469800  1.0  0.0902
  H  H22  1  0.071600  0.338000  0.538200  1.0  0.0765
  H  H23  1  0.097600  0.636000  0.404400  1.0  0.29
  H  H24  1  0.063100  0.443000  0.361500  1.0  0.0621
  H  H25  1  0.875600  0.361400  0.244000  1.0  0.0617
  H  H26  1  0.846300  0.556900  0.244000  1.0  0.0956
  H  H27  1  0.927400  0.704300  0.303500  1.0  0.106
  H  H28  1  0.117000  0.924700  0.427200  1.0  0.1261
  H  H29  1  0.123500  0.889800  0.358600  1.0  0.1304
  H  H30  1  0.204300  0.738900  0.373400  1.0  0.0859
  H  H31  1  0.192600  0.838400  0.549100  1.0  0.1009
  H  H32  1  0.253500  0.069800  0.356500  1.0  0.2532
  H  H33  1  0.152400  0.144300  0.307300  1.0  0.0838
  H  H34  1  0.074500  0.232500  0.428100  1.0  0.0645
  H  H35  1  0.167500  0.168100  0.534600  1.0  0.1022
  H  H36  1  0.256400  0.087900  0.527600  1.0  0.0972
  H  H37  1  0.349200  0.873200  0.406500  1.0  0.1036
  H  H38  1  0.340300  0.996400  0.365600  1.0  0.0904
  H  H39  1  0.458400  0.805900  0.469800  1.0  0.0902
  H  H40  1  0.571600  0.838000  0.538200  1.0  0.0765
  H  H41  1  0.402400  0.136000  0.095600  1.0  0.289
  H  H42  1  0.436900  0.943000  0.138500  1.0  0.0618
  H  H43  1  0.624400  0.861400  0.256000  1.0  0.0626
  H  H44  1  0.653700  0.056900  0.256000  1.0  0.0949
  H  H45  1  0.572600  0.204300  0.196500  1.0  0.1067
  H  H46  1  0.383000  0.424700  0.072800  1.0  0.1268
  H  H47  1  0.376500  0.389800  0.141400  1.0  0.1304
  H  H48  1  0.295700  0.238900  0.126600  1.0  0.0855
  H  H49  1  0.307400  0.338400  0.950900  1.0  0.1023
  H  H50  1  0.246500  0.569800  0.143500  1.0  0.2534
  H  H51  1  0.347600  0.644300  0.192700  1.0  0.0833
  H  H52  1  0.425500  0.732500  0.071900  1.0  0.0649
  H  H53  1  0.332500  0.668100  0.965400  1.0  0.1017
  H  H54  1  0.243600  0.587900  0.972400  1.0  0.0973
  H  H55  1  0.150800  0.373200  0.093500  1.0  0.105
  H  H56  1  0.159700  0.496400  0.134400  1.0  0.0906
  H  H57  1  0.041600  0.305900  0.030200  1.0  0.0908
  H  H58  1  0.928400  0.338000  0.961800  1.0  0.0758
  H  H59  1  0.902400  0.636000  0.095600  1.0  0.289
  H  H60  1  0.936900  0.443000  0.138500  1.0  0.0618
  H  H61  1  0.124400  0.361400  0.256000  1.0  0.0626
  H  H62  1  0.153700  0.556900  0.256000  1.0  0.0949
  H  H63  1  0.072600  0.704300  0.196500  1.0  0.1067
  H  H64  1  0.883000  0.924700  0.072800  1.0  0.1268
  H  H65  1  0.876500  0.889800  0.141400  1.0  0.1304
  H  H66  1  0.795700  0.738900  0.126600  1.0  0.0855
  H  H67  1  0.807400  0.838400  0.950900  1.0  0.1023
  H  H68  1  0.746500  0.069800  0.143500  1.0  0.2534
  H  H69  1  0.847600  0.144300  0.192700  1.0  0.0833
  H  H70  1  0.925500  0.232500  0.071900  1.0  0.0649
  H  H71  1  0.832500  0.168100  0.965400  1.0  0.1017
  H  H72  1  0.743600  0.087900  0.972400  1.0  0.0973
  H  H73  1  0.650800  0.873200  0.093500  1.0  0.105
  H  H74  1  0.659700  0.996400  0.134400  1.0  0.0906
  H  H75  1  0.541600  0.805900  0.030200  1.0  0.0908
  H  H76  1  0.428400  0.838000  0.961800  1.0  0.0758
  H  H77  1  0.402400  0.864000  0.595600  1.0  0.289
  H  H78  1  0.436900  0.057000  0.638500  1.0  0.0619
  H  H79  1  0.624400  0.138600  0.756000  1.0  0.0631
  H  H80  1  0.653700  0.943100  0.756000  1.0  0.0952
  H  H81  1  0.572600  0.795700  0.696500  1.0  0.1062
  H  H82  1  0.383000  0.575300  0.572800  1.0  0.1268
  H  H83  1  0.376500  0.610200  0.641400  1.0  0.1304
  H  H84  1  0.295700  0.761100  0.626600  1.0  0.0853
  H  H85  1  0.307400  0.661600  0.450900  1.0  0.1019
  H  H86  1  0.246500  0.430200  0.643500  1.0  0.2535
  H  H87  1  0.347600  0.355700  0.692700  1.0  0.083
  H  H88  1  0.425500  0.267500  0.571900  1.0  0.0647
  H  H89  1  0.332500  0.331900  0.465400  1.0  0.1019
  H  H90  1  0.243600  0.412100  0.472400  1.0  0.0974
  H  H91  1  0.150800  0.626800  0.593500  1.0  0.103
  H  H92  1  0.159700  0.503600  0.634400  1.0  0.0904
  H  H93  1  0.041600  0.694100  0.530200  1.0  0.0906
  H  H94  1  0.928400  0.662000  0.461800  1.0  0.0765
  H  H95  1  0.902400  0.364000  0.595600  1.0  0.289
  H  H96  1  0.936900  0.557000  0.638500  1.0  0.0619
  H  H97  1  0.124400  0.638600  0.756000  1.0  0.0631
  H  H98  1  0.153700  0.443100  0.756000  1.0  0.0952
  H  H99  1  0.072600  0.295700  0.696500  1.0  0.1062
  H  H100  1  0.883000  0.075300  0.572800  1.0  0.1268
  H  H101  1  0.876500  0.110200  0.641400  1.0  0.1304
  H  H102  1  0.795700  0.261100  0.626600  1.0  0.0853
  H  H103  1  0.807400  0.161600  0.450900  1.0  0.1019
  H  H104  1  0.746500  0.930200  0.643500  1.0  0.2535
  H  H105  1  0.847600  0.855700  0.692700  1.0  0.083
  H  H106  1  0.925500  0.767500  0.571900  1.0  0.0647
  H  H107  1  0.832500  0.831900  0.465400  1.0  0.1019
  H  H108  1  0.743600  0.912100  0.472400  1.0  0.0974
  H  H109  1  0.650800  0.126800  0.593500  1.0  0.103
  H  H110  1  0.659700  0.003600  0.634400  1.0  0.09
  H  H111  1  0.541600  0.194100  0.530200  1.0  0.0906
  H  H112  1  0.428400  0.162000  0.461800  1.0  0.0765
  H  H113  1  0.597600  0.864000  0.904400  1.0  0.2896
  H  H114  1  0.563100  0.057000  0.861500  1.0  0.0618
  H  H115  1  0.375600  0.138600  0.744000  1.0  0.0624
  H  H116  1  0.346300  0.943100  0.744000  1.0  0.0954
  H  H117  1  0.427400  0.795700  0.803500  1.0  0.1054
  H  H118  1  0.617000  0.575300  0.927200  1.0  0.127
  H  H119  1  0.623500  0.610200  0.858600  1.0  0.1306
  H  H120  1  0.704300  0.761100  0.873400  1.0  0.0859
  H  H121  1  0.692600  0.661600  0.049100  1.0  0.1013
  H  H122  1  0.753500  0.430200  0.856500  1.0  0.2534
  H  H123  1  0.652400  0.355700  0.807300  1.0  0.084
  H  H124  1  0.574500  0.267500  0.928100  1.0  0.0648
  H  H125  1  0.667500  0.331900  0.034600  1.0  0.1019
  H  H126  1  0.756400  0.412100  0.027600  1.0  0.0972
  H  H127  1  0.849200  0.626800  0.906500  1.0  0.1039
  H  H128  1  0.840300  0.503600  0.865600  1.0  0.0904
  H  H129  1  0.958400  0.694100  0.969800  1.0  0.0909
  H  H130  1  0.071600  0.662000  0.038200  1.0  0.0765
  H  H131  1  0.097600  0.364000  0.904400  1.0  0.2896
  H  H132  1  0.063100  0.557000  0.861500  1.0  0.0618
  H  H133  1  0.875600  0.638600  0.744000  1.0  0.0624
  H  H134  1  0.846300  0.443100  0.744000  1.0  0.0954
  H  H135  1  0.927400  0.295700  0.803500  1.0  0.1054
  H  H136  1  0.117000  0.075300  0.927200  1.0  0.127
  H  H137  1  0.123500  0.110200  0.858600  1.0  0.1306
  H  H138  1  0.204300  0.261100  0.873400  1.0  0.0859
  H  H139  1  0.192600  0.161600  0.049100  1.0  0.1013
  H  H140  1  0.253500  0.930200  0.856500  1.0  0.2534
  H  H141  1  0.152400  0.855700  0.807300  1.0  0.084
  H  H142  1  0.074500  0.767500  0.928100  1.0  0.0648
  H  H143  1  0.167500  0.831900  0.034600  1.0  0.1019
  H  H144  1  0.256400  0.912100  0.027600  1.0  0.0972
  H  H145  1  0.349200  0.126800  0.906500  1.0  0.1039
  H  H146  1  0.340300  0.003600  0.865600  1.0  0.0902
  H  H147  1  0.458400  0.194100  0.969800  1.0  0.0909
  H  H148  1  0.571600  0.162000  0.038200  1.0  0.0765
  C  C149  1  0.505730  0.089400  0.339380  1.0  0.1571
  C  C150  1  0.518980  0.967300  0.337070  1.0  0.0723
  C  C151  1  0.408750  0.918900  0.268220  1.0  0.1481
  C  C152  1  0.390910  0.036000  0.268020  1.0  -0.169
  C  C153  1  0.439110  0.124200  0.303570  1.0  -0.1413
  C  C154  1  0.621100  0.356700  0.400400  1.0  -0.367
  C  C155  1  0.687300  0.299100  0.451800  1.0  0.0672
  C  C156  1  0.722400  0.244500  0.424800  1.0  -0.1322
  C  C157  1  0.715700  0.303000  0.528600  1.0  -0.1659
  C  C158  1  0.557000  0.287800  0.367800  1.0  0.5533
  C  C159  1  0.713140  0.607700  0.415750  1.0  0.2257
  C  C160  1  0.655440  0.648200  0.353720  1.0  0.0706
  C  C161  1  0.609480  0.700300  0.424500  1.0  0.1257
  C  C162  1  0.665340  0.662100  0.488710  1.0  -0.1365
  C  C163  1  0.718380  0.614500  0.484820  1.0  -0.094
  C  C164  1  0.857460  0.459100  0.414200  1.0  -0.3132
  C  C165  1  0.931220  0.480000  0.459490  1.0  0.0811
  C  C166  1  0.974710  0.384100  0.481970  1.0  -0.1375
  C  C167  1  0.042920  0.403500  0.522680  1.0  -0.0992
  C  C168  1  0.820300  0.508500  0.450370  1.0  0.4916
  C  C169  1  0.005730  0.589400  0.339380  1.0  0.1571
  C  C170  1  0.018980  0.467300  0.337070  1.0  0.0723
  C  C171  1  0.908750  0.418900  0.268220  1.0  0.1481
  C  C172  1  0.890910  0.536000  0.268020  1.0  -0.169
  C  C173  1  0.939110  0.624200  0.303570  1.0  -0.1413
  C  C174  1  0.121100  0.856700  0.400400  1.0  -0.367
  C  C175  1  0.187300  0.799100  0.451800  1.0  0.0672
  C  C176  1  0.222400  0.744500  0.424800  1.0  -0.1322
  C  C177  1  0.215700  0.803000  0.528600  1.0  -0.1659
  C  C178  1  0.057000  0.787800  0.367800  1.0  0.5533
  C  C179  1  0.213140  0.107700  0.415750  1.0  0.2257
  C  C180  1  0.155440  0.148200  0.353720  1.0  0.0706
  C  C181  1  0.109480  0.200300  0.424500  1.0  0.1257
  C  C182  1  0.165340  0.162100  0.488710  1.0  -0.1365
  C  C183  1  0.218380  0.114500  0.484820  1.0  -0.094
  C  C184  1  0.357460  0.959100  0.414200  1.0  -0.3132
  C  C185  1  0.431220  0.980000  0.459490  1.0  0.0811
  C  C186  1  0.474710  0.884100  0.481970  1.0  -0.1375
  C  C187  1  0.542920  0.903500  0.522680  1.0  -0.0992
  C  C188  1  0.320300  0.008500  0.450370  1.0  0.4916
  C  C189  1  0.494270  0.089400  0.160620  1.0  0.1584
  C  C190  1  0.481020  0.967300  0.162930  1.0  0.0734
  C  C191  1  0.591250  0.918900  0.231780  1.0  0.1478
  C  C192  1  0.609090  0.036000  0.231980  1.0  -0.168
  C  C193  1  0.560890  0.124200  0.196430  1.0  -0.1405
  C  C194  1  0.378900  0.356700  0.099600  1.0  -0.3668
  C  C195  1  0.312700  0.299100  0.048200  1.0  0.0676
  C  C196  1  0.277600  0.244500  0.075200  1.0  -0.1351
  C  C197  1  0.284300  0.303000  0.971400  1.0  -0.165
  C  C198  1  0.443000  0.287800  0.132200  1.0  0.5521
  C  C199  1  0.286860  0.607700  0.084250  1.0  0.2277
  C  C200  1  0.344560  0.648200  0.146280  1.0  0.0677
  C  C201  1  0.390520  0.700300  0.075500  1.0  0.1244
  C  C202  1  0.334660  0.662100  0.011290  1.0  -0.1379
  C  C203  1  0.281620  0.614500  0.015180  1.0  -0.0946
  C  C204  1  0.142540  0.459100  0.085800  1.0  -0.3164
  C  C205  1  0.068780  0.480000  0.040510  1.0  0.082
  C  C206  1  0.025290  0.384100  0.018030  1.0  -0.1371
  C  C207  1  0.957080  0.403500  0.977320  1.0  -0.0985
  C  C208  1  0.179700  0.508500  0.049630  1.0  0.4919
  C  C209  1  0.994270  0.589400  0.160620  1.0  0.1584
  C  C210  1  0.981020  0.467300  0.162930  1.0  0.0734
  C  C211  1  0.091250  0.418900  0.231780  1.0  0.1478
  C  C212  1  0.109090  0.536000  0.231980  1.0  -0.168
  C  C213  1  0.060890  0.624200  0.196430  1.0  -0.1405
  C  C214  1  0.878900  0.856700  0.099600  1.0  -0.3668
  C  C215  1  0.812700  0.799100  0.048200  1.0  0.0676
  C  C216  1  0.777600  0.744500  0.075200  1.0  -0.1351
  C  C217  1  0.784300  0.803000  0.971400  1.0  -0.165
  C  C218  1  0.943000  0.787800  0.132200  1.0  0.5521
  C  C219  1  0.786860  0.107700  0.084250  1.0  0.2277
  C  C220  1  0.844560  0.148200  0.146280  1.0  0.0677
  C  C221  1  0.890520  0.200300  0.075500  1.0  0.1244
  C  C222  1  0.834660  0.162100  0.011290  1.0  -0.1379
  C  C223  1  0.781620  0.114500  0.015180  1.0  -0.0946
  C  C224  1  0.642540  0.959100  0.085800  1.0  -0.3164
  C  C225  1  0.568780  0.980000  0.040510  1.0  0.082
  C  C226  1  0.525290  0.884100  0.018030  1.0  -0.1371
  C  C227  1  0.457080  0.903500  0.977320  1.0  -0.0985
  C  C228  1  0.679700  0.008500  0.049630  1.0  0.4919
  C  C229  1  0.494270  0.910600  0.660620  1.0  0.1582
  C  C230  1  0.481020  0.032700  0.662930  1.0  0.0731
  C  C231  1  0.591250  0.081100  0.731780  1.0  0.1485
  C  C232  1  0.609090  0.964000  0.731980  1.0  -0.1681
  C  C233  1  0.560890  0.875800  0.696430  1.0  -0.139
  C  C234  1  0.378900  0.643300  0.599600  1.0  -0.3658
  C  C235  1  0.312700  0.700900  0.548200  1.0  0.0679
  C  C236  1  0.277600  0.755500  0.575200  1.0  -0.1358
  C  C237  1  0.284300  0.697000  0.471400  1.0  -0.1623
  C  C238  1  0.443000  0.712200  0.632200  1.0  0.5527
  C  C239  1  0.286860  0.392300  0.584250  1.0  0.2279
  C  C240  1  0.344560  0.351800  0.646280  1.0  0.0676
  C  C241  1  0.390520  0.299700  0.575500  1.0  0.1246
  C  C242  1  0.334660  0.337900  0.511290  1.0  -0.1391
  C  C243  1  0.281620  0.385500  0.515180  1.0  -0.0948
  C  C244  1  0.142540  0.540900  0.585800  1.0  -0.3157
  C  C245  1  0.068780  0.520000  0.540510  1.0  0.0819
  C  C246  1  0.025290  0.615900  0.518030  1.0  -0.1361
  C  C247  1  0.957080  0.596500  0.477320  1.0  -0.1
  C  C248  1  0.179700  0.491500  0.549630  1.0  0.4919
  C  C249  1  0.994270  0.410600  0.660620  1.0  0.1582
  C  C250  1  0.981020  0.532700  0.662930  1.0  0.0731
  C  C251  1  0.091250  0.581100  0.731780  1.0  0.1485
  C  C252  1  0.109090  0.464000  0.731980  1.0  -0.1681
  C  C253  1  0.060890  0.375800  0.696430  1.0  -0.139
  C  C254  1  0.878900  0.143300  0.599600  1.0  -0.3658
  C  C255  1  0.812700  0.200900  0.548200  1.0  0.0679
  C  C256  1  0.777600  0.255500  0.575200  1.0  -0.1358
  C  C257  1  0.784300  0.197000  0.471400  1.0  -0.1623
  C  C258  1  0.943000  0.212200  0.632200  1.0  0.5527
  C  C259  1  0.786860  0.892300  0.584250  1.0  0.2279
  C  C260  1  0.844560  0.851800  0.646280  1.0  0.0676
  C  C261  1  0.890520  0.799700  0.575500  1.0  0.1246
  C  C262  1  0.834660  0.837900  0.511290  1.0  -0.1391
  C  C263  1  0.781620  0.885500  0.515180  1.0  -0.0948
  C  C264  1  0.642540  0.040900  0.585800  1.0  -0.3157
  C  C265  1  0.568780  0.020000  0.540510  1.0  0.0819
  C  C266  1  0.525290  0.115900  0.518030  1.0  -0.1361
  C  C267  1  0.457080  0.096500  0.477320  1.0  -0.1
  C  C268  1  0.679700  0.991500  0.549630  1.0  0.4919
  C  C269  1  0.505730  0.910600  0.839380  1.0  0.1571
  C  C270  1  0.518980  0.032700  0.837070  1.0  0.0723
  C  C271  1  0.408750  0.081100  0.768220  1.0  0.149
  C  C272  1  0.390910  0.964000  0.768020  1.0  -0.1684
  C  C273  1  0.439110  0.875800  0.803570  1.0  -0.1393
  C  C274  1  0.621100  0.643300  0.900400  1.0  -0.3671
  C  C275  1  0.687300  0.700900  0.951800  1.0  0.0674
  C  C276  1  0.722400  0.755500  0.924800  1.0  -0.1339
  C  C277  1  0.715700  0.697000  0.028600  1.0  -0.1622
  C  C278  1  0.557000  0.712200  0.867800  1.0  0.5517
  C  C279  1  0.713140  0.392300  0.915750  1.0  0.2256
  C  C280  1  0.655440  0.351800  0.853720  1.0  0.07
  C  C281  1  0.609480  0.299700  0.924500  1.0  0.1257
  C  C282  1  0.665340  0.337900  0.988710  1.0  -0.1366
  C  C283  1  0.718380  0.385500  0.984820  1.0  -0.094
  C  C284  1  0.857460  0.540900  0.914200  1.0  -0.3129
  C  C285  1  0.931220  0.520000  0.959490  1.0  0.0807
  C  C286  1  0.974710  0.615900  0.981970  1.0  -0.138
  C  C287  1  0.042920  0.596500  0.022680  1.0  -0.099
  C  C288  1  0.820300  0.491500  0.950370  1.0  0.4918
  C  C289  1  0.005730  0.410600  0.839380  1.0  0.1571
  C  C290  1  0.018980  0.532700  0.837070  1.0  0.0723
  C  C291  1  0.908750  0.581100  0.768220  1.0  0.149
  C  C292  1  0.890910  0.464000  0.768020  1.0  -0.1684
  C  C293  1  0.939110  0.375800  0.803570  1.0  -0.1393
  C  C294  1  0.121100  0.143300  0.900400  1.0  -0.3671
  C  C295  1  0.187300  0.200900  0.951800  1.0  0.0674
  C  C296  1  0.222400  0.255500  0.924800  1.0  -0.1339
  C  C297  1  0.215700  0.197000  0.028600  1.0  -0.1622
  C  C298  1  0.057000  0.212200  0.867800  1.0  0.5517
  C  C299  1  0.213140  0.892300  0.915750  1.0  0.2256
  C  C300  1  0.155440  0.851800  0.853720  1.0  0.07
  C  C301  1  0.109480  0.799700  0.924500  1.0  0.1257
  C  C302  1  0.165340  0.837900  0.988710  1.0  -0.1366
  C  C303  1  0.218380  0.885500  0.984820  1.0  -0.094
  C  C304  1  0.357460  0.040900  0.914200  1.0  -0.3129
  C  C305  1  0.431220  0.020000  0.959490  1.0  0.0807
  C  C306  1  0.474710  0.115900  0.981970  1.0  -0.138
  C  C307  1  0.542920  0.096500  0.022680  1.0  -0.099
  C  C308  1  0.320300  0.991500  0.950370  1.0  0.4918
  N  N309  1  0.472680  0.883500  0.302290  1.0  -0.3845
  N  N310  1  0.559430  0.167600  0.375050  1.0  -0.43
  N  N311  1  0.603770  0.692800  0.357060  1.0  -0.3734
  N  N312  1  0.761730  0.562500  0.401650  1.0  -0.3711
  N  N313  1  0.972680  0.383500  0.302290  1.0  -0.3845
  N  N314  1  0.059430  0.667600  0.375050  1.0  -0.43
  N  N315  1  0.103770  0.192800  0.357060  1.0  -0.3734
  N  N316  1  0.261730  0.062500  0.401650  1.0  -0.3711
  N  N317  1  0.527320  0.883500  0.197710  1.0  -0.3862
  N  N318  1  0.440570  0.167600  0.124950  1.0  -0.4298
  N  N319  1  0.396230  0.692800  0.142940  1.0  -0.3721
  N  N320  1  0.238270  0.562500  0.098350  1.0  -0.3636
  N  N321  1  0.027320  0.383500  0.197710  1.0  -0.3862
  N  N322  1  0.940570  0.667600  0.124950  1.0  -0.4298
  N  N323  1  0.896230  0.192800  0.142940  1.0  -0.3721
  N  N324  1  0.738270  0.062500  0.098350  1.0  -0.3636
  N  N325  1  0.527320  0.116500  0.697710  1.0  -0.3888
  N  N326  1  0.440570  0.832400  0.624950  1.0  -0.4296
  N  N327  1  0.396230  0.307200  0.642940  1.0  -0.3717
  N  N328  1  0.238270  0.437500  0.598350  1.0  -0.3632
  N  N329  1  0.027320  0.616500  0.697710  1.0  -0.3888
  N  N330  1  0.940570  0.332400  0.624950  1.0  -0.4296
  N  N331  1  0.896230  0.807200  0.642940  1.0  -0.3717
  N  N332  1  0.738270  0.937500  0.598350  1.0  -0.3632
  N  N333  1  0.472680  0.116500  0.802290  1.0  -0.3883
  N  N334  1  0.559430  0.832400  0.875050  1.0  -0.4297
  N  N335  1  0.603770  0.307200  0.857060  1.0  -0.3741
  N  N336  1  0.761730  0.437500  0.901650  1.0  -0.3701
  N  N337  1  0.972680  0.616500  0.802290  1.0  -0.3883
  N  N338  1  0.059430  0.332400  0.875050  1.0  -0.4297
  N  N339  1  0.103770  0.807200  0.857060  1.0  -0.3741
  N  N340  1  0.261730  0.937500  0.901650  1.0  -0.3701
  O  O341  1  0.506130  0.342400  0.331600  1.0  -0.5036
  O  O342  1  0.839910  0.498800  0.517040  1.0  -0.5732
  O  O343  1  0.006130  0.842400  0.331600  1.0  -0.5036
  O  O344  1  0.339910  0.998800  0.517040  1.0  -0.5732
  O  O345  1  0.493870  0.342400  0.168400  1.0  -0.5043
  O  O346  1  0.160090  0.498800  0.982960  1.0  -0.5742
  O  O347  1  0.993870  0.842400  0.168400  1.0  -0.5043
  O  O348  1  0.660090  0.998800  0.982960  1.0  -0.5742
  O  O349  1  0.493870  0.657600  0.668400  1.0  -0.5041
  O  O350  1  0.160090  0.501200  0.482960  1.0  -0.5745
  O  O351  1  0.993870  0.157600  0.668400  1.0  -0.5041
  O  O352  1  0.660090  0.001200  0.482960  1.0  -0.5745
  O  O353  1  0.506130  0.657600  0.831600  1.0  -0.5038
  O  O354  1  0.839910  0.501200  0.017040  1.0  -0.5736
  O  O355  1  0.006130  0.157600  0.831600  1.0  -0.5038
  O  O356  1  0.339910  0.001200  0.017040  1.0  -0.5736
