# generated using pymatgen
data_Fe3Mo12P8(HO26)2
_symmetry_space_group_name_H-M   'P 1'
_cell_length_a   16.20450000
_cell_length_b   11.86800000
_cell_length_c   17.95910000
_cell_angle_alpha   90.00000000
_cell_angle_beta   103.64400000
_cell_angle_gamma   90.00000000
_symmetry_Int_Tables_number   1
_chemical_formula_structural   Fe3Mo12P8(HO26)2
_chemical_formula_sum   'Fe6 Mo24 P16 H4 O104'
_cell_volume   3356.33853939
_cell_formula_units_Z   2
loop_
 _symmetry_equiv_pos_site_id
 _symmetry_equiv_pos_as_xyz
  1  'x, y, z'
loop_
 _atom_site_type_symbol
 _atom_site_label
 _atom_site_symmetry_multiplicity
 _atom_site_fract_x
 _atom_site_fract_y
 _atom_site_fract_z
 _atom_site_occupancy
 _atom_site_charge
  Fe  Fe1  1  0.124050  0.997440  0.134320  1.0  1.1677
  Fe  Fe2  1  0.375950  0.497440  0.365680  1.0  1.1672
  Fe  Fe3  1  0.875950  0.002560  0.865680  1.0  1.1674
  Fe  Fe4  1  0.624050  0.502560  0.634320  1.0  1.1682
  Fe  Fe5  1  0.500000  0.000000  0.000000  1.0  0.9493
  Fe  Fe6  1  0.000000  0.500000  0.500000  1.0  0.9493
  Mo  Mo7  1  0.283410  0.858840  0.932570  1.0  1.3317
  Mo  Mo8  1  0.284160  0.151740  0.962970  1.0  1.3178
  Mo  Mo9  1  0.382560  0.733040  0.033420  1.0  1.2989
  Mo  Mo10  1  0.520400  0.854320  0.195150  1.0  1.2919
  Mo  Mo11  1  0.523410  0.070980  0.213170  1.0  1.2881
  Mo  Mo12  1  0.388860  0.244510  0.078160  1.0  1.3006
  Mo  Mo13  1  0.216590  0.358840  0.567430  1.0  1.3283
  Mo  Mo14  1  0.215840  0.651740  0.537030  1.0  1.3177
  Mo  Mo15  1  0.117440  0.233040  0.466580  1.0  1.298
  Mo  Mo16  1  0.979600  0.354320  0.304850  1.0  1.2956
  Mo  Mo17  1  0.976590  0.570980  0.286830  1.0  1.2921
  Mo  Mo18  1  0.111140  0.744510  0.421840  1.0  1.3008
  Mo  Mo19  1  0.716590  0.141160  0.067430  1.0  1.3311
  Mo  Mo20  1  0.715840  0.848260  0.037030  1.0  1.314
  Mo  Mo21  1  0.617440  0.266960  0.966580  1.0  1.2991
  Mo  Mo22  1  0.479600  0.145680  0.804850  1.0  1.2956
  Mo  Mo23  1  0.476590  0.929020  0.786830  1.0  1.292
  Mo  Mo24  1  0.611140  0.755490  0.921840  1.0  1.3011
  Mo  Mo25  1  0.783410  0.641160  0.432570  1.0  1.3306
  Mo  Mo26  1  0.784160  0.348260  0.462970  1.0  1.3163
  Mo  Mo27  1  0.882560  0.766960  0.533420  1.0  1.2983
  Mo  Mo28  1  0.020400  0.645680  0.695150  1.0  1.2925
  Mo  Mo29  1  0.023410  0.429020  0.713170  1.0  1.2888
  Mo  Mo30  1  0.888860  0.255490  0.578160  1.0  1.301
  P  P31  1  0.438810  0.299440  0.262840  1.0  1.8294
  P  P32  1  0.376910  0.663030  0.210430  1.0  1.8446
  P  P33  1  0.327000  0.975460  0.114150  1.0  1.8648
  P  P34  1  0.111000  0.991950  0.942060  1.0  1.7285
  P  P35  1  0.061190  0.799440  0.237160  1.0  1.8289
  P  P36  1  0.123090  0.163030  0.289570  1.0  1.8434
  P  P37  1  0.173000  0.475460  0.385850  1.0  1.8641
  P  P38  1  0.389000  0.491950  0.557940  1.0  1.7298
  P  P39  1  0.561190  0.700560  0.737160  1.0  1.829
  P  P40  1  0.623090  0.336970  0.789570  1.0  1.8442
  P  P41  1  0.673000  0.024540  0.885850  1.0  1.864
  P  P42  1  0.889000  0.008050  0.057940  1.0  1.7292
  P  P43  1  0.938810  0.200560  0.762840  1.0  1.8293
  P  P44  1  0.876910  0.836970  0.710430  1.0  1.8439
  P  P45  1  0.827000  0.524540  0.614150  1.0  1.8647
  P  P46  1  0.611000  0.508050  0.442060  1.0  1.7281
  H  H47  1  0.158700  0.193600  0.081700  1.0  0.5219
  H  H48  1  0.341300  0.693600  0.418300  1.0  0.5197
  H  H49  1  0.841300  0.806400  0.918300  1.0  0.5205
  H  H50  1  0.658700  0.306400  0.581700  1.0  0.5225
  O  O51  1  0.259320  0.959700  0.158080  1.0  -0.7612
  O  O52  1  0.260780  0.754500  0.008310  1.0  -0.6102
  O  O53  1  0.408250  0.138500  0.998960  1.0  -0.7087
  O  O54  1  0.407440  0.865400  0.975880  1.0  -0.7522
  O  O55  1  0.265990  0.226100  0.053650  1.0  -0.6076
  O  O56  1  0.470900  0.176500  0.278390  1.0  -0.6772
  O  O57  1  0.535560  0.976400  0.125130  1.0  -0.7261
  O  O58  1  0.158390  0.899600  0.908470  1.0  -0.6779
  O  O59  1  0.508420  0.745600  0.099710  1.0  -0.5468
  O  O60  1  0.022650  0.002300  0.882900  1.0  -0.8134
  O  O61  1  0.384390  0.868800  0.122970  1.0  -0.7365
  O  O62  1  0.156460  0.105900  0.939020  1.0  -0.6835
  O  O63  1  0.385630  0.077200  0.141910  1.0  -0.8084
  O  O64  1  0.288310  0.990300  0.026840  1.0  -0.7703
  O  O65  1  0.295060  0.019400  0.885380  1.0  -0.6005
  O  O66  1  0.482300  0.950000  0.267680  1.0  -0.6102
  O  O67  1  0.515010  0.378300  0.265860  1.0  -0.4664
  O  O68  1  0.378140  0.304300  0.182050  1.0  -0.6652
  O  O69  1  0.513850  0.209800  0.137310  1.0  -0.5683
  O  O70  1  0.391520  0.331800  0.322850  1.0  -0.6848
  O  O71  1  0.098300  0.959700  0.018580  1.0  -0.6927
  O  O72  1  0.461200  0.724700  0.240070  1.0  -0.6718
  O  O73  1  0.365700  0.637100  0.124220  1.0  -0.6796
  O  O74  1  0.300000  0.739600  0.219700  1.0  -0.4462
  O  O75  1  0.370200  0.556400  0.252810  1.0  -0.6851
  O  O76  1  0.121900  0.180400  0.105000  1.0  -0.6077
  O  O77  1  0.240680  0.459700  0.341920  1.0  -0.7621
  O  O78  1  0.239220  0.254500  0.491690  1.0  -0.6111
  O  O79  1  0.091750  0.638500  0.501040  1.0  -0.708
  O  O80  1  0.092560  0.365400  0.524120  1.0  -0.7532
  O  O81  1  0.234010  0.726100  0.446350  1.0  -0.6059
  O  O82  1  0.029100  0.676500  0.221610  1.0  -0.6781
  O  O83  1  0.964440  0.476400  0.374870  1.0  -0.7241
  O  O84  1  0.341610  0.399600  0.591530  1.0  -0.6799
  O  O85  1  0.991580  0.245600  0.400290  1.0  -0.5463
  O  O86  1  0.477350  0.502300  0.617100  1.0  -0.8123
  O  O87  1  0.115610  0.368800  0.377030  1.0  -0.7365
  O  O88  1  0.343540  0.605900  0.560980  1.0  -0.6826
  O  O89  1  0.114370  0.577200  0.358090  1.0  -0.8077
  O  O90  1  0.211690  0.490300  0.473160  1.0  -0.7726
  O  O91  1  0.204940  0.519400  0.614620  1.0  -0.6026
  O  O92  1  0.017700  0.450000  0.232320  1.0  -0.6165
  O  O93  1  0.984990  0.878300  0.234140  1.0  -0.4652
  O  O94  1  0.121860  0.804300  0.317950  1.0  -0.6669
  O  O95  1  0.986150  0.709800  0.362690  1.0  -0.5662
  O  O96  1  0.108480  0.831800  0.177150  1.0  -0.6851
  O  O97  1  0.401700  0.459700  0.481420  1.0  -0.6918
  O  O98  1  0.038800  0.224700  0.259930  1.0  -0.6691
  O  O99  1  0.134300  0.137100  0.375780  1.0  -0.6795
  O  O100  1  0.200000  0.239600  0.280300  1.0  -0.4448
  O  O101  1  0.129800  0.056400  0.247190  1.0  -0.6847
  O  O102  1  0.378100  0.680400  0.395000  1.0  -0.6063
  O  O103  1  0.740680  0.040300  0.841920  1.0  -0.7623
  O  O104  1  0.739220  0.245500  0.991690  1.0  -0.6086
  O  O105  1  0.591750  0.861500  0.001040  1.0  -0.7076
  O  O106  1  0.592560  0.134600  0.024120  1.0  -0.7531
  O  O107  1  0.734010  0.773900  0.946350  1.0  -0.6077
  O  O108  1  0.529100  0.823500  0.721610  1.0  -0.6784
  O  O109  1  0.464440  0.023600  0.874870  1.0  -0.7239
  O  O110  1  0.841610  0.100400  0.091530  1.0  -0.678
  O  O111  1  0.491580  0.254400  0.900290  1.0  -0.5447
  O  O112  1  0.977350  0.997700  0.117100  1.0  -0.8123
  O  O113  1  0.615610  0.131200  0.877030  1.0  -0.7363
  O  O114  1  0.843540  0.894100  0.060980  1.0  -0.6837
  O  O115  1  0.614370  0.922800  0.858090  1.0  -0.8082
  O  O116  1  0.711690  0.009700  0.973160  1.0  -0.7726
  O  O117  1  0.704940  0.980600  0.114620  1.0  -0.6035
  O  O118  1  0.517700  0.050000  0.732320  1.0  -0.6163
  O  O119  1  0.484990  0.621700  0.734140  1.0  -0.4657
  O  O120  1  0.621860  0.695700  0.817950  1.0  -0.6662
  O  O121  1  0.486150  0.790200  0.862690  1.0  -0.5676
  O  O122  1  0.608480  0.668200  0.677150  1.0  -0.6849
  O  O123  1  0.901700  0.040300  0.981420  1.0  -0.693
  O  O124  1  0.538800  0.275300  0.759930  1.0  -0.6687
  O  O125  1  0.634300  0.362900  0.875780  1.0  -0.6798
  O  O126  1  0.700000  0.260400  0.780300  1.0  -0.4458
  O  O127  1  0.629800  0.443600  0.747190  1.0  -0.6857
  O  O128  1  0.878100  0.819600  0.895000  1.0  -0.6062
  O  O129  1  0.759320  0.540300  0.658080  1.0  -0.7617
  O  O130  1  0.760780  0.745500  0.508310  1.0  -0.6069
  O  O131  1  0.908250  0.361500  0.498960  1.0  -0.708
  O  O132  1  0.907440  0.634600  0.475880  1.0  -0.7521
  O  O133  1  0.765990  0.273900  0.553650  1.0  -0.6092
  O  O134  1  0.970900  0.323500  0.778390  1.0  -0.6771
  O  O135  1  0.035560  0.523600  0.625130  1.0  -0.726
  O  O136  1  0.658390  0.600400  0.408470  1.0  -0.6797
  O  O137  1  0.008420  0.754400  0.599710  1.0  -0.5465
  O  O138  1  0.522650  0.497700  0.382900  1.0  -0.8134
  O  O139  1  0.884390  0.631200  0.622970  1.0  -0.7369
  O  O140  1  0.656460  0.394100  0.439020  1.0  -0.6836
  O  O141  1  0.885630  0.422800  0.641910  1.0  -0.8086
  O  O142  1  0.788310  0.509700  0.526840  1.0  -0.7702
  O  O143  1  0.795060  0.480600  0.385380  1.0  -0.6011
  O  O144  1  0.982300  0.550000  0.767680  1.0  -0.6101
  O  O145  1  0.015010  0.121700  0.765860  1.0  -0.4668
  O  O146  1  0.878140  0.195700  0.682050  1.0  -0.6639
  O  O147  1  0.013850  0.290200  0.637310  1.0  -0.5686
  O  O148  1  0.891520  0.168200  0.822850  1.0  -0.6847
  O  O149  1  0.598300  0.540300  0.518580  1.0  -0.6941
  O  O150  1  0.961200  0.775300  0.740070  1.0  -0.6715
  O  O151  1  0.865700  0.862900  0.624220  1.0  -0.6813
  O  O152  1  0.800000  0.760400  0.719700  1.0  -0.4465
  O  O153  1  0.870200  0.943600  0.752810  1.0  -0.6862
  O  O154  1  0.621900  0.319600  0.605000  1.0  -0.6083
