# generated using pymatgen
data_Gd2H6(C3O4)3
_symmetry_space_group_name_H-M   'P 1'
_cell_length_a   10.51250000
_cell_length_b   10.51250000
_cell_length_c   10.86520000
_cell_angle_alpha   78.88770000
_cell_angle_beta   62.45430000
_cell_angle_gamma   108.83400000
_symmetry_Int_Tables_number   1
_chemical_formula_structural   Gd2H6(C3O4)3
_chemical_formula_sum   'Gd4 H12 C18 O24'
_cell_volume   920.13492569
_cell_formula_units_Z   2
loop_
 _symmetry_equiv_pos_site_id
 _symmetry_equiv_pos_as_xyz
  1  'x, y, z'
loop_
 _atom_site_type_symbol
 _atom_site_label
 _atom_site_symmetry_multiplicity
 _atom_site_fract_x
 _atom_site_fract_y
 _atom_site_fract_z
 _atom_site_occupancy
 _atom_site_charge
  Gd  Gd1  1  0.052030  0.365550  0.879570  1.0  2.2484
  Gd  Gd2  1  0.745120  0.931600  0.620430  1.0  2.2467
  Gd  Gd3  1  0.947970  0.634450  0.120430  1.0  2.2518
  Gd  Gd4  1  0.254880  0.068400  0.379570  1.0  2.247
  H  H5  1  0.460000  0.384900  0.818100  1.0  0.1842
  H  H6  1  0.604100  0.488800  0.649500  1.0  0.1716
  H  H7  1  0.887000  0.552000  0.719000  1.0  0.1987
  H  H8  1  0.703000  0.278100  0.681900  1.0  0.1823
  H  H9  1  0.638300  0.253600  0.850500  1.0  0.1695
  H  H10  1  0.771000  0.606000  0.781000  1.0  0.1836
  H  H11  1  0.540000  0.615100  0.181900  1.0  0.1841
  H  H12  1  0.395900  0.511200  0.350500  1.0  0.1733
  H  H13  1  0.113000  0.448000  0.281000  1.0  0.1981
  H  H14  1  0.297000  0.721900  0.318100  1.0  0.183
  H  H15  1  0.361700  0.746400  0.149500  1.0  0.169
  H  H16  1  0.229000  0.394000  0.219000  1.0  0.1811
  C  C17  1  0.453000  0.572400  0.743400  1.0  0.9502
  C  C18  1  0.487600  0.447600  0.722000  1.0  -0.6211
  C  C19  1  0.402200  0.351100  0.668500  1.0  0.8519
  C  C20  1  0.901700  0.624900  0.875200  1.0  0.8288
  C  C21  1  0.815800  0.196400  0.756600  1.0  0.9448
  C  C22  1  0.669600  0.209600  0.778000  1.0  -0.6209
  C  C23  1  0.519600  0.070700  0.831500  1.0  0.85
  C  C24  1  0.000100  0.776900  0.624800  1.0  0.8234
  C  C25  1  0.547000  0.427600  0.256600  1.0  0.9455
  C  C26  1  0.512400  0.552400  0.278000  1.0  -0.6189
  C  C27  1  0.597800  0.648900  0.331500  1.0  0.8497
  C  C28  1  0.098300  0.375100  0.124800  1.0  0.8273
  C  C29  1  0.184200  0.803600  0.243400  1.0  0.9475
  C  C30  1  0.330400  0.790400  0.222000  1.0  -0.6213
  C  C31  1  0.480400  0.929300  0.168500  1.0  0.8491
  C  C32  1  0.999900  0.223100  0.375200  1.0  0.8214
  C  C33  1  0.875600  0.625600  0.750000  1.0  -0.5093
  C  C34  1  0.124400  0.374400  0.250000  1.0  -0.508
  O  O35  1  0.312900  0.558200  0.792900  1.0  -0.7343
  O  O36  1  0.568700  0.686000  0.715300  1.0  -0.843
  O  O37  1  0.252800  0.309800  0.725400  1.0  -0.8271
  O  O38  1  0.482600  0.312500  0.572500  1.0  -0.6169
  O  O39  1  0.962000  0.549100  0.907900  1.0  -0.864
  O  O40  1  0.869100  0.707100  0.941600  1.0  -0.6554
  O  O41  1  0.851100  0.105800  0.707100  1.0  -0.7302
  O  O42  1  0.901300  0.284000  0.784700  1.0  -0.8401
  O  O43  1  0.535200  0.978200  0.774600  1.0  -0.8297
  O  O44  1  0.385000  0.055100  0.927500  1.0  -0.6193
  O  O45  1  0.957000  0.869900  0.592100  1.0  -0.8629
  O  O46  1  0.148700  0.810700  0.558400  1.0  -0.6593
  O  O47  1  0.687100  0.441800  0.207100  1.0  -0.732
  O  O48  1  0.431300  0.314000  0.284700  1.0  -0.8428
  O  O49  1  0.747200  0.690200  0.274600  1.0  -0.8298
  O  O50  1  0.517400  0.687500  0.427500  1.0  -0.6162
  O  O51  1  0.038000  0.450900  0.092100  1.0  -0.8645
  O  O52  1  0.130900  0.292900  0.058400  1.0  -0.6547
  O  O53  1  0.148900  0.894200  0.292900  1.0  -0.7289
  O  O54  1  0.098700  0.716000  0.215300  1.0  -0.8392
  O  O55  1  0.464800  0.021800  0.225400  1.0  -0.8312
  O  O56  1  0.615000  0.944900  0.072500  1.0  -0.6205
  O  O57  1  0.043000  0.130100  0.407900  1.0  -0.8635
  O  O58  1  0.851300  0.189300  0.441600  1.0  -0.6571
