# generated using pymatgen
data_Gd2H6(C3O4)3
_symmetry_space_group_name_H-M   'P 1'
_cell_length_a   10.52700000
_cell_length_b   10.52700000
_cell_length_c   10.88720000
_cell_angle_alpha   101.09800000
_cell_angle_beta   117.54400000
_cell_angle_gamma   108.82400000
_symmetry_Int_Tables_number   1
_chemical_formula_structural   Gd2H6(C3O4)3
_chemical_formula_sum   'Gd4 H12 C18 O24'
_cell_volume   924.80384206
_cell_formula_units_Z   2
loop_
 _symmetry_equiv_pos_site_id
 _symmetry_equiv_pos_as_xyz
  1  'x, y, z'
loop_
 _atom_site_type_symbol
 _atom_site_label
 _atom_site_symmetry_multiplicity
 _atom_site_fract_x
 _atom_site_fract_y
 _atom_site_fract_z
 _atom_site_occupancy
 _atom_site_charge
  Gd  Gd1  1  0.052060  0.365570  0.120410  1.0  2.2088
  Gd  Gd2  1  0.745160  0.931650  0.379590  1.0  2.2088
  Gd  Gd3  1  0.947940  0.634430  0.879590  1.0  2.2083
  Gd  Gd4  1  0.254840  0.068350  0.620410  1.0  2.2104
  H  H5  1  0.617000  0.489000  0.352000  1.0  0.1118
  H  H6  1  0.438000  0.378000  0.176000  1.0  0.148
  H  H7  1  0.234000  0.373000  0.803000  1.0  0.074
  H  H8  1  0.637000  0.265000  0.148000  1.0  0.1087
  H  H9  1  0.702000  0.262000  0.324000  1.0  0.149
  H  H10  1  0.070000  0.431000  0.697000  1.0  0.0719
  H  H11  1  0.383000  0.511000  0.648000  1.0  0.112
  H  H12  1  0.562000  0.622000  0.824000  1.0  0.1484
  H  H13  1  0.766000  0.627000  0.197000  1.0  0.0748
  H  H14  1  0.363000  0.735000  0.852000  1.0  0.1095
  H  H15  1  0.298000  0.738000  0.676000  1.0  0.1501
  H  H16  1  0.930000  0.569000  0.303000  1.0  0.074
  C  C17  1  0.488300  0.448100  0.279200  1.0  -0.2847
  C  C18  1  0.452500  0.572880  0.256180  1.0  0.7708
  C  C19  1  0.402500  0.351170  0.331470  1.0  0.7835
  C  C20  1  0.999100  0.223280  0.624580  1.0  0.7205
  C  C21  1  0.668900  0.209100  0.220800  1.0  -0.2832
  C  C22  1  0.816700  0.196320  0.243820  1.0  0.7682
  C  C23  1  0.519700  0.071030  0.168530  1.0  0.7801
  C  C24  1  0.098700  0.374520  0.875420  1.0  0.7257
  C  C25  1  0.511700  0.551900  0.720800  1.0  -0.2863
  C  C26  1  0.547500  0.427120  0.743820  1.0  0.7696
  C  C27  1  0.597500  0.648830  0.668530  1.0  0.7829
  C  C28  1  0.000900  0.776720  0.375420  1.0  0.721
  C  C29  1  0.331100  0.790900  0.779200  1.0  -0.2832
  C  C30  1  0.183300  0.803680  0.756180  1.0  0.7704
  C  C31  1  0.480300  0.928970  0.831470  1.0  0.7794
  C  C32  1  0.901300  0.625480  0.124580  1.0  0.7265
  C  C33  1  0.124900  0.374900  0.750000  1.0  -0.0966
  C  C34  1  0.875100  0.625100  0.250000  1.0  -0.096
  O  O35  1  0.313160  0.558120  0.207220  1.0  -0.7206
  O  O36  1  0.253180  0.310230  0.274650  1.0  -0.8234
  O  O37  1  0.851470  0.189650  0.558440  1.0  -0.6826
  O  O38  1  0.482990  0.312070  0.428120  1.0  -0.5762
  O  O39  1  0.568430  0.685370  0.284540  1.0  -0.7995
  O  O40  1  0.042730  0.130410  0.591600  1.0  -0.8784
  O  O41  1  0.850900  0.105940  0.292780  1.0  -0.7195
  O  O42  1  0.535580  0.978530  0.225350  1.0  -0.8291
  O  O43  1  0.131210  0.293030  0.941560  1.0  -0.6793
  O  O44  1  0.383950  0.054870  0.071880  1.0  -0.5726
  O  O45  1  0.900830  0.283890  0.215460  1.0  -0.7996
  O  O46  1  0.038810  0.451130  0.908400  1.0  -0.8816
  O  O47  1  0.686840  0.441880  0.792780  1.0  -0.7215
  O  O48  1  0.746820  0.689770  0.725350  1.0  -0.8291
  O  O49  1  0.148530  0.810350  0.441560  1.0  -0.6848
  O  O50  1  0.517010  0.687930  0.571880  1.0  -0.5738
  O  O51  1  0.431570  0.314630  0.715460  1.0  -0.7978
  O  O52  1  0.957270  0.869590  0.408400  1.0  -0.8803
  O  O53  1  0.149100  0.894060  0.707220  1.0  -0.7192
  O  O54  1  0.464420  0.021470  0.774650  1.0  -0.8342
  O  O55  1  0.868790  0.706970  0.058440  1.0  -0.6809
  O  O56  1  0.616050  0.945130  0.928120  1.0  -0.5751
  O  O57  1  0.099170  0.716110  0.784540  1.0  -0.798
  O  O58  1  0.961190  0.548870  0.091600  1.0  -0.8805
