# generated using pymatgen
data_Ni3P4H34C34(N4O7)2
_symmetry_space_group_name_H-M   'P 1'
_cell_length_a   8.85450000
_cell_length_b   10.67200000
_cell_length_c   15.38900000
_cell_angle_alpha   76.40000000
_cell_angle_beta   78.58000000
_cell_angle_gamma   79.92000000
_symmetry_Int_Tables_number   1
_chemical_formula_structural   Ni3P4H34C34(N4O7)2
_chemical_formula_sum   'Ni3 P4 H34 C34 N8 O14'
_cell_volume   1372.77776668
_cell_formula_units_Z   1
loop_
 _symmetry_equiv_pos_site_id
 _symmetry_equiv_pos_as_xyz
  1  'x, y, z'
loop_
 _atom_site_type_symbol
 _atom_site_label
 _atom_site_symmetry_multiplicity
 _atom_site_fract_x
 _atom_site_fract_y
 _atom_site_fract_z
 _atom_site_occupancy
 _atom_site_charge
  Ni  Ni1  1  0.807740  0.925260  0.626920  1.0  0.8199
  Ni  Ni2  1  0.192260  0.074740  0.373080  1.0  0.8171
  Ni  Ni3  1  0.000000  0.500000  0.500000  1.0  0.7768
  P  P4  1  0.715410  0.726950  0.537860  1.0  1.4206
  P  P5  1  0.034090  0.813870  0.471250  1.0  1.4198
  P  P6  1  0.284590  0.273050  0.462140  1.0  1.4239
  P  P7  1  0.965910  0.186130  0.528750  1.0  1.4157
  H  H8  1  0.869200  0.941700  0.323300  1.0  0.1218
  H  H9  1  0.864000  0.792700  0.335800  1.0  0.1223
  H  H10  1  0.549200  0.047800  0.394800  1.0  0.1051
  H  H11  1  0.377000  0.861100  0.256400  1.0  0.1111
  H  H12  1  0.647400  0.761800  0.262900  1.0  0.1331
  H  H13  1  0.527700  0.763000  0.476200  1.0  0.4398
  H  H14  1  0.828500  0.025900  0.472700  1.0  0.3922
  H  H15  1  0.811100  0.444900  0.372300  1.0  0.0859
  H  H16  1  0.769000  0.512200  0.226200  1.0  0.1267
  H  H17  1  0.162200  0.669600  0.165400  1.0  0.1275
  H  H18  1  0.185700  0.610400  0.316000  1.0  0.0885
  H  H19  1  0.879200  0.583900  0.064500  1.0  0.1182
  H  H20  1  0.021000  0.784300  0.039400  1.0  0.101
  H  H21  1  0.939100  0.959300  0.920600  1.0  0.0877
  H  H22  1  0.893800  0.029500  0.778000  1.0  0.1069
  H  H23  1  0.809300  0.685800  0.774500  1.0  0.0798
  H  H24  1  0.863500  0.611400  0.921100  1.0  0.1039
  H  H25  1  0.130800  0.058300  0.676700  1.0  0.1218
  H  H26  1  0.136000  0.207300  0.664200  1.0  0.1217
  H  H27  1  0.450800  0.952200  0.605200  1.0  0.1044
  H  H28  1  0.623000  0.138900  0.743600  1.0  0.1119
  H  H29  1  0.352600  0.238200  0.737100  1.0  0.1334
  H  H30  1  0.472300  0.237000  0.523800  1.0  0.4369
  H  H31  1  0.171500  0.974100  0.527300  1.0  0.3942
  H  H32  1  0.188900  0.555100  0.627700  1.0  0.0865
  H  H33  1  0.231000  0.487800  0.773800  1.0  0.127
  H  H34  1  0.837800  0.330400  0.834600  1.0  0.1298
  H  H35  1  0.814300  0.389600  0.684000  1.0  0.0879
  H  H36  1  0.120800  0.416100  0.935500  1.0  0.1176
  H  H37  1  0.979000  0.215700  0.960600  1.0  0.1004
  H  H38  1  0.060900  0.040700  0.079400  1.0  0.0879
  H  H39  1  0.106200  0.970500  0.222000  1.0  0.1075
  H  H40  1  0.190700  0.314200  0.225500  1.0  0.08
  H  H41  1  0.136500  0.388600  0.078900  1.0  0.1037
  C  C42  1  0.824300  0.851300  0.456000  1.0  -0.3077
  C  C43  1  0.812600  0.870600  0.357000  1.0  -0.0849
  C  C44  1  0.539400  0.989600  0.360400  1.0  0.1592
  C  C45  1  0.445800  0.887100  0.285000  1.0  0.041
  C  C46  1  0.595500  0.831700  0.288200  1.0  -0.1608
  C  C47  1  0.879600  0.495300  0.330700  1.0  0.1652
  C  C48  1  0.856400  0.532400  0.242200  1.0  -0.1515
  C  C49  1  0.957300  0.597000  0.178800  1.0  0.0939
  C  C50  1  0.087100  0.626500  0.207200  1.0  -0.1909
  C  C51  1  0.100500  0.590600  0.297400  1.0  0.1625
  C  C52  1  0.930500  0.640100  0.082400  1.0  -0.0658
  C  C53  1  0.961400  0.731500  0.024200  1.0  -0.0881
  C  C54  1  0.923000  0.774600  0.935100  1.0  0.1519
  C  C55  1  0.920400  0.899000  0.890500  1.0  -0.0737
  C  C56  1  0.892400  0.942000  0.804900  1.0  0.0958
  C  C57  1  0.844100  0.742000  0.801800  1.0  0.1641
  C  C58  1  0.875700  0.696600  0.891700  1.0  -0.1677
  C  C59  1  0.175700  0.148700  0.544000  1.0  -0.3069
  C  C60  1  0.187400  0.129400  0.643000  1.0  -0.0841
  C  C61  1  0.460600  0.010400  0.639600  1.0  0.1601
  C  C62  1  0.554200  0.112900  0.715000  1.0  0.0408
  C  C63  1  0.404500  0.168300  0.711800  1.0  -0.16
  C  C64  1  0.120400  0.504700  0.669300  1.0  0.1639
  C  C65  1  0.143600  0.467600  0.757800  1.0  -0.1528
  C  C66  1  0.042700  0.403000  0.821200  1.0  0.0941
  C  C67  1  0.912900  0.373500  0.792800  1.0  -0.1907
  C  C68  1  0.899500  0.409400  0.702600  1.0  0.1632
  C  C69  1  0.069500  0.359900  0.917600  1.0  -0.0615
  C  C70  1  0.038600  0.268500  0.975800  1.0  -0.0898
  C  C71  1  0.077000  0.225400  0.064900  1.0  0.1518
  C  C72  1  0.079600  0.101000  0.109500  1.0  -0.0723
  C  C73  1  0.107600  0.058000  0.195100  1.0  0.0965
  C  C74  1  0.155900  0.258000  0.198200  1.0  0.1642
  C  C75  1  0.124300  0.303400  0.108300  1.0  -0.1662
  N  N76  1  0.653700  0.898700  0.335600  1.0  0.0453
  N  N77  1  0.412000  0.986400  0.330200  1.0  -0.3616
  N  N78  1  0.995900  0.528500  0.359200  1.0  -0.3316
  N  N79  1  0.861700  0.858800  0.756200  1.0  -0.3216
  N  N80  1  0.346300  0.101300  0.664400  1.0  0.0461
  N  N81  1  0.588000  0.013600  0.669800  1.0  -0.3619
  N  N82  1  0.004100  0.471500  0.640800  1.0  -0.3334
  N  N83  1  0.138300  0.141200  0.243800  1.0  -0.3225
  O  O84  1  0.772200  0.597100  0.515400  1.0  -0.7756
  O  O85  1  0.726900  0.750000  0.629400  1.0  -0.7707
  O  O86  1  0.537500  0.761600  0.528300  1.0  -0.6962
  O  O87  1  0.091000  0.671200  0.473600  1.0  -0.8235
  O  O88  1  0.032700  0.854100  0.560800  1.0  -0.8086
  O  O89  1  0.117200  0.900300  0.391100  1.0  -0.82
  O  O90  1  0.765400  0.971200  0.488000  1.0  -0.5798
  O  O91  1  0.227800  0.402900  0.484600  1.0  -0.7751
  O  O92  1  0.273100  0.250000  0.370600  1.0  -0.7709
  O  O93  1  0.462500  0.238400  0.471700  1.0  -0.6983
  O  O94  1  0.909000  0.328800  0.526400  1.0  -0.8244
  O  O95  1  0.967300  0.145900  0.439200  1.0  -0.8069
  O  O96  1  0.882800  0.099700  0.608900  1.0  -0.8178
  O  O97  1  0.234600  0.028800  0.512000  1.0  -0.582
