# generated using pymatgen
data_Tb3H19C43(NO9)2
_symmetry_space_group_name_H-M   'P 1'
_cell_length_a   14.23400000
_cell_length_b   14.23400000
_cell_length_c   63.76000000
_cell_angle_alpha   90.00000000
_cell_angle_beta   90.00000000
_cell_angle_gamma   90.00000000
_symmetry_Int_Tables_number   1
_chemical_formula_structural   Tb3H19C43(NO9)2
_chemical_formula_sum   'Tb24 H152 C344 N16 O144'
_cell_volume   12918.20676256
_cell_formula_units_Z   8
loop_
 _symmetry_equiv_pos_site_id
 _symmetry_equiv_pos_as_xyz
  1  'x, y, z'
loop_
 _atom_site_type_symbol
 _atom_site_label
 _atom_site_symmetry_multiplicity
 _atom_site_fract_x
 _atom_site_fract_y
 _atom_site_fract_z
 _atom_site_occupancy
 _atom_site_charge
  Tb  Tb1  1  0.224080  0.983230  0.438200  1.0  2.2231
  Tb  Tb2  1  0.724080  0.483230  0.938200  1.0  2.2231
  Tb  Tb3  1  0.775920  0.016770  0.438200  1.0  2.2254
  Tb  Tb4  1  0.275920  0.516770  0.938200  1.0  2.2254
  Tb  Tb5  1  0.983230  0.775920  0.561800  1.0  2.2254
  Tb  Tb6  1  0.483230  0.275920  0.061800  1.0  2.2254
  Tb  Tb7  1  0.016770  0.224080  0.561800  1.0  2.2232
  Tb  Tb8  1  0.516770  0.724080  0.061800  1.0  2.2232
  Tb  Tb9  1  0.275920  0.983230  0.311800  1.0  2.2245
  Tb  Tb10  1  0.775920  0.483230  0.811800  1.0  2.2245
  Tb  Tb11  1  0.724080  0.016770  0.311800  1.0  2.2241
  Tb  Tb12  1  0.224080  0.516770  0.811800  1.0  2.2241
  Tb  Tb13  1  0.516770  0.775920  0.188200  1.0  2.2229
  Tb  Tb14  1  0.016770  0.275920  0.688200  1.0  2.2229
  Tb  Tb15  1  0.483230  0.224080  0.188200  1.0  2.2254
  Tb  Tb16  1  0.983230  0.724080  0.688200  1.0  2.2254
  Tb  Tb17  1  0.500000  0.000000  0.459410  1.0  2.2945
  Tb  Tb18  1  0.000000  0.500000  0.959410  1.0  2.2945
  Tb  Tb19  1  0.000000  0.500000  0.540590  1.0  2.2868
  Tb  Tb20  1  0.500000  0.000000  0.040590  1.0  2.2868
  Tb  Tb21  1  0.000000  0.000000  0.290590  1.0  2.2931
  Tb  Tb22  1  0.500000  0.500000  0.790590  1.0  2.2931
  Tb  Tb23  1  0.500000  0.500000  0.209410  1.0  2.2882
  Tb  Tb24  1  0.000000  0.000000  0.709410  1.0  2.2882
  H  H25  1  0.375700  0.038700  0.384200  1.0  0.0991
  H  H26  1  0.367100  0.277400  0.351700  1.0  0.1044
  H  H27  1  0.396200  0.361300  0.381200  1.0  0.1018
  H  H28  1  0.564500  0.352500  0.413400  1.0  0.0929
  H  H29  1  0.493600  0.409600  0.470900  1.0  0.0646
  H  H30  1  0.312000  0.261800  0.436600  1.0  0.0977
  H  H31  1  0.199100  0.178700  0.499900  1.0  0.0843
  H  H32  1  0.216400  0.453500  0.509300  1.0  0.0954
  H  H33  1  0.333800  0.459100  0.483700  1.0  0.0859
  H  H34  1  0.875700  0.538700  0.884200  1.0  0.0991
  H  H35  1  0.867100  0.777400  0.851700  1.0  0.1044
  H  H36  1  0.896200  0.861300  0.881200  1.0  0.1018
  H  H37  1  0.064500  0.852500  0.913400  1.0  0.0929
  H  H38  1  0.993600  0.909600  0.970900  1.0  0.0646
  H  H39  1  0.812000  0.761800  0.936600  1.0  0.0977
  H  H40  1  0.699100  0.678700  0.999900  1.0  0.0843
  H  H41  1  0.716400  0.953500  0.009300  1.0  0.0954
  H  H42  1  0.833800  0.959100  0.983700  1.0  0.0859
  H  H43  1  0.624300  0.961300  0.384200  1.0  0.0957
  H  H44  1  0.632900  0.722600  0.351700  1.0  0.1045
  H  H45  1  0.603800  0.638700  0.381200  1.0  0.1
  H  H46  1  0.435500  0.647500  0.413400  1.0  0.0929
  H  H47  1  0.506400  0.590400  0.470900  1.0  0.0654
  H  H48  1  0.688000  0.738200  0.436600  1.0  0.0981
  H  H49  1  0.800900  0.821300  0.499900  1.0  0.0846
  H  H50  1  0.783600  0.546500  0.509300  1.0  0.0953
  H  H51  1  0.666200  0.540900  0.483700  1.0  0.0858
  H  H52  1  0.124300  0.461300  0.884200  1.0  0.0957
  H  H53  1  0.132900  0.222600  0.851700  1.0  0.1045
  H  H54  1  0.103800  0.138700  0.881200  1.0  0.1
  H  H55  1  0.935500  0.147500  0.913400  1.0  0.0929
  H  H56  1  0.006400  0.090400  0.970900  1.0  0.0654
  H  H57  1  0.188000  0.238200  0.936600  1.0  0.0981
  H  H58  1  0.300900  0.321300  0.999900  1.0  0.0846
  H  H59  1  0.283600  0.046500  0.009300  1.0  0.0953
  H  H60  1  0.166200  0.040900  0.983700  1.0  0.0858
  H  H61  1  0.038700  0.624300  0.615800  1.0  0.0971
  H  H62  1  0.277400  0.632900  0.648300  1.0  0.1048
  H  H63  1  0.361300  0.603800  0.618800  1.0  0.1007
  H  H64  1  0.352500  0.435500  0.586600  1.0  0.0955
  H  H65  1  0.409600  0.506400  0.529100  1.0  0.0647
  H  H66  1  0.261800  0.688000  0.563400  1.0  0.0997
  H  H67  1  0.178700  0.800900  0.500100  1.0  0.0849
  H  H68  1  0.453500  0.783600  0.490700  1.0  0.0947
  H  H69  1  0.459100  0.666200  0.516300  1.0  0.0854
  H  H70  1  0.538700  0.124300  0.115800  1.0  0.0971
  H  H71  1  0.777400  0.132900  0.148300  1.0  0.1048
  H  H72  1  0.861300  0.103800  0.118800  1.0  0.1007
  H  H73  1  0.852500  0.935500  0.086600  1.0  0.0955
  H  H74  1  0.909600  0.006400  0.029100  1.0  0.0647
  H  H75  1  0.761800  0.188000  0.063400  1.0  0.0997
  H  H76  1  0.678700  0.300900  0.000100  1.0  0.0849
  H  H77  1  0.953500  0.283600  0.990700  1.0  0.0947
  H  H78  1  0.959100  0.166200  0.016300  1.0  0.0854
  H  H79  1  0.961300  0.375700  0.615800  1.0  0.0975
  H  H80  1  0.722600  0.367100  0.648300  1.0  0.1058
  H  H81  1  0.638700  0.396200  0.618800  1.0  0.1029
  H  H82  1  0.647500  0.564500  0.586600  1.0  0.0955
  H  H83  1  0.590400  0.493600  0.529100  1.0  0.0646
  H  H84  1  0.738200  0.312000  0.563400  1.0  0.0994
  H  H85  1  0.821300  0.199100  0.500100  1.0  0.0839
  H  H86  1  0.546500  0.216400  0.490700  1.0  0.0945
  H  H87  1  0.540900  0.333800  0.516300  1.0  0.0859
  H  H88  1  0.461300  0.875700  0.115800  1.0  0.0975
  H  H89  1  0.222600  0.867100  0.148300  1.0  0.1058
  H  H90  1  0.138700  0.896200  0.118800  1.0  0.1029
  H  H91  1  0.147500  0.064500  0.086600  1.0  0.0955
  H  H92  1  0.090400  0.993600  0.029100  1.0  0.0646
  H  H93  1  0.238200  0.812000  0.063400  1.0  0.0994
  H  H94  1  0.321300  0.699100  0.000100  1.0  0.0839
  H  H95  1  0.046500  0.716400  0.990700  1.0  0.0945
  H  H96  1  0.040900  0.833800  0.016300  1.0  0.0859
  H  H97  1  0.124300  0.038700  0.365800  1.0  0.0986
  H  H98  1  0.132900  0.277400  0.398300  1.0  0.1051
  H  H99  1  0.103800  0.361300  0.368800  1.0  0.1017
  H  H100  1  0.935500  0.352500  0.336600  1.0  0.0935
  H  H101  1  0.006400  0.409600  0.279100  1.0  0.0651
  H  H102  1  0.188000  0.261800  0.313400  1.0  0.0979
  H  H103  1  0.300900  0.178700  0.250100  1.0  0.0843
  H  H104  1  0.283600  0.453500  0.240700  1.0  0.0953
  H  H105  1  0.166200  0.459100  0.266300  1.0  0.0861
  H  H106  1  0.624300  0.538700  0.865800  1.0  0.0986
  H  H107  1  0.632900  0.777400  0.898300  1.0  0.1051
  H  H108  1  0.603800  0.861300  0.868800  1.0  0.1017
  H  H109  1  0.435500  0.852500  0.836600  1.0  0.0935
  H  H110  1  0.506400  0.909600  0.779100  1.0  0.0651
  H  H111  1  0.688000  0.761800  0.813400  1.0  0.0979
  H  H112  1  0.800900  0.678700  0.750100  1.0  0.0843
  H  H113  1  0.783600  0.953500  0.740700  1.0  0.0953
  H  H114  1  0.666200  0.959100  0.766300  1.0  0.0861
  H  H115  1  0.875700  0.961300  0.365800  1.0  0.0957
  H  H116  1  0.867100  0.722600  0.398300  1.0  0.1041
  H  H117  1  0.896200  0.638700  0.368800  1.0  0.1003
  H  H118  1  0.064500  0.647500  0.336600  1.0  0.0926
  H  H119  1  0.993600  0.590400  0.279100  1.0  0.0653
  H  H120  1  0.812000  0.738200  0.313400  1.0  0.0974
  H  H121  1  0.699100  0.821300  0.250100  1.0  0.0849
  H  H122  1  0.716400  0.546500  0.240700  1.0  0.0952
  H  H123  1  0.833800  0.540900  0.266300  1.0  0.086
  H  H124  1  0.375700  0.461300  0.865800  1.0  0.0957
  H  H125  1  0.367100  0.222600  0.898300  1.0  0.1041
  H  H126  1  0.396200  0.138700  0.868800  1.0  0.1003
  H  H127  1  0.564500  0.147500  0.836600  1.0  0.0926
  H  H128  1  0.493600  0.090400  0.779100  1.0  0.0653
  H  H129  1  0.312000  0.238200  0.813400  1.0  0.0974
  H  H130  1  0.199100  0.321300  0.750100  1.0  0.0849
  H  H131  1  0.216400  0.046500  0.740700  1.0  0.0952
  H  H132  1  0.333800  0.040900  0.766300  1.0  0.086
  H  H133  1  0.461300  0.624300  0.134200  1.0  0.0973
  H  H134  1  0.222600  0.632900  0.101700  1.0  0.1051
  H  H135  1  0.138700  0.603800  0.131200  1.0  0.1027
  H  H136  1  0.147500  0.435500  0.163400  1.0  0.0954
  H  H137  1  0.090400  0.506400  0.220900  1.0  0.0648
  H  H138  1  0.238200  0.688000  0.186600  1.0  0.0996
  H  H139  1  0.321300  0.800900  0.249900  1.0  0.0846
  H  H140  1  0.046500  0.783600  0.259300  1.0  0.0949
  H  H141  1  0.040900  0.666200  0.233700  1.0  0.0859
  H  H142  1  0.961300  0.124300  0.634200  1.0  0.0973
  H  H143  1  0.722600  0.132900  0.601700  1.0  0.1051
  H  H144  1  0.638700  0.103800  0.631200  1.0  0.1027
  H  H145  1  0.647500  0.935500  0.663400  1.0  0.0954
  H  H146  1  0.590400  0.006400  0.720900  1.0  0.0648
  H  H147  1  0.738200  0.188000  0.686600  1.0  0.0996
  H  H148  1  0.821300  0.300900  0.749900  1.0  0.0846
  H  H149  1  0.546500  0.283600  0.759300  1.0  0.0949
  H  H150  1  0.540900  0.166200  0.733700  1.0  0.0859
  H  H151  1  0.538700  0.375700  0.134200  1.0  0.0969
  H  H152  1  0.777400  0.367100  0.101700  1.0  0.1048
  H  H153  1  0.861300  0.396200  0.131200  1.0  0.1006
  H  H154  1  0.852500  0.564500  0.163400  1.0  0.0949
  H  H155  1  0.909600  0.493600  0.220900  1.0  0.0642
  H  H156  1  0.761800  0.312000  0.186600  1.0  0.0996
  H  H157  1  0.678700  0.199100  0.249900  1.0  0.0849
  H  H158  1  0.953500  0.216400  0.259300  1.0  0.0948
  H  H159  1  0.959100  0.333800  0.233700  1.0  0.0856
  H  H160  1  0.038700  0.875700  0.634200  1.0  0.0969
  H  H161  1  0.277400  0.867100  0.601700  1.0  0.1048
  H  H162  1  0.361300  0.896200  0.631200  1.0  0.1006
  H  H163  1  0.352500  0.064500  0.663400  1.0  0.0949
  H  H164  1  0.409600  0.993600  0.720900  1.0  0.0642
  H  H165  1  0.261800  0.812000  0.686600  1.0  0.0996
  H  H166  1  0.178700  0.699100  0.749900  1.0  0.0849
  H  H167  1  0.453500  0.716400  0.759300  1.0  0.0948
  H  H168  1  0.459100  0.833800  0.733700  1.0  0.0856
  H  H169  1  0.000000  0.000000  0.427100  1.0  -0.0134
  H  H170  1  0.500000  0.500000  0.927100  1.0  -0.0134
  H  H171  1  0.000000  0.000000  0.572900  1.0  -0.0138
  H  H172  1  0.500000  0.500000  0.072900  1.0  -0.0138
  H  H173  1  0.500000  0.000000  0.322900  1.0  -0.0138
  H  H174  1  0.000000  0.500000  0.822900  1.0  -0.0138
  H  H175  1  0.500000  0.000000  0.177100  1.0  -0.0134
  H  H176  1  0.000000  0.500000  0.677100  1.0  -0.0134
  C  C177  1  0.429100  0.099100  0.421460  1.0  0.6894
  C  C178  1  0.406100  0.151700  0.401450  1.0  -0.072
  C  C179  1  0.381100  0.103800  0.383840  1.0  -0.0447
  C  C180  1  0.363800  0.150900  0.365590  1.0  -0.1455
  C  C181  1  0.332900  0.092300  0.345930  1.0  0.6839
  C  C182  1  0.374100  0.246700  0.364470  1.0  -0.0993
  C  C183  1  0.394400  0.296000  0.381910  1.0  -0.1282
  C  C184  1  0.412900  0.251000  0.401160  1.0  0.034
  C  C185  1  0.430200  0.301100  0.420740  1.0  -0.0747
  C  C186  1  0.520500  0.351200  0.424120  1.0  0.1598
  C  C187  1  0.477700  0.382300  0.458130  1.0  0.1491
  C  C188  1  0.394600  0.335000  0.457550  1.0  0.0294
  C  C189  1  0.368800  0.293500  0.437930  1.0  -0.1204
  C  C190  1  0.328600  0.324400  0.475820  1.0  -0.0055
  C  C191  1  0.292700  0.237100  0.481390  1.0  -0.0049
  C  C192  1  0.320500  0.145900  0.471180  1.0  0.7003
  C  C193  1  0.228600  0.235400  0.496900  1.0  -0.065
  C  C194  1  0.203800  0.315200  0.508800  1.0  -0.148
  C  C195  1  0.237300  0.398600  0.502910  1.0  -0.112
  C  C196  1  0.304900  0.402200  0.486800  1.0  -0.1146
  C  C197  1  0.132600  0.299100  0.526300  1.0  0.686
  C  C198  1  0.929100  0.599100  0.921460  1.0  0.6894
  C  C199  1  0.906100  0.651700  0.901450  1.0  -0.072
  C  C200  1  0.881100  0.603800  0.883840  1.0  -0.0447
  C  C201  1  0.863800  0.650900  0.865590  1.0  -0.1455
  C  C202  1  0.832900  0.592300  0.845930  1.0  0.6839
  C  C203  1  0.874100  0.746700  0.864470  1.0  -0.0993
  C  C204  1  0.894400  0.796000  0.881910  1.0  -0.1282
  C  C205  1  0.912900  0.751000  0.901160  1.0  0.034
  C  C206  1  0.930200  0.801100  0.920740  1.0  -0.0747
  C  C207  1  0.020500  0.851200  0.924120  1.0  0.1598
  C  C208  1  0.977700  0.882300  0.958130  1.0  0.1491
  C  C209  1  0.894600  0.835000  0.957550  1.0  0.0294
  C  C210  1  0.868800  0.793500  0.937930  1.0  -0.1204
  C  C211  1  0.828600  0.824400  0.975820  1.0  -0.0055
  C  C212  1  0.792700  0.737100  0.981390  1.0  -0.0049
  C  C213  1  0.820500  0.645900  0.971180  1.0  0.7003
  C  C214  1  0.728600  0.735400  0.996900  1.0  -0.065
  C  C215  1  0.703800  0.815200  0.008800  1.0  -0.148
  C  C216  1  0.737300  0.898600  0.002910  1.0  -0.112
  C  C217  1  0.804900  0.902200  0.986800  1.0  -0.1146
  C  C218  1  0.632600  0.799100  0.026300  1.0  0.686
  C  C219  1  0.570900  0.900900  0.421460  1.0  0.6891
  C  C220  1  0.593900  0.848300  0.401450  1.0  -0.0728
  C  C221  1  0.618900  0.896200  0.383840  1.0  -0.0468
  C  C222  1  0.636200  0.849100  0.365590  1.0  -0.1435
  C  C223  1  0.667100  0.907700  0.345930  1.0  0.6851
  C  C224  1  0.625900  0.753300  0.364470  1.0  -0.1
  C  C225  1  0.605600  0.704000  0.381910  1.0  -0.1297
  C  C226  1  0.587100  0.749000  0.401160  1.0  0.034
  C  C227  1  0.569800  0.698900  0.420740  1.0  -0.0766
  C  C228  1  0.479500  0.648800  0.424120  1.0  0.1593
  C  C229  1  0.522300  0.617700  0.458130  1.0  0.149
  C  C230  1  0.605400  0.665000  0.457550  1.0  0.0294
  C  C231  1  0.631200  0.706500  0.437930  1.0  -0.1208
  C  C232  1  0.671400  0.675600  0.475820  1.0  -0.0046
  C  C233  1  0.707300  0.762900  0.481390  1.0  -0.0033
  C  C234  1  0.679500  0.854100  0.471180  1.0  0.7002
  C  C235  1  0.771400  0.764600  0.496900  1.0  -0.0653
  C  C236  1  0.796200  0.684800  0.508800  1.0  -0.1484
  C  C237  1  0.762700  0.601400  0.502910  1.0  -0.1135
  C  C238  1  0.695100  0.597800  0.486800  1.0  -0.1159
  C  C239  1  0.867400  0.700900  0.526300  1.0  0.6845
  C  C240  1  0.070900  0.400900  0.921460  1.0  0.6891
  C  C241  1  0.093900  0.348300  0.901450  1.0  -0.0728
  C  C242  1  0.118900  0.396200  0.883840  1.0  -0.0468
  C  C243  1  0.136200  0.349100  0.865590  1.0  -0.1435
  C  C244  1  0.167100  0.407700  0.845930  1.0  0.6851
  C  C245  1  0.125900  0.253300  0.864470  1.0  -0.1
  C  C246  1  0.105600  0.204000  0.881910  1.0  -0.1297
  C  C247  1  0.087100  0.249000  0.901160  1.0  0.034
  C  C248  1  0.069800  0.198900  0.920740  1.0  -0.0766
  C  C249  1  0.979500  0.148800  0.924120  1.0  0.1593
  C  C250  1  0.022300  0.117700  0.958130  1.0  0.149
  C  C251  1  0.105400  0.165000  0.957550  1.0  0.0294
  C  C252  1  0.131200  0.206500  0.937930  1.0  -0.1208
  C  C253  1  0.171400  0.175600  0.975820  1.0  -0.0046
  C  C254  1  0.207300  0.262900  0.981390  1.0  -0.0033
  C  C255  1  0.179500  0.354100  0.971180  1.0  0.7002
  C  C256  1  0.271400  0.264600  0.996900  1.0  -0.0653
  C  C257  1  0.296200  0.184800  0.008800  1.0  -0.1484
  C  C258  1  0.262700  0.101400  0.002910  1.0  -0.1135
  C  C259  1  0.195100  0.097800  0.986800  1.0  -0.1159
  C  C260  1  0.367400  0.200900  0.026300  1.0  0.6845
  C  C261  1  0.099100  0.570900  0.578540  1.0  0.6894
  C  C262  1  0.151700  0.593900  0.598550  1.0  -0.0721
  C  C263  1  0.103800  0.618900  0.616160  1.0  -0.0464
  C  C264  1  0.150900  0.636200  0.634410  1.0  -0.1426
  C  C265  1  0.092300  0.667100  0.654070  1.0  0.6798
  C  C266  1  0.246700  0.625900  0.635530  1.0  -0.1005
  C  C267  1  0.296000  0.605600  0.618090  1.0  -0.126
  C  C268  1  0.251000  0.587100  0.598840  1.0  0.0357
  C  C269  1  0.301100  0.569800  0.579260  1.0  -0.0782
  C  C270  1  0.351200  0.479500  0.575880  1.0  0.1594
  C  C271  1  0.382300  0.522300  0.541870  1.0  0.1483
  C  C272  1  0.335000  0.605400  0.542450  1.0  0.0294
  C  C273  1  0.293500  0.631200  0.562070  1.0  -0.1225
  C  C274  1  0.324400  0.671400  0.524180  1.0  -0.0044
  C  C275  1  0.237100  0.707300  0.518610  1.0  -0.0063
  C  C276  1  0.145900  0.679500  0.528820  1.0  0.6996
  C  C277  1  0.235400  0.771400  0.503100  1.0  -0.0635
  C  C278  1  0.315200  0.796200  0.491200  1.0  -0.1468
  C  C279  1  0.398600  0.762700  0.497090  1.0  -0.1137
  C  C280  1  0.402200  0.695100  0.513200  1.0  -0.1123
  C  C281  1  0.299100  0.867400  0.473700  1.0  0.6852
  C  C282  1  0.599100  0.070900  0.078540  1.0  0.6894
  C  C283  1  0.651700  0.093900  0.098550  1.0  -0.0721
  C  C284  1  0.603800  0.118900  0.116160  1.0  -0.0464
  C  C285  1  0.650900  0.136200  0.134410  1.0  -0.1426
  C  C286  1  0.592300  0.167100  0.154070  1.0  0.6798
  C  C287  1  0.746700  0.125900  0.135530  1.0  -0.1005
  C  C288  1  0.796000  0.105600  0.118090  1.0  -0.126
  C  C289  1  0.751000  0.087100  0.098840  1.0  0.0357
  C  C290  1  0.801100  0.069800  0.079260  1.0  -0.0782
  C  C291  1  0.851200  0.979500  0.075880  1.0  0.1594
  C  C292  1  0.882300  0.022300  0.041870  1.0  0.1483
  C  C293  1  0.835000  0.105400  0.042450  1.0  0.0294
  C  C294  1  0.793500  0.131200  0.062070  1.0  -0.1225
  C  C295  1  0.824400  0.171400  0.024180  1.0  -0.0044
  C  C296  1  0.737100  0.207300  0.018610  1.0  -0.0063
  C  C297  1  0.645900  0.179500  0.028820  1.0  0.6996
  C  C298  1  0.735400  0.271400  0.003100  1.0  -0.0635
  C  C299  1  0.815200  0.296200  0.991200  1.0  -0.1468
  C  C300  1  0.898600  0.262700  0.997090  1.0  -0.1137
  C  C301  1  0.902200  0.195100  0.013200  1.0  -0.1123
  C  C302  1  0.799100  0.367400  0.973700  1.0  0.6852
  C  C303  1  0.900900  0.429100  0.578540  1.0  0.6893
  C  C304  1  0.848300  0.406100  0.598550  1.0  -0.071
  C  C305  1  0.896200  0.381100  0.616160  1.0  -0.0452
  C  C306  1  0.849100  0.363800  0.634410  1.0  -0.1427
  C  C307  1  0.907700  0.332900  0.654070  1.0  0.6808
  C  C308  1  0.753300  0.374100  0.635530  1.0  -0.1003
  C  C309  1  0.704000  0.394400  0.618090  1.0  -0.1271
  C  C310  1  0.749000  0.412900  0.598840  1.0  0.0338
  C  C311  1  0.698900  0.430200  0.579260  1.0  -0.0785
  C  C312  1  0.648800  0.520500  0.575880  1.0  0.1604
  C  C313  1  0.617700  0.477700  0.541870  1.0  0.1478
  C  C314  1  0.665000  0.394600  0.542450  1.0  0.0292
  C  C315  1  0.706500  0.368800  0.562070  1.0  -0.1211
  C  C316  1  0.675600  0.328600  0.524180  1.0  -0.0062
  C  C317  1  0.762900  0.292700  0.518610  1.0  -0.0048
  C  C318  1  0.854100  0.320500  0.528820  1.0  0.7009
  C  C319  1  0.764600  0.228600  0.503100  1.0  -0.0632
  C  C320  1  0.684800  0.203800  0.491200  1.0  -0.1479
  C  C321  1  0.601400  0.237300  0.497090  1.0  -0.1144
  C  C322  1  0.597800  0.304900  0.513200  1.0  -0.1131
  C  C323  1  0.700900  0.132600  0.473700  1.0  0.6858
  C  C324  1  0.400900  0.929100  0.078540  1.0  0.6893
  C  C325  1  0.348300  0.906100  0.098550  1.0  -0.071
  C  C326  1  0.396200  0.881100  0.116160  1.0  -0.0452
  C  C327  1  0.349100  0.863800  0.134410  1.0  -0.1427
  C  C328  1  0.407700  0.832900  0.154070  1.0  0.6808
  C  C329  1  0.253300  0.874100  0.135530  1.0  -0.1003
  C  C330  1  0.204000  0.894400  0.118090  1.0  -0.1271
  C  C331  1  0.249000  0.912900  0.098840  1.0  0.0338
  C  C332  1  0.198900  0.930200  0.079260  1.0  -0.0785
  C  C333  1  0.148800  0.020500  0.075880  1.0  0.1604
  C  C334  1  0.117700  0.977700  0.041870  1.0  0.1478
  C  C335  1  0.165000  0.894600  0.042450  1.0  0.0292
  C  C336  1  0.206500  0.868800  0.062070  1.0  -0.1211
  C  C337  1  0.175600  0.828600  0.024180  1.0  -0.0062
  C  C338  1  0.262900  0.792700  0.018610  1.0  -0.0048
  C  C339  1  0.354100  0.820500  0.028820  1.0  0.7009
  C  C340  1  0.264600  0.728600  0.003100  1.0  -0.0632
  C  C341  1  0.184800  0.703800  0.991200  1.0  -0.1479
  C  C342  1  0.101400  0.737300  0.997090  1.0  -0.1144
  C  C343  1  0.097800  0.804900  0.013200  1.0  -0.1131
  C  C344  1  0.200900  0.632600  0.973700  1.0  0.6858
  C  C345  1  0.070900  0.099100  0.328540  1.0  0.6895
  C  C346  1  0.093900  0.151700  0.348550  1.0  -0.074
  C  C347  1  0.118900  0.103800  0.366160  1.0  -0.0463
  C  C348  1  0.136200  0.150900  0.384410  1.0  -0.1445
  C  C349  1  0.167100  0.092300  0.404070  1.0  0.6835
  C  C350  1  0.125900  0.246700  0.385530  1.0  -0.0998
  C  C351  1  0.105600  0.296000  0.368090  1.0  -0.127
  C  C352  1  0.087100  0.251000  0.348840  1.0  0.0337
  C  C353  1  0.069800  0.301100  0.329260  1.0  -0.0768
  C  C354  1  0.979500  0.351200  0.325880  1.0  0.1589
  C  C355  1  0.022300  0.382300  0.291870  1.0  0.1487
  C  C356  1  0.105400  0.335000  0.292450  1.0  0.0291
  C  C357  1  0.131200  0.293500  0.312070  1.0  -0.1211
  C  C358  1  0.171400  0.324400  0.274180  1.0  -0.005
  C  C359  1  0.207300  0.237100  0.268610  1.0  -0.0038
  C  C360  1  0.179500  0.145900  0.278820  1.0  0.7017
  C  C361  1  0.271400  0.235400  0.253100  1.0  -0.0629
  C  C362  1  0.296200  0.315200  0.241200  1.0  -0.1485
  C  C363  1  0.262700  0.398600  0.247090  1.0  -0.1131
  C  C364  1  0.195100  0.402200  0.263200  1.0  -0.1152
  C  C365  1  0.367400  0.299100  0.223700  1.0  0.6855
  C  C366  1  0.570900  0.599100  0.828540  1.0  0.6895
  C  C367  1  0.593900  0.651700  0.848550  1.0  -0.074
  C  C368  1  0.618900  0.603800  0.866160  1.0  -0.0463
  C  C369  1  0.636200  0.650900  0.884410  1.0  -0.1445
  C  C370  1  0.667100  0.592300  0.904070  1.0  0.6835
  C  C371  1  0.625900  0.746700  0.885530  1.0  -0.0998
  C  C372  1  0.605600  0.796000  0.868090  1.0  -0.127
  C  C373  1  0.587100  0.751000  0.848840  1.0  0.0337
  C  C374  1  0.569800  0.801100  0.829260  1.0  -0.0768
  C  C375  1  0.479500  0.851200  0.825880  1.0  0.1589
  C  C376  1  0.522300  0.882300  0.791870  1.0  0.1487
  C  C377  1  0.605400  0.835000  0.792450  1.0  0.0291
  C  C378  1  0.631200  0.793500  0.812070  1.0  -0.1211
  C  C379  1  0.671400  0.824400  0.774180  1.0  -0.005
  C  C380  1  0.707300  0.737100  0.768610  1.0  -0.0038
  C  C381  1  0.679500  0.645900  0.778820  1.0  0.7017
  C  C382  1  0.771400  0.735400  0.753100  1.0  -0.0629
  C  C383  1  0.796200  0.815200  0.741200  1.0  -0.1485
  C  C384  1  0.762700  0.898600  0.747090  1.0  -0.1131
  C  C385  1  0.695100  0.902200  0.763200  1.0  -0.1152
  C  C386  1  0.867400  0.799100  0.723700  1.0  0.6855
  C  C387  1  0.929100  0.900900  0.328540  1.0  0.6893
  C  C388  1  0.906100  0.848300  0.348550  1.0  -0.0724
  C  C389  1  0.881100  0.896200  0.366160  1.0  -0.0455
  C  C390  1  0.863800  0.849100  0.384410  1.0  -0.1453
  C  C391  1  0.832900  0.907700  0.404070  1.0  0.6827
  C  C392  1  0.874100  0.753300  0.385530  1.0  -0.1
  C  C393  1  0.894400  0.704000  0.368090  1.0  -0.1287
  C  C394  1  0.912900  0.749000  0.348840  1.0  0.0353
  C  C395  1  0.930200  0.698900  0.329260  1.0  -0.0768
  C  C396  1  0.020500  0.648800  0.325880  1.0  0.1587
  C  C397  1  0.977700  0.617700  0.291870  1.0  0.1493
  C  C398  1  0.894600  0.665000  0.292450  1.0  0.029
  C  C399  1  0.868800  0.706500  0.312070  1.0  -0.12
  C  C400  1  0.828600  0.675600  0.274180  1.0  -0.0055
  C  C401  1  0.792700  0.762900  0.268610  1.0  -0.0057
  C  C402  1  0.820500  0.854100  0.278820  1.0  0.7021
  C  C403  1  0.728600  0.764600  0.253100  1.0  -0.0644
  C  C404  1  0.703800  0.684800  0.241200  1.0  -0.147
  C  C405  1  0.737300  0.601400  0.247090  1.0  -0.113
  C  C406  1  0.804900  0.597800  0.263200  1.0  -0.1156
  C  C407  1  0.632600  0.700900  0.223700  1.0  0.6852
  C  C408  1  0.429100  0.400900  0.828540  1.0  0.6893
  C  C409  1  0.406100  0.348300  0.848550  1.0  -0.0724
  C  C410  1  0.381100  0.396200  0.866160  1.0  -0.0455
  C  C411  1  0.363800  0.349100  0.884410  1.0  -0.1453
  C  C412  1  0.332900  0.407700  0.904070  1.0  0.6827
  C  C413  1  0.374100  0.253300  0.885530  1.0  -0.1
  C  C414  1  0.394400  0.204000  0.868090  1.0  -0.1287
  C  C415  1  0.412900  0.249000  0.848840  1.0  0.0353
  C  C416  1  0.430200  0.198900  0.829260  1.0  -0.0768
  C  C417  1  0.520500  0.148800  0.825880  1.0  0.1587
  C  C418  1  0.477700  0.117700  0.791870  1.0  0.1493
  C  C419  1  0.394600  0.165000  0.792450  1.0  0.029
  C  C420  1  0.368800  0.206500  0.812070  1.0  -0.12
  C  C421  1  0.328600  0.175600  0.774180  1.0  -0.0055
  C  C422  1  0.292700  0.262900  0.768610  1.0  -0.0057
  C  C423  1  0.320500  0.354100  0.778820  1.0  0.7021
  C  C424  1  0.228600  0.264600  0.753100  1.0  -0.0644
  C  C425  1  0.203800  0.184800  0.741200  1.0  -0.147
  C  C426  1  0.237300  0.101400  0.747090  1.0  -0.113
  C  C427  1  0.304900  0.097800  0.763200  1.0  -0.1156
  C  C428  1  0.132600  0.200900  0.723700  1.0  0.6852
  C  C429  1  0.400900  0.570900  0.171460  1.0  0.6896
  C  C430  1  0.348300  0.593900  0.151450  1.0  -0.071
  C  C431  1  0.396200  0.618900  0.133840  1.0  -0.045
  C  C432  1  0.349100  0.636200  0.115590  1.0  -0.1412
  C  C433  1  0.407700  0.667100  0.095930  1.0  0.682
  C  C434  1  0.253300  0.625900  0.114470  1.0  -0.0999
  C  C435  1  0.204000  0.605600  0.131910  1.0  -0.1265
  C  C436  1  0.249000  0.587100  0.151160  1.0  0.0346
  C  C437  1  0.198900  0.569800  0.170740  1.0  -0.0777
  C  C438  1  0.148800  0.479500  0.174120  1.0  0.1601
  C  C439  1  0.117700  0.522300  0.208130  1.0  0.1492
  C  C440  1  0.165000  0.605400  0.207550  1.0  0.0298
  C  C441  1  0.206500  0.631200  0.187930  1.0  -0.1214
  C  C442  1  0.175600  0.671400  0.225820  1.0  -0.0057
  C  C443  1  0.262900  0.707300  0.231390  1.0  -0.0053
  C  C444  1  0.354100  0.679500  0.221180  1.0  0.6992
  C  C445  1  0.264600  0.771400  0.246900  1.0  -0.0632
  C  C446  1  0.184800  0.796200  0.258800  1.0  -0.1477
  C  C447  1  0.101400  0.762700  0.252910  1.0  -0.1137
  C  C448  1  0.097800  0.695100  0.236800  1.0  -0.1137
  C  C449  1  0.200900  0.867400  0.276300  1.0  0.6866
  C  C450  1  0.900900  0.070900  0.671460  1.0  0.6896
  C  C451  1  0.848300  0.093900  0.651450  1.0  -0.071
  C  C452  1  0.896200  0.118900  0.633840  1.0  -0.045
  C  C453  1  0.849100  0.136200  0.615590  1.0  -0.1412
  C  C454  1  0.907700  0.167100  0.595930  1.0  0.682
  C  C455  1  0.753300  0.125900  0.614470  1.0  -0.0999
  C  C456  1  0.704000  0.105600  0.631910  1.0  -0.1265
  C  C457  1  0.749000  0.087100  0.651160  1.0  0.0346
  C  C458  1  0.698900  0.069800  0.670740  1.0  -0.0777
  C  C459  1  0.648800  0.979500  0.674120  1.0  0.1601
  C  C460  1  0.617700  0.022300  0.708130  1.0  0.1492
  C  C461  1  0.665000  0.105400  0.707550  1.0  0.0298
  C  C462  1  0.706500  0.131200  0.687930  1.0  -0.1214
  C  C463  1  0.675600  0.171400  0.725820  1.0  -0.0057
  C  C464  1  0.762900  0.207300  0.731390  1.0  -0.0053
  C  C465  1  0.854100  0.179500  0.721180  1.0  0.6992
  C  C466  1  0.764600  0.271400  0.746900  1.0  -0.0632
  C  C467  1  0.684800  0.296200  0.758800  1.0  -0.1477
  C  C468  1  0.601400  0.262700  0.752910  1.0  -0.1137
  C  C469  1  0.597800  0.195100  0.736800  1.0  -0.1137
  C  C470  1  0.700900  0.367400  0.776300  1.0  0.6866
  C  C471  1  0.599100  0.429100  0.171460  1.0  0.689
  C  C472  1  0.651700  0.406100  0.151450  1.0  -0.0717
  C  C473  1  0.603800  0.381100  0.133840  1.0  -0.0467
  C  C474  1  0.650900  0.363800  0.115590  1.0  -0.1428
  C  C475  1  0.592300  0.332900  0.095930  1.0  0.6807
  C  C476  1  0.746700  0.374100  0.114470  1.0  -0.0995
  C  C477  1  0.796000  0.394400  0.131910  1.0  -0.1261
  C  C478  1  0.751000  0.412900  0.151160  1.0  0.0337
  C  C479  1  0.801100  0.430200  0.170740  1.0  -0.0769
  C  C480  1  0.851200  0.520500  0.174120  1.0  0.1609
  C  C481  1  0.882300  0.477700  0.208130  1.0  0.1476
  C  C482  1  0.835000  0.394600  0.207550  1.0  0.0292
  C  C483  1  0.793500  0.368800  0.187930  1.0  -0.1207
  C  C484  1  0.824400  0.328600  0.225820  1.0  -0.0047
  C  C485  1  0.737100  0.292700  0.231390  1.0  -0.0055
  C  C486  1  0.645900  0.320500  0.221180  1.0  0.6983
  C  C487  1  0.735400  0.228600  0.246900  1.0  -0.064
  C  C488  1  0.815200  0.203800  0.258800  1.0  -0.1481
  C  C489  1  0.898600  0.237300  0.252910  1.0  -0.1142
  C  C490  1  0.902200  0.304900  0.236800  1.0  -0.1132
  C  C491  1  0.799100  0.132600  0.276300  1.0  0.6852
  C  C492  1  0.099100  0.929100  0.671460  1.0  0.689
  C  C493  1  0.151700  0.906100  0.651450  1.0  -0.0717
  C  C494  1  0.103800  0.881100  0.633840  1.0  -0.0467
  C  C495  1  0.150900  0.863800  0.615590  1.0  -0.1428
  C  C496  1  0.092300  0.832900  0.595930  1.0  0.6807
  C  C497  1  0.246700  0.874100  0.614470  1.0  -0.0995
  C  C498  1  0.296000  0.894400  0.631910  1.0  -0.1261
  C  C499  1  0.251000  0.912900  0.651160  1.0  0.0337
  C  C500  1  0.301100  0.930200  0.670740  1.0  -0.0769
  C  C501  1  0.351200  0.020500  0.674120  1.0  0.1609
  C  C502  1  0.382300  0.977700  0.708130  1.0  0.1476
  C  C503  1  0.335000  0.894600  0.707550  1.0  0.0292
  C  C504  1  0.293500  0.868800  0.687930  1.0  -0.1207
  C  C505  1  0.324400  0.828600  0.725820  1.0  -0.0047
  C  C506  1  0.237100  0.792700  0.731390  1.0  -0.0055
  C  C507  1  0.145900  0.820500  0.721180  1.0  0.6983
  C  C508  1  0.235400  0.728600  0.746900  1.0  -0.064
  C  C509  1  0.315200  0.703800  0.758800  1.0  -0.1481
  C  C510  1  0.398600  0.737300  0.752910  1.0  -0.1142
  C  C511  1  0.402200  0.804900  0.736800  1.0  -0.1132
  C  C512  1  0.299100  0.632600  0.776300  1.0  0.6852
  C  C513  1  0.000000  0.000000  0.441700  1.0  0.6318
  C  C514  1  0.500000  0.500000  0.941700  1.0  0.6318
  C  C515  1  0.000000  0.000000  0.558300  1.0  0.6324
  C  C516  1  0.500000  0.500000  0.058300  1.0  0.6324
  C  C517  1  0.500000  0.000000  0.308300  1.0  0.6324
  C  C518  1  0.000000  0.500000  0.808300  1.0  0.6324
  C  C519  1  0.500000  0.000000  0.191700  1.0  0.6318
  C  C520  1  0.000000  0.500000  0.691700  1.0  0.6318
  N  N521  1  0.540200  0.394400  0.442200  1.0  -0.4157
  N  N522  1  0.040200  0.894400  0.942200  1.0  -0.4157
  N  N523  1  0.459800  0.605600  0.442200  1.0  -0.4127
  N  N524  1  0.959800  0.105600  0.942200  1.0  -0.4127
  N  N525  1  0.394400  0.459800  0.557800  1.0  -0.4094
  N  N526  1  0.894400  0.959800  0.057800  1.0  -0.4094
  N  N527  1  0.605600  0.540200  0.557800  1.0  -0.412
  N  N528  1  0.105600  0.040200  0.057800  1.0  -0.412
  N  N529  1  0.959800  0.394400  0.307800  1.0  -0.4125
  N  N530  1  0.459800  0.894400  0.807800  1.0  -0.4125
  N  N531  1  0.040200  0.605600  0.307800  1.0  -0.4133
  N  N532  1  0.540200  0.105600  0.807800  1.0  -0.4133
  N  N533  1  0.105600  0.459800  0.192200  1.0  -0.41
  N  N534  1  0.605600  0.959800  0.692200  1.0  -0.41
  N  N535  1  0.894400  0.540200  0.192200  1.0  -0.4125
  N  N536  1  0.394400  0.040200  0.692200  1.0  -0.4125
  O  O537  1  0.369100  0.039100  0.428180  1.0  -0.7744
  O  O538  1  0.505200  0.112700  0.430220  1.0  -0.6119
  O  O539  1  0.323800  0.007200  0.347790  1.0  -0.6205
  O  O540  1  0.318000  0.136100  0.329230  1.0  -0.606
  O  O541  1  0.405900  0.128300  0.470030  1.0  -0.7028
  O  O542  1  0.254800  0.093400  0.464300  1.0  -0.6968
  O  O543  1  0.111600  0.219000  0.532000  1.0  -0.6433
  O  O544  1  0.092700  0.371800  0.534510  1.0  -0.8117
  O  O545  1  0.075200  0.010700  0.449450  1.0  -0.6173
  O  O546  1  0.869100  0.539100  0.928180  1.0  -0.7744
  O  O547  1  0.005200  0.612700  0.930220  1.0  -0.6119
  O  O548  1  0.823800  0.507200  0.847790  1.0  -0.6205
  O  O549  1  0.818000  0.636100  0.829230  1.0  -0.606
  O  O550  1  0.905900  0.628300  0.970030  1.0  -0.7028
  O  O551  1  0.754800  0.593400  0.964300  1.0  -0.6968
  O  O552  1  0.611600  0.719000  0.032000  1.0  -0.6433
  O  O553  1  0.592700  0.871800  0.034510  1.0  -0.8117
  O  O554  1  0.575200  0.510700  0.949450  1.0  -0.6173
  O  O555  1  0.630900  0.960900  0.428180  1.0  -0.7741
  O  O556  1  0.494800  0.887300  0.430220  1.0  -0.6118
  O  O557  1  0.676200  0.992800  0.347790  1.0  -0.6194
  O  O558  1  0.682000  0.863900  0.329230  1.0  -0.6083
  O  O559  1  0.594100  0.871700  0.470030  1.0  -0.7026
  O  O560  1  0.745200  0.906600  0.464300  1.0  -0.7003
  O  O561  1  0.888400  0.781000  0.532000  1.0  -0.6407
  O  O562  1  0.907300  0.628200  0.534510  1.0  -0.8118
  O  O563  1  0.924800  0.989300  0.449450  1.0  -0.6175
  O  O564  1  0.130900  0.460900  0.928180  1.0  -0.7741
  O  O565  1  0.994800  0.387300  0.930220  1.0  -0.6118
  O  O566  1  0.176200  0.492800  0.847790  1.0  -0.6194
  O  O567  1  0.182000  0.363900  0.829230  1.0  -0.6083
  O  O568  1  0.094100  0.371700  0.970030  1.0  -0.7026
  O  O569  1  0.245200  0.406600  0.964300  1.0  -0.7003
  O  O570  1  0.388400  0.281000  0.032000  1.0  -0.6407
  O  O571  1  0.407300  0.128200  0.034510  1.0  -0.8118
  O  O572  1  0.424800  0.489300  0.949450  1.0  -0.6175
  O  O573  1  0.039100  0.630900  0.571820  1.0  -0.7717
  O  O574  1  0.112700  0.494800  0.569780  1.0  -0.6081
  O  O575  1  0.007200  0.676200  0.652210  1.0  -0.6245
  O  O576  1  0.136100  0.682000  0.670770  1.0  -0.6061
  O  O577  1  0.128300  0.594100  0.529970  1.0  -0.7038
  O  O578  1  0.093400  0.745200  0.535700  1.0  -0.6976
  O  O579  1  0.219000  0.888400  0.468000  1.0  -0.6475
  O  O580  1  0.371800  0.907300  0.465490  1.0  -0.8152
  O  O581  1  0.010700  0.924800  0.550550  1.0  -0.6127
  O  O582  1  0.539100  0.130900  0.071820  1.0  -0.7717
  O  O583  1  0.612700  0.994800  0.069780  1.0  -0.6081
  O  O584  1  0.507200  0.176200  0.152210  1.0  -0.6245
  O  O585  1  0.636100  0.182000  0.170770  1.0  -0.6061
  O  O586  1  0.628300  0.094100  0.029970  1.0  -0.7038
  O  O587  1  0.593400  0.245200  0.035700  1.0  -0.6976
  O  O588  1  0.719000  0.388400  0.968000  1.0  -0.6475
  O  O589  1  0.871800  0.407300  0.965490  1.0  -0.8152
  O  O590  1  0.510700  0.424800  0.050550  1.0  -0.6127
  O  O591  1  0.960900  0.369100  0.571820  1.0  -0.7724
  O  O592  1  0.887300  0.505200  0.569780  1.0  -0.6082
  O  O593  1  0.992800  0.323800  0.652210  1.0  -0.6214
  O  O594  1  0.863900  0.318000  0.670770  1.0  -0.6069
  O  O595  1  0.871700  0.405900  0.529970  1.0  -0.7049
  O  O596  1  0.906600  0.254800  0.535700  1.0  -0.6986
  O  O597  1  0.781000  0.111600  0.468000  1.0  -0.6484
  O  O598  1  0.628200  0.092700  0.465490  1.0  -0.8137
  O  O599  1  0.989300  0.075200  0.550550  1.0  -0.6125
  O  O600  1  0.460900  0.869100  0.071820  1.0  -0.7724
  O  O601  1  0.387300  0.005200  0.069780  1.0  -0.6082
  O  O602  1  0.492800  0.823800  0.152210  1.0  -0.6214
  O  O603  1  0.363900  0.818000  0.170770  1.0  -0.6069
  O  O604  1  0.371700  0.905900  0.029970  1.0  -0.7049
  O  O605  1  0.406600  0.754800  0.035700  1.0  -0.6986
  O  O606  1  0.281000  0.611600  0.968000  1.0  -0.6484
  O  O607  1  0.128200  0.592700  0.965490  1.0  -0.8137
  O  O608  1  0.489300  0.575200  0.050550  1.0  -0.6125
  O  O609  1  0.130900  0.039100  0.321820  1.0  -0.7745
  O  O610  1  0.994800  0.112700  0.319780  1.0  -0.6124
  O  O611  1  0.176200  0.007200  0.402210  1.0  -0.6192
  O  O612  1  0.182000  0.136100  0.420770  1.0  -0.6074
  O  O613  1  0.094100  0.128300  0.279970  1.0  -0.7028
  O  O614  1  0.245200  0.093400  0.285700  1.0  -0.6999
  O  O615  1  0.388400  0.219000  0.218000  1.0  -0.6414
  O  O616  1  0.407300  0.371800  0.215490  1.0  -0.813
  O  O617  1  0.424800  0.010700  0.300550  1.0  -0.6137
  O  O618  1  0.630900  0.539100  0.821820  1.0  -0.7745
  O  O619  1  0.494800  0.612700  0.819780  1.0  -0.6124
  O  O620  1  0.676200  0.507200  0.902210  1.0  -0.6192
  O  O621  1  0.682000  0.636100  0.920770  1.0  -0.6074
  O  O622  1  0.594100  0.628300  0.779970  1.0  -0.7028
  O  O623  1  0.745200  0.593400  0.785700  1.0  -0.6999
  O  O624  1  0.888400  0.719000  0.718000  1.0  -0.6414
  O  O625  1  0.907300  0.871800  0.715490  1.0  -0.813
  O  O626  1  0.924800  0.510700  0.800550  1.0  -0.6137
  O  O627  1  0.869100  0.960900  0.321820  1.0  -0.7745
  O  O628  1  0.005200  0.887300  0.319780  1.0  -0.6123
  O  O629  1  0.823800  0.992800  0.402210  1.0  -0.6201
  O  O630  1  0.818000  0.863900  0.420770  1.0  -0.6097
  O  O631  1  0.905900  0.871700  0.279970  1.0  -0.7021
  O  O632  1  0.754800  0.906600  0.285700  1.0  -0.6979
  O  O633  1  0.611600  0.781000  0.218000  1.0  -0.6414
  O  O634  1  0.592700  0.628200  0.215490  1.0  -0.8129
  O  O635  1  0.575200  0.989300  0.300550  1.0  -0.614
  O  O636  1  0.369100  0.460900  0.821820  1.0  -0.7745
  O  O637  1  0.505200  0.387300  0.819780  1.0  -0.6123
  O  O638  1  0.323800  0.492800  0.902210  1.0  -0.6201
  O  O639  1  0.318000  0.363900  0.920770  1.0  -0.6097
  O  O640  1  0.405900  0.371700  0.779970  1.0  -0.7021
  O  O641  1  0.254800  0.406600  0.785700  1.0  -0.6979
  O  O642  1  0.111600  0.281000  0.718000  1.0  -0.6414
  O  O643  1  0.092700  0.128200  0.715490  1.0  -0.8129
  O  O644  1  0.075200  0.489300  0.800550  1.0  -0.614
  O  O645  1  0.460900  0.630900  0.178180  1.0  -0.7716
  O  O646  1  0.387300  0.494800  0.180220  1.0  -0.6079
  O  O647  1  0.492800  0.676200  0.097790  1.0  -0.6212
  O  O648  1  0.363900  0.682000  0.079230  1.0  -0.6048
  O  O649  1  0.371700  0.594100  0.220030  1.0  -0.705
  O  O650  1  0.406600  0.745200  0.214300  1.0  -0.6981
  O  O651  1  0.281000  0.888400  0.282000  1.0  -0.6491
  O  O652  1  0.128200  0.907300  0.284510  1.0  -0.813
  O  O653  1  0.489300  0.924800  0.199450  1.0  -0.6157
  O  O654  1  0.960900  0.130900  0.678180  1.0  -0.7716
  O  O655  1  0.887300  0.994800  0.680220  1.0  -0.6079
  O  O656  1  0.992800  0.176200  0.597790  1.0  -0.6212
  O  O657  1  0.863900  0.182000  0.579230  1.0  -0.6048
  O  O658  1  0.871700  0.094100  0.720030  1.0  -0.705
  O  O659  1  0.906600  0.245200  0.714300  1.0  -0.6981
  O  O660  1  0.781000  0.388400  0.782000  1.0  -0.6491
  O  O661  1  0.628200  0.407300  0.784510  1.0  -0.813
  O  O662  1  0.989300  0.424800  0.699450  1.0  -0.6157
  O  O663  1  0.539100  0.369100  0.178180  1.0  -0.7721
  O  O664  1  0.612700  0.505200  0.180220  1.0  -0.6081
  O  O665  1  0.507200  0.323800  0.097790  1.0  -0.6241
  O  O666  1  0.636100  0.318000  0.079230  1.0  -0.6055
  O  O667  1  0.628300  0.405900  0.220030  1.0  -0.7059
  O  O668  1  0.593400  0.254800  0.214300  1.0  -0.6957
  O  O669  1  0.719000  0.111600  0.282000  1.0  -0.6475
  O  O670  1  0.871800  0.092700  0.284510  1.0  -0.8137
  O  O671  1  0.510700  0.075200  0.199450  1.0  -0.6156
  O  O672  1  0.039100  0.869100  0.678180  1.0  -0.7721
  O  O673  1  0.112700  0.005200  0.680220  1.0  -0.6081
  O  O674  1  0.007200  0.823800  0.597790  1.0  -0.6241
  O  O675  1  0.136100  0.818000  0.579230  1.0  -0.6055
  O  O676  1  0.128300  0.905900  0.720030  1.0  -0.7059
  O  O677  1  0.093400  0.754800  0.714300  1.0  -0.6957
  O  O678  1  0.219000  0.611600  0.782000  1.0  -0.6475
  O  O679  1  0.371800  0.592700  0.784510  1.0  -0.8137
  O  O680  1  0.010700  0.575200  0.699450  1.0  -0.6156
