# generated using pymatgen
data_Pr2H4(C3O4)3
_symmetry_space_group_name_H-M   'P 1'
_cell_length_a   10.63300000
_cell_length_b   10.63300000
_cell_length_c   11.01180000
_cell_angle_alpha   78.59540000
_cell_angle_beta   62.52850000
_cell_angle_gamma   108.51100000
_symmetry_Int_Tables_number   1
_chemical_formula_structural   Pr2H4(C3O4)3
_chemical_formula_sum   'Pr4 H8 C18 O24'
_cell_volume   955.79953008
_cell_formula_units_Z   2
loop_
 _symmetry_equiv_pos_site_id
 _symmetry_equiv_pos_as_xyz
  1  'x, y, z'
loop_
 _atom_site_type_symbol
 _atom_site_label
 _atom_site_symmetry_multiplicity
 _atom_site_fract_x
 _atom_site_fract_y
 _atom_site_fract_z
 _atom_site_occupancy
 _atom_site_charge
  Pr  Pr1  1  0.449840  0.636600  0.619760  1.0  2.2022
  Pr  Pr2  1  0.756360  0.069600  0.880240  1.0  2.2031
  Pr  Pr3  1  0.550160  0.363400  0.380240  1.0  2.2026
  Pr  Pr4  1  0.243640  0.930400  0.119760  1.0  2.2006
  H  H5  1  0.037300  0.618800  0.688300  1.0  0.1699
  H  H6  1  0.897700  0.514600  0.855900  1.0  0.1759
  H  H7  1  0.807100  0.725600  0.811700  1.0  0.1718
  H  H8  1  0.870500  0.753600  0.644100  1.0  0.172
  H  H9  1  0.962700  0.381200  0.311700  1.0  0.1715
  H  H10  1  0.102300  0.485400  0.144100  1.0  0.1744
  H  H11  1  0.192900  0.274400  0.188300  1.0  0.1701
  H  H12  1  0.129500  0.246400  0.355900  1.0  0.1721
  C  C13  1  0.095400  0.650400  0.832400  1.0  0.8467
  C  C14  1  0.010100  0.553900  0.780800  1.0  -0.512
  C  C15  1  0.047300  0.430200  0.757900  1.0  0.818
  C  C16  1  0.600300  0.373700  0.624800  1.0  0.6963
  C  C17  1  0.982800  0.927800  0.667600  1.0  0.8439
  C  C18  1  0.834700  0.790900  0.719200  1.0  -0.5116
  C  C19  1  0.688100  0.805200  0.742100  1.0  0.8183
  C  C20  1  0.498500  0.225100  0.875200  1.0  0.698
  C  C21  1  0.904600  0.349600  0.167600  1.0  0.8469
  C  C22  1  0.989900  0.446100  0.219200  1.0  -0.5119
  C  C23  1  0.952700  0.569800  0.242100  1.0  0.8175
  C  C24  1  0.399700  0.626300  0.375200  1.0  0.6962
  C  C25  1  0.017200  0.072200  0.332400  1.0  0.8456
  C  C26  1  0.165300  0.209100  0.280800  1.0  -0.5123
  C  C27  1  0.311900  0.194800  0.257900  1.0  0.8174
  C  C28  1  0.501500  0.774900  0.124800  1.0  0.6974
  C  C29  1  0.624800  0.374800  0.750000  1.0  -0.1191
  C  C30  1  0.375200  0.625200  0.250000  1.0  -0.119
  O  O31  1  0.244390  0.693390  0.773000  1.0  -0.7984
  O  O32  1  0.015100  0.687900  0.928200  1.0  -0.5935
  O  O33  1  0.184700  0.444100  0.709800  1.0  -0.7035
  O  O34  1  0.932800  0.319600  0.784800  1.0  -0.7515
  O  O35  1  0.541300  0.449500  0.591200  1.0  -0.8313
  O  O36  1  0.634740  0.293160  0.560100  1.0  -0.6554
  O  O37  1  0.966390  0.017390  0.727000  1.0  -0.7998
  O  O38  1  0.116100  0.943300  0.571800  1.0  -0.5957
  O  O39  1  0.653900  0.894500  0.790200  1.0  -0.6987
  O  O40  1  0.604400  0.717600  0.715200  1.0  -0.7564
  O  O41  1  0.540700  0.132500  0.908800  1.0  -0.8329
  O  O42  1  0.353260  0.194840  0.939900  1.0  -0.6559
  O  O43  1  0.755610  0.306610  0.227000  1.0  -0.7951
  O  O44  1  0.984900  0.312100  0.071800  1.0  -0.5935
  O  O45  1  0.815300  0.555900  0.290200  1.0  -0.704
  O  O46  1  0.067200  0.680400  0.215200  1.0  -0.7521
  O  O47  1  0.458700  0.550500  0.408800  1.0  -0.8339
  O  O48  1  0.365260  0.706840  0.439900  1.0  -0.6527
  O  O49  1  0.033610  0.982610  0.273000  1.0  -0.7977
  O  O50  1  0.883900  0.056700  0.428200  1.0  -0.595
  O  O51  1  0.346100  0.105500  0.209800  1.0  -0.7009
  O  O52  1  0.395600  0.282400  0.284800  1.0  -0.7553
  O  O53  1  0.459300  0.867500  0.091200  1.0  -0.8339
  O  O54  1  0.646740  0.805160  0.060100  1.0  -0.6554
