# generated using pymatgen
data_Pr2H6(C3O4)3
_symmetry_space_group_name_H-M   'P 1'
_cell_length_a   10.64120000
_cell_length_b   10.64120000
_cell_length_c   11.01540000
_cell_angle_alpha   78.61400000
_cell_angle_beta   62.53470000
_cell_angle_gamma   108.55500000
_symmetry_Int_Tables_number   1
_chemical_formula_structural   Pr2H6(C3O4)3
_chemical_formula_sum   'Pr4 H12 C18 O24'
_cell_volume   957.36309973
_cell_formula_units_Z   2
loop_
 _symmetry_equiv_pos_site_id
 _symmetry_equiv_pos_as_xyz
  1  'x, y, z'
loop_
 _atom_site_type_symbol
 _atom_site_label
 _atom_site_symmetry_multiplicity
 _atom_site_fract_x
 _atom_site_fract_y
 _atom_site_fract_z
 _atom_site_occupancy
 _atom_site_charge
  Pr  Pr1  1  0.050280  0.863520  0.880080  1.0  2.1827
  Pr  Pr2  1  0.743600  0.430360  0.619920  1.0  2.1822
  Pr  Pr3  1  0.949720  0.136480  0.119920  1.0  2.1832
  Pr  Pr4  1  0.256400  0.569640  0.380080  1.0  2.1836
  H  H5  1  0.451000  0.886000  0.817000  1.0  0.1621
  H  H6  1  0.607000  0.992000  0.649000  1.0  0.1463
  H  H7  1  0.226000  0.885000  0.223000  1.0  0.1294
  H  H8  1  0.703000  0.768000  0.683000  1.0  0.1616
  H  H9  1  0.641000  0.756000  0.851000  1.0  0.143
  H  H10  1  0.108000  0.949000  0.277000  1.0  0.1353
  H  H11  1  0.549000  0.114000  0.183000  1.0  0.1619
  H  H12  1  0.393000  0.008000  0.351000  1.0  0.1506
  H  H13  1  0.774000  0.115000  0.777000  1.0  0.1289
  H  H14  1  0.297000  0.232000  0.317000  1.0  0.1622
  H  H15  1  0.359000  0.244000  0.149000  1.0  0.1449
  H  H16  1  0.892000  0.051000  0.723000  1.0  0.1363
  C  C17  1  0.404200  0.849500  0.668300  1.0  0.7914
  C  C18  1  0.488300  0.945900  0.719600  1.0  -0.3747
  C  C19  1  0.453000  0.069000  0.742000  1.0  0.8125
  C  C20  1  0.100300  0.873900  0.124800  1.0  0.7625
  C  C21  1  0.517800  0.572500  0.831700  1.0  0.788
  C  C22  1  0.665500  0.707900  0.780400  1.0  -0.3742
  C  C23  1  0.811000  0.695000  0.758000  1.0  0.8114
  C  C24  1  0.998700  0.725100  0.375200  1.0  0.7555
  C  C25  1  0.595800  0.150500  0.331700  1.0  0.7905
  C  C26  1  0.511700  0.054100  0.280400  1.0  -0.3738
  C  C27  1  0.547000  0.931000  0.258000  1.0  0.8127
  C  C28  1  0.899700  0.126100  0.875200  1.0  0.7623
  C  C29  1  0.482200  0.427500  0.168300  1.0  0.7865
  C  C30  1  0.334500  0.292100  0.219600  1.0  -0.3757
  C  C31  1  0.189000  0.305000  0.242000  1.0  0.8106
  C  C32  1  0.001300  0.274900  0.624800  1.0  0.7565
  C  C33  1  0.125100  0.875100  0.250000  1.0  -0.4659
  C  C34  1  0.874900  0.124900  0.750000  1.0  -0.4683
  O  O35  1  0.256670  0.806570  0.726300  1.0  -0.798
  O  O36  1  0.567300  0.180600  0.714300  1.0  -0.763
  O  O37  1  0.315700  0.056200  0.789900  1.0  -0.7213
  O  O38  1  0.041110  0.949150  0.091160  1.0  -0.8543
  O  O39  1  0.133700  0.792890  0.061010  1.0  -0.6741
  O  O40  1  0.485000  0.813000  0.572200  1.0  -0.5647
  O  O41  1  0.532870  0.482970  0.773700  1.0  -0.7988
  O  O42  1  0.894900  0.781600  0.785700  1.0  -0.7629
  O  O43  1  0.846100  0.605600  0.710100  1.0  -0.7147
  O  O44  1  0.040310  0.632270  0.408840  1.0  -0.853
  O  O45  1  0.853900  0.694710  0.438990  1.0  -0.6772
  O  O46  1  0.385200  0.557200  0.927800  1.0  -0.5682
  O  O47  1  0.743330  0.193430  0.273700  1.0  -0.8
  O  O48  1  0.432700  0.819400  0.285700  1.0  -0.7619
  O  O49  1  0.684300  0.943800  0.210100  1.0  -0.7169
  O  O50  1  0.958890  0.050850  0.908840  1.0  -0.8528
  O  O51  1  0.866300  0.207110  0.938990  1.0  -0.6737
  O  O52  1  0.515000  0.187000  0.427800  1.0  -0.5647
  O  O53  1  0.467130  0.517030  0.226300  1.0  -0.8009
  O  O54  1  0.105100  0.218400  0.214300  1.0  -0.7653
  O  O55  1  0.153900  0.394400  0.289900  1.0  -0.7163
  O  O56  1  0.959690  0.367730  0.591160  1.0  -0.8537
  O  O57  1  0.146100  0.305290  0.561010  1.0  -0.6777
  O  O58  1  0.614800  0.442800  0.072200  1.0  -0.5679
