# generated using pymatgen
data_CuH4C13NO6
_symmetry_space_group_name_H-M   'P 1'
_cell_length_a   18.79400000
_cell_length_b   18.79400000
_cell_length_c   19.93510000
_cell_angle_alpha   61.87610000
_cell_angle_beta   61.87610000
_cell_angle_gamma   60.00000000
_symmetry_Int_Tables_number   1
_chemical_formula_structural   CuH4C13NO6
_chemical_formula_sum   'Cu6 H24 C78 N6 O36'
_cell_volume   5115.54607445
_cell_formula_units_Z   6
loop_
 _symmetry_equiv_pos_site_id
 _symmetry_equiv_pos_as_xyz
  1  'x, y, z'
loop_
 _atom_site_type_symbol
 _atom_site_label
 _atom_site_symmetry_multiplicity
 _atom_site_fract_x
 _atom_site_fract_y
 _atom_site_fract_z
 _atom_site_occupancy
 _atom_site_charge
  Cu  Cu1  1  0.067670  0.499140  0.934050  1.0  0.9157
  Cu  Cu2  1  0.499140  0.499140  0.934050  1.0  0.9105
  Cu  Cu3  1  0.499140  0.067670  0.934050  1.0  0.9138
  Cu  Cu4  1  0.932330  0.500860  0.065950  1.0  0.9159
  Cu  Cu5  1  0.500860  0.932330  0.065950  1.0  0.9142
  Cu  Cu6  1  0.500860  0.500860  0.065950  1.0  0.9114
  H  H7  1  0.979200  0.467800  0.793600  1.0  0.1375
  H  H8  1  0.467800  0.759400  0.793600  1.0  0.1363
  H  H9  1  0.759400  0.979200  0.793600  1.0  0.1375
  H  H10  1  0.020800  0.240600  0.206400  1.0  0.1367
  H  H11  1  0.532200  0.020800  0.206400  1.0  0.1376
  H  H12  1  0.240600  0.532200  0.206400  1.0  0.1361
  H  H13  1  0.020800  0.532200  0.206400  1.0  0.1381
  H  H14  1  0.532200  0.240600  0.206400  1.0  0.1362
  H  H15  1  0.240600  0.020800  0.206400  1.0  0.1376
  H  H16  1  0.979200  0.759400  0.793600  1.0  0.137
  H  H17  1  0.467800  0.979200  0.793600  1.0  0.1379
  H  H18  1  0.759400  0.467800  0.793600  1.0  0.1361
  H  H19  1  0.769400  0.466300  0.994900  1.0  0.1312
  H  H20  1  0.466300  0.769400  0.994900  1.0  0.1314
  H  H21  1  0.769400  0.769400  0.994900  1.0  0.1334
  H  H22  1  0.230600  0.230600  0.005100  1.0  0.1334
  H  H23  1  0.533700  0.230600  0.005100  1.0  0.1307
  H  H24  1  0.230600  0.533700  0.005100  1.0  0.1308
  H  H25  1  0.126300  0.500000  0.500000  1.0  0.1405
  H  H26  1  0.500000  0.873700  0.500000  1.0  0.1415
  H  H27  1  0.873700  0.126300  0.500000  1.0  0.1427
  H  H28  1  0.873700  0.500000  0.500000  1.0  0.1398
  H  H29  1  0.500000  0.126300  0.500000  1.0  0.1423
  H  H30  1  0.126300  0.873700  0.500000  1.0  0.1437
  C  C31  1  0.879070  0.467870  0.898990  1.0  -0.1018
  C  C32  1  0.923160  0.467560  0.819820  1.0  -0.0744
  C  C33  1  0.926080  0.473980  0.939760  1.0  0.6581
  C  C34  1  0.993900  0.463600  0.658300  1.0  0.4631
  C  C35  1  0.003200  0.480400  0.569200  1.0  -0.0844
  C  C36  1  0.467870  0.754070  0.898990  1.0  -0.1034
  C  C37  1  0.467560  0.789460  0.819820  1.0  -0.0803
  C  C38  1  0.473980  0.660180  0.939760  1.0  0.6656
  C  C39  1  0.463600  0.884200  0.658300  1.0  0.4645
  C  C40  1  0.480400  0.947200  0.569200  1.0  -0.0854
  C  C41  1  0.754070  0.879070  0.898990  1.0  -0.1036
  C  C42  1  0.789460  0.923160  0.819820  1.0  -0.074
  C  C43  1  0.660180  0.926080  0.939760  1.0  0.6549
  C  C44  1  0.884200  0.993900  0.658300  1.0  0.4664
  C  C45  1  0.947200  0.003200  0.569200  1.0  -0.0855
  C  C46  1  0.120930  0.245930  0.101010  1.0  -0.1034
  C  C47  1  0.076840  0.210540  0.180180  1.0  -0.0749
  C  C48  1  0.073920  0.339820  0.060240  1.0  0.6563
  C  C49  1  0.006100  0.115800  0.341700  1.0  0.4677
  C  C50  1  0.996800  0.052800  0.430800  1.0  -0.0848
  C  C51  1  0.532130  0.120930  0.101010  1.0  -0.102
  C  C52  1  0.532440  0.076840  0.180180  1.0  -0.0727
  C  C53  1  0.526020  0.073920  0.060240  1.0  0.6577
  C  C54  1  0.536400  0.006100  0.341700  1.0  0.4627
  C  C55  1  0.519600  0.996800  0.430800  1.0  -0.0889
  C  C56  1  0.245930  0.532130  0.101010  1.0  -0.1023
  C  C57  1  0.210540  0.532440  0.180180  1.0  -0.0791
  C  C58  1  0.339820  0.526020  0.060240  1.0  0.665
  C  C59  1  0.115800  0.536400  0.341700  1.0  0.4638
  C  C60  1  0.052800  0.519600  0.430800  1.0  -0.0822
  C  C61  1  0.120930  0.532130  0.101010  1.0  -0.1015
  C  C62  1  0.076840  0.532440  0.180180  1.0  -0.0756
  C  C63  1  0.073920  0.526020  0.060240  1.0  0.658
  C  C64  1  0.006100  0.536400  0.341700  1.0  0.4625
  C  C65  1  0.996800  0.519600  0.430800  1.0  -0.0858
  C  C66  1  0.532130  0.245930  0.101010  1.0  -0.1032
  C  C67  1  0.532440  0.210540  0.180180  1.0  -0.0774
  C  C68  1  0.526020  0.339820  0.060240  1.0  0.6658
  C  C69  1  0.536400  0.115800  0.341700  1.0  0.4635
  C  C70  1  0.519600  0.052800  0.430800  1.0  -0.0857
  C  C71  1  0.245930  0.120930  0.101010  1.0  -0.1035
  C  C72  1  0.210540  0.076840  0.180180  1.0  -0.0723
  C  C73  1  0.339820  0.073920  0.060240  1.0  0.6552
  C  C74  1  0.115800  0.006100  0.341700  1.0  0.4645
  C  C75  1  0.052800  0.996800  0.430800  1.0  -0.0847
  C  C76  1  0.879070  0.754070  0.898990  1.0  -0.1031
  C  C77  1  0.923160  0.789460  0.819820  1.0  -0.0737
  C  C78  1  0.926080  0.660180  0.939760  1.0  0.6565
  C  C79  1  0.993900  0.884200  0.658300  1.0  0.4665
  C  C80  1  0.003200  0.947200  0.569200  1.0  -0.0825
  C  C81  1  0.467870  0.879070  0.898990  1.0  -0.1029
  C  C82  1  0.467560  0.923160  0.819820  1.0  -0.0726
  C  C83  1  0.473980  0.926080  0.939760  1.0  0.6584
  C  C84  1  0.463600  0.993900  0.658300  1.0  0.4624
  C  C85  1  0.480400  0.003200  0.569200  1.0  -0.0884
  C  C86  1  0.754070  0.467870  0.898990  1.0  -0.1033
  C  C87  1  0.789460  0.467560  0.819820  1.0  -0.0799
  C  C88  1  0.660180  0.473980  0.939760  1.0  0.6641
  C  C89  1  0.884200  0.463600  0.658300  1.0  0.4649
  C  C90  1  0.947200  0.480400  0.569200  1.0  -0.0831
  C  C91  1  0.795560  0.467260  0.941620  1.0  -0.0215
  C  C92  1  0.875000  0.467200  0.782800  1.0  0.0788
  C  C93  1  0.467260  0.795560  0.941620  1.0  -0.0216
  C  C94  1  0.467200  0.875000  0.782800  1.0  0.0789
  C  C95  1  0.795560  0.795560  0.941620  1.0  -0.016
  C  C96  1  0.875000  0.875000  0.782800  1.0  0.0787
  C  C97  1  0.204440  0.204440  0.058380  1.0  -0.0164
  C  C98  1  0.125000  0.125000  0.217200  1.0  0.0777
  C  C99  1  0.532740  0.204440  0.058380  1.0  -0.0206
  C  C100  1  0.532800  0.125000  0.217200  1.0  0.079
  C  C101  1  0.204440  0.532740  0.058380  1.0  -0.0208
  C  C102  1  0.125000  0.532800  0.217200  1.0  0.079
  C  C103  1  0.076800  0.500000  0.500000  1.0  -0.0478
  C  C104  1  0.500000  0.923200  0.500000  1.0  -0.0534
  C  C105  1  0.923200  0.076800  0.500000  1.0  -0.0389
  C  C106  1  0.923200  0.500000  0.500000  1.0  -0.0501
  C  C107  1  0.500000  0.076800  0.500000  1.0  -0.0483
  C  C108  1  0.076800  0.923200  0.500000  1.0  -0.0405
  N  N109  1  0.915400  0.477300  0.691900  1.0  -0.0923
  N  N110  1  0.477300  0.915400  0.691900  1.0  -0.0892
  N  N111  1  0.915400  0.915400  0.691900  1.0  -0.0868
  N  N112  1  0.084600  0.084600  0.308100  1.0  -0.0895
  N  N113  1  0.522700  0.084600  0.308100  1.0  -0.0914
  N  N114  1  0.084600  0.522700  0.308100  1.0  -0.0918
  O  O115  1  0.000850  0.477650  0.897850  1.0  -0.5489
  O  O116  1  0.885330  0.479130  0.010710  1.0  -0.5564
  O  O117  1  0.050000  0.470000  0.670000  1.0  -0.4432
  O  O118  1  0.477650  0.623650  0.897850  1.0  -0.5539
  O  O119  1  0.479130  0.624830  0.010710  1.0  -0.5588
  O  O120  1  0.470000  0.810000  0.670000  1.0  -0.4442
  O  O121  1  0.623650  0.000850  0.897850  1.0  -0.5482
  O  O122  1  0.624830  0.885330  0.010710  1.0  -0.5587
  O  O123  1  0.810000  0.050000  0.670000  1.0  -0.4404
  O  O124  1  0.999150  0.376350  0.102150  1.0  -0.5486
  O  O125  1  0.114670  0.375170  0.989290  1.0  -0.5594
  O  O126  1  0.950000  0.190000  0.330000  1.0  -0.4407
  O  O127  1  0.522350  0.999150  0.102150  1.0  -0.5498
  O  O128  1  0.520870  0.114670  0.989290  1.0  -0.559
  O  O129  1  0.530000  0.950000  0.330000  1.0  -0.4428
  O  O130  1  0.376350  0.522350  0.102150  1.0  -0.5532
  O  O131  1  0.375170  0.520870  0.989290  1.0  -0.5596
  O  O132  1  0.190000  0.530000  0.330000  1.0  -0.4485
  O  O133  1  0.999150  0.522350  0.102150  1.0  -0.5487
  O  O134  1  0.114670  0.520870  0.989290  1.0  -0.5574
  O  O135  1  0.950000  0.530000  0.330000  1.0  -0.4412
  O  O136  1  0.522350  0.376350  0.102150  1.0  -0.5537
  O  O137  1  0.520870  0.375170  0.989290  1.0  -0.5605
  O  O138  1  0.530000  0.190000  0.330000  1.0  -0.4461
  O  O139  1  0.376350  0.999150  0.102150  1.0  -0.5494
  O  O140  1  0.375170  0.114670  0.989290  1.0  -0.5596
  O  O141  1  0.190000  0.950000  0.330000  1.0  -0.4416
  O  O142  1  0.000850  0.623650  0.897850  1.0  -0.549
  O  O143  1  0.885330  0.624830  0.010710  1.0  -0.5592
  O  O144  1  0.050000  0.810000  0.670000  1.0  -0.4408
  O  O145  1  0.477650  0.000850  0.897850  1.0  -0.5483
  O  O146  1  0.479130  0.885330  0.010710  1.0  -0.5577
  O  O147  1  0.470000  0.050000  0.670000  1.0  -0.4416
  O  O148  1  0.623650  0.477650  0.897850  1.0  -0.5542
  O  O149  1  0.624830  0.479130  0.010710  1.0  -0.5606
  O  O150  1  0.810000  0.470000  0.670000  1.0  -0.4449
