# generated using pymatgen
data_ZnH4C13NO6
_symmetry_space_group_name_H-M   'P 1'
_cell_length_a   18.19900000
_cell_length_b   20.12500000
_cell_length_c   37.45370000
_cell_angle_alpha   74.41510000
_cell_angle_beta   75.93900000
_cell_angle_gamma   90.00000000
_symmetry_Int_Tables_number   1
_chemical_formula_structural   ZnH4C13NO6
_chemical_formula_sum   'Zn16 H64 C208 N16 O96'
_cell_volume   12786.03649905
_cell_formula_units_Z   16
loop_
 _symmetry_equiv_pos_site_id
 _symmetry_equiv_pos_as_xyz
  1  'x, y, z'
loop_
 _atom_site_type_symbol
 _atom_site_label
 _atom_site_symmetry_multiplicity
 _atom_site_fract_x
 _atom_site_fract_y
 _atom_site_fract_z
 _atom_site_occupancy
 _atom_site_charge
  Zn  Zn1  1  0.090170  0.892670  0.763580  1.0  1.0611
  Zn  Zn2  1  0.102620  0.037710  0.688740  1.0  0.9619
  Zn  Zn3  1  0.646250  0.343750  0.763580  1.0  1.0611
  Zn  Zn4  1  0.708640  0.273550  0.688740  1.0  0.9635
  Zn  Zn5  1  0.853750  0.607330  0.236420  1.0  1.0607
  Zn  Zn6  1  0.791360  0.462290  0.311260  1.0  0.9585
  Zn  Zn7  1  0.409830  0.156250  0.236420  1.0  1.0604
  Zn  Zn8  1  0.397380  0.226450  0.311260  1.0  0.9629
  Zn  Zn9  1  0.909830  0.107330  0.236420  1.0  1.0611
  Zn  Zn10  1  0.897380  0.962290  0.311260  1.0  0.959
  Zn  Zn11  1  0.353750  0.656250  0.236420  1.0  1.061
  Zn  Zn12  1  0.291360  0.726450  0.311260  1.0  0.9638
  Zn  Zn13  1  0.146250  0.392670  0.763580  1.0  1.0614
  Zn  Zn14  1  0.208640  0.537710  0.688740  1.0  0.961
  Zn  Zn15  1  0.590170  0.843750  0.763580  1.0  1.0615
  Zn  Zn16  1  0.602620  0.773550  0.688740  1.0  0.962
  H  H17  1  0.107000  0.162200  0.759000  1.0  0.0947
  H  H18  1  0.050600  0.000700  0.852800  1.0  0.1088
  H  H19  1  0.082000  0.191800  0.862400  1.0  0.1108
  H  H20  1  0.086100  0.909900  0.998000  1.0  0.1348
  H  H21  1  0.342600  0.898600  0.742400  1.0  0.103
  H  H22  1  0.313600  0.978700  0.636800  1.0  0.1085
  H  H23  1  0.514400  0.907900  0.650200  1.0  0.1115
  H  H24  1  0.397700  0.926800  0.500000  1.0  0.1129
  H  H25  1  0.634000  0.078800  0.759000  1.0  0.0951
  H  H26  1  0.596600  0.146500  0.852800  1.0  0.1084
  H  H27  1  0.555600  0.945800  0.862400  1.0  0.1113
  H  H28  1  0.415900  0.092100  0.998000  1.0  0.1358
  H  H29  1  0.415000  0.359000  0.742400  1.0  0.1029
  H  H30  1  0.549600  0.384500  0.636800  1.0  0.1089
  H  H31  1  0.335400  0.441900  0.650200  1.0  0.1111
  H  H32  1  0.602300  0.573200  0.500000  1.0  0.1134
  H  H33  1  0.866000  0.337800  0.241000  1.0  0.0949
  H  H34  1  0.903400  0.499300  0.147200  1.0  0.1077
  H  H35  1  0.944400  0.308200  0.137600  1.0  0.1107
  H  H36  1  0.084100  0.590100  0.002000  1.0  0.1342
  H  H37  1  0.085000  0.601400  0.257600  1.0  0.1027
  H  H38  1  0.950400  0.521300  0.363200  1.0  0.1089
  H  H39  1  0.164600  0.592100  0.349800  1.0  0.1119
  H  H40  1  0.897700  0.573200  0.500000  1.0  0.114
  H  H41  1  0.393000  0.421200  0.241000  1.0  0.0944
  H  H42  1  0.449400  0.353500  0.147200  1.0  0.108
  H  H43  1  0.418000  0.554200  0.137600  1.0  0.1103
  H  H44  1  0.413900  0.407900  0.002000  1.0  0.1329
  H  H45  1  0.157400  0.141000  0.257600  1.0  0.1024
  H  H46  1  0.186400  0.115500  0.363200  1.0  0.1085
  H  H47  1  0.985600  0.058100  0.349800  1.0  0.1111
  H  H48  1  0.102300  0.926800  0.500000  1.0  0.1138
  H  H49  1  0.893000  0.837800  0.241000  1.0  0.0946
  H  H50  1  0.949400  0.999300  0.147200  1.0  0.1081
  H  H51  1  0.918000  0.808200  0.137600  1.0  0.1107
  H  H52  1  0.913900  0.090100  0.002000  1.0  0.1353
  H  H53  1  0.657400  0.101400  0.257600  1.0  0.1024
  H  H54  1  0.686400  0.021300  0.363200  1.0  0.1083
  H  H55  1  0.485600  0.092100  0.349800  1.0  0.1124
  H  H56  1  0.602300  0.073200  0.500000  1.0  0.1134
  H  H57  1  0.366000  0.921200  0.241000  1.0  0.0948
  H  H58  1  0.403400  0.853500  0.147200  1.0  0.1086
  H  H59  1  0.444400  0.054200  0.137600  1.0  0.1115
  H  H60  1  0.584100  0.907900  0.002000  1.0  0.1354
  H  H61  1  0.585000  0.641000  0.257600  1.0  0.1025
  H  H62  1  0.450400  0.615500  0.363200  1.0  0.1097
  H  H63  1  0.664600  0.558100  0.349800  1.0  0.1109
  H  H64  1  0.397700  0.426800  0.500000  1.0  0.1129
  H  H65  1  0.134000  0.662200  0.759000  1.0  0.0952
  H  H66  1  0.096600  0.500700  0.852800  1.0  0.1082
  H  H67  1  0.055600  0.691800  0.862400  1.0  0.1108
  H  H68  1  0.915900  0.409900  0.998000  1.0  0.1337
  H  H69  1  0.915000  0.398600  0.742400  1.0  0.103
  H  H70  1  0.049600  0.478700  0.636800  1.0  0.1085
  H  H71  1  0.835400  0.407900  0.650200  1.0  0.1121
  H  H72  1  0.102300  0.426800  0.500000  1.0  0.1138
  H  H73  1  0.607000  0.578800  0.759000  1.0  0.0951
  H  H74  1  0.550600  0.646500  0.852800  1.0  0.1085
  H  H75  1  0.582000  0.445800  0.862400  1.0  0.1102
  H  H76  1  0.586100  0.592100  0.998000  1.0  0.1335
  H  H77  1  0.842600  0.859000  0.742400  1.0  0.1029
  H  H78  1  0.813600  0.884500  0.636800  1.0  0.1093
  H  H79  1  0.014400  0.941900  0.650200  1.0  0.1109
  H  H80  1  0.897700  0.073200  0.500000  1.0  0.1139
  C  C81  1  0.096580  0.144380  0.785440  1.0  0.0456
  C  C82  1  0.079770  0.073270  0.801660  1.0  -0.1863
  C  C83  1  0.078860  0.025060  0.776880  1.0  0.729
  C  C84  1  0.063190  0.047690  0.841220  1.0  -0.1057
  C  C85  1  0.065450  0.092050  0.863500  1.0  0.1685
  C  C86  1  0.081840  0.162240  0.847120  1.0  -0.1614
  C  C87  1  0.098020  0.188120  0.807360  1.0  -0.1542
  C  C88  1  0.117900  0.263700  0.788000  1.0  0.6506
  C  C89  1  0.070800  0.005600  0.925800  1.0  0.4743
  C  C90  1  0.039700  0.000500  0.963200  1.0  0.1527
  C  C91  1  0.050400  0.942900  0.998400  1.0  -0.0904
  C  C92  1  0.007700  0.049400  0.966600  1.0  0.1565
  C  C93  1  0.996900  0.092800  0.928800  1.0  0.5413
  C  C94  1  0.361840  0.911040  0.715920  1.0  0.0112
  C  C95  1  0.316440  0.940140  0.692320  1.0  -0.1602
  C  C96  1  0.234950  0.954550  0.708300  1.0  0.6968
  C  C97  1  0.344280  0.958080  0.652640  1.0  -0.1049
  C  C98  1  0.417390  0.944790  0.637220  1.0  0.1681
  C  C99  1  0.464700  0.916100  0.660800  1.0  -0.1364
  C  C100  1  0.437100  0.900100  0.700000  1.0  -0.1696
  C  C101  1  0.486710  0.870910  0.725980  1.0  0.6484
  C  C102  1  0.407050  0.933650  0.573900  1.0  0.4285
  C  C103  1  0.451940  0.965040  0.533920  1.0  -0.0667
  C  C104  1  0.438030  0.955330  0.499940  1.0  -0.0684
  C  C105  1  0.510140  0.007840  0.533520  1.0  -0.0934
  C  C106  1  0.506470  0.006670  0.574260  1.0  0.5785
  C  C107  1  0.617980  0.070180  0.785440  1.0  0.0461
  C  C108  1  0.618570  0.125070  0.801660  1.0  -0.1845
  C  C109  1  0.644260  0.198060  0.776880  1.0  0.7303
  C  C110  1  0.595590  0.111090  0.841220  1.0  -0.1089
  C  C111  1  0.571050  0.044450  0.863500  1.0  0.1684
  C  C112  1  0.571040  0.990640  0.847120  1.0  -0.1612
  C  C113  1  0.594620  0.004520  0.807360  1.0  -0.1558
  C  C114  1  0.594100  0.948300  0.788000  1.0  0.6507
  C  C115  1  0.503400  0.068600  0.925800  1.0  0.474
  C  C116  1  0.497100  0.036300  0.963200  1.0  0.1479
  C  C117  1  0.451200  0.058700  0.998400  1.0  -0.0894
  C  C118  1  0.525700  0.984000  0.966600  1.0  0.1601
  C  C119  1  0.574300  0.978400  0.928800  1.0  0.5398
  C  C120  1  0.422240  0.373040  0.715920  1.0  0.0146
  C  C121  1  0.491240  0.367540  0.692320  1.0  -0.161
  C  C122  1  0.556750  0.337150  0.708300  1.0  0.6977
  C  C123  1  0.503080  0.389280  0.652640  1.0  -0.1039
  C  C124  1  0.445390  0.417990  0.637220  1.0  0.1681
  C  C125  1  0.374500  0.423100  0.660800  1.0  -0.1362
  C  C126  1  0.362900  0.399900  0.700000  1.0  -0.168
  C  C127  1  0.287310  0.403110  0.725980  1.0  0.6463
  C  C128  1  0.519050  0.492450  0.573900  1.0  0.4282
  C  C129  1  0.514140  0.501040  0.533920  1.0  -0.0674
  C  C130  1  0.562030  0.544730  0.499940  1.0  -0.0668
  C  C131  1  0.456340  0.458640  0.533520  1.0  -0.0926
  C  C132  1  0.419270  0.419070  0.574260  1.0  0.578
  C  C133  1  0.882020  0.355620  0.214560  1.0  0.0439
  C  C134  1  0.881430  0.426730  0.198340  1.0  -0.1885
  C  C135  1  0.855740  0.474940  0.223120  1.0  0.7289
  C  C136  1  0.904410  0.452310  0.158780  1.0  -0.1035
  C  C137  1  0.928950  0.407950  0.136500  1.0  0.1686
  C  C138  1  0.928960  0.337760  0.152880  1.0  -0.1647
  C  C139  1  0.905380  0.311880  0.192640  1.0  -0.1553
  C  C140  1  0.905900  0.236300  0.212000  1.0  0.651
  C  C141  1  0.996600  0.494400  0.074200  1.0  0.4727
  C  C142  1  0.002900  0.499500  0.036800  1.0  0.1486
  C  C143  1  0.048800  0.557100  0.001600  1.0  -0.0883
  C  C144  1  0.974300  0.450600  0.033400  1.0  0.1607
  C  C145  1  0.925700  0.407200  0.071200  1.0  0.5407
  C  C146  1  0.077760  0.588960  0.284080  1.0  0.0114
  C  C147  1  0.008760  0.559860  0.307680  1.0  -0.1614
  C  C148  1  0.943250  0.545450  0.291700  1.0  0.6977
  C  C149  1  0.996920  0.541920  0.347360  1.0  -0.1036
  C  C150  1  0.054610  0.555210  0.362780  1.0  0.1686
  C  C151  1  0.125500  0.583900  0.339200  1.0  -0.1387
  C  C152  1  0.137100  0.599900  0.300000  1.0  -0.1678
  C  C153  1  0.212690  0.629090  0.274020  1.0  0.644
  C  C154  1  0.980950  0.566350  0.426100  1.0  0.4319
  C  C155  1  0.985860  0.534960  0.466080  1.0  -0.0662
  C  C156  1  0.937970  0.544670  0.500060  1.0  -0.0663
  C  C157  1  0.043660  0.492160  0.466480  1.0  -0.0918
  C  C158  1  0.080730  0.493330  0.425740  1.0  0.5796
  C  C159  1  0.403420  0.429820  0.214560  1.0  0.0453
  C  C160  1  0.420230  0.374930  0.198340  1.0  -0.185
  C  C161  1  0.421140  0.301940  0.223120  1.0  0.7301
  C  C162  1  0.436810  0.388910  0.158780  1.0  -0.1072
  C  C163  1  0.434550  0.455550  0.136500  1.0  0.169
  C  C164  1  0.418160  0.509360  0.152880  1.0  -0.1585
  C  C165  1  0.401980  0.495480  0.192640  1.0  -0.1562
  C  C166  1  0.382100  0.551700  0.212000  1.0  0.6507
  C  C167  1  0.429200  0.431400  0.074200  1.0  0.4748
  C  C168  1  0.460300  0.463700  0.036800  1.0  0.1487
  C  C169  1  0.449600  0.441300  0.001600  1.0  -0.09
  C  C170  1  0.492300  0.516000  0.033400  1.0  0.16
  C  C171  1  0.503100  0.521600  0.071200  1.0  0.5393
  C  C172  1  0.138160  0.126960  0.284080  1.0  0.0125
  C  C173  1  0.183560  0.132460  0.307680  1.0  -0.1614
  C  C174  1  0.265050  0.162850  0.291700  1.0  0.6966
  C  C175  1  0.155720  0.110720  0.347360  1.0  -0.1031
  C  C176  1  0.082610  0.082010  0.362780  1.0  0.1676
  C  C177  1  0.035300  0.076900  0.339200  1.0  -0.1362
  C  C178  1  0.062900  0.100100  0.300000  1.0  -0.169
  C  C179  1  0.013290  0.096890  0.274020  1.0  0.6482
  C  C180  1  0.092950  0.007550  0.426100  1.0  0.4278
  C  C181  1  0.048060  0.998960  0.466080  1.0  -0.066
  C  C182  1  0.061970  0.955270  0.500060  1.0  -0.0661
  C  C183  1  0.989860  0.041360  0.466480  1.0  -0.0918
  C  C184  1  0.993530  0.080930  0.425740  1.0  0.5794
  C  C185  1  0.903420  0.855620  0.214560  1.0  0.0446
  C  C186  1  0.920230  0.926730  0.198340  1.0  -0.188
  C  C187  1  0.921140  0.974940  0.223120  1.0  0.7303
  C  C188  1  0.936810  0.952310  0.158780  1.0  -0.1041
  C  C189  1  0.934550  0.907950  0.136500  1.0  0.169
  C  C190  1  0.918160  0.837760  0.152880  1.0  -0.1612
  C  C191  1  0.901980  0.811880  0.192640  1.0  -0.1553
  C  C192  1  0.882100  0.736300  0.212000  1.0  0.6507
  C  C193  1  0.929200  0.994400  0.074200  1.0  0.4737
  C  C194  1  0.960300  0.999500  0.036800  1.0  0.1489
  C  C195  1  0.949600  0.057100  0.001600  1.0  -0.0902
  C  C196  1  0.992300  0.950600  0.033400  1.0  0.1555
  C  C197  1  0.003100  0.907200  0.071200  1.0  0.5402
  C  C198  1  0.638160  0.088960  0.284080  1.0  0.0114
  C  C199  1  0.683560  0.059860  0.307680  1.0  -0.1608
  C  C200  1  0.765050  0.045450  0.291700  1.0  0.6979
  C  C201  1  0.655720  0.041920  0.347360  1.0  -0.1057
  C  C202  1  0.582610  0.055210  0.362780  1.0  0.1677
  C  C203  1  0.535300  0.083900  0.339200  1.0  -0.1375
  C  C204  1  0.562900  0.099900  0.300000  1.0  -0.1691
  C  C205  1  0.513290  0.129090  0.274020  1.0  0.6481
  C  C206  1  0.592950  0.066350  0.426100  1.0  0.4286
  C  C207  1  0.548060  0.034960  0.466080  1.0  -0.0668
  C  C208  1  0.561970  0.044670  0.500060  1.0  -0.0666
  C  C209  1  0.489860  0.992160  0.466480  1.0  -0.0943
  C  C210  1  0.493530  0.993330  0.425740  1.0  0.5789
  C  C211  1  0.382020  0.929820  0.214560  1.0  0.0449
  C  C212  1  0.381430  0.874930  0.198340  1.0  -0.1849
  C  C213  1  0.355740  0.801940  0.223120  1.0  0.7289
  C  C214  1  0.404410  0.888910  0.158780  1.0  -0.1085
  C  C215  1  0.428950  0.955550  0.136500  1.0  0.1688
  C  C216  1  0.428960  0.009360  0.152880  1.0  -0.1612
  C  C217  1  0.405380  0.995480  0.192640  1.0  -0.1558
  C  C218  1  0.405900  0.051700  0.212000  1.0  0.6506
  C  C219  1  0.496600  0.931400  0.074200  1.0  0.4745
  C  C220  1  0.502900  0.963700  0.036800  1.0  0.1502
  C  C221  1  0.548800  0.941300  0.001600  1.0  -0.0894
  C  C222  1  0.474300  0.016000  0.033400  1.0  0.16
  C  C223  1  0.425700  0.021600  0.071200  1.0  0.5404
  C  C224  1  0.577760  0.626960  0.284080  1.0  0.0125
  C  C225  1  0.508760  0.632460  0.307680  1.0  -0.1606
  C  C226  1  0.443250  0.662850  0.291700  1.0  0.6961
  C  C227  1  0.496920  0.610720  0.347360  1.0  -0.1042
  C  C228  1  0.554610  0.582010  0.362780  1.0  0.1682
  C  C229  1  0.625500  0.576900  0.339200  1.0  -0.1367
  C  C230  1  0.637100  0.600100  0.300000  1.0  -0.1678
  C  C231  1  0.712690  0.596890  0.274020  1.0  0.6441
  C  C232  1  0.480950  0.507550  0.426100  1.0  0.426
  C  C233  1  0.485860  0.498960  0.466080  1.0  -0.067
  C  C234  1  0.437970  0.455270  0.500060  1.0  -0.068
  C  C235  1  0.543660  0.541360  0.466480  1.0  -0.0916
  C  C236  1  0.580730  0.580930  0.425740  1.0  0.5802
  C  C237  1  0.117980  0.644380  0.785440  1.0  0.0446
  C  C238  1  0.118570  0.573270  0.801660  1.0  -0.1878
  C  C239  1  0.144260  0.525060  0.776880  1.0  0.7305
  C  C240  1  0.095590  0.547690  0.841220  1.0  -0.1044
  C  C241  1  0.071050  0.592050  0.863500  1.0  0.1684
  C  C242  1  0.071040  0.662240  0.847120  1.0  -0.1672
  C  C243  1  0.094620  0.688120  0.807360  1.0  -0.1542
  C  C244  1  0.094100  0.763700  0.788000  1.0  0.6504
  C  C245  1  0.003400  0.505600  0.925800  1.0  0.4758
  C  C246  1  0.997100  0.500500  0.963200  1.0  0.1501
  C  C247  1  0.951200  0.442900  0.998400  1.0  -0.0906
  C  C248  1  0.025700  0.549400  0.966600  1.0  0.1573
  C  C249  1  0.074300  0.592800  0.928800  1.0  0.5405
  C  C250  1  0.922240  0.411040  0.715920  1.0  0.0136
  C  C251  1  0.991240  0.440140  0.692320  1.0  -0.1631
  C  C252  1  0.056750  0.454550  0.708300  1.0  0.6985
  C  C253  1  0.003080  0.458080  0.652640  1.0  -0.1044
  C  C254  1  0.945390  0.444790  0.637220  1.0  0.1683
  C  C255  1  0.874500  0.416100  0.660800  1.0  -0.1386
  C  C256  1  0.862900  0.400100  0.700000  1.0  -0.1681
  C  C257  1  0.787310  0.370910  0.725980  1.0  0.6462
  C  C258  1  0.019050  0.433650  0.573900  1.0  0.4279
  C  C259  1  0.014140  0.465040  0.533920  1.0  -0.0658
  C  C260  1  0.062030  0.455330  0.499940  1.0  -0.0662
  C  C261  1  0.956340  0.507840  0.533520  1.0  -0.0925
  C  C262  1  0.919270  0.506670  0.574260  1.0  0.5812
  C  C263  1  0.596580  0.570180  0.785440  1.0  0.0469
  C  C264  1  0.579770  0.625070  0.801660  1.0  -0.183
  C  C265  1  0.578860  0.698060  0.776880  1.0  0.7291
  C  C266  1  0.563190  0.611090  0.841220  1.0  -0.1073
  C  C267  1  0.565450  0.544450  0.863500  1.0  0.1688
  C  C268  1  0.581840  0.490640  0.847120  1.0  -0.1601
  C  C269  1  0.598020  0.504520  0.807360  1.0  -0.1557
  C  C270  1  0.617900  0.448300  0.788000  1.0  0.6507
  C  C271  1  0.570800  0.568600  0.925800  1.0  0.4718
  C  C272  1  0.539700  0.536300  0.963200  1.0  0.1492
  C  C273  1  0.550400  0.558700  0.998400  1.0  -0.0897
  C  C274  1  0.507700  0.484000  0.966600  1.0  0.1629
  C  C275  1  0.496900  0.478400  0.928800  1.0  0.5396
  C  C276  1  0.861840  0.873040  0.715920  1.0  0.0122
  C  C277  1  0.816440  0.867540  0.692320  1.0  -0.1618
  C  C278  1  0.734950  0.837150  0.708300  1.0  0.6969
  C  C279  1  0.844280  0.889280  0.652640  1.0  -0.102
  C  C280  1  0.917390  0.917990  0.637220  1.0  0.1679
  C  C281  1  0.964700  0.923100  0.660800  1.0  -0.136
  C  C282  1  0.937100  0.899900  0.700000  1.0  -0.1701
  C  C283  1  0.986710  0.903110  0.725980  1.0  0.6484
  C  C284  1  0.907050  0.992450  0.573900  1.0  0.4313
  C  C285  1  0.951940  0.001040  0.533920  1.0  -0.0665
  C  C286  1  0.938030  0.044730  0.499940  1.0  -0.0663
  C  C287  1  0.010140  0.958640  0.533520  1.0  -0.0916
  C  C288  1  0.006470  0.919070  0.574260  1.0  0.5809
  N  N289  1  0.046980  0.065680  0.904240  1.0  -0.0537
  N  N290  1  0.444780  0.960380  0.596440  1.0  -0.1992
  N  N291  1  0.548780  0.030080  0.904240  1.0  -0.0539
  N  N292  1  0.458780  0.443180  0.596440  1.0  -0.1994
  N  N293  1  0.951220  0.434320  0.095760  1.0  -0.0537
  N  N294  1  0.041220  0.539620  0.403560  1.0  -0.1997
  N  N295  1  0.453020  0.469920  0.095760  1.0  -0.0544
  N  N296  1  0.055220  0.056820  0.403560  1.0  -0.1992
  N  N297  1  0.953020  0.934320  0.095760  1.0  -0.0543
  N  N298  1  0.555220  0.039620  0.403560  1.0  -0.1993
  N  N299  1  0.451220  0.969920  0.095760  1.0  -0.0537
  N  N300  1  0.541220  0.556820  0.403560  1.0  -0.1999
  N  N301  1  0.048780  0.565680  0.904240  1.0  -0.0538
  N  N302  1  0.958780  0.460380  0.596440  1.0  -0.1992
  N  N303  1  0.546980  0.530080  0.904240  1.0  -0.0538
  N  N304  1  0.944780  0.943180  0.596440  1.0  -0.1991
  O  O305  1  0.083170  0.053870  0.742260  1.0  -0.6754
  O  O306  1  0.072530  0.962070  0.793140  1.0  -0.581
  O  O307  1  0.141830  0.283830  0.752940  1.0  -0.5363
  O  O308  1  0.109860  0.306090  0.808080  1.0  -0.5704
  O  O309  1  0.124600  0.973600  0.910800  1.0  -0.5025
  O  O310  1  0.962600  0.143300  0.919800  1.0  -0.4503
  O  O311  1  0.202740  0.915140  0.741320  1.0  -0.6045
  O  O312  1  0.207490  0.000790  0.687220  1.0  -0.6372
  O  O313  1  0.462830  0.862330  0.761140  1.0  -0.5621
  O  O314  1  0.555470  0.858620  0.711460  1.0  -0.6696
  O  O315  1  0.351830  0.894530  0.585540  1.0  -0.4289
  O  O316  1  0.548710  0.035510  0.585780  1.0  -0.3951
  O  O317  1  0.674570  0.203870  0.742260  1.0  -0.67
  O  O318  1  0.634330  0.244790  0.793140  1.0  -0.5806
  O  O319  1  0.605230  0.963230  0.752940  1.0  -0.5347
  O  O320  1  0.582060  0.885830  0.808080  1.0  -0.5689
  O  O321  1  0.464600  0.115600  0.910800  1.0  -0.502
  O  O322  1  0.617600  0.936900  0.919800  1.0  -0.4502
  O  O323  1  0.555940  0.343540  0.741320  1.0  -0.604
  O  O324  1  0.605290  0.311990  0.687220  1.0  -0.6364
  O  O325  1  0.276030  0.376530  0.761140  1.0  -0.5636
  O  O326  1  0.233070  0.429920  0.711460  1.0  -0.6677
  O  O327  1  0.562630  0.519930  0.585540  1.0  -0.4375
  O  O328  1  0.365510  0.378710  0.585780  1.0  -0.3887
  O  O329  1  0.825430  0.446130  0.257740  1.0  -0.673
  O  O330  1  0.865670  0.537930  0.206860  1.0  -0.5793
  O  O331  1  0.894770  0.216170  0.247060  1.0  -0.5368
  O  O332  1  0.917940  0.193910  0.191920  1.0  -0.5711
  O  O333  1  0.035400  0.526400  0.089200  1.0  -0.5069
  O  O334  1  0.882400  0.356700  0.080200  1.0  -0.4515
  O  O335  1  0.944060  0.584860  0.258680  1.0  -0.6037
  O  O336  1  0.894710  0.499210  0.312780  1.0  -0.639
  O  O337  1  0.223970  0.637670  0.238860  1.0  -0.5667
  O  O338  1  0.266930  0.641380  0.288540  1.0  -0.6669
  O  O339  1  0.937370  0.605470  0.414460  1.0  -0.43
  O  O340  1  0.134490  0.464490  0.414220  1.0  -0.3896
  O  O341  1  0.416830  0.296130  0.257740  1.0  -0.6684
  O  O342  1  0.427470  0.255210  0.206860  1.0  -0.5829
  O  O343  1  0.358170  0.536770  0.247060  1.0  -0.5363
  O  O344  1  0.390140  0.614170  0.191920  1.0  -0.5698
  O  O345  1  0.375400  0.384400  0.089200  1.0  -0.5003
  O  O346  1  0.537400  0.563100  0.080200  1.0  -0.4554
  O  O347  1  0.297260  0.156460  0.258680  1.0  -0.6055
  O  O348  1  0.292510  0.188010  0.312780  1.0  -0.6371
  O  O349  1  0.037170  0.123470  0.238860  1.0  -0.5646
  O  O350  1  0.944530  0.070080  0.288540  1.0  -0.6691
  O  O351  1  0.148170  0.980070  0.414460  1.0  -0.431
  O  O352  1  0.951290  0.121290  0.414220  1.0  -0.3887
  O  O353  1  0.916830  0.946130  0.257740  1.0  -0.6726
  O  O354  1  0.927470  0.037930  0.206860  1.0  -0.5804
  O  O355  1  0.858170  0.716170  0.247060  1.0  -0.537
  O  O356  1  0.890140  0.693910  0.191920  1.0  -0.571
  O  O357  1  0.875400  0.026400  0.089200  1.0  -0.5025
  O  O358  1  0.037400  0.856700  0.080200  1.0  -0.4495
  O  O359  1  0.797260  0.084860  0.258680  1.0  -0.6043
  O  O360  1  0.792510  0.999210  0.312780  1.0  -0.6372
  O  O361  1  0.537170  0.137670  0.238860  1.0  -0.564
  O  O362  1  0.444530  0.141380  0.288540  1.0  -0.6684
  O  O363  1  0.648170  0.105470  0.414460  1.0  -0.4305
  O  O364  1  0.451290  0.964490  0.414220  1.0  -0.3929
  O  O365  1  0.325430  0.796130  0.257740  1.0  -0.6684
  O  O366  1  0.365670  0.755210  0.206860  1.0  -0.5798
  O  O367  1  0.394770  0.036770  0.247060  1.0  -0.5362
  O  O368  1  0.417940  0.114170  0.191920  1.0  -0.5705
  O  O369  1  0.535400  0.884400  0.089200  1.0  -0.5028
  O  O370  1  0.382400  0.063100  0.080200  1.0  -0.4471
  O  O371  1  0.444060  0.656460  0.258680  1.0  -0.604
  O  O372  1  0.394710  0.688010  0.312780  1.0  -0.6362
  O  O373  1  0.723970  0.623470  0.238860  1.0  -0.5644
  O  O374  1  0.766930  0.570080  0.288540  1.0  -0.6677
  O  O375  1  0.437370  0.480070  0.414460  1.0  -0.4355
  O  O376  1  0.634490  0.621290  0.414220  1.0  -0.3884
  O  O377  1  0.174570  0.553870  0.742260  1.0  -0.6768
  O  O378  1  0.134330  0.462070  0.793140  1.0  -0.5778
  O  O379  1  0.105230  0.783830  0.752940  1.0  -0.5364
  O  O380  1  0.082060  0.806090  0.808080  1.0  -0.5707
  O  O381  1  0.964600  0.473600  0.910800  1.0  -0.5028
  O  O382  1  0.117600  0.643300  0.919800  1.0  -0.4511
  O  O383  1  0.055940  0.415140  0.741320  1.0  -0.6031
  O  O384  1  0.105290  0.500790  0.687220  1.0  -0.6382
  O  O385  1  0.776030  0.362330  0.761140  1.0  -0.5655
  O  O386  1  0.733070  0.358620  0.711460  1.0  -0.6677
  O  O387  1  0.062630  0.394530  0.585540  1.0  -0.4302
  O  O388  1  0.865510  0.535510  0.585780  1.0  -0.3899
  O  O389  1  0.583170  0.703870  0.742260  1.0  -0.669
  O  O390  1  0.572530  0.744790  0.793140  1.0  -0.5816
  O  O391  1  0.641830  0.463230  0.752940  1.0  -0.5353
  O  O392  1  0.609860  0.385830  0.808080  1.0  -0.5693
  O  O393  1  0.624600  0.615600  0.910800  1.0  -0.4994
  O  O394  1  0.462600  0.436900  0.919800  1.0  -0.4517
  O  O395  1  0.702740  0.843540  0.741320  1.0  -0.6065
  O  O396  1  0.707490  0.811990  0.687220  1.0  -0.6364
  O  O397  1  0.962830  0.876530  0.761140  1.0  -0.5635
  O  O398  1  0.055470  0.929920  0.711460  1.0  -0.6691
  O  O399  1  0.851830  0.019930  0.585540  1.0  -0.4314
  O  O400  1  0.048710  0.878710  0.585780  1.0  -0.389
