# generated using pymatgen
data_CaH2(C3O2)2
_symmetry_space_group_name_H-M   'P 1'
_cell_length_a   14.16000000
_cell_length_b   7.27100000
_cell_length_c   8.98200000
_cell_angle_alpha   90.00000000
_cell_angle_beta   108.85100000
_cell_angle_gamma   90.00000000
_symmetry_Int_Tables_number   1
_chemical_formula_structural   CaH2(C3O2)2
_chemical_formula_sum   'Ca4 H8 C24 O16'
_cell_volume   875.16059768
_cell_formula_units_Z   4
loop_
 _symmetry_equiv_pos_site_id
 _symmetry_equiv_pos_as_xyz
  1  'x, y, z'
loop_
 _atom_site_type_symbol
 _atom_site_label
 _atom_site_symmetry_multiplicity
 _atom_site_fract_x
 _atom_site_fract_y
 _atom_site_fract_z
 _atom_site_occupancy
 _atom_site_charge
  Ca  Ca1  1  0.227260  0.000000  0.087840  1.0  1.5527
  Ca  Ca2  1  0.727260  0.500000  0.087840  1.0  1.5527
  Ca  Ca3  1  0.772740  0.000000  0.912160  1.0  1.5525
  Ca  Ca4  1  0.272740  0.500000  0.912160  1.0  1.5525
  H  H5  1  0.500000  0.651200  0.000000  1.0  0.0831
  H  H6  1  0.000000  0.151200  0.000000  1.0  0.0831
  H  H7  1  0.500000  0.348800  0.000000  1.0  0.082
  H  H8  1  0.000000  0.848800  0.000000  1.0  0.082
  H  H9  1  0.500000  0.348400  0.500000  1.0  0.0594
  H  H10  1  0.000000  0.848400  0.500000  1.0  0.0594
  H  H11  1  0.500000  0.651600  0.500000  1.0  0.059
  H  H12  1  0.000000  0.151600  0.500000  1.0  0.059
  C  C13  1  0.411010  0.894500  0.976900  1.0  0.307
  C  C14  1  0.420770  0.105600  0.394500  1.0  0.3093
  C  C15  1  0.911010  0.394500  0.976900  1.0  0.307
  C  C16  1  0.920770  0.605600  0.394500  1.0  0.3093
  C  C17  1  0.588990  0.894500  0.023100  1.0  0.3076
  C  C18  1  0.579230  0.105600  0.605500  1.0  0.31
  C  C19  1  0.088990  0.394500  0.023100  1.0  0.3059
  C  C20  1  0.079230  0.605600  0.605500  1.0  0.31
  C  C21  1  0.588990  0.105500  0.023100  1.0  0.306
  C  C22  1  0.579230  0.894400  0.605500  1.0  0.3076
  C  C23  1  0.088990  0.605500  0.023100  1.0  0.306
  C  C24  1  0.079230  0.394400  0.605500  1.0  0.3102
  C  C25  1  0.411010  0.105500  0.976900  1.0  0.3065
  C  C26  1  0.420770  0.894400  0.394500  1.0  0.3062
  C  C27  1  0.911010  0.605500  0.976900  1.0  0.3065
  C  C28  1  0.920770  0.394400  0.394500  1.0  0.3062
  C  C29  1  0.500000  0.800100  0.000000  1.0  -0.1427
  C  C30  1  0.000000  0.300100  0.000000  1.0  -0.1427
  C  C31  1  0.500000  0.199900  0.000000  1.0  -0.1363
  C  C32  1  0.000000  0.699900  0.000000  1.0  -0.1363
  C  C33  1  0.500000  0.199300  0.500000  1.0  -0.1473
  C  C34  1  0.000000  0.699300  0.500000  1.0  -0.1473
  C  C35  1  0.500000  0.800700  0.500000  1.0  -0.139
  C  C36  1  0.000000  0.300700  0.500000  1.0  -0.139
  O  O37  1  0.327400  0.819700  0.956800  1.0  -0.7034
  O  O38  1  0.346970  0.180500  0.293500  1.0  -0.6174
  O  O39  1  0.827400  0.319700  0.956800  1.0  -0.7034
  O  O40  1  0.846970  0.680500  0.293500  1.0  -0.6174
  O  O41  1  0.672600  0.819700  0.043200  1.0  -0.7026
  O  O42  1  0.653030  0.180500  0.706500  1.0  -0.6186
  O  O43  1  0.172600  0.319700  0.043200  1.0  -0.7026
  O  O44  1  0.153030  0.680500  0.706500  1.0  -0.6186
  O  O45  1  0.672600  0.180300  0.043200  1.0  -0.7042
  O  O46  1  0.653030  0.819500  0.706500  1.0  -0.6178
  O  O47  1  0.172600  0.680300  0.043200  1.0  -0.7042
  O  O48  1  0.153030  0.319500  0.706500  1.0  -0.6178
  O  O49  1  0.327400  0.180300  0.956800  1.0  -0.7039
  O  O50  1  0.346970  0.819500  0.293500  1.0  -0.6161
  O  O51  1  0.827400  0.680300  0.956800  1.0  -0.7039
  O  O52  1  0.846970  0.319500  0.293500  1.0  -0.6161
