# generated using pymatgen
data_In3H42C60N12O19
_symmetry_space_group_name_H-M   'P 1'
_cell_length_a   24.41860000
_cell_length_b   24.41860000
_cell_length_c   55.47570000
_cell_angle_alpha   90.00000000
_cell_angle_beta   90.00000000
_cell_angle_gamma   120.00000000
_symmetry_Int_Tables_number   1
_chemical_formula_structural   In3H42C60N12O19
_chemical_formula_sum   'In9 H126 C180 N36 O57'
_cell_volume   28646.72270282
_cell_formula_units_Z   3
loop_
 _symmetry_equiv_pos_site_id
 _symmetry_equiv_pos_as_xyz
  1  'x, y, z'
loop_
 _atom_site_type_symbol
 _atom_site_label
 _atom_site_symmetry_multiplicity
 _atom_site_fract_x
 _atom_site_fract_y
 _atom_site_fract_z
 _atom_site_occupancy
 _atom_site_charge
  In  In1  1  0.778490  0.729000  0.474780  1.0  1.5764
  In  In2  1  0.271000  0.049490  0.808110  1.0  1.5798
  In  In3  1  0.950510  0.221510  0.141450  1.0  1.5807
  In  In4  1  0.729000  0.778490  0.525220  1.0  1.5791
  In  In5  1  0.049490  0.271000  0.191890  1.0  1.5756
  In  In6  1  0.221510  0.950510  0.858550  1.0  1.5792
  In  In7  1  0.628360  0.628360  0.500000  1.0  1.5035
  In  In8  1  0.371640  0.000000  0.833330  1.0  1.5005
  In  In9  1  0.000000  0.371640  0.166670  1.0  1.5054
  H  H10  1  0.716100  0.338000  0.458900  1.0  0.2708
  H  H11  1  0.743700  0.280900  0.442000  1.0  0.2753
  H  H12  1  0.838600  0.065900  0.408900  1.0  0.262
  H  H13  1  0.854300  0.150300  0.394000  1.0  0.2205
  H  H14  1  0.847400  0.351400  0.350300  1.0  0.2396
  H  H15  1  0.881500  0.373400  0.315600  1.0  0.2651
  H  H16  1  0.645000  0.462400  0.488200  1.0  0.1097
  H  H17  1  0.649200  0.372600  0.474500  1.0  0.1301
  H  H18  1  0.819300  0.491300  0.443700  1.0  0.1145
  H  H19  1  0.808400  0.579600  0.455500  1.0  0.1185
  H  H20  1  0.783100  0.213400  0.434600  1.0  0.1163
  H  H21  1  0.861900  0.222300  0.369400  1.0  0.114
  H  H22  1  0.798100  0.343100  0.386000  1.0  0.121
  H  H23  1  0.774500  0.038200  0.466900  1.0  0.1242
  H  H24  1  0.758900  0.949400  0.488700  1.0  0.0904
  H  H25  1  0.840900  0.901400  0.436800  1.0  0.1026
  H  H26  1  0.863200  0.992700  0.414800  1.0  0.1216
  H  H27  1  0.948400  0.281400  0.299900  1.0  0.1063
  H  H28  1  0.985700  0.278900  0.262100  1.0  0.1099
  H  H29  1  0.933900  0.399800  0.237700  1.0  0.0996
  H  H30  1  0.890100  0.399500  0.275500  1.0  0.1263
  H  H31  1  0.662000  0.378100  0.792230  1.0  0.2683
  H  H32  1  0.719100  0.462800  0.775330  1.0  0.274
  H  H33  1  0.934100  0.772700  0.742230  1.0  0.262
  H  H34  1  0.849700  0.704000  0.727330  1.0  0.2214
  H  H35  1  0.648600  0.496000  0.683630  1.0  0.2403
  H  H36  1  0.626600  0.508100  0.648930  1.0  0.2641
  H  H37  1  0.537600  0.182600  0.821530  1.0  0.1101
  H  H38  1  0.627400  0.276600  0.807830  1.0  0.1285
  H  H39  1  0.508700  0.328000  0.777030  1.0  0.1128
  H  H40  1  0.420400  0.228800  0.788830  1.0  0.1173
  H  H41  1  0.786600  0.569700  0.767930  1.0  0.1139
  H  H42  1  0.777700  0.639600  0.702730  1.0  0.1162
  H  H43  1  0.656900  0.455000  0.719330  1.0  0.1208
  H  H44  1  0.961800  0.736300  0.800230  1.0  0.1252
  H  H45  1  0.050600  0.809500  0.822030  1.0  0.0923
  H  H46  1  0.098600  0.939500  0.770130  1.0  0.104
  H  H47  1  0.007300  0.870500  0.748130  1.0  0.124
  H  H48  1  0.718600  0.667000  0.633230  1.0  0.1047
  H  H49  1  0.721100  0.706800  0.595430  1.0  0.108
  H  H50  1  0.600200  0.534100  0.571030  1.0  0.0991
  H  H51  1  0.600500  0.490600  0.608830  1.0  0.1255
  H  H52  1  0.621900  0.283900  0.125570  1.0  0.267
  H  H53  1  0.537200  0.256300  0.108670  1.0  0.2719
  H  H54  1  0.227300  0.161400  0.075570  1.0  0.2624
  H  H55  1  0.296000  0.145700  0.060670  1.0  0.2199
  H  H56  1  0.504000  0.152600  0.016970  1.0  0.2433
  H  H57  1  0.491900  0.118500  0.982270  1.0  0.2623
  H  H58  1  0.817400  0.355000  0.154870  1.0  0.1095
  H  H59  1  0.723400  0.350800  0.141170  1.0  0.1302
  H  H60  1  0.672000  0.180700  0.110370  1.0  0.114
  H  H61  1  0.771200  0.191600  0.122170  1.0  0.118
  H  H62  1  0.430300  0.216900  0.101270  1.0  0.1166
  H  H63  1  0.360400  0.138100  0.036070  1.0  0.1145
  H  H64  1  0.545000  0.201900  0.052670  1.0  0.1225
  H  H65  1  0.263700  0.225500  0.133570  1.0  0.1246
  H  H66  1  0.190500  0.241100  0.155370  1.0  0.0915
  H  H67  1  0.060500  0.159100  0.103470  1.0  0.1038
  H  H68  1  0.129500  0.136800  0.081470  1.0  0.1236
  H  H69  1  0.333000  0.051600  0.966570  1.0  0.1065
  H  H70  1  0.293200  0.014300  0.928770  1.0  0.1096
  H  H71  1  0.465900  0.066100  0.904370  1.0  0.0998
  H  H72  1  0.509400  0.109900  0.942170  1.0  0.1277
  H  H73  1  0.338000  0.716100  0.541100  1.0  0.2668
  H  H74  1  0.280900  0.743700  0.558000  1.0  0.2747
  H  H75  1  0.065900  0.838600  0.591100  1.0  0.2628
  H  H76  1  0.150300  0.854300  0.606000  1.0  0.221
  H  H77  1  0.351400  0.847400  0.649700  1.0  0.2385
  H  H78  1  0.373400  0.881500  0.684400  1.0  0.2664
  H  H79  1  0.462400  0.645000  0.511800  1.0  0.1091
  H  H80  1  0.372600  0.649200  0.525500  1.0  0.1299
  H  H81  1  0.491300  0.819300  0.556300  1.0  0.1153
  H  H82  1  0.579600  0.808400  0.544500  1.0  0.1182
  H  H83  1  0.213400  0.783100  0.565400  1.0  0.117
  H  H84  1  0.222300  0.861900  0.630600  1.0  0.1141
  H  H85  1  0.343100  0.798100  0.614000  1.0  0.1228
  H  H86  1  0.038200  0.774500  0.533100  1.0  0.1225
  H  H87  1  0.949400  0.758900  0.511300  1.0  0.0902
  H  H88  1  0.901400  0.840900  0.563200  1.0  0.1025
  H  H89  1  0.992700  0.863200  0.585200  1.0  0.1204
  H  H90  1  0.281400  0.948400  0.700100  1.0  0.1067
  H  H91  1  0.278900  0.985700  0.737900  1.0  0.1091
  H  H92  1  0.399800  0.933900  0.762300  1.0  0.1003
  H  H93  1  0.399500  0.890100  0.724500  1.0  0.127
  H  H94  1  0.378100  0.662000  0.207770  1.0  0.2693
  H  H95  1  0.462800  0.719100  0.224670  1.0  0.2724
  H  H96  1  0.772700  0.934100  0.257770  1.0  0.2623
  H  H97  1  0.704000  0.849700  0.272670  1.0  0.2214
  H  H98  1  0.496000  0.648600  0.316370  1.0  0.2392
  H  H99  1  0.508100  0.626600  0.351070  1.0  0.2621
  H  H100  1  0.182600  0.537600  0.178470  1.0  0.1096
  H  H101  1  0.276600  0.627400  0.192170  1.0  0.1288
  H  H102  1  0.328000  0.508700  0.222970  1.0  0.1139
  H  H103  1  0.228800  0.420400  0.211170  1.0  0.1179
  H  H104  1  0.569700  0.786600  0.232070  1.0  0.1137
  H  H105  1  0.639600  0.777700  0.297270  1.0  0.1145
  H  H106  1  0.455000  0.656900  0.280670  1.0  0.1207
  H  H107  1  0.736300  0.961800  0.199770  1.0  0.1241
  H  H108  1  0.809500  0.050600  0.177970  1.0  0.0913
  H  H109  1  0.939500  0.098600  0.229870  1.0  0.1041
  H  H110  1  0.870500  0.007300  0.251870  1.0  0.1241
  H  H111  1  0.667000  0.718600  0.366770  1.0  0.1037
  H  H112  1  0.706800  0.721100  0.404570  1.0  0.1096
  H  H113  1  0.534100  0.600200  0.428970  1.0  0.0994
  H  H114  1  0.490600  0.600500  0.391170  1.0  0.1266
  H  H115  1  0.283900  0.621900  0.874430  1.0  0.2677
  H  H116  1  0.256300  0.537200  0.891330  1.0  0.2711
  H  H117  1  0.161400  0.227300  0.924430  1.0  0.2619
  H  H118  1  0.145700  0.296000  0.939330  1.0  0.2207
  H  H119  1  0.152600  0.504000  0.983030  1.0  0.2431
  H  H120  1  0.118500  0.491900  0.017730  1.0  0.2615
  H  H121  1  0.355000  0.817400  0.845130  1.0  0.1096
  H  H122  1  0.350800  0.723400  0.858830  1.0  0.1291
  H  H123  1  0.180700  0.672000  0.889630  1.0  0.1139
  H  H124  1  0.191600  0.771200  0.877830  1.0  0.1169
  H  H125  1  0.216900  0.430300  0.898730  1.0  0.1172
  H  H126  1  0.138100  0.360400  0.963930  1.0  0.1157
  H  H127  1  0.201900  0.545000  0.947330  1.0  0.1205
  H  H128  1  0.225500  0.263700  0.866430  1.0  0.1243
  H  H129  1  0.241100  0.190500  0.844630  1.0  0.0919
  H  H130  1  0.159100  0.060500  0.896530  1.0  0.1037
  H  H131  1  0.136800  0.129500  0.918530  1.0  0.1238
  H  H132  1  0.051600  0.333000  0.033430  1.0  0.107
  H  H133  1  0.014300  0.293200  0.071230  1.0  0.1089
  H  H134  1  0.066100  0.465900  0.095630  1.0  0.1001
  H  H135  1  0.109900  0.509400  0.057830  1.0  0.1259
  C  C136  1  0.719200  0.581500  0.480910  1.0  0.7278
  C  C137  1  0.727400  0.527100  0.473850  1.0  -0.1195
  C  C138  1  0.679400  0.467500  0.479220  1.0  -0.0568
  C  C139  1  0.681500  0.413500  0.471180  1.0  -0.1324
  C  C140  1  0.735900  0.425600  0.457780  1.0  0.2591
  C  C141  1  0.784000  0.485400  0.452190  1.0  -0.1569
  C  C142  1  0.778400  0.538600  0.459870  1.0  -0.0839
  C  C143  1  0.773200  0.366400  0.432160  1.0  0.2633
  C  C144  1  0.786000  0.281600  0.412740  1.0  0.2495
  C  C145  1  0.795400  0.231800  0.419460  1.0  -0.0944
  C  C146  1  0.823900  0.209900  0.402900  1.0  0.1558
  C  C147  1  0.842800  0.236600  0.380200  1.0  -0.1733
  C  C148  1  0.831600  0.287300  0.374140  1.0  0.2243
  C  C149  1  0.804200  0.309700  0.390200  1.0  -0.1222
  C  C150  1  0.813700  0.118200  0.425710  1.0  0.3607
  C  C151  1  0.818600  0.022300  0.438980  1.0  0.1971
  C  C152  1  0.788200  0.011600  0.460970  1.0  -0.1502
  C  C153  1  0.779300  0.958100  0.473820  1.0  -0.041
  C  C154  1  0.798700  0.919100  0.465710  1.0  -0.1639
  C  C155  1  0.829300  0.929700  0.442730  1.0  -0.054
  C  C156  1  0.841400  0.983100  0.429360  1.0  -0.1178
  C  C157  1  0.786400  0.862200  0.479780  1.0  0.7217
  C  C158  1  0.879100  0.305400  0.333333  1.0  0.2743
  C  C159  1  0.916900  0.340400  0.291880  1.0  0.1822
  C  C160  1  0.944500  0.304900  0.287450  1.0  -0.1869
  C  C161  1  0.966800  0.303200  0.264810  1.0  -0.0591
  C  C162  1  0.961300  0.338000  0.245840  1.0  -0.1562
  C  C163  1  0.935200  0.374800  0.250100  1.0  -0.03
  C  C164  1  0.910200  0.376200  0.272900  1.0  -0.155
  C  C165  1  0.984900  0.335600  0.221180  1.0  0.7
  C  C166  1  0.418500  0.137700  0.814240  1.0  0.727
  C  C167  1  0.472900  0.200300  0.807180  1.0  -0.12
  C  C168  1  0.532500  0.211900  0.812550  1.0  -0.0579
  C  C169  1  0.586500  0.268000  0.804510  1.0  -0.1265
  C  C170  1  0.574400  0.310300  0.791110  1.0  0.2585
  C  C171  1  0.514600  0.298600  0.785520  1.0  -0.1564
  C  C172  1  0.461400  0.239800  0.793200  1.0  -0.0783
  C  C173  1  0.633600  0.406800  0.765490  1.0  0.2624
  C  C174  1  0.718400  0.504400  0.746070  1.0  0.2499
  C  C175  1  0.768200  0.563600  0.752790  1.0  -0.0957
  C  C176  1  0.790100  0.614000  0.736230  1.0  0.155
  C  C177  1  0.763400  0.606200  0.713530  1.0  -0.1625
  C  C178  1  0.712700  0.544300  0.707470  1.0  0.2266
  C  C179  1  0.690300  0.494500  0.723530  1.0  -0.1198
  C  C180  1  0.881800  0.695500  0.759040  1.0  0.3632
  C  C181  1  0.977700  0.796300  0.772310  1.0  0.1981
  C  C182  1  0.988400  0.776600  0.794300  1.0  -0.1538
  C  C183  1  0.041900  0.821200  0.807150  1.0  -0.0395
  C  C184  1  0.080900  0.879600  0.799040  1.0  -0.1643
  C  C185  1  0.070300  0.899600  0.776060  1.0  -0.0575
  C  C186  1  0.016900  0.858300  0.762690  1.0  -0.1192
  C  C187  1  0.137800  0.924200  0.813110  1.0  0.7205
  C  C188  1  0.694600  0.573700  0.666667  1.0  0.2741
  C  C189  1  0.659600  0.576500  0.625210  1.0  0.1814
  C  C190  1  0.695100  0.639600  0.620780  1.0  -0.18
  C  C191  1  0.696800  0.663600  0.598140  1.0  -0.0606
  C  C192  1  0.662000  0.623300  0.579170  1.0  -0.1563
  C  C193  1  0.625200  0.560400  0.583430  1.0  -0.0321
  C  C194  1  0.623800  0.534000  0.606230  1.0  -0.1536
  C  C195  1  0.664400  0.649300  0.554510  1.0  0.6995
  C  C196  1  0.862300  0.280800  0.147580  1.0  0.7296
  C  C197  1  0.799700  0.272600  0.140520  1.0  -0.12
  C  C198  1  0.788100  0.320600  0.145890  1.0  -0.06
  C  C199  1  0.732000  0.318500  0.137850  1.0  -0.1302
  C  C200  1  0.689700  0.264100  0.124450  1.0  0.2593
  C  C201  1  0.701400  0.216000  0.118860  1.0  -0.1556
  C  C202  1  0.760200  0.221600  0.126540  1.0  -0.0815
  C  C203  1  0.593200  0.226800  0.098830  1.0  0.2641
  C  C204  1  0.495600  0.214000  0.079410  1.0  0.2514
  C  C205  1  0.436400  0.204600  0.086130  1.0  -0.0947
  C  C206  1  0.386000  0.176100  0.069570  1.0  0.156
  C  C207  1  0.393800  0.157200  0.046870  1.0  -0.1741
  C  C208  1  0.455700  0.168400  0.040810  1.0  0.2253
  C  C209  1  0.505500  0.195800  0.056870  1.0  -0.121
  C  C210  1  0.304500  0.186300  0.092380  1.0  0.3605
  C  C211  1  0.203700  0.181400  0.105650  1.0  0.2052
  C  C212  1  0.223400  0.211800  0.127640  1.0  -0.1482
  C  C213  1  0.178800  0.220700  0.140490  1.0  -0.0397
  C  C214  1  0.120400  0.201300  0.132380  1.0  -0.1652
  C  C215  1  0.100400  0.170700  0.109400  1.0  -0.0553
  C  C216  1  0.141700  0.158600  0.096030  1.0  -0.1174
  C  C217  1  0.075800  0.213600  0.146450  1.0  0.7227
  C  C218  1  0.426300  0.120900  0.000010  1.0  0.2721
  C  C219  1  0.423500  0.083100  0.958550  1.0  0.1811
  C  C220  1  0.360400  0.055500  0.954120  1.0  -0.1887
  C  C221  1  0.336400  0.033200  0.931480  1.0  -0.0587
  C  C222  1  0.376700  0.038700  0.912510  1.0  -0.1577
  C  C223  1  0.439600  0.064800  0.916770  1.0  -0.0279
  C  C224  1  0.466000  0.089800  0.939570  1.0  -0.1493
  C  C225  1  0.350700  0.015100  0.887850  1.0  0.6984
  C  C226  1  0.581500  0.719200  0.519090  1.0  0.7302
  C  C227  1  0.527100  0.727400  0.526150  1.0  -0.1202
  C  C228  1  0.467500  0.679400  0.520780  1.0  -0.0605
  C  C229  1  0.413500  0.681500  0.528820  1.0  -0.1303
  C  C230  1  0.425600  0.735900  0.542220  1.0  0.2592
  C  C231  1  0.485400  0.784000  0.547810  1.0  -0.1569
  C  C232  1  0.538600  0.778400  0.540130  1.0  -0.0831
  C  C233  1  0.366400  0.773200  0.567840  1.0  0.2639
  C  C234  1  0.281600  0.786000  0.587260  1.0  0.2514
  C  C235  1  0.231800  0.795400  0.580540  1.0  -0.0946
  C  C236  1  0.209900  0.823900  0.597100  1.0  0.1562
  C  C237  1  0.236600  0.842800  0.619800  1.0  -0.1767
  C  C238  1  0.287300  0.831600  0.625860  1.0  0.2243
  C  C239  1  0.309700  0.804200  0.609800  1.0  -0.1225
  C  C240  1  0.118200  0.813700  0.574290  1.0  0.3622
  C  C241  1  0.022300  0.818600  0.561020  1.0  0.1971
  C  C242  1  0.011600  0.788200  0.539030  1.0  -0.1509
  C  C243  1  0.958100  0.779300  0.526180  1.0  -0.0417
  C  C244  1  0.919100  0.798700  0.534290  1.0  -0.1648
  C  C245  1  0.929700  0.829300  0.557270  1.0  -0.0542
  C  C246  1  0.983100  0.841400  0.570640  1.0  -0.1169
  C  C247  1  0.862200  0.786400  0.520220  1.0  0.7227
  C  C248  1  0.305400  0.879100  0.666667  1.0  0.271
  C  C249  1  0.340400  0.916900  0.708120  1.0  0.1815
  C  C250  1  0.304900  0.944500  0.712550  1.0  -0.1878
  C  C251  1  0.303200  0.966800  0.735190  1.0  -0.0596
  C  C252  1  0.338000  0.961300  0.754160  1.0  -0.1569
  C  C253  1  0.374800  0.935200  0.749900  1.0  -0.0282
  C  C254  1  0.376200  0.910200  0.727100  1.0  -0.1507
  C  C255  1  0.335600  0.984900  0.778820  1.0  0.6999
  C  C256  1  0.137700  0.418500  0.185760  1.0  0.7275
  C  C257  1  0.200300  0.472900  0.192820  1.0  -0.1199
  C  C258  1  0.211900  0.532500  0.187450  1.0  -0.0577
  C  C259  1  0.268000  0.586500  0.195490  1.0  -0.132
  C  C260  1  0.310300  0.574400  0.208890  1.0  0.2594
  C  C261  1  0.298600  0.514600  0.214480  1.0  -0.1573
  C  C262  1  0.239800  0.461400  0.206800  1.0  -0.0806
  C  C263  1  0.406800  0.633600  0.234510  1.0  0.2637
  C  C264  1  0.504400  0.718400  0.253930  1.0  0.2501
  C  C265  1  0.563600  0.768200  0.247210  1.0  -0.0951
  C  C266  1  0.614000  0.790100  0.263770  1.0  0.1545
  C  C267  1  0.606200  0.763400  0.286470  1.0  -0.1678
  C  C268  1  0.544300  0.712700  0.292530  1.0  0.2252
  C  C269  1  0.494500  0.690300  0.276470  1.0  -0.12
  C  C270  1  0.695500  0.881800  0.240960  1.0  0.3652
  C  C271  1  0.796300  0.977700  0.227690  1.0  0.1984
  C  C272  1  0.776600  0.988400  0.205700  1.0  -0.1511
  C  C273  1  0.821200  0.041900  0.192850  1.0  -0.0426
  C  C274  1  0.879600  0.080900  0.200960  1.0  -0.1643
  C  C275  1  0.899600  0.070300  0.223940  1.0  -0.053
  C  C276  1  0.858300  0.016900  0.237310  1.0  -0.1158
  C  C277  1  0.924200  0.137800  0.186890  1.0  0.722
  C  C278  1  0.573700  0.694600  0.333333  1.0  0.2759
  C  C279  1  0.576500  0.659600  0.374790  1.0  0.1812
  C  C280  1  0.639600  0.695100  0.379220  1.0  -0.1772
  C  C281  1  0.663600  0.696800  0.401860  1.0  -0.0593
  C  C282  1  0.623300  0.662000  0.420830  1.0  -0.1563
  C  C283  1  0.560400  0.625200  0.416570  1.0  -0.0309
  C  C284  1  0.534000  0.623800  0.393770  1.0  -0.1567
  C  C285  1  0.649300  0.664400  0.445490  1.0  0.7017
  C  C286  1  0.280800  0.862300  0.852420  1.0  0.7283
  C  C287  1  0.272600  0.799700  0.859480  1.0  -0.1206
  C  C288  1  0.320600  0.788100  0.854110  1.0  -0.0586
  C  C289  1  0.318500  0.732000  0.862150  1.0  -0.1272
  C  C290  1  0.264100  0.689700  0.875550  1.0  0.2582
  C  C291  1  0.216000  0.701400  0.881140  1.0  -0.1558
  C  C292  1  0.221600  0.760200  0.873460  1.0  -0.0795
  C  C293  1  0.226800  0.593200  0.901170  1.0  0.2615
  C  C294  1  0.214000  0.495600  0.920590  1.0  0.2509
  C  C295  1  0.204600  0.436400  0.913870  1.0  -0.0971
  C  C296  1  0.176100  0.386000  0.930430  1.0  0.1565
  C  C297  1  0.157200  0.393800  0.953130  1.0  -0.1732
  C  C298  1  0.168400  0.455700  0.959190  1.0  0.2236
  C  C299  1  0.195800  0.505500  0.943130  1.0  -0.1232
  C  C300  1  0.186300  0.304500  0.907620  1.0  0.3624
  C  C301  1  0.181400  0.203700  0.894350  1.0  0.2042
  C  C302  1  0.211800  0.223400  0.872360  1.0  -0.1531
  C  C303  1  0.220700  0.178800  0.859510  1.0  -0.0422
  C  C304  1  0.201300  0.120400  0.867620  1.0  -0.1641
  C  C305  1  0.170700  0.100400  0.890600  1.0  -0.0544
  C  C306  1  0.158600  0.141700  0.903970  1.0  -0.1174
  C  C307  1  0.213600  0.075800  0.853550  1.0  0.7199
  C  C308  1  0.120900  0.426300  0.999990  1.0  0.2764
  C  C309  1  0.083100  0.423500  0.041450  1.0  0.1816
  C  C310  1  0.055500  0.360400  0.045880  1.0  -0.1915
  C  C311  1  0.033200  0.336400  0.068520  1.0  -0.0607
  C  C312  1  0.038700  0.376700  0.087490  1.0  -0.1566
  C  C313  1  0.064800  0.439600  0.083230  1.0  -0.0322
  C  C314  1  0.089800  0.466000  0.060430  1.0  -0.1528
  C  C315  1  0.015100  0.350700  0.112150  1.0  0.7011
  N  N316  1  0.738700  0.371700  0.450670  1.0  -0.3663
  N  N317  1  0.764800  0.306300  0.430470  1.0  -0.3528
  N  N318  1  0.825200  0.068500  0.422920  1.0  -0.3551
  N  N319  1  0.834700  0.157700  0.405240  1.0  -0.351
  N  N320  1  0.852300  0.319200  0.352140  1.0  -0.353
  N  N321  1  0.890900  0.343900  0.314080  1.0  -0.4323
  N  N322  1  0.628300  0.367000  0.784000  1.0  -0.3682
  N  N323  1  0.693700  0.458500  0.763800  1.0  -0.3537
  N  N324  1  0.931500  0.756700  0.756250  1.0  -0.3569
  N  N325  1  0.842300  0.677000  0.738570  1.0  -0.3517
  N  N326  1  0.680800  0.533100  0.685470  1.0  -0.359
  N  N327  1  0.656100  0.547000  0.647410  1.0  -0.4272
  N  N328  1  0.633000  0.261300  0.117340  1.0  -0.3689
  N  N329  1  0.541500  0.235200  0.097140  1.0  -0.353
  N  N330  1  0.243300  0.174800  0.089590  1.0  -0.3546
  N  N331  1  0.323000  0.165300  0.071910  1.0  -0.3521
  N  N332  1  0.466900  0.147700  0.018810  1.0  -0.3588
  N  N333  1  0.453000  0.109100  0.980750  1.0  -0.4322
  N  N334  1  0.371700  0.738700  0.549330  1.0  -0.3664
  N  N335  1  0.306300  0.764800  0.569530  1.0  -0.3543
  N  N336  1  0.068500  0.825200  0.577080  1.0  -0.3544
  N  N337  1  0.157700  0.834700  0.594760  1.0  -0.3533
  N  N338  1  0.319200  0.852300  0.647860  1.0  -0.3551
  N  N339  1  0.343900  0.890900  0.685920  1.0  -0.4321
  N  N340  1  0.367000  0.628300  0.216000  1.0  -0.365
  N  N341  1  0.458500  0.693700  0.236200  1.0  -0.3542
  N  N342  1  0.756700  0.931500  0.243750  1.0  -0.3562
  N  N343  1  0.677000  0.842300  0.261430  1.0  -0.3532
  N  N344  1  0.533100  0.680800  0.314530  1.0  -0.3592
  N  N345  1  0.547000  0.656100  0.352590  1.0  -0.4293
  N  N346  1  0.261300  0.633000  0.882660  1.0  -0.3675
  N  N347  1  0.235200  0.541500  0.902860  1.0  -0.356
  N  N348  1  0.174800  0.243300  0.910410  1.0  -0.3554
  N  N349  1  0.165300  0.323000  0.928090  1.0  -0.3513
  N  N350  1  0.147700  0.466900  0.981190  1.0  -0.3566
  N  N351  1  0.109100  0.453000  0.019250  1.0  -0.4313
  O  O352  1  0.763500  0.634500  0.474600  1.0  -0.619
  O  O353  1  0.668400  0.568600  0.491320  1.0  -0.6289
  O  O354  1  0.755200  0.852800  0.499590  1.0  -0.6249
  O  O355  1  0.796900  0.822200  0.470210  1.0  -0.6337
  O  O356  1  0.977100  0.366200  0.205100  1.0  -0.615
  O  O357  1  0.008600  0.299400  0.220460  1.0  -0.6638
  O  O358  1  0.789000  0.125800  0.443330  1.0  -0.4186
  O  O359  1  0.807100  0.410400  0.419000  1.0  -0.4618
  O  O360  1  0.891600  0.262000  0.333870  1.0  -0.4774
  O  O361  1  0.365500  0.129000  0.807930  1.0  -0.6162
  O  O362  1  0.431400  0.099800  0.824650  1.0  -0.6325
  O  O363  1  0.147200  0.902400  0.832920  1.0  -0.6281
  O  O364  1  0.177800  0.974700  0.803540  1.0  -0.6377
  O  O365  1  0.633800  0.610900  0.538430  1.0  -0.6148
  O  O366  1  0.700600  0.709200  0.553790  1.0  -0.6624
  O  O367  1  0.874200  0.663200  0.776660  1.0  -0.423
  O  O368  1  0.589600  0.396700  0.752330  1.0  -0.4675
  O  O369  1  0.738000  0.629600  0.667200  1.0  -0.4833
  O  O370  1  0.871000  0.236500  0.141270  1.0  -0.6187
  O  O371  1  0.900200  0.331600  0.157990  1.0  -0.6312
  O  O372  1  0.097600  0.244800  0.166260  1.0  -0.6259
  O  O373  1  0.025300  0.203100  0.136880  1.0  -0.6347
  O  O374  1  0.389100  0.022900  0.871770  1.0  -0.6172
  O  O375  1  0.290800  0.991400  0.887130  1.0  -0.6634
  O  O376  1  0.336800  0.211000  0.110000  1.0  -0.4212
  O  O377  1  0.603300  0.192900  0.085670  1.0  -0.464
  O  O378  1  0.370400  0.108400  0.000540  1.0  -0.482
  O  O379  1  0.634500  0.763500  0.525400  1.0  -0.6176
  O  O380  1  0.568600  0.668400  0.508680  1.0  -0.6315
  O  O381  1  0.852800  0.755200  0.500410  1.0  -0.6268
  O  O382  1  0.822200  0.796900  0.529790  1.0  -0.6343
  O  O383  1  0.366200  0.977100  0.794900  1.0  -0.6159
  O  O384  1  0.299400  0.008600  0.779540  1.0  -0.6633
  O  O385  1  0.125800  0.789000  0.556670  1.0  -0.4207
  O  O386  1  0.410400  0.807100  0.581000  1.0  -0.4629
  O  O387  1  0.262000  0.891600  0.666130  1.0  -0.4785
  O  O388  1  0.129000  0.365500  0.192070  1.0  -0.6182
  O  O389  1  0.099800  0.431400  0.175350  1.0  -0.6281
  O  O390  1  0.902400  0.147200  0.167080  1.0  -0.6246
  O  O391  1  0.974700  0.177800  0.196460  1.0  -0.6341
  O  O392  1  0.610900  0.633800  0.461570  1.0  -0.6151
  O  O393  1  0.709200  0.700600  0.446210  1.0  -0.6642
  O  O394  1  0.663200  0.874200  0.223340  1.0  -0.4208
  O  O395  1  0.396700  0.589600  0.247670  1.0  -0.4651
  O  O396  1  0.629600  0.738000  0.332800  1.0  -0.4816
  O  O397  1  0.236500  0.871000  0.858730  1.0  -0.6155
  O  O398  1  0.331600  0.900200  0.842010  1.0  -0.632
  O  O399  1  0.244800  0.097600  0.833740  1.0  -0.628
  O  O400  1  0.203100  0.025300  0.863120  1.0  -0.6358
  O  O401  1  0.022900  0.389100  0.128230  1.0  -0.6175
  O  O402  1  0.991400  0.290800  0.112870  1.0  -0.6638
  O  O403  1  0.211000  0.336800  0.890000  1.0  -0.4202
  O  O404  1  0.192900  0.603300  0.914330  1.0  -0.4635
  O  O405  1  0.108400  0.370400  0.999460  1.0  -0.4805
  O  O406  1  0.715500  0.715500  0.500000  1.0  -0.9345
  O  O407  1  0.284500  0.000000  0.833330  1.0  -0.9339
  O  O408  1  0.000000  0.284500  0.166670  1.0  -0.9347
