# generated using pymatgen
data_TbH6(C2O)6
_symmetry_space_group_name_H-M   'P 1'
_cell_length_a   10.85280000
_cell_length_b   12.25160000
_cell_length_c   16.90310000
_cell_angle_alpha   104.46200000
_cell_angle_beta   93.65900000
_cell_angle_gamma   101.40400000
_symmetry_Int_Tables_number   1
_chemical_formula_structural   TbH6(C2O)6
_chemical_formula_sum   'Tb6 H36 C72 O36'
_cell_volume   2118.10070891
_cell_formula_units_Z   6
loop_
 _symmetry_equiv_pos_site_id
 _symmetry_equiv_pos_as_xyz
  1  'x, y, z'
loop_
 _atom_site_type_symbol
 _atom_site_label
 _atom_site_symmetry_multiplicity
 _atom_site_fract_x
 _atom_site_fract_y
 _atom_site_fract_z
 _atom_site_occupancy
 _atom_site_charge
  Tb  Tb1  1  0.254230  0.422300  0.226660  1.0  2.2587
  Tb  Tb2  1  0.298270  0.098710  0.237710  1.0  2.2501
  Tb  Tb3  1  0.367520  0.779400  0.358470  1.0  2.2894
  Tb  Tb4  1  0.745770  0.577700  0.773340  1.0  2.2605
  Tb  Tb5  1  0.701730  0.901290  0.762290  1.0  2.2495
  Tb  Tb6  1  0.632480  0.220600  0.641530  1.0  2.2899
  H  H7  1  0.505300  0.404800  0.104300  1.0  0.098
  H  H8  1  0.597300  0.467400  0.999400  1.0  0.0933
  H  H9  1  0.532200  0.140100  0.859700  1.0  0.0908
  H  H10  1  0.452400  0.076900  0.967400  1.0  0.0923
  H  H11  1  0.283000  0.425200  0.479400  1.0  0.0981
  H  H12  1  0.632000  0.412200  0.413700  1.0  0.1019
  H  H13  1  0.815900  0.263100  0.226100  1.0  0.0987
  H  H14  1  0.618900  0.177000  0.251200  1.0  0.0909
  H  H15  1  0.764500  0.924600  0.305000  1.0  0.0843
  H  H16  1  0.955100  0.000600  0.266900  1.0  0.0988
  H  H17  1  0.044600  0.135100  0.426000  1.0  0.0859
  H  H18  1  0.125500  0.866700  0.497700  1.0  0.0948
  H  H19  1  0.131200  0.677300  0.565100  1.0  0.0883
  H  H20  1  0.034400  0.398500  0.371100  1.0  0.0915
  H  H21  1  0.954800  0.772900  0.346600  1.0  0.0794
  H  H22  1  0.745500  0.753900  0.368900  1.0  0.091
  H  H23  1  0.668000  0.428500  0.226400  1.0  0.0904
  H  H24  1  0.876900  0.447700  0.202500  1.0  0.1014
  H  H25  1  0.494700  0.595200  0.895700  1.0  0.0981
  H  H26  1  0.402700  0.532600  0.000600  1.0  0.0932
  H  H27  1  0.467800  0.859900  0.140300  1.0  0.0905
  H  H28  1  0.547600  0.923100  0.032600  1.0  0.0924
  H  H29  1  0.717000  0.574800  0.520600  1.0  0.0984
  H  H30  1  0.368000  0.587800  0.586300  1.0  0.1019
  H  H31  1  0.184100  0.736900  0.773900  1.0  0.0994
  H  H32  1  0.381100  0.823000  0.748800  1.0  0.0911
  H  H33  1  0.235500  0.075400  0.695000  1.0  0.0848
  H  H34  1  0.044900  0.999400  0.733100  1.0  0.099
  H  H35  1  0.955400  0.864900  0.574000  1.0  0.0858
  H  H36  1  0.874500  0.133300  0.502300  1.0  0.0949
  H  H37  1  0.868800  0.322700  0.434900  1.0  0.0882
  H  H38  1  0.965600  0.601500  0.628900  1.0  0.0907
  H  H39  1  0.045200  0.227100  0.653400  1.0  0.0796
  H  H40  1  0.254500  0.246100  0.631100  1.0  0.0909
  H  H41  1  0.332000  0.571500  0.773600  1.0  0.0901
  H  H42  1  0.123100  0.552300  0.797500  1.0  0.1013
  C  C43  1  0.465400  0.233900  0.045300  1.0  -0.1408
  C  C44  1  0.510900  0.351700  0.055400  1.0  -0.0708
  C  C45  1  0.564500  0.389000  0.992000  1.0  -0.1052
  C  C46  1  0.570100  0.311600  0.917700  1.0  -0.1437
  C  C47  1  0.527300  0.193300  0.908800  1.0  -0.0439
  C  C48  1  0.477800  0.155700  0.972800  1.0  -0.0457
  C  C49  1  0.405700  0.191700  0.112700  1.0  0.7045
  C  C50  1  0.619600  0.354500  0.846700  1.0  0.7586
  C  C51  1  0.369800  0.455900  0.487700  1.0  -0.0681
  C  C52  1  0.448500  0.404300  0.434900  1.0  -0.1288
  C  C53  1  0.579500  0.447800  0.448000  1.0  -0.0423
  C  C54  1  0.393300  0.304900  0.364500  1.0  0.6858
  C  C55  1  0.905300  0.139700  0.241900  1.0  -0.1278
  C  C56  1  0.804500  0.192800  0.239300  1.0  -0.0474
  C  C57  1  0.687100  0.142600  0.256000  1.0  -0.0559
  C  C58  1  0.670600  0.040300  0.280100  1.0  -0.1326
  C  C59  1  0.773300  0.990600  0.286300  1.0  -0.0455
  C  C60  1  0.888300  0.037500  0.265400  1.0  -0.0497
  C  C61  1  0.032000  0.191900  0.221300  1.0  0.7599
  C  C62  1  0.543700  0.982800  0.298000  1.0  0.7318
  C  C63  1  0.203800  0.996200  0.398300  1.0  0.71
  C  C64  1  0.099500  0.999700  0.452500  1.0  -0.1595
  C  C65  1  0.026200  0.080300  0.455400  1.0  -0.0459
  C  C66  1  0.074800  0.919800  0.498200  1.0  -0.0721
  C  C67  1  0.207200  0.597400  0.421300  1.0  0.6749
  C  C68  1  0.100200  0.546100  0.462200  1.0  -0.1316
  C  C69  1  0.078500  0.605900  0.538800  1.0  -0.0067
  C  C70  1  0.020700  0.439300  0.422900  1.0  -0.0331
  C  C71  1  0.938500  0.612600  0.272500  1.0  -0.1322
  C  C72  1  0.897200  0.703600  0.322000  1.0  -0.0204
  C  C73  1  0.771500  0.692300  0.335100  1.0  -0.0274
  C  C74  1  0.683600  0.590100  0.298500  1.0  -0.1656
  C  C75  1  0.725300  0.498400  0.250000  1.0  -0.0386
  C  C76  1  0.850900  0.509400  0.236200  1.0  -0.0456
  C  C77  1  0.076100  0.623800  0.259300  1.0  0.7464
  C  C78  1  0.545400  0.581400  0.310100  1.0  0.6797
  C  C79  1  0.534600  0.766100  0.954700  1.0  -0.1401
  C  C80  1  0.489100  0.648300  0.944600  1.0  -0.0695
  C  C81  1  0.435500  0.611000  0.008000  1.0  -0.1044
  C  C82  1  0.429900  0.688400  0.082300  1.0  -0.1447
  C  C83  1  0.472700  0.806700  0.091200  1.0  -0.0452
  C  C84  1  0.522200  0.844300  0.027200  1.0  -0.0476
  C  C85  1  0.594300  0.808300  0.887300  1.0  0.7036
  C  C86  1  0.380400  0.645500  0.153300  1.0  0.761
  C  C87  1  0.630200  0.544100  0.512300  1.0  -0.0693
  C  C88  1  0.551500  0.595700  0.565100  1.0  -0.128
  C  C89  1  0.420500  0.552200  0.552000  1.0  -0.041
  C  C90  1  0.606700  0.695100  0.635500  1.0  0.6852
  C  C91  1  0.094700  0.860300  0.758100  1.0  -0.13
  C  C92  1  0.195500  0.807200  0.760700  1.0  -0.0491
  C  C93  1  0.312900  0.857400  0.744000  1.0  -0.0568
  C  C94  1  0.329400  0.959700  0.719900  1.0  -0.1325
  C  C95  1  0.226700  0.009400  0.713700  1.0  -0.0457
  C  C96  1  0.111700  0.962500  0.734600  1.0  -0.05
  C  C97  1  0.968000  0.808100  0.778700  1.0  0.7602
  C  C98  1  0.456300  0.017200  0.702000  1.0  0.7324
  C  C99  1  0.796200  0.003800  0.601700  1.0  0.7088
  C  C100  1  0.900500  0.000300  0.547500  1.0  -0.1595
  C  C101  1  0.973800  0.919700  0.544600  1.0  -0.0434
  C  C102  1  0.925200  0.080200  0.501800  1.0  -0.071
  C  C103  1  0.792800  0.402600  0.578700  1.0  0.6759
  C  C104  1  0.899800  0.453900  0.537800  1.0  -0.1316
  C  C105  1  0.921500  0.394100  0.461200  1.0  -0.006
  C  C106  1  0.979300  0.560700  0.577100  1.0  -0.0312
  C  C107  1  0.061500  0.387400  0.727500  1.0  -0.1334
  C  C108  1  0.102800  0.296400  0.678000  1.0  -0.0207
  C  C109  1  0.228500  0.307700  0.664900  1.0  -0.0262
  C  C110  1  0.316400  0.409900  0.701500  1.0  -0.1666
  C  C111  1  0.274700  0.501600  0.750000  1.0  -0.0406
  C  C112  1  0.149100  0.490600  0.763800  1.0  -0.0476
  C  C113  1  0.923900  0.376200  0.740700  1.0  0.7467
  C  C114  1  0.454600  0.418600  0.689900  1.0  0.6808
  O  O115  1  0.367800  0.260800  0.170370  1.0  -0.812
  O  O116  1  0.390900  0.087600  0.110700  1.0  -0.6368
  O  O117  1  0.657100  0.461600  0.858890  1.0  -0.7021
  O  O118  1  0.619200  0.281200  0.780920  1.0  -0.7332
  O  O119  1  0.290200  0.299520  0.321930  1.0  -0.8113
  O  O120  1  0.450900  0.223700  0.347330  1.0  -0.6236
  O  O121  1  0.445800  0.998900  0.263390  1.0  -0.7274
  O  O122  1  0.542200  0.916600  0.344260  1.0  -0.6596
  O  O123  1  0.058800  0.299500  0.229590  1.0  -0.6625
  O  O124  1  0.103800  0.124700  0.196000  1.0  -0.7303
  O  O125  1  0.201300  0.049200  0.343440  1.0  -0.6951
  O  O126  1  0.286600  0.941100  0.409570  1.0  -0.7583
  O  O127  1  0.152300  0.717300  0.297590  1.0  -0.7109
  O  O128  1  0.106800  0.539000  0.211060  1.0  -0.741
  O  O129  1  0.515000  0.668100  0.353690  1.0  -0.6915
  O  O130  1  0.470000  0.487900  0.273470  1.0  -0.7218
  O  O131  1  0.265600  0.700500  0.455370  1.0  -0.625
  O  O132  1  0.234800  0.539600  0.354350  1.0  -0.7521
  O  O133  1  0.632200  0.739200  0.829630  1.0  -0.8132
  O  O134  1  0.609100  0.912400  0.889300  1.0  -0.6367
  O  O135  1  0.342900  0.538400  0.141110  1.0  -0.703
  O  O136  1  0.380800  0.718800  0.219080  1.0  -0.7324
  O  O137  1  0.709800  0.700480  0.678070  1.0  -0.8101
  O  O138  1  0.549100  0.776300  0.652670  1.0  -0.6233
  O  O139  1  0.554200  0.001100  0.736610  1.0  -0.7277
  O  O140  1  0.457800  0.083400  0.655740  1.0  -0.6565
  O  O141  1  0.941200  0.700500  0.770410  1.0  -0.6635
  O  O142  1  0.896200  0.875300  0.804000  1.0  -0.7298
  O  O143  1  0.798700  0.950800  0.656560  1.0  -0.6966
  O  O144  1  0.713400  0.058900  0.590430  1.0  -0.7577
  O  O145  1  0.847700  0.282700  0.702410  1.0  -0.7105
  O  O146  1  0.893200  0.461000  0.788940  1.0  -0.7402
  O  O147  1  0.485000  0.331900  0.646310  1.0  -0.6928
  O  O148  1  0.530000  0.512100  0.726530  1.0  -0.7202
  O  O149  1  0.734400  0.299500  0.544630  1.0  -0.6238
  O  O150  1  0.765200  0.460400  0.645650  1.0  -0.754
