# generated using pymatgen
data_Zn4MoC22(N3O)4
_symmetry_space_group_name_H-M   'P 1'
_cell_length_a   23.43450000
_cell_length_b   23.43450000
_cell_length_c   23.43450000
_cell_angle_alpha   90.00000000
_cell_angle_beta   90.00000000
_cell_angle_gamma   90.00000000
_symmetry_Int_Tables_number   1
_chemical_formula_structural   Zn4MoC22(N3O)4
_chemical_formula_sum   'Zn48 Mo12 C264 N144 O48'
_cell_volume   12869.66005661
_cell_formula_units_Z   12
loop_
 _symmetry_equiv_pos_site_id
 _symmetry_equiv_pos_as_xyz
  1  'x, y, z'
loop_
 _atom_site_type_symbol
 _atom_site_label
 _atom_site_symmetry_multiplicity
 _atom_site_fract_x
 _atom_site_fract_y
 _atom_site_fract_z
 _atom_site_occupancy
 _atom_site_charge
  Zn  Zn1  1  0.319450  0.500000  0.137710  1.0  0.9786
  Zn  Zn2  1  0.819450  0.000000  0.637710  1.0  0.9792
  Zn  Zn3  1  0.680550  0.500000  0.137710  1.0  0.9784
  Zn  Zn4  1  0.180550  0.000000  0.637710  1.0  0.9789
  Zn  Zn5  1  0.680550  0.500000  0.862290  1.0  0.9785
  Zn  Zn6  1  0.180550  0.000000  0.362290  1.0  0.9785
  Zn  Zn7  1  0.319450  0.500000  0.862290  1.0  0.9787
  Zn  Zn8  1  0.819450  0.000000  0.362290  1.0  0.9784
  Zn  Zn9  1  0.137710  0.319450  0.500000  1.0  0.9791
  Zn  Zn10  1  0.637710  0.819450  0.000000  1.0  0.9797
  Zn  Zn11  1  0.137710  0.680550  0.500000  1.0  0.979
  Zn  Zn12  1  0.637710  0.180550  0.000000  1.0  0.9795
  Zn  Zn13  1  0.862290  0.680550  0.500000  1.0  0.9781
  Zn  Zn14  1  0.362290  0.180550  0.000000  1.0  0.9781
  Zn  Zn15  1  0.862290  0.319450  0.500000  1.0  0.9782
  Zn  Zn16  1  0.362290  0.819450  0.000000  1.0  0.9779
  Zn  Zn17  1  0.500000  0.137710  0.319450  1.0  0.9804
  Zn  Zn18  1  0.000000  0.637710  0.819450  1.0  0.981
  Zn  Zn19  1  0.500000  0.137710  0.680550  1.0  0.9782
  Zn  Zn20  1  0.000000  0.637710  0.180550  1.0  0.9788
  Zn  Zn21  1  0.500000  0.862290  0.680550  1.0  0.9783
  Zn  Zn22  1  0.000000  0.362290  0.180550  1.0  0.9783
  Zn  Zn23  1  0.500000  0.862290  0.319450  1.0  0.9807
  Zn  Zn24  1  0.000000  0.362290  0.819450  1.0  0.9804
  Zn  Zn25  1  0.500000  0.319450  0.862290  1.0  0.9789
  Zn  Zn26  1  0.000000  0.819450  0.362290  1.0  0.9786
  Zn  Zn27  1  0.500000  0.680550  0.862290  1.0  0.979
  Zn  Zn28  1  0.000000  0.180550  0.362290  1.0  0.979
  Zn  Zn29  1  0.500000  0.680550  0.137710  1.0  0.979
  Zn  Zn30  1  0.000000  0.180550  0.637710  1.0  0.9795
  Zn  Zn31  1  0.500000  0.319450  0.137710  1.0  0.9788
  Zn  Zn32  1  0.000000  0.819450  0.637710  1.0  0.9794
  Zn  Zn33  1  0.319450  0.137710  0.500000  1.0  0.9787
  Zn  Zn34  1  0.819450  0.637710  0.000000  1.0  0.9792
  Zn  Zn35  1  0.680550  0.137710  0.500000  1.0  0.9782
  Zn  Zn36  1  0.180550  0.637710  0.000000  1.0  0.9788
  Zn  Zn37  1  0.680550  0.862290  0.500000  1.0  0.9787
  Zn  Zn38  1  0.180550  0.362290  0.000000  1.0  0.9787
  Zn  Zn39  1  0.319450  0.862290  0.500000  1.0  0.9788
  Zn  Zn40  1  0.819450  0.362290  0.000000  1.0  0.9785
  Zn  Zn41  1  0.137710  0.500000  0.680550  1.0  0.9784
  Zn  Zn42  1  0.637710  0.000000  0.180550  1.0  0.9789
  Zn  Zn43  1  0.137710  0.500000  0.319450  1.0  0.9809
  Zn  Zn44  1  0.637710  0.000000  0.819450  1.0  0.9814
  Zn  Zn45  1  0.862290  0.500000  0.319450  1.0  0.9796
  Zn  Zn46  1  0.362290  0.000000  0.819450  1.0  0.9793
  Zn  Zn47  1  0.862290  0.500000  0.680550  1.0  0.9774
  Zn  Zn48  1  0.362290  0.000000  0.180550  1.0  0.9773
  Mo  Mo49  1  0.250000  0.500000  0.000000  1.0  1.5947
  Mo  Mo50  1  0.750000  0.500000  0.000000  1.0  1.5946
  Mo  Mo51  1  0.000000  0.250000  0.500000  1.0  1.5946
  Mo  Mo52  1  0.000000  0.750000  0.500000  1.0  1.5942
  Mo  Mo53  1  0.500000  0.250000  0.000000  1.0  1.5946
  Mo  Mo54  1  0.500000  0.000000  0.250000  1.0  1.5946
  Mo  Mo55  1  0.500000  0.000000  0.750000  1.0  1.5946
  Mo  Mo56  1  0.500000  0.750000  0.000000  1.0  1.5942
  Mo  Mo57  1  0.250000  0.000000  0.500000  1.0  1.5946
  Mo  Mo58  1  0.750000  0.000000  0.500000  1.0  1.5945
  Mo  Mo59  1  0.000000  0.500000  0.750000  1.0  1.5946
  Mo  Mo60  1  0.000000  0.500000  0.250000  1.0  1.5947
  C  C61  1  0.210600  0.555300  0.166600  1.0  -0.0775
  C  C62  1  0.349200  0.401900  0.196700  1.0  -0.1263
  C  C63  1  0.710600  0.055300  0.666667  1.0  -0.0815
  C  C64  1  0.849200  0.901900  0.696700  1.0  -0.1263
  C  C65  1  0.789400  0.444700  0.166600  1.0  -0.0761
  C  C66  1  0.650800  0.598100  0.196700  1.0  -0.1256
  C  C67  1  0.289400  0.944700  0.666667  1.0  -0.078
  C  C68  1  0.150800  0.098100  0.696700  1.0  -0.1254
  C  C69  1  0.789400  0.555300  0.833400  1.0  -0.0776
  C  C70  1  0.650800  0.401900  0.803300  1.0  -0.1175
  C  C71  1  0.289400  0.055300  0.333400  1.0  -0.0776
  C  C72  1  0.150800  0.901900  0.303300  1.0  -0.1237
  C  C73  1  0.210600  0.444700  0.833400  1.0  -0.0777
  C  C74  1  0.349200  0.598100  0.803300  1.0  -0.1176
  C  C75  1  0.710600  0.944700  0.333400  1.0  -0.0754
  C  C76  1  0.849200  0.098100  0.303300  1.0  -0.1173
  C  C77  1  0.166600  0.210600  0.555300  1.0  -0.068
  C  C78  1  0.196700  0.349200  0.401900  1.0  -0.1155
  C  C79  1  0.666667  0.710600  0.055300  1.0  -0.0722
  C  C80  1  0.696700  0.849200  0.901900  1.0  -0.1155
  C  C81  1  0.166600  0.789400  0.444700  1.0  -0.0671
  C  C82  1  0.196700  0.650800  0.598100  1.0  -0.1158
  C  C83  1  0.666667  0.289400  0.944700  1.0  -0.0698
  C  C84  1  0.696700  0.150800  0.098100  1.0  -0.1157
  C  C85  1  0.833400  0.789400  0.555300  1.0  -0.0661
  C  C86  1  0.803300  0.650800  0.401900  1.0  -0.1136
  C  C87  1  0.333400  0.289400  0.055300  1.0  -0.0661
  C  C88  1  0.303300  0.150800  0.901900  1.0  -0.1184
  C  C89  1  0.833400  0.210600  0.444700  1.0  -0.0657
  C  C90  1  0.803300  0.349200  0.598100  1.0  -0.1163
  C  C91  1  0.333400  0.710600  0.944700  1.0  -0.065
  C  C92  1  0.303300  0.849200  0.098100  1.0  -0.117
  C  C93  1  0.555300  0.166600  0.210600  1.0  -0.0692
  C  C94  1  0.401900  0.196700  0.349200  1.0  -0.1207
  C  C95  1  0.055300  0.666667  0.710600  1.0  -0.0735
  C  C96  1  0.901900  0.696700  0.849200  1.0  -0.1207
  C  C97  1  0.444700  0.166600  0.789400  1.0  -0.0692
  C  C98  1  0.598100  0.196700  0.650800  1.0  -0.1202
  C  C99  1  0.944700  0.666667  0.289400  1.0  -0.0721
  C  C100  1  0.098100  0.696700  0.150800  1.0  -0.1201
  C  C101  1  0.555300  0.833400  0.789400  1.0  -0.069
  C  C102  1  0.401900  0.803300  0.650800  1.0  -0.117
  C  C103  1  0.055300  0.333400  0.289400  1.0  -0.069
  C  C104  1  0.901900  0.303300  0.150800  1.0  -0.1226
  C  C105  1  0.444700  0.833400  0.210600  1.0  -0.0695
  C  C106  1  0.598100  0.803300  0.349200  1.0  -0.1144
  C  C107  1  0.944700  0.333400  0.710600  1.0  -0.0696
  C  C108  1  0.098100  0.303300  0.849200  1.0  -0.1147
  C  C109  1  0.555300  0.210600  0.833400  1.0  -0.0761
  C  C110  1  0.401900  0.349200  0.803300  1.0  -0.1244
  C  C111  1  0.055300  0.710600  0.333400  1.0  -0.0749
  C  C112  1  0.901900  0.849200  0.303300  1.0  -0.1193
  C  C113  1  0.444700  0.789400  0.833400  1.0  -0.0763
  C  C114  1  0.598100  0.650800  0.803300  1.0  -0.1257
  C  C115  1  0.944700  0.289400  0.333400  1.0  -0.0763
  C  C116  1  0.098100  0.150800  0.303300  1.0  -0.1255
  C  C117  1  0.555300  0.789400  0.166600  1.0  -0.0755
  C  C118  1  0.401900  0.650800  0.196700  1.0  -0.1226
  C  C119  1  0.055300  0.289400  0.666667  1.0  -0.079
  C  C120  1  0.901900  0.150800  0.696700  1.0  -0.129
  C  C121  1  0.444700  0.210600  0.166600  1.0  -0.0751
  C  C122  1  0.598100  0.349200  0.196700  1.0  -0.1219
  C  C123  1  0.944700  0.710600  0.666667  1.0  -0.0793
  C  C124  1  0.098100  0.849200  0.696700  1.0  -0.128
  C  C125  1  0.210600  0.166600  0.444700  1.0  -0.0687
  C  C126  1  0.349200  0.196700  0.598100  1.0  -0.1139
  C  C127  1  0.710600  0.666667  0.944700  1.0  -0.0732
  C  C128  1  0.849200  0.696700  0.098100  1.0  -0.1187
  C  C129  1  0.789400  0.166600  0.555300  1.0  -0.0722
  C  C130  1  0.650800  0.196700  0.401900  1.0  -0.1121
  C  C131  1  0.289400  0.666667  0.055300  1.0  -0.0753
  C  C132  1  0.150800  0.696700  0.901900  1.0  -0.1182
  C  C133  1  0.789400  0.833400  0.444700  1.0  -0.0696
  C  C134  1  0.650800  0.803300  0.598100  1.0  -0.1182
  C  C135  1  0.289400  0.333400  0.944700  1.0  -0.0696
  C  C136  1  0.150800  0.303300  0.098100  1.0  -0.118
  C  C137  1  0.210600  0.833400  0.555300  1.0  -0.0706
  C  C138  1  0.349200  0.803300  0.401900  1.0  -0.1174
  C  C139  1  0.710600  0.333400  0.055300  1.0  -0.0707
  C  C140  1  0.849200  0.303300  0.901900  1.0  -0.1145
  C  C141  1  0.166600  0.555300  0.789400  1.0  -0.067
  C  C142  1  0.196700  0.401900  0.650800  1.0  -0.1128
  C  C143  1  0.666667  0.055300  0.289400  1.0  -0.0688
  C  C144  1  0.696700  0.901900  0.150800  1.0  -0.1173
  C  C145  1  0.166600  0.444700  0.210600  1.0  -0.0683
  C  C146  1  0.196700  0.598100  0.349200  1.0  -0.1127
  C  C147  1  0.666667  0.944700  0.710600  1.0  -0.0722
  C  C148  1  0.696700  0.098100  0.849200  1.0  -0.1155
  C  C149  1  0.833400  0.555300  0.210600  1.0  -0.066
  C  C150  1  0.803300  0.401900  0.349200  1.0  -0.1182
  C  C151  1  0.333400  0.055300  0.710600  1.0  -0.0663
  C  C152  1  0.303300  0.901900  0.849200  1.0  -0.1135
  C  C153  1  0.833400  0.444700  0.789400  1.0  -0.0651
  C  C154  1  0.803300  0.598100  0.650800  1.0  -0.1204
  C  C155  1  0.333400  0.944700  0.289400  1.0  -0.0651
  C  C156  1  0.303300  0.098100  0.150800  1.0  -0.1202
  C  C157  1  0.789400  0.444700  0.833400  1.0  -0.0787
  C  C158  1  0.650800  0.598100  0.803300  1.0  -0.124
  C  C159  1  0.289400  0.944700  0.333400  1.0  -0.0787
  C  C160  1  0.150800  0.098100  0.303300  1.0  -0.1238
  C  C161  1  0.210600  0.555300  0.833400  1.0  -0.0773
  C  C162  1  0.349200  0.401900  0.803300  1.0  -0.1231
  C  C163  1  0.710600  0.055300  0.333400  1.0  -0.0754
  C  C164  1  0.849200  0.901900  0.303300  1.0  -0.1178
  C  C165  1  0.210600  0.444700  0.166600  1.0  -0.0756
  C  C166  1  0.349200  0.598100  0.196700  1.0  -0.1203
  C  C167  1  0.710600  0.944700  0.666667  1.0  -0.0795
  C  C168  1  0.849200  0.098100  0.696700  1.0  -0.1264
  C  C169  1  0.789400  0.555300  0.166600  1.0  -0.0779
  C  C170  1  0.650800  0.401900  0.196700  1.0  -0.1191
  C  C171  1  0.289400  0.055300  0.666667  1.0  -0.0798
  C  C172  1  0.150800  0.901900  0.696700  1.0  -0.1256
  C  C173  1  0.833400  0.789400  0.444700  1.0  -0.0659
  C  C174  1  0.803300  0.650800  0.598100  1.0  -0.1195
  C  C175  1  0.333400  0.289400  0.944700  1.0  -0.0659
  C  C176  1  0.303300  0.150800  0.098100  1.0  -0.1193
  C  C177  1  0.833400  0.210600  0.555300  1.0  -0.066
  C  C178  1  0.803300  0.349200  0.401900  1.0  -0.1199
  C  C179  1  0.333400  0.710600  0.055300  1.0  -0.0667
  C  C180  1  0.303300  0.849200  0.901900  1.0  -0.1161
  C  C181  1  0.166600  0.210600  0.444700  1.0  -0.0669
  C  C182  1  0.196700  0.349200  0.598100  1.0  -0.1139
  C  C183  1  0.666667  0.710600  0.944700  1.0  -0.0714
  C  C184  1  0.696700  0.849200  0.098100  1.0  -0.1163
  C  C185  1  0.166600  0.789400  0.555300  1.0  -0.0681
  C  C186  1  0.196700  0.650800  0.401900  1.0  -0.1114
  C  C187  1  0.666667  0.289400  0.055300  1.0  -0.0717
  C  C188  1  0.696700  0.150800  0.901900  1.0  -0.1152
  C  C189  1  0.444700  0.833400  0.789400  1.0  -0.0693
  C  C190  1  0.598100  0.803300  0.650800  1.0  -0.1219
  C  C191  1  0.944700  0.333400  0.289400  1.0  -0.0693
  C  C192  1  0.098100  0.303300  0.150800  1.0  -0.1217
  C  C193  1  0.555300  0.833400  0.210600  1.0  -0.069
  C  C194  1  0.401900  0.803300  0.349200  1.0  -0.1194
  C  C195  1  0.055300  0.333400  0.710600  1.0  -0.0686
  C  C196  1  0.901900  0.303300  0.849200  1.0  -0.1154
  C  C197  1  0.444700  0.166600  0.210600  1.0  -0.0695
  C  C198  1  0.598100  0.196700  0.349200  1.0  -0.1151
  C  C199  1  0.944700  0.666667  0.710600  1.0  -0.074
  C  C200  1  0.098100  0.696700  0.849200  1.0  -0.1196
  C  C201  1  0.555300  0.166600  0.789400  1.0  -0.0691
  C  C202  1  0.401900  0.196700  0.650800  1.0  -0.1156
  C  C203  1  0.055300  0.666667  0.289400  1.0  -0.0722
  C  C204  1  0.901900  0.696700  0.150800  1.0  -0.1218
  C  C205  1  0.444700  0.789400  0.166600  1.0  -0.0751
  C  C206  1  0.598100  0.650800  0.196700  1.0  -0.1266
  C  C207  1  0.944700  0.289400  0.666667  1.0  -0.0783
  C  C208  1  0.098100  0.150800  0.696700  1.0  -0.1264
  C  C209  1  0.555300  0.210600  0.166600  1.0  -0.0754
  C  C210  1  0.401900  0.349200  0.196700  1.0  -0.13
  C  C211  1  0.055300  0.710600  0.666667  1.0  -0.0796
  C  C212  1  0.901900  0.849200  0.696700  1.0  -0.13
  C  C213  1  0.444700  0.210600  0.833400  1.0  -0.0764
  C  C214  1  0.598100  0.349200  0.803300  1.0  -0.12
  C  C215  1  0.944700  0.710600  0.333400  1.0  -0.0754
  C  C216  1  0.098100  0.849200  0.303300  1.0  -0.1197
  C  C217  1  0.555300  0.789400  0.833400  1.0  -0.0763
  C  C218  1  0.401900  0.650800  0.803300  1.0  -0.1205
  C  C219  1  0.055300  0.289400  0.333400  1.0  -0.0763
  C  C220  1  0.901900  0.150800  0.303300  1.0  -0.1263
  C  C221  1  0.789400  0.833400  0.555300  1.0  -0.0709
  C  C222  1  0.650800  0.803300  0.401900  1.0  -0.1122
  C  C223  1  0.289400  0.333400  0.055300  1.0  -0.0709
  C  C224  1  0.150800  0.303300  0.901900  1.0  -0.1174
  C  C225  1  0.210600  0.833400  0.444700  1.0  -0.0691
  C  C226  1  0.349200  0.803300  0.598100  1.0  -0.1146
  C  C227  1  0.710600  0.333400  0.944700  1.0  -0.0682
  C  C228  1  0.849200  0.303300  0.098100  1.0  -0.1162
  C  C229  1  0.210600  0.166600  0.555300  1.0  -0.0708
  C  C230  1  0.349200  0.196700  0.401900  1.0  -0.1184
  C  C231  1  0.710600  0.666667  0.055300  1.0  -0.075
  C  C232  1  0.849200  0.696700  0.901900  1.0  -0.1184
  C  C233  1  0.789400  0.166600  0.444700  1.0  -0.0696
  C  C234  1  0.650800  0.196700  0.598100  1.0  -0.1188
  C  C235  1  0.289400  0.666667  0.944700  1.0  -0.0724
  C  C236  1  0.150800  0.696700  0.098100  1.0  -0.1187
  C  C237  1  0.833400  0.444700  0.210600  1.0  -0.0651
  C  C238  1  0.803300  0.598100  0.349200  1.0  -0.114
  C  C239  1  0.333400  0.944700  0.710600  1.0  -0.0648
  C  C240  1  0.303300  0.098100  0.849200  1.0  -0.1137
  C  C241  1  0.833400  0.555300  0.789400  1.0  -0.066
  C  C242  1  0.803300  0.401900  0.650800  1.0  -0.115
  C  C243  1  0.333400  0.055300  0.289400  1.0  -0.066
  C  C244  1  0.303300  0.901900  0.150800  1.0  -0.1202
  C  C245  1  0.166600  0.444700  0.789400  1.0  -0.0682
  C  C246  1  0.196700  0.598100  0.650800  1.0  -0.1179
  C  C247  1  0.666667  0.944700  0.289400  1.0  -0.0697
  C  C248  1  0.696700  0.098100  0.150800  1.0  -0.1178
  C  C249  1  0.166600  0.555300  0.210600  1.0  -0.0671
  C  C250  1  0.196700  0.401900  0.349200  1.0  -0.1153
  C  C251  1  0.666667  0.055300  0.710600  1.0  -0.0713
  C  C252  1  0.696700  0.901900  0.849200  1.0  -0.1153
  C  C253  1  0.225600  0.500000  0.225600  1.0  0.1963
  C  C254  1  0.725600  0.000000  0.725600  1.0  0.1961
  C  C255  1  0.774400  0.500000  0.225600  1.0  0.1969
  C  C256  1  0.274400  0.000000  0.725600  1.0  0.2005
  C  C257  1  0.774400  0.500000  0.774400  1.0  0.2009
  C  C258  1  0.274400  0.000000  0.274400  1.0  0.2009
  C  C259  1  0.225600  0.500000  0.774400  1.0  0.1987
  C  C260  1  0.725600  0.000000  0.274400  1.0  0.2017
  C  C261  1  0.225600  0.225600  0.500000  1.0  0.1973
  C  C262  1  0.725600  0.725600  0.000000  1.0  0.1971
  C  C263  1  0.225600  0.774400  0.500000  1.0  0.1985
  C  C264  1  0.725600  0.274400  0.000000  1.0  0.2018
  C  C265  1  0.774400  0.774400  0.500000  1.0  0.199
  C  C266  1  0.274400  0.274400  0.000000  1.0  0.1992
  C  C267  1  0.774400  0.225600  0.500000  1.0  0.1989
  C  C268  1  0.274400  0.725600  0.000000  1.0  0.2032
  C  C269  1  0.500000  0.225600  0.225600  1.0  0.1894
  C  C270  1  0.000000  0.725600  0.725600  1.0  0.1891
  C  C271  1  0.500000  0.225600  0.774400  1.0  0.1928
  C  C272  1  0.000000  0.725600  0.274400  1.0  0.1967
  C  C273  1  0.500000  0.774400  0.774400  1.0  0.1934
  C  C274  1  0.000000  0.274400  0.274400  1.0  0.1934
  C  C275  1  0.500000  0.774400  0.225600  1.0  0.19
  C  C276  1  0.000000  0.274400  0.725600  1.0  0.1942
  C  C277  1  0.405700  0.405700  0.134400  1.0  0.4168
  C  C278  1  0.905700  0.905700  0.634400  1.0  0.4168
  C  C279  1  0.594300  0.594300  0.134400  1.0  0.4163
  C  C280  1  0.094300  0.094300  0.634400  1.0  0.4163
  C  C281  1  0.594300  0.405700  0.865600  1.0  0.4144
  C  C282  1  0.094300  0.905700  0.365600  1.0  0.4147
  C  C283  1  0.405700  0.594300  0.865600  1.0  0.4144
  C  C284  1  0.905700  0.094300  0.365600  1.0  0.4143
  C  C285  1  0.134400  0.405700  0.405700  1.0  0.4175
  C  C286  1  0.634400  0.905700  0.905700  1.0  0.4175
  C  C287  1  0.134400  0.594300  0.594300  1.0  0.417
  C  C288  1  0.634400  0.094300  0.094300  1.0  0.417
  C  C289  1  0.865600  0.594300  0.405700  1.0  0.417
  C  C290  1  0.365600  0.094300  0.905700  1.0  0.4167
  C  C291  1  0.865600  0.405700  0.594300  1.0  0.4159
  C  C292  1  0.365600  0.905700  0.094300  1.0  0.4163
  C  C293  1  0.405700  0.134400  0.405700  1.0  0.4149
  C  C294  1  0.905700  0.634400  0.905700  1.0  0.4149
  C  C295  1  0.594300  0.134400  0.594300  1.0  0.417
  C  C296  1  0.094300  0.634400  0.094300  1.0  0.417
  C  C297  1  0.405700  0.865600  0.594300  1.0  0.4149
  C  C298  1  0.905700  0.365600  0.094300  1.0  0.4152
  C  C299  1  0.594300  0.865600  0.405700  1.0  0.4165
  C  C300  1  0.094300  0.365600  0.905700  1.0  0.4168
  C  C301  1  0.405700  0.405700  0.865600  1.0  0.4145
  C  C302  1  0.905700  0.905700  0.365600  1.0  0.4145
  C  C303  1  0.594300  0.594300  0.865600  1.0  0.4144
  C  C304  1  0.094300  0.094300  0.365600  1.0  0.4144
  C  C305  1  0.405700  0.594300  0.134400  1.0  0.4158
  C  C306  1  0.905700  0.094300  0.634400  1.0  0.4163
  C  C307  1  0.594300  0.405700  0.134400  1.0  0.4158
  C  C308  1  0.094300  0.905700  0.634400  1.0  0.4167
  C  C309  1  0.405700  0.134400  0.594300  1.0  0.4164
  C  C310  1  0.905700  0.634400  0.094300  1.0  0.4169
  C  C311  1  0.594300  0.134400  0.405700  1.0  0.4143
  C  C312  1  0.094300  0.634400  0.905700  1.0  0.4147
  C  C313  1  0.594300  0.865600  0.594300  1.0  0.4154
  C  C314  1  0.094300  0.365600  0.094300  1.0  0.4154
  C  C315  1  0.405700  0.865600  0.405700  1.0  0.4165
  C  C316  1  0.905700  0.365600  0.905700  1.0  0.4165
  C  C317  1  0.134400  0.405700  0.594300  1.0  0.417
  C  C318  1  0.634400  0.905700  0.094300  1.0  0.4177
  C  C319  1  0.134400  0.594300  0.405700  1.0  0.4168
  C  C320  1  0.634400  0.094300  0.905700  1.0  0.4172
  C  C321  1  0.865600  0.405700  0.405700  1.0  0.4166
  C  C322  1  0.365600  0.905700  0.905700  1.0  0.4166
  C  C323  1  0.865600  0.594300  0.594300  1.0  0.4166
  C  C324  1  0.365600  0.094300  0.094300  1.0  0.4166
  N  N325  1  0.363900  0.431800  0.147200  1.0  -0.2364
  N  N326  1  0.863900  0.931800  0.647200  1.0  -0.2364
  N  N327  1  0.636100  0.568200  0.147200  1.0  -0.2375
  N  N328  1  0.136100  0.068200  0.647200  1.0  -0.2375
  N  N329  1  0.636100  0.431800  0.852800  1.0  -0.2372
  N  N330  1  0.136100  0.931800  0.352800  1.0  -0.2372
  N  N331  1  0.363900  0.568200  0.852800  1.0  -0.2379
  N  N332  1  0.863900  0.068200  0.352800  1.0  -0.2378
  N  N333  1  0.147200  0.363900  0.431800  1.0  -0.2383
  N  N334  1  0.647200  0.863900  0.931800  1.0  -0.2384
  N  N335  1  0.147200  0.636100  0.568200  1.0  -0.2384
  N  N336  1  0.647200  0.136100  0.068200  1.0  -0.2384
  N  N337  1  0.852800  0.636100  0.431800  1.0  -0.2388
  N  N338  1  0.352800  0.136100  0.931800  1.0  -0.2388
  N  N339  1  0.852800  0.363900  0.568200  1.0  -0.2382
  N  N340  1  0.352800  0.863900  0.068200  1.0  -0.2382
  N  N341  1  0.431800  0.147200  0.363900  1.0  -0.238
  N  N342  1  0.931800  0.647200  0.863900  1.0  -0.2381
  N  N343  1  0.568200  0.147200  0.636100  1.0  -0.2388
  N  N344  1  0.068200  0.647200  0.136100  1.0  -0.2388
  N  N345  1  0.431800  0.852800  0.636100  1.0  -0.2402
  N  N346  1  0.931800  0.352800  0.136100  1.0  -0.2402
  N  N347  1  0.568200  0.852800  0.363900  1.0  -0.236
  N  N348  1  0.068200  0.352800  0.863900  1.0  -0.236
  N  N349  1  0.431800  0.363900  0.852800  1.0  -0.2382
  N  N350  1  0.931800  0.863900  0.352800  1.0  -0.2382
  N  N351  1  0.568200  0.636100  0.852800  1.0  -0.2372
  N  N352  1  0.068200  0.136100  0.352800  1.0  -0.2371
  N  N353  1  0.431800  0.636100  0.147200  1.0  -0.2374
  N  N354  1  0.931800  0.136100  0.647200  1.0  -0.2375
  N  N355  1  0.568200  0.363900  0.147200  1.0  -0.2362
  N  N356  1  0.068200  0.863900  0.647200  1.0  -0.2362
  N  N357  1  0.363900  0.147200  0.568200  1.0  -0.2384
  N  N358  1  0.863900  0.647200  0.068200  1.0  -0.2384
  N  N359  1  0.636100  0.147200  0.431800  1.0  -0.2388
  N  N360  1  0.136100  0.647200  0.931800  1.0  -0.2389
  N  N361  1  0.636100  0.852800  0.568200  1.0  -0.2389
  N  N362  1  0.136100  0.352800  0.068200  1.0  -0.2389
  N  N363  1  0.363900  0.852800  0.431800  1.0  -0.2388
  N  N364  1  0.863900  0.352800  0.931800  1.0  -0.2388
  N  N365  1  0.147200  0.431800  0.636100  1.0  -0.2385
  N  N366  1  0.647200  0.931800  0.136100  1.0  -0.2386
  N  N367  1  0.147200  0.568200  0.363900  1.0  -0.2363
  N  N368  1  0.647200  0.068200  0.863900  1.0  -0.2363
  N  N369  1  0.852800  0.431800  0.363900  1.0  -0.2357
  N  N370  1  0.352800  0.931800  0.863900  1.0  -0.2357
  N  N371  1  0.852800  0.568200  0.636100  1.0  -0.2383
  N  N372  1  0.352800  0.068200  0.136100  1.0  -0.2383
  N  N373  1  0.636100  0.568200  0.852800  1.0  -0.2387
  N  N374  1  0.136100  0.068200  0.352800  1.0  -0.2387
  N  N375  1  0.363900  0.431800  0.852800  1.0  -0.2376
  N  N376  1  0.863900  0.931800  0.352800  1.0  -0.2376
  N  N377  1  0.363900  0.568200  0.147200  1.0  -0.2377
  N  N378  1  0.863900  0.068200  0.647200  1.0  -0.2377
  N  N379  1  0.636100  0.431800  0.147200  1.0  -0.2375
  N  N380  1  0.136100  0.931800  0.647200  1.0  -0.2376
  N  N381  1  0.852800  0.636100  0.568200  1.0  -0.2395
  N  N382  1  0.352800  0.136100  0.068200  1.0  -0.2394
  N  N383  1  0.852800  0.363900  0.431800  1.0  -0.2392
  N  N384  1  0.352800  0.863900  0.931800  1.0  -0.2392
  N  N385  1  0.147200  0.363900  0.568200  1.0  -0.2385
  N  N386  1  0.647200  0.863900  0.068200  1.0  -0.2385
  N  N387  1  0.147200  0.636100  0.431800  1.0  -0.2393
  N  N388  1  0.647200  0.136100  0.931800  1.0  -0.2393
  N  N389  1  0.568200  0.852800  0.636100  1.0  -0.2393
  N  N390  1  0.068200  0.352800  0.136100  1.0  -0.2393
  N  N391  1  0.431800  0.852800  0.363900  1.0  -0.2384
  N  N392  1  0.931800  0.352800  0.863900  1.0  -0.2384
  N  N393  1  0.568200  0.147200  0.363900  1.0  -0.2363
  N  N394  1  0.068200  0.647200  0.863900  1.0  -0.2363
  N  N395  1  0.431800  0.147200  0.636100  1.0  -0.241
  N  N396  1  0.931800  0.647200  0.136100  1.0  -0.241
  N  N397  1  0.568200  0.636100  0.147200  1.0  -0.2365
  N  N398  1  0.068200  0.136100  0.647200  1.0  -0.2365
  N  N399  1  0.431800  0.363900  0.147200  1.0  -0.2375
  N  N400  1  0.931800  0.863900  0.647200  1.0  -0.2375
  N  N401  1  0.568200  0.363900  0.852800  1.0  -0.237
  N  N402  1  0.068200  0.863900  0.352800  1.0  -0.237
  N  N403  1  0.431800  0.636100  0.852800  1.0  -0.238
  N  N404  1  0.931800  0.136100  0.352800  1.0  -0.238
  N  N405  1  0.636100  0.852800  0.431800  1.0  -0.239
  N  N406  1  0.136100  0.352800  0.931800  1.0  -0.239
  N  N407  1  0.363900  0.852800  0.568200  1.0  -0.2383
  N  N408  1  0.863900  0.352800  0.068200  1.0  -0.2382
  N  N409  1  0.363900  0.147200  0.431800  1.0  -0.239
  N  N410  1  0.863900  0.647200  0.931800  1.0  -0.239
  N  N411  1  0.636100  0.147200  0.568200  1.0  -0.239
  N  N412  1  0.136100  0.647200  0.068200  1.0  -0.239
  N  N413  1  0.852800  0.568200  0.363900  1.0  -0.2359
  N  N414  1  0.352800  0.068200  0.863900  1.0  -0.2358
  N  N415  1  0.852800  0.431800  0.636100  1.0  -0.2384
  N  N416  1  0.352800  0.931800  0.136100  1.0  -0.2384
  N  N417  1  0.147200  0.568200  0.636100  1.0  -0.239
  N  N418  1  0.647200  0.068200  0.136100  1.0  -0.239
  N  N419  1  0.147200  0.431800  0.363900  1.0  -0.2362
  N  N420  1  0.647200  0.931800  0.863900  1.0  -0.2362
  N  N421  1  0.249900  0.500000  0.184700  1.0  -0.1861
  N  N422  1  0.749900  0.000000  0.684700  1.0  -0.186
  N  N423  1  0.750100  0.500000  0.184700  1.0  -0.1827
  N  N424  1  0.250100  0.000000  0.684700  1.0  -0.1828
  N  N425  1  0.750100  0.500000  0.815300  1.0  -0.1812
  N  N426  1  0.250100  0.000000  0.315300  1.0  -0.1812
  N  N427  1  0.249900  0.500000  0.815300  1.0  -0.1835
  N  N428  1  0.749900  0.000000  0.315300  1.0  -0.1836
  N  N429  1  0.184700  0.249900  0.500000  1.0  -0.1819
  N  N430  1  0.684700  0.749900  0.000000  1.0  -0.1821
  N  N431  1  0.184700  0.750100  0.500000  1.0  -0.1827
  N  N432  1  0.684700  0.250100  0.000000  1.0  -0.1829
  N  N433  1  0.815300  0.750100  0.500000  1.0  -0.1852
  N  N434  1  0.315300  0.250100  0.000000  1.0  -0.1853
  N  N435  1  0.815300  0.249900  0.500000  1.0  -0.1862
  N  N436  1  0.315300  0.749900  0.000000  1.0  -0.1862
  N  N437  1  0.500000  0.184700  0.249900  1.0  -0.1789
  N  N438  1  0.000000  0.684700  0.749900  1.0  -0.1787
  N  N439  1  0.500000  0.184700  0.750100  1.0  -0.1794
  N  N440  1  0.000000  0.684700  0.250100  1.0  -0.1792
  N  N441  1  0.500000  0.815300  0.750100  1.0  -0.1801
  N  N442  1  0.000000  0.315300  0.250100  1.0  -0.1801
  N  N443  1  0.500000  0.815300  0.249900  1.0  -0.1793
  N  N444  1  0.000000  0.315300  0.749900  1.0  -0.1793
  N  N445  1  0.500000  0.249900  0.815300  1.0  -0.181
  N  N446  1  0.000000  0.749900  0.315300  1.0  -0.181
  N  N447  1  0.500000  0.750100  0.815300  1.0  -0.179
  N  N448  1  0.000000  0.250100  0.315300  1.0  -0.179
  N  N449  1  0.500000  0.750100  0.184700  1.0  -0.1819
  N  N450  1  0.000000  0.250100  0.684700  1.0  -0.1818
  N  N451  1  0.500000  0.249900  0.184700  1.0  -0.1838
  N  N452  1  0.000000  0.749900  0.684700  1.0  -0.1837
  N  N453  1  0.249900  0.184700  0.500000  1.0  -0.1852
  N  N454  1  0.749900  0.684700  0.000000  1.0  -0.1851
  N  N455  1  0.750100  0.184700  0.500000  1.0  -0.1824
  N  N456  1  0.250100  0.684700  0.000000  1.0  -0.1825
  N  N457  1  0.750100  0.815300  0.500000  1.0  -0.1819
  N  N458  1  0.250100  0.315300  0.000000  1.0  -0.1819
  N  N459  1  0.249900  0.815300  0.500000  1.0  -0.1855
  N  N460  1  0.749900  0.315300  0.000000  1.0  -0.1855
  N  N461  1  0.184700  0.500000  0.750100  1.0  -0.18
  N  N462  1  0.684700  0.000000  0.250100  1.0  -0.1801
  N  N463  1  0.184700  0.500000  0.249900  1.0  -0.1801
  N  N464  1  0.684700  0.000000  0.749900  1.0  -0.1801
  N  N465  1  0.815300  0.500000  0.249900  1.0  -0.1827
  N  N466  1  0.315300  0.000000  0.749900  1.0  -0.1828
  N  N467  1  0.815300  0.500000  0.750100  1.0  -0.1832
  N  N468  1  0.315300  0.000000  0.250100  1.0  -0.1832
  O  O469  1  0.292300  0.500000  0.059100  1.0  -0.8498
  O  O470  1  0.792300  0.000000  0.559100  1.0  -0.8497
  O  O471  1  0.707700  0.500000  0.059100  1.0  -0.8508
  O  O472  1  0.207700  0.000000  0.559100  1.0  -0.8507
  O  O473  1  0.707700  0.500000  0.940900  1.0  -0.8518
  O  O474  1  0.207700  0.000000  0.440900  1.0  -0.8517
  O  O475  1  0.292300  0.500000  0.940900  1.0  -0.851
  O  O476  1  0.792300  0.000000  0.440900  1.0  -0.851
  O  O477  1  0.059100  0.292300  0.500000  1.0  -0.854
  O  O478  1  0.559100  0.792300  0.000000  1.0  -0.8539
  O  O479  1  0.059100  0.707700  0.500000  1.0  -0.8541
  O  O480  1  0.559100  0.207700  0.000000  1.0  -0.8541
  O  O481  1  0.940900  0.707700  0.500000  1.0  -0.8532
  O  O482  1  0.440900  0.207700  0.000000  1.0  -0.8532
  O  O483  1  0.940900  0.292300  0.500000  1.0  -0.8531
  O  O484  1  0.440900  0.792300  0.000000  1.0  -0.853
  O  O485  1  0.500000  0.059100  0.292300  1.0  -0.8507
  O  O486  1  0.000000  0.559100  0.792300  1.0  -0.8506
  O  O487  1  0.500000  0.059100  0.707700  1.0  -0.8522
  O  O488  1  0.000000  0.559100  0.207700  1.0  -0.8521
  O  O489  1  0.500000  0.940900  0.707700  1.0  -0.8521
  O  O490  1  0.000000  0.440900  0.207700  1.0  -0.852
  O  O491  1  0.500000  0.940900  0.292300  1.0  -0.851
  O  O492  1  0.000000  0.440900  0.792300  1.0  -0.8509
  O  O493  1  0.500000  0.292300  0.940900  1.0  -0.8533
  O  O494  1  0.000000  0.792300  0.440900  1.0  -0.8533
  O  O495  1  0.500000  0.707700  0.940900  1.0  -0.8534
  O  O496  1  0.000000  0.207700  0.440900  1.0  -0.8533
  O  O497  1  0.500000  0.707700  0.059100  1.0  -0.8523
  O  O498  1  0.000000  0.207700  0.559100  1.0  -0.8522
  O  O499  1  0.500000  0.292300  0.059100  1.0  -0.8522
  O  O500  1  0.000000  0.792300  0.559100  1.0  -0.8521
  O  O501  1  0.292300  0.059100  0.500000  1.0  -0.8501
  O  O502  1  0.792300  0.559100  0.000000  1.0  -0.85
  O  O503  1  0.707700  0.059100  0.500000  1.0  -0.8514
  O  O504  1  0.207700  0.559100  0.000000  1.0  -0.8514
  O  O505  1  0.707700  0.940900  0.500000  1.0  -0.8511
  O  O506  1  0.207700  0.440900  0.000000  1.0  -0.8511
  O  O507  1  0.292300  0.940900  0.500000  1.0  -0.8499
  O  O508  1  0.792300  0.440900  0.000000  1.0  -0.8499
  O  O509  1  0.059100  0.500000  0.707700  1.0  -0.8533
  O  O510  1  0.559100  0.000000  0.207700  1.0  -0.8532
  O  O511  1  0.059100  0.500000  0.292300  1.0  -0.8519
  O  O512  1  0.559100  0.000000  0.792300  1.0  -0.8519
  O  O513  1  0.940900  0.500000  0.292300  1.0  -0.8513
  O  O514  1  0.440900  0.000000  0.792300  1.0  -0.8512
  O  O515  1  0.940900  0.500000  0.707700  1.0  -0.8526
  O  O516  1  0.440900  0.000000  0.207700  1.0  -0.8525
