# generated using pymatgen
data_Zn4WC22(N3O)4
_symmetry_space_group_name_H-M   'P 1'
_cell_length_a   23.57500000
_cell_length_b   23.57500000
_cell_length_c   23.57500000
_cell_angle_alpha   90.00000000
_cell_angle_beta   90.00000000
_cell_angle_gamma   90.00000000
_symmetry_Int_Tables_number   1
_chemical_formula_structural   Zn4WC22(N3O)4
_chemical_formula_sum   'Zn48 W12 C264 N144 O48'
_cell_volume   13102.52823437
_cell_formula_units_Z   12
loop_
 _symmetry_equiv_pos_site_id
 _symmetry_equiv_pos_as_xyz
  1  'x, y, z'
loop_
 _atom_site_type_symbol
 _atom_site_label
 _atom_site_symmetry_multiplicity
 _atom_site_fract_x
 _atom_site_fract_y
 _atom_site_fract_z
 _atom_site_occupancy
 _atom_site_charge
  Zn  Zn1  1  0.319840  0.500000  0.138590  1.0  0.9254
  Zn  Zn2  1  0.819840  0.000000  0.638590  1.0  0.9254
  Zn  Zn3  1  0.680160  0.500000  0.138590  1.0  0.9262
  Zn  Zn4  1  0.180160  0.000000  0.638590  1.0  0.9262
  Zn  Zn5  1  0.680160  0.500000  0.861410  1.0  0.9261
  Zn  Zn6  1  0.180160  0.000000  0.361410  1.0  0.9261
  Zn  Zn7  1  0.319840  0.500000  0.861410  1.0  0.9253
  Zn  Zn8  1  0.819840  0.000000  0.361410  1.0  0.9253
  Zn  Zn9  1  0.138590  0.319840  0.500000  1.0  0.9275
  Zn  Zn10  1  0.638590  0.819840  0.000000  1.0  0.9275
  Zn  Zn11  1  0.138590  0.680160  0.500000  1.0  0.9274
  Zn  Zn12  1  0.638590  0.180160  0.000000  1.0  0.9274
  Zn  Zn13  1  0.861410  0.680160  0.500000  1.0  0.9272
  Zn  Zn14  1  0.361410  0.180160  0.000000  1.0  0.9272
  Zn  Zn15  1  0.861410  0.319840  0.500000  1.0  0.9275
  Zn  Zn16  1  0.361410  0.819840  0.000000  1.0  0.9275
  Zn  Zn17  1  0.500000  0.138590  0.319840  1.0  0.9304
  Zn  Zn18  1  0.000000  0.638590  0.819840  1.0  0.9304
  Zn  Zn19  1  0.500000  0.138590  0.680160  1.0  0.9276
  Zn  Zn20  1  0.000000  0.638590  0.180160  1.0  0.9276
  Zn  Zn21  1  0.500000  0.861410  0.680160  1.0  0.928
  Zn  Zn22  1  0.000000  0.361410  0.180160  1.0  0.928
  Zn  Zn23  1  0.500000  0.861410  0.319840  1.0  0.9308
  Zn  Zn24  1  0.000000  0.361410  0.819840  1.0  0.9308
  Zn  Zn25  1  0.500000  0.319840  0.861410  1.0  0.9278
  Zn  Zn26  1  0.000000  0.819840  0.361410  1.0  0.9278
  Zn  Zn27  1  0.500000  0.680160  0.861410  1.0  0.9277
  Zn  Zn28  1  0.000000  0.180160  0.361410  1.0  0.9277
  Zn  Zn29  1  0.500000  0.680160  0.138590  1.0  0.9277
  Zn  Zn30  1  0.000000  0.180160  0.638590  1.0  0.9277
  Zn  Zn31  1  0.500000  0.319840  0.138590  1.0  0.9279
  Zn  Zn32  1  0.000000  0.819840  0.638590  1.0  0.9279
  Zn  Zn33  1  0.319840  0.138590  0.500000  1.0  0.925
  Zn  Zn34  1  0.819840  0.638590  0.000000  1.0  0.925
  Zn  Zn35  1  0.680160  0.138590  0.500000  1.0  0.9256
  Zn  Zn36  1  0.180160  0.638590  0.000000  1.0  0.9256
  Zn  Zn37  1  0.680160  0.861410  0.500000  1.0  0.9262
  Zn  Zn38  1  0.180160  0.361410  0.000000  1.0  0.9262
  Zn  Zn39  1  0.319840  0.861410  0.500000  1.0  0.9253
  Zn  Zn40  1  0.819840  0.361410  0.000000  1.0  0.9253
  Zn  Zn41  1  0.138590  0.500000  0.680160  1.0  0.9279
  Zn  Zn42  1  0.638590  0.000000  0.180160  1.0  0.9279
  Zn  Zn43  1  0.138590  0.500000  0.319840  1.0  0.9305
  Zn  Zn44  1  0.638590  0.000000  0.819840  1.0  0.9305
  Zn  Zn45  1  0.861410  0.500000  0.319840  1.0  0.9303
  Zn  Zn46  1  0.361410  0.000000  0.819840  1.0  0.9303
  Zn  Zn47  1  0.861410  0.500000  0.680160  1.0  0.9274
  Zn  Zn48  1  0.361410  0.000000  0.180160  1.0  0.9274
  W  W49  1  0.250000  0.500000  0.000000  1.0  1.4971
  W  W50  1  0.750000  0.500000  0.000000  1.0  1.4971
  W  W51  1  0.000000  0.250000  0.500000  1.0  1.4971
  W  W52  1  0.000000  0.750000  0.500000  1.0  1.4971
  W  W53  1  0.500000  0.250000  0.000000  1.0  1.4971
  W  W54  1  0.500000  0.000000  0.250000  1.0  1.4971
  W  W55  1  0.500000  0.000000  0.750000  1.0  1.4971
  W  W56  1  0.500000  0.750000  0.000000  1.0  1.4971
  W  W57  1  0.250000  0.000000  0.500000  1.0  1.4971
  W  W58  1  0.750000  0.000000  0.500000  1.0  1.4971
  W  W59  1  0.000000  0.500000  0.750000  1.0  1.4971
  W  W60  1  0.000000  0.500000  0.250000  1.0  1.4971
  C  C61  1  0.209800  0.554200  0.168800  1.0  -0.0439
  C  C62  1  0.352400  0.397900  0.201600  1.0  -0.0966
  C  C63  1  0.709800  0.054200  0.668800  1.0  -0.0439
  C  C64  1  0.852400  0.897900  0.701600  1.0  -0.0966
  C  C65  1  0.790200  0.445800  0.168800  1.0  -0.0435
  C  C66  1  0.647600  0.602100  0.201600  1.0  -0.0977
  C  C67  1  0.290200  0.945800  0.668800  1.0  -0.0435
  C  C68  1  0.147600  0.102100  0.701600  1.0  -0.0977
  C  C69  1  0.790200  0.554200  0.831200  1.0  -0.0491
  C  C70  1  0.647600  0.397900  0.798400  1.0  -0.097
  C  C71  1  0.290200  0.054200  0.331200  1.0  -0.0491
  C  C72  1  0.147600  0.897900  0.298400  1.0  -0.097
  C  C73  1  0.209800  0.445800  0.831200  1.0  -0.0477
  C  C74  1  0.352400  0.602100  0.798400  1.0  -0.0965
  C  C75  1  0.709800  0.945800  0.331200  1.0  -0.0477
  C  C76  1  0.852400  0.102100  0.298400  1.0  -0.0965
  C  C77  1  0.168800  0.209800  0.554200  1.0  -0.0387
  C  C78  1  0.201600  0.352400  0.397900  1.0  -0.0904
  C  C79  1  0.668800  0.709800  0.054200  1.0  -0.0387
  C  C80  1  0.701600  0.852400  0.897900  1.0  -0.0904
  C  C81  1  0.168800  0.790200  0.445800  1.0  -0.038
  C  C82  1  0.201600  0.647600  0.602100  1.0  -0.0895
  C  C83  1  0.668800  0.290200  0.945800  1.0  -0.038
  C  C84  1  0.701600  0.147600  0.102100  1.0  -0.0895
  C  C85  1  0.831200  0.790200  0.554200  1.0  -0.0358
  C  C86  1  0.798400  0.647600  0.397900  1.0  -0.0878
  C  C87  1  0.331200  0.290200  0.054200  1.0  -0.0358
  C  C88  1  0.298400  0.147600  0.897900  1.0  -0.0878
  C  C89  1  0.831200  0.209800  0.445800  1.0  -0.0348
  C  C90  1  0.798400  0.352400  0.602100  1.0  -0.0902
  C  C91  1  0.331200  0.709800  0.945800  1.0  -0.0348
  C  C92  1  0.298400  0.852400  0.102100  1.0  -0.0902
  C  C93  1  0.554200  0.168800  0.209800  1.0  -0.0385
  C  C94  1  0.397900  0.201600  0.352400  1.0  -0.0958
  C  C95  1  0.054200  0.668800  0.709800  1.0  -0.0385
  C  C96  1  0.897900  0.701600  0.852400  1.0  -0.0958
  C  C97  1  0.445800  0.168800  0.790200  1.0  -0.0401
  C  C98  1  0.602100  0.201600  0.647600  1.0  -0.0971
  C  C99  1  0.945800  0.668800  0.290200  1.0  -0.0401
  C  C100  1  0.102100  0.701600  0.147600  1.0  -0.0971
  C  C101  1  0.554200  0.831200  0.790200  1.0  -0.0387
  C  C102  1  0.397900  0.798400  0.647600  1.0  -0.0988
  C  C103  1  0.054200  0.331200  0.290200  1.0  -0.0387
  C  C104  1  0.897900  0.298400  0.147600  1.0  -0.0988
  C  C105  1  0.445800  0.831200  0.209800  1.0  -0.0401
  C  C106  1  0.602100  0.798400  0.352400  1.0  -0.0954
  C  C107  1  0.945800  0.331200  0.709800  1.0  -0.0401
  C  C108  1  0.102100  0.298400  0.852400  1.0  -0.0954
  C  C109  1  0.554200  0.209800  0.831200  1.0  -0.0489
  C  C110  1  0.397900  0.352400  0.798400  1.0  -0.1021
  C  C111  1  0.054200  0.709800  0.331200  1.0  -0.0489
  C  C112  1  0.897900  0.852400  0.298400  1.0  -0.1021
  C  C113  1  0.445800  0.790200  0.831200  1.0  -0.0501
  C  C114  1  0.602100  0.647600  0.798400  1.0  -0.1002
  C  C115  1  0.945800  0.290200  0.331200  1.0  -0.0501
  C  C116  1  0.102100  0.147600  0.298400  1.0  -0.1002
  C  C117  1  0.554200  0.790200  0.168800  1.0  -0.0449
  C  C118  1  0.397900  0.647600  0.201600  1.0  -0.1004
  C  C119  1  0.054200  0.290200  0.668800  1.0  -0.0449
  C  C120  1  0.897900  0.147600  0.701600  1.0  -0.1004
  C  C121  1  0.445800  0.209800  0.168800  1.0  -0.0457
  C  C122  1  0.602100  0.352400  0.201600  1.0  -0.1035
  C  C123  1  0.945800  0.709800  0.668800  1.0  -0.0457
  C  C124  1  0.102100  0.852400  0.701600  1.0  -0.1035
  C  C125  1  0.209800  0.168800  0.445800  1.0  -0.037
  C  C126  1  0.352400  0.201600  0.602100  1.0  -0.0869
  C  C127  1  0.709800  0.668800  0.945800  1.0  -0.037
  C  C128  1  0.852400  0.701600  0.102100  1.0  -0.0869
  C  C129  1  0.790200  0.168800  0.554200  1.0  -0.0393
  C  C130  1  0.647600  0.201600  0.397900  1.0  -0.0863
  C  C131  1  0.290200  0.668800  0.054200  1.0  -0.0393
  C  C132  1  0.147600  0.701600  0.897900  1.0  -0.0863
  C  C133  1  0.790200  0.831200  0.445800  1.0  -0.0376
  C  C134  1  0.647600  0.798400  0.602100  1.0  -0.0865
  C  C135  1  0.290200  0.331200  0.945800  1.0  -0.0376
  C  C136  1  0.147600  0.298400  0.102100  1.0  -0.0865
  C  C137  1  0.209800  0.831200  0.554200  1.0  -0.0377
  C  C138  1  0.352400  0.798400  0.397900  1.0  -0.0863
  C  C139  1  0.709800  0.331200  0.054200  1.0  -0.0377
  C  C140  1  0.852400  0.298400  0.897900  1.0  -0.0863
  C  C141  1  0.168800  0.554200  0.790200  1.0  -0.0389
  C  C142  1  0.201600  0.397900  0.647600  1.0  -0.0966
  C  C143  1  0.668800  0.054200  0.290200  1.0  -0.0389
  C  C144  1  0.701600  0.897900  0.147600  1.0  -0.0966
  C  C145  1  0.168800  0.445800  0.209800  1.0  -0.0385
  C  C146  1  0.201600  0.602100  0.352400  1.0  -0.0946
  C  C147  1  0.668800  0.945800  0.709800  1.0  -0.0385
  C  C148  1  0.701600  0.102100  0.852400  1.0  -0.0946
  C  C149  1  0.831200  0.554200  0.209800  1.0  -0.0355
  C  C150  1  0.798400  0.397900  0.352400  1.0  -0.0939
  C  C151  1  0.331200  0.054200  0.709800  1.0  -0.0355
  C  C152  1  0.298400  0.897900  0.852400  1.0  -0.0939
  C  C153  1  0.831200  0.445800  0.790200  1.0  -0.0349
  C  C154  1  0.798400  0.602100  0.647600  1.0  -0.0963
  C  C155  1  0.331200  0.945800  0.290200  1.0  -0.0349
  C  C156  1  0.298400  0.102100  0.147600  1.0  -0.0963
  C  C157  1  0.790200  0.445800  0.831200  1.0  -0.0491
  C  C158  1  0.647600  0.602100  0.798400  1.0  -0.0957
  C  C159  1  0.290200  0.945800  0.331200  1.0  -0.0491
  C  C160  1  0.147600  0.102100  0.298400  1.0  -0.0957
  C  C161  1  0.209800  0.554200  0.831200  1.0  -0.0484
  C  C162  1  0.352400  0.397900  0.798400  1.0  -0.0947
  C  C163  1  0.709800  0.054200  0.331200  1.0  -0.0484
  C  C164  1  0.852400  0.897900  0.298400  1.0  -0.0947
  C  C165  1  0.209800  0.445800  0.168800  1.0  -0.0427
  C  C166  1  0.352400  0.602100  0.201600  1.0  -0.0956
  C  C167  1  0.709800  0.945800  0.668800  1.0  -0.0427
  C  C168  1  0.852400  0.102100  0.701600  1.0  -0.0956
  C  C169  1  0.790200  0.554200  0.168800  1.0  -0.0447
  C  C170  1  0.647600  0.397900  0.201600  1.0  -0.0951
  C  C171  1  0.290200  0.054200  0.668800  1.0  -0.0447
  C  C172  1  0.147600  0.897900  0.701600  1.0  -0.0951
  C  C173  1  0.831200  0.790200  0.445800  1.0  -0.0349
  C  C174  1  0.798400  0.647600  0.602100  1.0  -0.0869
  C  C175  1  0.331200  0.290200  0.945800  1.0  -0.0349
  C  C176  1  0.298400  0.147600  0.102100  1.0  -0.0869
  C  C177  1  0.831200  0.209800  0.554200  1.0  -0.0357
  C  C178  1  0.798400  0.352400  0.397900  1.0  -0.0889
  C  C179  1  0.331200  0.709800  0.054200  1.0  -0.0357
  C  C180  1  0.298400  0.852400  0.897900  1.0  -0.0889
  C  C181  1  0.168800  0.209800  0.445800  1.0  -0.0381
  C  C182  1  0.201600  0.352400  0.602100  1.0  -0.0893
  C  C183  1  0.668800  0.709800  0.945800  1.0  -0.0381
  C  C184  1  0.701600  0.852400  0.102100  1.0  -0.0893
  C  C185  1  0.168800  0.790200  0.554200  1.0  -0.0384
  C  C186  1  0.201600  0.647600  0.397900  1.0  -0.0869
  C  C187  1  0.668800  0.290200  0.054200  1.0  -0.0384
  C  C188  1  0.701600  0.147600  0.897900  1.0  -0.0869
  C  C189  1  0.445800  0.831200  0.790200  1.0  -0.0403
  C  C190  1  0.602100  0.798400  0.647600  1.0  -0.0975
  C  C191  1  0.945800  0.331200  0.290200  1.0  -0.0403
  C  C192  1  0.102100  0.298400  0.147600  1.0  -0.0975
  C  C193  1  0.554200  0.831200  0.209800  1.0  -0.0383
  C  C194  1  0.397900  0.798400  0.352400  1.0  -0.0941
  C  C195  1  0.054200  0.331200  0.709800  1.0  -0.0383
  C  C196  1  0.897900  0.298400  0.852400  1.0  -0.0941
  C  C197  1  0.445800  0.168800  0.209800  1.0  -0.0401
  C  C198  1  0.602100  0.201600  0.352400  1.0  -0.0942
  C  C199  1  0.945800  0.668800  0.709800  1.0  -0.0401
  C  C200  1  0.102100  0.701600  0.852400  1.0  -0.0942
  C  C201  1  0.554200  0.168800  0.790200  1.0  -0.0387
  C  C202  1  0.397900  0.201600  0.647600  1.0  -0.0962
  C  C203  1  0.054200  0.668800  0.290200  1.0  -0.0387
  C  C204  1  0.897900  0.701600  0.147600  1.0  -0.0962
  C  C205  1  0.445800  0.790200  0.168800  1.0  -0.0456
  C  C206  1  0.602100  0.647600  0.201600  1.0  -0.0987
  C  C207  1  0.945800  0.290200  0.668800  1.0  -0.0456
  C  C208  1  0.102100  0.147600  0.701600  1.0  -0.0987
  C  C209  1  0.554200  0.209800  0.168800  1.0  -0.0449
  C  C210  1  0.397900  0.352400  0.201600  1.0  -0.1019
  C  C211  1  0.054200  0.709800  0.668800  1.0  -0.0449
  C  C212  1  0.897900  0.852400  0.701600  1.0  -0.1019
  C  C213  1  0.445800  0.209800  0.831200  1.0  -0.0505
  C  C214  1  0.602100  0.352400  0.798400  1.0  -0.101
  C  C215  1  0.945800  0.709800  0.331200  1.0  -0.0505
  C  C216  1  0.102100  0.852400  0.298400  1.0  -0.101
  C  C217  1  0.554200  0.790200  0.831200  1.0  -0.0489
  C  C218  1  0.397900  0.647600  0.798400  1.0  -0.0987
  C  C219  1  0.054200  0.290200  0.331200  1.0  -0.0489
  C  C220  1  0.897900  0.147600  0.298400  1.0  -0.0987
  C  C221  1  0.790200  0.831200  0.554200  1.0  -0.0385
  C  C222  1  0.647600  0.798400  0.397900  1.0  -0.0843
  C  C223  1  0.290200  0.331200  0.054200  1.0  -0.0385
  C  C224  1  0.147600  0.298400  0.897900  1.0  -0.0843
  C  C225  1  0.209800  0.831200  0.445800  1.0  -0.0368
  C  C226  1  0.352400  0.798400  0.602100  1.0  -0.0852
  C  C227  1  0.709800  0.331200  0.945800  1.0  -0.0368
  C  C228  1  0.852400  0.298400  0.102100  1.0  -0.0852
  C  C229  1  0.209800  0.168800  0.554200  1.0  -0.0379
  C  C230  1  0.352400  0.201600  0.397900  1.0  -0.0846
  C  C231  1  0.709800  0.668800  0.054200  1.0  -0.0379
  C  C232  1  0.852400  0.701600  0.897900  1.0  -0.0846
  C  C233  1  0.790200  0.168800  0.445800  1.0  -0.0377
  C  C234  1  0.647600  0.201600  0.602100  1.0  -0.0851
  C  C235  1  0.290200  0.668800  0.945800  1.0  -0.0377
  C  C236  1  0.147600  0.701600  0.102100  1.0  -0.0851
  C  C237  1  0.831200  0.445800  0.209800  1.0  -0.0344
  C  C238  1  0.798400  0.602100  0.352400  1.0  -0.0928
  C  C239  1  0.331200  0.945800  0.709800  1.0  -0.0344
  C  C240  1  0.298400  0.102100  0.852400  1.0  -0.0928
  C  C241  1  0.831200  0.554200  0.790200  1.0  -0.0361
  C  C242  1  0.798400  0.397900  0.647600  1.0  -0.0944
  C  C243  1  0.331200  0.054200  0.290200  1.0  -0.0361
  C  C244  1  0.298400  0.897900  0.147600  1.0  -0.0944
  C  C245  1  0.168800  0.445800  0.790200  1.0  -0.0387
  C  C246  1  0.201600  0.602100  0.647600  1.0  -0.0956
  C  C247  1  0.668800  0.945800  0.290200  1.0  -0.0387
  C  C248  1  0.701600  0.102100  0.147600  1.0  -0.0956
  C  C249  1  0.168800  0.554200  0.209800  1.0  -0.0385
  C  C250  1  0.201600  0.397900  0.352400  1.0  -0.0931
  C  C251  1  0.668800  0.054200  0.709800  1.0  -0.0385
  C  C252  1  0.701600  0.897900  0.852400  1.0  -0.0931
  C  C253  1  0.229300  0.500000  0.229300  1.0  0.3584
  C  C254  1  0.729300  0.000000  0.729300  1.0  0.3584
  C  C255  1  0.770700  0.500000  0.229300  1.0  0.3576
  C  C256  1  0.270700  0.000000  0.729300  1.0  0.3576
  C  C257  1  0.770700  0.500000  0.770700  1.0  0.3636
  C  C258  1  0.270700  0.000000  0.270700  1.0  0.3636
  C  C259  1  0.229300  0.500000  0.770700  1.0  0.3627
  C  C260  1  0.729300  0.000000  0.270700  1.0  0.3627
  C  C261  1  0.229300  0.229300  0.500000  1.0  0.3589
  C  C262  1  0.729300  0.729300  0.000000  1.0  0.3589
  C  C263  1  0.229300  0.770700  0.500000  1.0  0.3604
  C  C264  1  0.729300  0.270700  0.000000  1.0  0.3604
  C  C265  1  0.770700  0.770700  0.500000  1.0  0.3605
  C  C266  1  0.270700  0.270700  0.000000  1.0  0.3605
  C  C267  1  0.770700  0.229300  0.500000  1.0  0.3596
  C  C268  1  0.270700  0.729300  0.000000  1.0  0.3596
  C  C269  1  0.500000  0.229300  0.229300  1.0  0.352
  C  C270  1  0.000000  0.729300  0.729300  1.0  0.352
  C  C271  1  0.500000  0.229300  0.770700  1.0  0.3573
  C  C272  1  0.000000  0.729300  0.270700  1.0  0.3573
  C  C273  1  0.500000  0.770700  0.770700  1.0  0.3586
  C  C274  1  0.000000  0.270700  0.270700  1.0  0.3586
  C  C275  1  0.500000  0.770700  0.229300  1.0  0.3529
  C  C276  1  0.000000  0.270700  0.729300  1.0  0.3529
  C  C277  1  0.409100  0.409100  0.138800  1.0  0.4367
  C  C278  1  0.909100  0.909100  0.638800  1.0  0.4367
  C  C279  1  0.590900  0.590900  0.138800  1.0  0.4375
  C  C280  1  0.090900  0.090900  0.638800  1.0  0.4375
  C  C281  1  0.590900  0.409100  0.861200  1.0  0.4345
  C  C282  1  0.090900  0.909100  0.361200  1.0  0.4345
  C  C283  1  0.409100  0.590900  0.861200  1.0  0.4338
  C  C284  1  0.909100  0.090900  0.361200  1.0  0.4338
  C  C285  1  0.138800  0.409100  0.409100  1.0  0.436
  C  C286  1  0.638800  0.909100  0.909100  1.0  0.436
  C  C287  1  0.138800  0.590900  0.590900  1.0  0.4363
  C  C288  1  0.638800  0.090900  0.090900  1.0  0.4363
  C  C289  1  0.861200  0.590900  0.409100  1.0  0.4347
  C  C290  1  0.361200  0.090900  0.909100  1.0  0.4347
  C  C291  1  0.861200  0.409100  0.590900  1.0  0.4365
  C  C292  1  0.361200  0.909100  0.090900  1.0  0.4365
  C  C293  1  0.409100  0.138800  0.409100  1.0  0.4347
  C  C294  1  0.909100  0.638800  0.909100  1.0  0.4347
  C  C295  1  0.590900  0.138800  0.590900  1.0  0.4371
  C  C296  1  0.090900  0.638800  0.090900  1.0  0.4371
  C  C297  1  0.409100  0.861200  0.590900  1.0  0.4362
  C  C298  1  0.909100  0.361200  0.090900  1.0  0.4362
  C  C299  1  0.590900  0.861200  0.409100  1.0  0.4362
  C  C300  1  0.090900  0.361200  0.909100  1.0  0.4362
  C  C301  1  0.409100  0.409100  0.861200  1.0  0.4335
  C  C302  1  0.909100  0.909100  0.361200  1.0  0.4335
  C  C303  1  0.590900  0.590900  0.861200  1.0  0.4337
  C  C304  1  0.090900  0.090900  0.361200  1.0  0.4337
  C  C305  1  0.409100  0.590900  0.138800  1.0  0.4369
  C  C306  1  0.909100  0.090900  0.638800  1.0  0.4369
  C  C307  1  0.590900  0.409100  0.138800  1.0  0.4383
  C  C308  1  0.090900  0.909100  0.638800  1.0  0.4383
  C  C309  1  0.409100  0.138800  0.590900  1.0  0.4371
  C  C310  1  0.909100  0.638800  0.090900  1.0  0.4371
  C  C311  1  0.590900  0.138800  0.409100  1.0  0.4345
  C  C312  1  0.090900  0.638800  0.909100  1.0  0.4345
  C  C313  1  0.590900  0.861200  0.590900  1.0  0.4374
  C  C314  1  0.090900  0.361200  0.090900  1.0  0.4374
  C  C315  1  0.409100  0.861200  0.409100  1.0  0.4349
  C  C316  1  0.909100  0.361200  0.909100  1.0  0.4349
  C  C317  1  0.138800  0.409100  0.590900  1.0  0.4382
  C  C318  1  0.638800  0.909100  0.090900  1.0  0.4382
  C  C319  1  0.138800  0.590900  0.409100  1.0  0.4353
  C  C320  1  0.638800  0.090900  0.909100  1.0  0.4353
  C  C321  1  0.861200  0.409100  0.409100  1.0  0.4345
  C  C322  1  0.361200  0.909100  0.909100  1.0  0.4345
  C  C323  1  0.861200  0.590900  0.590900  1.0  0.4357
  C  C324  1  0.361200  0.090900  0.090900  1.0  0.4357
  N  N325  1  0.363200  0.430700  0.147800  1.0  -0.3835
  N  N326  1  0.863200  0.930700  0.647800  1.0  -0.3835
  N  N327  1  0.636800  0.569300  0.147800  1.0  -0.3843
  N  N328  1  0.136800  0.069300  0.647800  1.0  -0.3843
  N  N329  1  0.636800  0.430700  0.852200  1.0  -0.3836
  N  N330  1  0.136800  0.930700  0.352200  1.0  -0.3836
  N  N331  1  0.363200  0.569300  0.852200  1.0  -0.3838
  N  N332  1  0.863200  0.069300  0.352200  1.0  -0.3838
  N  N333  1  0.147800  0.363200  0.430700  1.0  -0.3834
  N  N334  1  0.647800  0.863200  0.930700  1.0  -0.3834
  N  N335  1  0.147800  0.636800  0.569300  1.0  -0.3835
  N  N336  1  0.647800  0.136800  0.069300  1.0  -0.3835
  N  N337  1  0.852200  0.636800  0.430700  1.0  -0.382
  N  N338  1  0.352200  0.136800  0.930700  1.0  -0.382
  N  N339  1  0.852200  0.363200  0.569300  1.0  -0.382
  N  N340  1  0.352200  0.863200  0.069300  1.0  -0.382
  N  N341  1  0.430700  0.147800  0.363200  1.0  -0.3828
  N  N342  1  0.930700  0.647800  0.863200  1.0  -0.3828
  N  N343  1  0.569300  0.147800  0.636800  1.0  -0.3841
  N  N344  1  0.069300  0.647800  0.136800  1.0  -0.3841
  N  N345  1  0.430700  0.852200  0.636800  1.0  -0.3844
  N  N346  1  0.930700  0.352200  0.136800  1.0  -0.3844
  N  N347  1  0.569300  0.852200  0.363200  1.0  -0.3815
  N  N348  1  0.069300  0.352200  0.863200  1.0  -0.3815
  N  N349  1  0.430700  0.363200  0.852200  1.0  -0.3798
  N  N350  1  0.930700  0.863200  0.352200  1.0  -0.3798
  N  N351  1  0.569300  0.636800  0.852200  1.0  -0.3793
  N  N352  1  0.069300  0.136800  0.352200  1.0  -0.3793
  N  N353  1  0.430700  0.636800  0.147800  1.0  -0.38
  N  N354  1  0.930700  0.136800  0.647800  1.0  -0.38
  N  N355  1  0.569300  0.363200  0.147800  1.0  -0.3793
  N  N356  1  0.069300  0.863200  0.647800  1.0  -0.3793
  N  N357  1  0.363200  0.147800  0.569300  1.0  -0.3818
  N  N358  1  0.863200  0.647800  0.069300  1.0  -0.3818
  N  N359  1  0.636800  0.147800  0.430700  1.0  -0.3823
  N  N360  1  0.136800  0.647800  0.930700  1.0  -0.3823
  N  N361  1  0.636800  0.852200  0.569300  1.0  -0.3819
  N  N362  1  0.136800  0.352200  0.069300  1.0  -0.3819
  N  N363  1  0.363200  0.852200  0.430700  1.0  -0.3822
  N  N364  1  0.863200  0.352200  0.930700  1.0  -0.3822
  N  N365  1  0.147800  0.430700  0.636800  1.0  -0.3823
  N  N366  1  0.647800  0.930700  0.136800  1.0  -0.3823
  N  N367  1  0.147800  0.569300  0.363200  1.0  -0.3803
  N  N368  1  0.647800  0.069300  0.863200  1.0  -0.3803
  N  N369  1  0.852200  0.430700  0.363200  1.0  -0.3786
  N  N370  1  0.352200  0.930700  0.863200  1.0  -0.3786
  N  N371  1  0.852200  0.569300  0.636800  1.0  -0.3814
  N  N372  1  0.352200  0.069300  0.136800  1.0  -0.3814
  N  N373  1  0.636800  0.569300  0.852200  1.0  -0.3819
  N  N374  1  0.136800  0.069300  0.352200  1.0  -0.3819
  N  N375  1  0.363200  0.430700  0.852200  1.0  -0.3812
  N  N376  1  0.863200  0.930700  0.352200  1.0  -0.3812
  N  N377  1  0.363200  0.569300  0.147800  1.0  -0.3816
  N  N378  1  0.863200  0.069300  0.647800  1.0  -0.3816
  N  N379  1  0.636800  0.430700  0.147800  1.0  -0.3822
  N  N380  1  0.136800  0.930700  0.647800  1.0  -0.3822
  N  N381  1  0.852200  0.636800  0.569300  1.0  -0.3795
  N  N382  1  0.352200  0.136800  0.069300  1.0  -0.3795
  N  N383  1  0.852200  0.363200  0.430700  1.0  -0.3801
  N  N384  1  0.352200  0.863200  0.930700  1.0  -0.3801
  N  N385  1  0.147800  0.363200  0.569300  1.0  -0.3811
  N  N386  1  0.647800  0.863200  0.069300  1.0  -0.3811
  N  N387  1  0.147800  0.636800  0.430700  1.0  -0.3814
  N  N388  1  0.647800  0.136800  0.930700  1.0  -0.3814
  N  N389  1  0.569300  0.852200  0.636800  1.0  -0.3818
  N  N390  1  0.069300  0.352200  0.136800  1.0  -0.3818
  N  N391  1  0.430700  0.852200  0.363200  1.0  -0.3804
  N  N392  1  0.930700  0.352200  0.863200  1.0  -0.3804
  N  N393  1  0.569300  0.147800  0.363200  1.0  -0.3798
  N  N394  1  0.069300  0.647800  0.863200  1.0  -0.3798
  N  N395  1  0.430700  0.147800  0.636800  1.0  -0.3825
  N  N396  1  0.930700  0.647800  0.136800  1.0  -0.3825
  N  N397  1  0.569300  0.636800  0.147800  1.0  -0.3773
  N  N398  1  0.069300  0.136800  0.647800  1.0  -0.3773
  N  N399  1  0.430700  0.363200  0.147800  1.0  -0.3774
  N  N400  1  0.930700  0.863200  0.647800  1.0  -0.3774
  N  N401  1  0.569300  0.363200  0.852200  1.0  -0.3774
  N  N402  1  0.069300  0.863200  0.352200  1.0  -0.3774
  N  N403  1  0.430700  0.636800  0.852200  1.0  -0.3776
  N  N404  1  0.930700  0.136800  0.352200  1.0  -0.3776
  N  N405  1  0.636800  0.852200  0.430700  1.0  -0.3797
  N  N406  1  0.136800  0.352200  0.930700  1.0  -0.3797
  N  N407  1  0.363200  0.852200  0.569300  1.0  -0.3791
  N  N408  1  0.863200  0.352200  0.069300  1.0  -0.3791
  N  N409  1  0.363200  0.147800  0.430700  1.0  -0.3796
  N  N410  1  0.863200  0.647800  0.930700  1.0  -0.3796
  N  N411  1  0.636800  0.147800  0.569300  1.0  -0.3804
  N  N412  1  0.136800  0.647800  0.069300  1.0  -0.3804
  N  N413  1  0.852200  0.569300  0.363200  1.0  -0.3765
  N  N414  1  0.352200  0.069300  0.863200  1.0  -0.3765
  N  N415  1  0.852200  0.430700  0.636800  1.0  -0.3785
  N  N416  1  0.352200  0.930700  0.136800  1.0  -0.3785
  N  N417  1  0.147800  0.569300  0.636800  1.0  -0.3804
  N  N418  1  0.647800  0.069300  0.136800  1.0  -0.3804
  N  N419  1  0.147800  0.430700  0.363200  1.0  -0.378
  N  N420  1  0.647800  0.930700  0.863200  1.0  -0.378
  N  N421  1  0.249300  0.500000  0.184000  1.0  -0.0506
  N  N422  1  0.749300  0.000000  0.684000  1.0  -0.0506
  N  N423  1  0.750700  0.500000  0.184000  1.0  -0.0473
  N  N424  1  0.250700  0.000000  0.684000  1.0  -0.0473
  N  N425  1  0.750700  0.500000  0.816000  1.0  -0.0461
  N  N426  1  0.250700  0.000000  0.316000  1.0  -0.0461
  N  N427  1  0.249300  0.500000  0.816000  1.0  -0.0485
  N  N428  1  0.749300  0.000000  0.316000  1.0  -0.0485
  N  N429  1  0.184000  0.249300  0.500000  1.0  -0.0467
  N  N430  1  0.684000  0.749300  0.000000  1.0  -0.0467
  N  N431  1  0.184000  0.750700  0.500000  1.0  -0.0462
  N  N432  1  0.684000  0.250700  0.000000  1.0  -0.0462
  N  N433  1  0.816000  0.750700  0.500000  1.0  -0.0488
  N  N434  1  0.316000  0.250700  0.000000  1.0  -0.0488
  N  N435  1  0.816000  0.249300  0.500000  1.0  -0.0494
  N  N436  1  0.316000  0.749300  0.000000  1.0  -0.0494
  N  N437  1  0.500000  0.184000  0.249300  1.0  -0.0417
  N  N438  1  0.000000  0.684000  0.749300  1.0  -0.0417
  N  N439  1  0.500000  0.184000  0.750700  1.0  -0.0424
  N  N440  1  0.000000  0.684000  0.250700  1.0  -0.0424
  N  N441  1  0.500000  0.816000  0.750700  1.0  -0.0428
  N  N442  1  0.000000  0.316000  0.250700  1.0  -0.0428
  N  N443  1  0.500000  0.816000  0.249300  1.0  -0.0426
  N  N444  1  0.000000  0.316000  0.749300  1.0  -0.0426
  N  N445  1  0.500000  0.249300  0.816000  1.0  -0.0414
  N  N446  1  0.000000  0.749300  0.316000  1.0  -0.0414
  N  N447  1  0.500000  0.750700  0.816000  1.0  -0.0404
  N  N448  1  0.000000  0.250700  0.316000  1.0  -0.0404
  N  N449  1  0.500000  0.750700  0.184000  1.0  -0.0428
  N  N450  1  0.000000  0.250700  0.684000  1.0  -0.0428
  N  N451  1  0.500000  0.249300  0.184000  1.0  -0.0439
  N  N452  1  0.000000  0.749300  0.684000  1.0  -0.0439
  N  N453  1  0.249300  0.184000  0.500000  1.0  -0.0494
  N  N454  1  0.749300  0.684000  0.000000  1.0  -0.0494
  N  N455  1  0.750700  0.184000  0.500000  1.0  -0.0469
  N  N456  1  0.250700  0.684000  0.000000  1.0  -0.0469
  N  N457  1  0.750700  0.816000  0.500000  1.0  -0.047
  N  N458  1  0.250700  0.316000  0.000000  1.0  -0.047
  N  N459  1  0.249300  0.816000  0.500000  1.0  -0.0496
  N  N460  1  0.749300  0.316000  0.000000  1.0  -0.0496
  N  N461  1  0.184000  0.500000  0.750700  1.0  -0.0464
  N  N462  1  0.684000  0.000000  0.250700  1.0  -0.0464
  N  N463  1  0.184000  0.500000  0.249300  1.0  -0.0461
  N  N464  1  0.684000  0.000000  0.749300  1.0  -0.0461
  N  N465  1  0.816000  0.500000  0.249300  1.0  -0.0488
  N  N466  1  0.316000  0.000000  0.749300  1.0  -0.0488
  N  N467  1  0.816000  0.500000  0.750700  1.0  -0.0493
  N  N468  1  0.316000  0.000000  0.250700  1.0  -0.0493
  O  O469  1  0.293000  0.500000  0.059100  1.0  -0.8378
  O  O470  1  0.793000  0.000000  0.559100  1.0  -0.8378
  O  O471  1  0.707000  0.500000  0.059100  1.0  -0.8391
  O  O472  1  0.207000  0.000000  0.559100  1.0  -0.8391
  O  O473  1  0.707000  0.500000  0.940900  1.0  -0.8395
  O  O474  1  0.207000  0.000000  0.440900  1.0  -0.8395
  O  O475  1  0.293000  0.500000  0.940900  1.0  -0.8384
  O  O476  1  0.793000  0.000000  0.440900  1.0  -0.8384
  O  O477  1  0.059100  0.293000  0.500000  1.0  -0.8424
  O  O478  1  0.559100  0.793000  0.000000  1.0  -0.8424
  O  O479  1  0.059100  0.707000  0.500000  1.0  -0.8422
  O  O480  1  0.559100  0.207000  0.000000  1.0  -0.8422
  O  O481  1  0.940900  0.707000  0.500000  1.0  -0.8415
  O  O482  1  0.440900  0.207000  0.000000  1.0  -0.8415
  O  O483  1  0.940900  0.293000  0.500000  1.0  -0.8416
  O  O484  1  0.440900  0.793000  0.000000  1.0  -0.8416
  O  O485  1  0.500000  0.059100  0.293000  1.0  -0.8392
  O  O486  1  0.000000  0.559100  0.793000  1.0  -0.8392
  O  O487  1  0.500000  0.059100  0.707000  1.0  -0.8399
  O  O488  1  0.000000  0.559100  0.207000  1.0  -0.8399
  O  O489  1  0.500000  0.940900  0.707000  1.0  -0.8404
  O  O490  1  0.000000  0.440900  0.207000  1.0  -0.8404
  O  O491  1  0.500000  0.940900  0.293000  1.0  -0.8399
  O  O492  1  0.000000  0.440900  0.793000  1.0  -0.8399
  O  O493  1  0.500000  0.293000  0.940900  1.0  -0.8412
  O  O494  1  0.000000  0.793000  0.440900  1.0  -0.8412
  O  O495  1  0.500000  0.707000  0.940900  1.0  -0.841
  O  O496  1  0.000000  0.207000  0.440900  1.0  -0.841
  O  O497  1  0.500000  0.707000  0.059100  1.0  -0.8405
  O  O498  1  0.000000  0.207000  0.559100  1.0  -0.8405
  O  O499  1  0.500000  0.293000  0.059100  1.0  -0.8408
  O  O500  1  0.000000  0.793000  0.559100  1.0  -0.8408
  O  O501  1  0.293000  0.059100  0.500000  1.0  -0.8377
  O  O502  1  0.793000  0.559100  0.000000  1.0  -0.8377
  O  O503  1  0.707000  0.059100  0.500000  1.0  -0.8392
  O  O504  1  0.207000  0.559100  0.000000  1.0  -0.8392
  O  O505  1  0.707000  0.940900  0.500000  1.0  -0.8394
  O  O506  1  0.207000  0.440900  0.000000  1.0  -0.8394
  O  O507  1  0.293000  0.940900  0.500000  1.0  -0.838
  O  O508  1  0.793000  0.440900  0.000000  1.0  -0.838
  O  O509  1  0.059100  0.500000  0.707000  1.0  -0.8413
  O  O510  1  0.559100  0.000000  0.207000  1.0  -0.8413
  O  O511  1  0.059100  0.500000  0.293000  1.0  -0.8409
  O  O512  1  0.559100  0.000000  0.793000  1.0  -0.8409
  O  O513  1  0.940900  0.500000  0.293000  1.0  -0.8402
  O  O514  1  0.440900  0.000000  0.793000  1.0  -0.8402
  O  O515  1  0.940900  0.500000  0.707000  1.0  -0.8409
  O  O516  1  0.440900  0.000000  0.207000  1.0  -0.8409
