# generated using pymatgen
data_CdH18C24N3O4
_symmetry_space_group_name_H-M   'P 1'
_cell_length_a   11.98690000
_cell_length_b   17.71700000
_cell_length_c   12.64140000
_cell_angle_alpha   90.00000000
_cell_angle_beta   103.65000000
_cell_angle_gamma   90.00000000
_symmetry_Int_Tables_number   1
_chemical_formula_structural   CdH18C24N3O4
_chemical_formula_sum   'Cd4 H72 C96 N12 O16'
_cell_volume   2608.85064760
_cell_formula_units_Z   4
loop_
 _symmetry_equiv_pos_site_id
 _symmetry_equiv_pos_as_xyz
  1  'x, y, z'
loop_
 _atom_site_type_symbol
 _atom_site_label
 _atom_site_symmetry_multiplicity
 _atom_site_fract_x
 _atom_site_fract_y
 _atom_site_fract_z
 _atom_site_occupancy
 _atom_site_charge
  Cd  Cd1  1  0.766250  0.435240  0.955780  1.0  0.9922
  Cd  Cd2  1  0.266250  0.064760  0.455780  1.0  0.9922
  Cd  Cd3  1  0.733750  0.935240  0.544220  1.0  0.9924
  Cd  Cd4  1  0.233750  0.564760  0.044220  1.0  0.9926
  H  H5  1  0.474300  0.557500  0.585800  1.0  0.0962
  H  H6  1  0.376000  0.455000  0.830300  1.0  0.0954
  H  H7  1  0.186100  0.480200  0.745000  1.0  0.1014
  H  H8  1  0.144500  0.532900  0.573900  1.0  0.1025
  H  H9  1  0.199100  0.574200  0.419500  1.0  0.1002
  H  H10  1  0.327900  0.568300  0.413100  1.0  0.0961
  H  H11  1  0.202300  0.685900  0.584100  1.0  0.1
  H  H12  1  0.210500  0.815500  0.590900  1.0  0.0949
  H  H13  1  0.388300  0.816400  0.361600  1.0  0.0971
  H  H14  1  0.380100  0.685100  0.354500  1.0  0.1042
  H  H15  1  0.811400  0.262700  0.896600  1.0  0.072
  H  H16  1  0.913900  0.188900  0.805300  1.0  0.1176
  H  H17  1  0.038600  0.377800  0.703400  1.0  0.1001
  H  H18  1  0.934600  0.446300  0.797400  1.0  0.0699
  H  H19  1  0.034300  0.081400  0.529600  1.0  0.0617
  H  H20  1  0.936400  0.147400  0.630700  1.0  0.0914
  H  H21  1  0.199500  0.291900  0.705900  1.0  0.1025
  H  H22  1  0.294400  0.218900  0.607100  1.0  0.0723
  H  H23  1  0.974300  0.942500  0.085800  1.0  0.0961
  H  H24  1  0.876000  0.045000  0.330300  1.0  0.095
  H  H25  1  0.686100  0.019800  0.245000  1.0  0.1013
  H  H26  1  0.644500  0.967100  0.073900  1.0  0.1026
  H  H27  1  0.699100  0.925800  0.919500  1.0  0.1005
  H  H28  1  0.827900  0.931700  0.913100  1.0  0.0967
  H  H29  1  0.702300  0.814100  0.084100  1.0  0.0998
  H  H30  1  0.710500  0.684500  0.090900  1.0  0.095
  H  H31  1  0.888300  0.683600  0.861600  1.0  0.0968
  H  H32  1  0.880100  0.814900  0.854500  1.0  0.1038
  H  H33  1  0.311400  0.237300  0.396600  1.0  0.0717
  H  H34  1  0.413900  0.311100  0.305300  1.0  0.1169
  H  H35  1  0.538600  0.122200  0.203400  1.0  0.0999
  H  H36  1  0.434600  0.053700  0.297400  1.0  0.0728
  H  H37  1  0.534300  0.418600  0.029600  1.0  0.0618
  H  H38  1  0.436400  0.352600  0.130700  1.0  0.0916
  H  H39  1  0.699500  0.208100  0.205900  1.0  0.1018
  H  H40  1  0.794400  0.281100  0.107100  1.0  0.0724
  H  H41  1  0.025700  0.057500  0.914200  1.0  0.0953
  H  H42  1  0.124000  0.955000  0.669700  1.0  0.0953
  H  H43  1  0.313900  0.980200  0.755000  1.0  0.1012
  H  H44  1  0.355500  0.032900  0.926100  1.0  0.1014
  H  H45  1  0.300900  0.074200  0.080500  1.0  0.0996
  H  H46  1  0.172100  0.068300  0.086900  1.0  0.0964
  H  H47  1  0.297700  0.185900  0.915900  1.0  0.1006
  H  H48  1  0.289500  0.315500  0.909100  1.0  0.095
  H  H49  1  0.111700  0.316400  0.138400  1.0  0.0966
  H  H50  1  0.119900  0.185100  0.145500  1.0  0.1052
  H  H51  1  0.688600  0.762700  0.603400  1.0  0.0718
  H  H52  1  0.586100  0.688900  0.694700  1.0  0.1174
  H  H53  1  0.461400  0.877800  0.796600  1.0  0.1005
  H  H54  1  0.565400  0.946300  0.702600  1.0  0.07
  H  H55  1  0.465700  0.581400  0.970400  1.0  0.0618
  H  H56  1  0.563600  0.647400  0.869300  1.0  0.0916
  H  H57  1  0.300500  0.791900  0.794100  1.0  0.103
  H  H58  1  0.205600  0.718900  0.892900  1.0  0.0716
  H  H59  1  0.525700  0.442500  0.414200  1.0  0.0952
  H  H60  1  0.624000  0.545000  0.169700  1.0  0.0953
  H  H61  1  0.813900  0.519800  0.255000  1.0  0.101
  H  H62  1  0.855500  0.467100  0.426100  1.0  0.1017
  H  H63  1  0.800900  0.425800  0.580500  1.0  0.0997
  H  H64  1  0.672100  0.431700  0.586900  1.0  0.0964
  H  H65  1  0.797700  0.314100  0.415900  1.0  0.1004
  H  H66  1  0.789500  0.184500  0.409100  1.0  0.0952
  H  H67  1  0.611700  0.183600  0.638400  1.0  0.097
  H  H68  1  0.619900  0.314900  0.645500  1.0  0.1045
  H  H69  1  0.188600  0.737300  0.103400  1.0  0.0715
  H  H70  1  0.086100  0.811100  0.194700  1.0  0.1174
  H  H71  1  0.961400  0.622200  0.296600  1.0  0.1004
  H  H72  1  0.065400  0.553700  0.202600  1.0  0.0722
  H  H73  1  0.965700  0.918600  0.470400  1.0  0.0617
  H  H74  1  0.063600  0.852600  0.369300  1.0  0.0916
  H  H75  1  0.800500  0.708100  0.294100  1.0  0.1028
  H  H76  1  0.705600  0.781100  0.392900  1.0  0.0717
  C  C77  1  0.416500  0.539200  0.616700  1.0  0.0513
  C  C78  1  0.445000  0.502600  0.714900  1.0  -0.1855
  C  C79  1  0.358100  0.479500  0.763400  1.0  -0.0489
  C  C80  1  0.244800  0.493200  0.711800  1.0  -0.1365
  C  C81  1  0.220600  0.526100  0.611000  1.0  0.0335
  C  C82  1  0.571200  0.487800  0.766300  1.0  0.6493
  C  C83  1  0.277200  0.586700  0.456900  1.0  -0.1055
  C  C84  1  0.289200  0.672400  0.468400  1.0  0.0147
  C  C85  1  0.239800  0.711900  0.538700  1.0  -0.119
  C  C86  1  0.245100  0.789500  0.543200  1.0  -0.0574
  C  C87  1  0.301300  0.828700  0.477200  1.0  -0.1625
  C  C88  1  0.350800  0.790200  0.406800  1.0  -0.0459
  C  C89  1  0.345600  0.711200  0.402100  1.0  -0.1404
  C  C90  1  0.297700  0.914200  0.476200  1.0  0.651
  C  C91  1  0.858500  0.286100  0.857500  1.0  0.1582
  C  C92  1  0.919400  0.241200  0.802500  1.0  -0.1965
  C  C93  1  0.989400  0.275100  0.742600  1.0  0.0905
  C  C94  1  0.993000  0.353000  0.742600  1.0  -0.2011
  C  C95  1  0.930500  0.393900  0.799400  1.0  0.161
  C  C96  1  0.068800  0.123900  0.566600  1.0  0.1714
  C  C97  1  0.008800  0.163900  0.626100  1.0  -0.2055
  C  C98  1  0.054400  0.229200  0.680500  1.0  0.0977
  C  C99  1  0.164300  0.248800  0.671300  1.0  -0.2054
  C  C100  1  0.220800  0.204800  0.611200  1.0  0.1494
  C  C101  1  0.916500  0.960800  0.116700  1.0  0.0518
  C  C102  1  0.945000  0.997400  0.214900  1.0  -0.1865
  C  C103  1  0.858100  0.020500  0.263400  1.0  -0.0499
  C  C104  1  0.744800  0.006800  0.211800  1.0  -0.1365
  C  C105  1  0.720600  0.973900  0.111000  1.0  0.0325
  C  C106  1  0.071200  0.012200  0.266300  1.0  0.6487
  C  C107  1  0.777200  0.913300  0.956900  1.0  -0.1056
  C  C108  1  0.789200  0.827600  0.968400  1.0  0.0144
  C  C109  1  0.739800  0.788100  0.038700  1.0  -0.1185
  C  C110  1  0.745100  0.710500  0.043200  1.0  -0.0575
  C  C111  1  0.801300  0.671300  0.977200  1.0  -0.1621
  C  C112  1  0.850800  0.709800  0.906800  1.0  -0.0464
  C  C113  1  0.845600  0.788800  0.902100  1.0  -0.1395
  C  C114  1  0.797700  0.585800  0.976200  1.0  0.6506
  C  C115  1  0.358500  0.213900  0.357500  1.0  0.1585
  C  C116  1  0.419400  0.258800  0.302500  1.0  -0.198
  C  C117  1  0.489400  0.224900  0.242600  1.0  0.0905
  C  C118  1  0.493000  0.147000  0.242600  1.0  -0.2015
  C  C119  1  0.430500  0.106100  0.299400  1.0  0.1608
  C  C120  1  0.568800  0.376100  0.066600  1.0  0.171
  C  C121  1  0.508800  0.336100  0.126100  1.0  -0.2054
  C  C122  1  0.554400  0.270800  0.180500  1.0  0.0975
  C  C123  1  0.664300  0.251200  0.171300  1.0  -0.2054
  C  C124  1  0.720800  0.295200  0.111200  1.0  0.1499
  C  C125  1  0.083500  0.039200  0.883300  1.0  0.0516
  C  C126  1  0.055000  0.002600  0.785100  1.0  -0.1875
  C  C127  1  0.141900  0.979500  0.736600  1.0  -0.0492
  C  C128  1  0.255200  0.993200  0.788200  1.0  -0.1356
  C  C129  1  0.279400  0.026100  0.889000  1.0  0.033
  C  C130  1  0.928800  0.987800  0.733700  1.0  0.6473
  C  C131  1  0.222800  0.086700  0.043100  1.0  -0.1054
  C  C132  1  0.210800  0.172400  0.031600  1.0  0.0148
  C  C133  1  0.260200  0.211900  0.961300  1.0  -0.1221
  C  C134  1  0.254900  0.289500  0.956800  1.0  -0.0578
  C  C135  1  0.198700  0.328700  0.022800  1.0  -0.1632
  C  C136  1  0.149200  0.290200  0.093200  1.0  -0.0444
  C  C137  1  0.154400  0.211200  0.097900  1.0  -0.1379
  C  C138  1  0.202300  0.414200  0.023800  1.0  0.6512
  C  C139  1  0.641500  0.786100  0.642500  1.0  0.1592
  C  C140  1  0.580600  0.741200  0.697500  1.0  -0.1976
  C  C141  1  0.510600  0.775100  0.757400  1.0  0.0903
  C  C142  1  0.507000  0.853000  0.757400  1.0  -0.2011
  C  C143  1  0.569500  0.893900  0.700600  1.0  0.1608
  C  C144  1  0.431200  0.623900  0.933400  1.0  0.1711
  C  C145  1  0.491200  0.663900  0.873900  1.0  -0.2055
  C  C146  1  0.445600  0.729200  0.819500  1.0  0.0975
  C  C147  1  0.335700  0.748800  0.828700  1.0  -0.2068
  C  C148  1  0.279200  0.704800  0.888800  1.0  0.1481
  C  C149  1  0.583500  0.460800  0.383300  1.0  0.0512
  C  C150  1  0.555000  0.497400  0.285100  1.0  -0.187
  C  C151  1  0.641900  0.520500  0.236600  1.0  -0.0491
  C  C152  1  0.755200  0.506800  0.288200  1.0  -0.136
  C  C153  1  0.779400  0.473900  0.389000  1.0  0.0335
  C  C154  1  0.428800  0.512200  0.233700  1.0  0.6468
  C  C155  1  0.722800  0.413300  0.543100  1.0  -0.1037
  C  C156  1  0.710800  0.327600  0.531600  1.0  0.0146
  C  C157  1  0.760200  0.288100  0.461300  1.0  -0.1221
  C  C158  1  0.754900  0.210500  0.456800  1.0  -0.058
  C  C159  1  0.698700  0.171300  0.522800  1.0  -0.163
  C  C160  1  0.649200  0.209800  0.593200  1.0  -0.0441
  C  C161  1  0.654400  0.288800  0.597900  1.0  -0.1371
  C  C162  1  0.702300  0.085800  0.523800  1.0  0.6493
  C  C163  1  0.141500  0.713900  0.142500  1.0  0.1595
  C  C164  1  0.080600  0.758800  0.197500  1.0  -0.1988
  C  C165  1  0.010600  0.724900  0.257400  1.0  0.0902
  C  C166  1  0.007000  0.647000  0.257400  1.0  -0.2014
  C  C167  1  0.069500  0.606100  0.200600  1.0  0.1603
  C  C168  1  0.931200  0.876100  0.433400  1.0  0.1716
  C  C169  1  0.991200  0.836100  0.373900  1.0  -0.2051
  C  C170  1  0.945600  0.770800  0.319500  1.0  0.0972
  C  C171  1  0.835700  0.751200  0.328700  1.0  -0.2057
  C  C172  1  0.779200  0.795200  0.388800  1.0  0.1488
  N  N173  1  0.305800  0.549000  0.564500  1.0  0.036
  N  N174  1  0.863500  0.362100  0.857900  1.0  -0.3409
  N  N175  1  0.174900  0.142200  0.557900  1.0  -0.349
  N  N176  1  0.805800  0.951000  0.064500  1.0  0.0356
  N  N177  1  0.363500  0.137900  0.357900  1.0  -0.3408
  N  N178  1  0.674900  0.357800  0.057900  1.0  -0.3478
  N  N179  1  0.194200  0.049000  0.935500  1.0  0.0357
  N  N180  1  0.636500  0.862100  0.642100  1.0  -0.3401
  N  N181  1  0.325100  0.642200  0.942100  1.0  -0.3469
  N  N182  1  0.694200  0.451000  0.435500  1.0  0.0352
  N  N183  1  0.136500  0.637900  0.142100  1.0  -0.3428
  N  N184  1  0.825100  0.857800  0.442100  1.0  -0.3476
  O  O185  1  0.643500  0.524200  0.736600  1.0  -0.5419
  O  O186  1  0.589100  0.436800  0.840200  1.0  -0.6493
  O  O187  1  0.225000  0.946950  0.516400  1.0  -0.613
  O  O188  1  0.367200  0.950610  0.434100  1.0  -0.6231
  O  O189  1  0.143500  0.975800  0.236600  1.0  -0.5418
  O  O190  1  0.089100  0.063200  0.340200  1.0  -0.6498
  O  O191  1  0.725000  0.553050  0.016400  1.0  -0.6131
  O  O192  1  0.867200  0.549390  0.934100  1.0  -0.6246
  O  O193  1  0.856500  0.024200  0.763400  1.0  -0.5412
  O  O194  1  0.910900  0.936800  0.659800  1.0  -0.6484
  O  O195  1  0.275000  0.446950  0.983600  1.0  -0.6131
  O  O196  1  0.132800  0.450610  0.065900  1.0  -0.6236
  O  O197  1  0.356500  0.475800  0.263400  1.0  -0.5425
  O  O198  1  0.410900  0.563200  0.159800  1.0  -0.6489
  O  O199  1  0.775000  0.053050  0.483600  1.0  -0.6136
  O  O200  1  0.632800  0.049390  0.565900  1.0  -0.6239
