# generated using pymatgen
data_ZrCd(CO2)8
_symmetry_space_group_name_H-M   'P 1'
_cell_length_a   8.79300000
_cell_length_b   8.79300000
_cell_length_c   24.53000000
_cell_angle_alpha   90.00000000
_cell_angle_beta   90.00000000
_cell_angle_gamma   120.00000000
_symmetry_Int_Tables_number   1
_chemical_formula_structural   ZrCd(CO2)8
_chemical_formula_sum   'Zr3 Cd3 C24 O48'
_cell_volume   1642.48845734
_cell_formula_units_Z   3
loop_
 _symmetry_equiv_pos_site_id
 _symmetry_equiv_pos_as_xyz
  1  'x, y, z'
loop_
 _atom_site_type_symbol
 _atom_site_label
 _atom_site_symmetry_multiplicity
 _atom_site_fract_x
 _atom_site_fract_y
 _atom_site_fract_z
 _atom_site_occupancy
 _atom_site_charge
  Zr  Zr1  1  0.000000  0.500000  0.833330  1.0  2.0029
  Zr  Zr2  1  0.500000  0.500000  0.166670  1.0  2.0031
  Zr  Zr3  1  0.500000  0.000000  0.500000  1.0  2.0022
  Cd  Cd4  1  0.500000  0.500000  0.666667  1.0  0.9871
  Cd  Cd5  1  0.500000  0.000000  0.000000  1.0  0.987
  Cd  Cd6  1  0.000000  0.500000  0.333333  1.0  0.9868
  C  C7  1  0.703300  0.382700  0.750500  1.0  0.6178
  C  C8  1  0.788800  0.584100  0.751700  1.0  0.5629
  C  C9  1  0.617300  0.320600  0.083830  1.0  0.6165
  C  C10  1  0.415900  0.204700  0.085030  1.0  0.5639
  C  C11  1  0.679400  0.296700  0.417170  1.0  0.6147
  C  C12  1  0.795300  0.211200  0.418370  1.0  0.5649
  C  C13  1  0.296700  0.617300  0.750500  1.0  0.6175
  C  C14  1  0.211200  0.415900  0.751700  1.0  0.5636
  C  C15  1  0.382700  0.679400  0.083830  1.0  0.6149
  C  C16  1  0.584100  0.795300  0.085030  1.0  0.5639
  C  C17  1  0.320600  0.703300  0.417170  1.0  0.618
  C  C18  1  0.204700  0.788800  0.418370  1.0  0.5643
  C  C19  1  0.382700  0.703300  0.582830  1.0  0.6154
  C  C20  1  0.584100  0.788800  0.581630  1.0  0.5646
  C  C21  1  0.320600  0.617300  0.249500  1.0  0.6178
  C  C22  1  0.204700  0.415900  0.248300  1.0  0.5635
  C  C23  1  0.296700  0.679400  0.916170  1.0  0.6161
  C  C24  1  0.211200  0.795300  0.914970  1.0  0.5637
  C  C25  1  0.617300  0.296700  0.582830  1.0  0.6178
  C  C26  1  0.415900  0.211200  0.581630  1.0  0.564
  C  C27  1  0.679400  0.382700  0.249500  1.0  0.6179
  C  C28  1  0.795300  0.584100  0.248300  1.0  0.5628
  C  C29  1  0.703300  0.320600  0.916170  1.0  0.6148
  C  C30  1  0.788800  0.204700  0.914970  1.0  0.5639
  O  O31  1  0.563800  0.306000  0.723600  1.0  -0.4894
  O  O32  1  0.911200  0.658000  0.786600  1.0  -0.4816
  O  O33  1  0.740500  0.660200  0.719500  1.0  -0.4843
  O  O34  1  0.768200  0.316700  0.780900  1.0  -0.4663
  O  O35  1  0.694000  0.257800  0.056930  1.0  -0.4954
  O  O36  1  0.342000  0.253200  0.119930  1.0  -0.4802
  O  O37  1  0.339800  0.080300  0.052830  1.0  -0.4879
  O  O38  1  0.683300  0.451500  0.114230  1.0  -0.4697
  O  O39  1  0.742200  0.436200  0.390270  1.0  -0.4927
  O  O40  1  0.746800  0.088800  0.453270  1.0  -0.4806
  O  O41  1  0.919700  0.259500  0.386170  1.0  -0.486
  O  O42  1  0.548500  0.231800  0.447570  1.0  -0.4687
  O  O43  1  0.436200  0.694000  0.723600  1.0  -0.4883
  O  O44  1  0.088800  0.342000  0.786600  1.0  -0.4807
  O  O45  1  0.259500  0.339800  0.719500  1.0  -0.486
  O  O46  1  0.231800  0.683300  0.780900  1.0  -0.4666
  O  O47  1  0.306000  0.742200  0.056930  1.0  -0.4961
  O  O48  1  0.658000  0.746800  0.119930  1.0  -0.4802
  O  O49  1  0.660200  0.919700  0.052830  1.0  -0.4872
  O  O50  1  0.316700  0.548500  0.114230  1.0  -0.4694
  O  O51  1  0.257800  0.563800  0.390270  1.0  -0.4929
  O  O52  1  0.253200  0.911200  0.453270  1.0  -0.4803
  O  O53  1  0.080300  0.740500  0.386170  1.0  -0.4859
  O  O54  1  0.451500  0.768200  0.447570  1.0  -0.4697
  O  O55  1  0.306000  0.563800  0.609730  1.0  -0.4926
  O  O56  1  0.658000  0.911200  0.546730  1.0  -0.4793
  O  O57  1  0.660200  0.740500  0.613830  1.0  -0.4862
  O  O58  1  0.316700  0.768200  0.552430  1.0  -0.4689
  O  O59  1  0.257800  0.694000  0.276400  1.0  -0.4881
  O  O60  1  0.253200  0.342000  0.213400  1.0  -0.4797
  O  O61  1  0.080300  0.339800  0.280500  1.0  -0.4857
  O  O62  1  0.451500  0.683300  0.219100  1.0  -0.467
  O  O63  1  0.436200  0.742200  0.943070  1.0  -0.4968
  O  O64  1  0.088800  0.746800  0.880070  1.0  -0.4799
  O  O65  1  0.259500  0.919700  0.947170  1.0  -0.4881
  O  O66  1  0.231800  0.548500  0.885770  1.0  -0.4691
  O  O67  1  0.694000  0.436200  0.609730  1.0  -0.4933
  O  O68  1  0.342000  0.088800  0.546730  1.0  -0.4775
  O  O69  1  0.339800  0.259500  0.613830  1.0  -0.488
  O  O70  1  0.683300  0.231800  0.552430  1.0  -0.4688
  O  O71  1  0.742200  0.306000  0.276400  1.0  -0.4906
  O  O72  1  0.746800  0.658000  0.213400  1.0  -0.4791
  O  O73  1  0.919700  0.660200  0.280500  1.0  -0.4869
  O  O74  1  0.548500  0.316700  0.219100  1.0  -0.4662
  O  O75  1  0.563800  0.257800  0.943070  1.0  -0.4968
  O  O76  1  0.911200  0.253200  0.880070  1.0  -0.4788
  O  O77  1  0.740500  0.080300  0.947170  1.0  -0.4899
  O  O78  1  0.768200  0.451500  0.885770  1.0  -0.4708
