# generated using pymatgen
data_Ni2H10C17O9
_symmetry_space_group_name_H-M   'P 1'
_cell_length_a   10.24700000
_cell_length_b   15.25000000
_cell_length_c   20.94600000
_cell_angle_alpha   90.00000000
_cell_angle_beta   99.91000000
_cell_angle_gamma   90.00000000
_symmetry_Int_Tables_number   1
_chemical_formula_structural   Ni2H10C17O9
_chemical_formula_sum   'Ni8 H40 C68 O36'
_cell_volume   3224.32546981
_cell_formula_units_Z   4
loop_
 _symmetry_equiv_pos_site_id
 _symmetry_equiv_pos_as_xyz
  1  'x, y, z'
loop_
 _atom_site_type_symbol
 _atom_site_label
 _atom_site_symmetry_multiplicity
 _atom_site_fract_x
 _atom_site_fract_y
 _atom_site_fract_z
 _atom_site_occupancy
 _atom_site_charge
  Ni  Ni1  1  0.746730  0.738190  0.668730  1.0  1.0192
  Ni  Ni2  1  0.797050  0.857090  0.814260  1.0  1.0196
  Ni  Ni3  1  0.253270  0.238190  0.831270  1.0  1.0077
  Ni  Ni4  1  0.202950  0.357090  0.685740  1.0  1.0168
  Ni  Ni5  1  0.253270  0.261810  0.331270  1.0  1.0196
  Ni  Ni6  1  0.202950  0.142910  0.185740  1.0  1.0157
  Ni  Ni7  1  0.746730  0.761810  0.168730  1.0  1.0101
  Ni  Ni8  1  0.797050  0.642910  0.314260  1.0  1.0159
  H  H9  1  0.470800  0.920100  0.574000  1.0  0.1095
  H  H10  1  0.263400  0.138500  0.589700  1.0  0.0984
  H  H11  1  0.528500  0.054400  0.741500  1.0  0.115
  H  H12  1  0.233800  0.065100  0.487200  1.0  0.1235
  H  H13  1  0.337900  0.994400  0.475100  1.0  0.1202
  H  H14  1  0.167400  0.905100  0.408100  1.0  0.1182
  H  H15  1  0.919600  0.761600  0.496300  1.0  0.1115
  H  H16  1  0.142800  0.950900  0.594200  1.0  0.1
  H  H17  1  0.978200  0.777700  0.298900  1.0  0.3972
  H  H18  1  0.954000  0.819000  0.729000  1.0  0.4055
  H  H19  1  0.529200  0.420100  0.926000  1.0  0.1093
  H  H20  1  0.736600  0.638500  0.910300  1.0  0.0988
  H  H21  1  0.471500  0.554400  0.758500  1.0  0.1156
  H  H22  1  0.766200  0.565100  0.012800  1.0  0.1235
  H  H23  1  0.662100  0.494400  0.024900  1.0  0.1222
  H  H24  1  0.832600  0.405100  0.091900  1.0  0.1182
  H  H25  1  0.080400  0.261600  0.003700  1.0  0.1115
  H  H26  1  0.857200  0.450900  0.905800  1.0  0.1001
  H  H27  1  0.021800  0.277700  0.201100  1.0  0.3991
  H  H28  1  0.046000  0.319000  0.771000  1.0  0.4073
  H  H29  1  0.529200  0.079900  0.426000  1.0  0.1095
  H  H30  1  0.736600  0.861500  0.410300  1.0  0.0984
  H  H31  1  0.471500  0.945600  0.258500  1.0  0.1155
  H  H32  1  0.766200  0.934900  0.512800  1.0  0.1241
  H  H33  1  0.662100  0.005600  0.524900  1.0  0.1219
  H  H34  1  0.832600  0.094900  0.591900  1.0  0.1182
  H  H35  1  0.080400  0.238400  0.503700  1.0  0.1117
  H  H36  1  0.857200  0.049100  0.405800  1.0  0.1007
  H  H37  1  0.021800  0.222300  0.701100  1.0  0.3986
  H  H38  1  0.046000  0.181000  0.271000  1.0  0.407
  H  H39  1  0.470800  0.579900  0.074000  1.0  0.1095
  H  H40  1  0.263400  0.361500  0.089700  1.0  0.0977
  H  H41  1  0.528500  0.445600  0.241500  1.0  0.1154
  H  H42  1  0.233800  0.434900  0.987200  1.0  0.1229
  H  H43  1  0.337900  0.505600  0.975100  1.0  0.1205
  H  H44  1  0.167400  0.594900  0.908100  1.0  0.118
  H  H45  1  0.919600  0.738400  0.996300  1.0  0.1122
  H  H46  1  0.142800  0.549100  0.094200  1.0  0.0997
  H  H47  1  0.978200  0.722300  0.798900  1.0  0.3977
  H  H48  1  0.954000  0.681000  0.229000  1.0  0.4049
  C  C49  1  0.517000  0.978300  0.662000  1.0  -0.1432
  C  C50  1  0.450400  0.967700  0.598300  1.0  -0.0736
  C  C51  1  0.354000  0.027200  0.570700  1.0  0.0704
  C  C52  1  0.326300  0.097500  0.607800  1.0  -0.0808
  C  C53  1  0.390100  0.108300  0.671300  1.0  -0.1318
  C  C54  1  0.486000  0.047800  0.698800  1.0  -0.0097
  C  C55  1  0.276900  0.011000  0.503700  1.0  -0.2179
  C  C56  1  0.171300  0.938700  0.502400  1.0  0.0639
  C  C57  1  0.131200  0.892100  0.444800  1.0  -0.0776
  C  C58  1  0.035400  0.825300  0.442800  1.0  -0.1635
  C  C59  1  0.981700  0.806400  0.497400  1.0  0.0017
  C  C60  1  0.020800  0.854600  0.554600  1.0  -0.1437
  C  C61  1  0.115900  0.919600  0.556100  1.0  -0.0561
  C  C62  1  0.618100  0.911400  0.691200  1.0  0.7268
  C  C63  1  0.988500  0.776000  0.381300  1.0  0.694
  C  C64  1  0.955700  0.834700  0.612200  1.0  0.704
  C  C65  1  0.351400  0.184300  0.710500  1.0  0.7371
  C  C66  1  0.483000  0.478300  0.838000  1.0  -0.1435
  C  C67  1  0.549600  0.467700  0.901700  1.0  -0.0712
  C  C68  1  0.646000  0.527200  0.929300  1.0  0.0702
  C  C69  1  0.673700  0.597500  0.892200  1.0  -0.0805
  C  C70  1  0.609900  0.608300  0.828700  1.0  -0.131
  C  C71  1  0.514000  0.547800  0.801200  1.0  -0.01
  C  C72  1  0.723100  0.511000  0.996300  1.0  -0.2179
  C  C73  1  0.828700  0.438700  0.997600  1.0  0.0628
  C  C74  1  0.868800  0.392100  0.055200  1.0  -0.078
  C  C75  1  0.964600  0.325300  0.057200  1.0  -0.168
  C  C76  1  0.018300  0.306400  0.002600  1.0  0.0041
  C  C77  1  0.979200  0.354600  0.945400  1.0  -0.1436
  C  C78  1  0.884100  0.419600  0.943900  1.0  -0.0552
  C  C79  1  0.381900  0.411400  0.808800  1.0  0.7274
  C  C80  1  0.011500  0.276000  0.118700  1.0  0.693
  C  C81  1  0.044300  0.334700  0.887800  1.0  0.7051
  C  C82  1  0.648600  0.684300  0.789500  1.0  0.7362
  C  C83  1  0.483000  0.021700  0.338000  1.0  -0.1425
  C  C84  1  0.549600  0.032300  0.401700  1.0  -0.0715
  C  C85  1  0.646000  0.972800  0.429300  1.0  0.07
  C  C86  1  0.673700  0.902500  0.392200  1.0  -0.0811
  C  C87  1  0.609900  0.891700  0.328700  1.0  -0.1322
  C  C88  1  0.514000  0.952200  0.301200  1.0  -0.0097
  C  C89  1  0.723100  0.989000  0.496300  1.0  -0.2182
  C  C90  1  0.828700  0.061300  0.497600  1.0  0.0629
  C  C91  1  0.868800  0.107900  0.555200  1.0  -0.077
  C  C92  1  0.964600  0.174700  0.557200  1.0  -0.172
  C  C93  1  0.018300  0.193600  0.502600  1.0  0.0048
  C  C94  1  0.979200  0.145400  0.445400  1.0  -0.1443
  C  C95  1  0.884100  0.080400  0.443900  1.0  -0.0557
  C  C96  1  0.381900  0.088600  0.308800  1.0  0.7274
  C  C97  1  0.011500  0.224000  0.618700  1.0  0.6925
  C  C98  1  0.044300  0.165300  0.387800  1.0  0.7055
  C  C99  1  0.648600  0.815700  0.289500  1.0  0.736
  C  C100  1  0.517000  0.521700  0.162000  1.0  -0.1449
  C  C101  1  0.450400  0.532300  0.098300  1.0  -0.0732
  C  C102  1  0.354000  0.472800  0.070700  1.0  0.0702
  C  C103  1  0.326300  0.402500  0.107800  1.0  -0.0808
  C  C104  1  0.390100  0.391700  0.171300  1.0  -0.1312
  C  C105  1  0.486000  0.452200  0.198800  1.0  -0.0095
  C  C106  1  0.276900  0.489000  0.003700  1.0  -0.2171
  C  C107  1  0.171300  0.561300  0.002400  1.0  0.0637
  C  C108  1  0.131200  0.607900  0.944800  1.0  -0.0777
  C  C109  1  0.035400  0.674700  0.942800  1.0  -0.1673
  C  C110  1  0.981700  0.693600  0.997400  1.0  0.0026
  C  C111  1  0.020800  0.645400  0.054600  1.0  -0.1443
  C  C112  1  0.115900  0.580400  0.056100  1.0  -0.0561
  C  C113  1  0.618100  0.588600  0.191200  1.0  0.7266
  C  C114  1  0.988500  0.724000  0.881300  1.0  0.6929
  C  C115  1  0.955700  0.665300  0.112200  1.0  0.7039
  C  C116  1  0.351400  0.315700  0.210500  1.0  0.738
  O  O117  1  0.670400  0.925200  0.749800  1.0  -0.6359
  O  O118  1  0.635600  0.847000  0.656900  1.0  -0.5802
  O  O119  1  0.008000  0.809900  0.329300  1.0  -0.4579
  O  O120  1  0.930600  0.704000  0.386300  1.0  -0.5992
  O  O121  1  0.857800  0.784900  0.603200  1.0  -0.6332
  O  O122  1  0.007700  0.869100  0.665600  1.0  -0.5882
  O  O123  1  0.320700  0.252800  0.679100  1.0  -0.5876
  O  O124  1  0.352600  0.172000  0.769900  1.0  -0.6275
  O  O125  1  0.881300  0.792300  0.744400  1.0  -0.9198
  O  O126  1  0.329600  0.425200  0.750200  1.0  -0.6379
  O  O127  1  0.364400  0.347000  0.843100  1.0  -0.5812
  O  O128  1  0.992000  0.309900  0.170700  1.0  -0.4585
  O  O129  1  0.069400  0.204000  0.113700  1.0  -0.5995
  O  O130  1  0.142200  0.284900  0.896800  1.0  -0.6327
  O  O131  1  0.992300  0.369100  0.834400  1.0  -0.5866
  O  O132  1  0.679300  0.752800  0.820900  1.0  -0.5873
  O  O133  1  0.647400  0.672000  0.730100  1.0  -0.6273
  O  O134  1  0.118700  0.292300  0.755600  1.0  -0.9188
  O  O135  1  0.329600  0.074800  0.250200  1.0  -0.6369
  O  O136  1  0.364400  0.153000  0.343100  1.0  -0.5812
  O  O137  1  0.992000  0.190100  0.670700  1.0  -0.4605
  O  O138  1  0.069400  0.296000  0.613700  1.0  -0.5995
  O  O139  1  0.142200  0.215100  0.396800  1.0  -0.6335
  O  O140  1  0.992300  0.130900  0.334400  1.0  -0.587
  O  O141  1  0.679300  0.747200  0.320900  1.0  -0.5872
  O  O142  1  0.647400  0.828000  0.230100  1.0  -0.6289
  O  O143  1  0.118700  0.207700  0.255600  1.0  -0.9194
  O  O144  1  0.670400  0.574800  0.249800  1.0  -0.6365
  O  O145  1  0.635600  0.653000  0.156900  1.0  -0.5802
  O  O146  1  0.008000  0.690100  0.829300  1.0  -0.4601
  O  O147  1  0.930600  0.796000  0.886300  1.0  -0.5987
  O  O148  1  0.857800  0.715100  0.103200  1.0  -0.6323
  O  O149  1  0.007700  0.630900  0.165600  1.0  -0.588
  O  O150  1  0.320700  0.247200  0.179100  1.0  -0.5874
  O  O151  1  0.352600  0.328000  0.269900  1.0  -0.6274
  O  O152  1  0.881300  0.707700  0.244400  1.0  -0.92
