# generated using pymatgen
data_Cu12H49C96(N24O23)2
_symmetry_space_group_name_H-M   'P 1'
_cell_length_a   15.75400000
_cell_length_b   15.75400000
_cell_length_c   15.75400000
_cell_angle_alpha   90.00000000
_cell_angle_beta   90.00000000
_cell_angle_gamma   90.00000000
_symmetry_Int_Tables_number   1
_chemical_formula_structural   Cu12H49C96(N24O23)2
_chemical_formula_sum   'Cu12 H49 C96 N48 O46'
_cell_volume   3909.96188106
_cell_formula_units_Z   1
loop_
 _symmetry_equiv_pos_site_id
 _symmetry_equiv_pos_as_xyz
  1  'x, y, z'
loop_
 _atom_site_type_symbol
 _atom_site_label
 _atom_site_symmetry_multiplicity
 _atom_site_fract_x
 _atom_site_fract_y
 _atom_site_fract_z
 _atom_site_occupancy
 _atom_site_charge
  Cu  Cu1  1  0.500000  0.250000  0.750000  1.0  0.7091
  Cu  Cu2  1  0.000000  0.250000  0.750000  1.0  0.7094
  Cu  Cu3  1  0.750000  0.500000  0.250000  1.0  0.7092
  Cu  Cu4  1  0.750000  0.000000  0.250000  1.0  0.7086
  Cu  Cu5  1  0.250000  0.750000  0.500000  1.0  0.702
  Cu  Cu6  1  0.250000  0.750000  0.000000  1.0  0.7086
  Cu  Cu7  1  0.500000  0.750000  0.250000  1.0  0.7087
  Cu  Cu8  1  0.000000  0.750000  0.250000  1.0  0.7081
  Cu  Cu9  1  0.250000  0.500000  0.750000  1.0  0.7081
  Cu  Cu10  1  0.250000  0.000000  0.750000  1.0  0.7081
  Cu  Cu11  1  0.750000  0.250000  0.500000  1.0  0.7084
  Cu  Cu12  1  0.750000  0.250000  0.000000  1.0  0.7269
  H  H13  1  0.424840  0.764160  0.568410  1.0  0.0956
  H  H14  1  0.621960  0.296290  0.876640  1.0  0.082
  H  H15  1  0.656030  0.982000  0.837180  1.0  0.1037
  H  H16  1  0.878040  0.203710  0.876640  1.0  0.0856
  H  H17  1  0.843970  0.518000  0.837180  1.0  0.1067
  H  H18  1  0.878040  0.296290  0.623360  1.0  0.0868
  H  H19  1  0.837180  0.982000  0.656030  1.0  0.1011
  H  H20  1  0.621960  0.203710  0.623360  1.0  0.0864
  H  H21  1  0.656030  0.518000  0.662820  1.0  0.1026
  H  H22  1  0.876640  0.621960  0.296290  1.0  0.0851
  H  H23  1  0.837180  0.656030  0.982000  1.0  0.0983
  H  H24  1  0.876640  0.878040  0.203710  1.0  0.0854
  H  H25  1  0.843970  0.837180  0.518000  1.0  0.0964
  H  H26  1  0.623360  0.878040  0.296290  1.0  0.0846
  H  H27  1  0.656030  0.837180  0.982000  1.0  0.0974
  H  H28  1  0.623360  0.621960  0.203710  1.0  0.085
  H  H29  1  0.662820  0.656030  0.518000  1.0  0.0982
  H  H30  1  0.296290  0.876640  0.621960  1.0  0.0848
  H  H31  1  0.982000  0.837180  0.656030  1.0  0.0989
  H  H32  1  0.203710  0.876640  0.878040  1.0  0.0858
  H  H33  1  0.518000  0.843970  0.837180  1.0  0.1011
  H  H34  1  0.296290  0.623360  0.878040  1.0  0.085
  H  H35  1  0.982000  0.656030  0.837180  1.0  0.0978
  H  H36  1  0.203710  0.623360  0.621960  1.0  0.0855
  H  H37  1  0.518000  0.662820  0.656030  1.0  0.0973
  H  H38  1  0.796290  0.121960  0.123360  1.0  0.0855
  H  H39  1  0.482000  0.162820  0.156030  1.0  0.1011
  H  H40  1  0.703710  0.378040  0.123360  1.0  0.0781
  H  H41  1  0.018000  0.337180  0.156030  1.0  0.099
  H  H42  1  0.796290  0.378040  0.376640  1.0  0.0845
  H  H43  1  0.482000  0.343970  0.337180  1.0  0.0962
  H  H44  1  0.703710  0.121960  0.376640  1.0  0.0855
  H  H45  1  0.018000  0.156030  0.337180  1.0  0.0989
  H  H46  1  0.121960  0.376640  0.703710  1.0  0.0849
  H  H47  1  0.156030  0.337180  0.018000  1.0  0.0963
  H  H48  1  0.378040  0.376640  0.796290  1.0  0.0853
  H  H49  1  0.343970  0.337180  0.482000  1.0  0.0988
  H  H50  1  0.378040  0.123360  0.703710  1.0  0.0847
  H  H51  1  0.337180  0.156030  0.018000  1.0  0.0965
  H  H52  1  0.121960  0.123360  0.796290  1.0  0.0845
  H  H53  1  0.162820  0.156030  0.482000  1.0  0.0991
  H  H54  1  0.376640  0.796290  0.378040  1.0  0.083
  H  H55  1  0.343970  0.482000  0.337180  1.0  0.0991
  H  H56  1  0.376640  0.703710  0.121960  1.0  0.0871
  H  H57  1  0.337180  0.018000  0.156030  1.0  0.106
  H  H58  1  0.123360  0.796290  0.121960  1.0  0.0863
  H  H59  1  0.162820  0.482000  0.156030  1.0  0.101
  H  H60  1  0.123360  0.703710  0.378040  1.0  0.087
  H  H61  1  0.156030  0.018000  0.337180  1.0  0.1006
  C  C62  1  0.600100  0.103900  0.794200  1.0  0.5115
  C  C63  1  0.899900  0.396100  0.794200  1.0  0.5051
  C  C64  1  0.899900  0.103900  0.705800  1.0  0.5414
  C  C65  1  0.600100  0.396100  0.705800  1.0  0.5105
  C  C66  1  0.794200  0.600100  0.103900  1.0  0.5098
  C  C67  1  0.794200  0.899900  0.396100  1.0  0.5395
  C  C68  1  0.705800  0.899900  0.103900  1.0  0.5409
  C  C69  1  0.705800  0.600100  0.396100  1.0  0.5099
  C  C70  1  0.103900  0.794200  0.600100  1.0  0.507
  C  C71  1  0.396100  0.794200  0.899900  1.0  0.5374
  C  C72  1  0.103900  0.705800  0.899900  1.0  0.5357
  C  C73  1  0.396100  0.705800  0.600100  1.0  0.3823
  C  C74  1  0.603900  0.100100  0.205800  1.0  0.5361
  C  C75  1  0.896100  0.399900  0.205800  1.0  0.5396
  C  C76  1  0.603900  0.399900  0.294200  1.0  0.5084
  C  C77  1  0.896100  0.100100  0.294200  1.0  0.5074
  C  C78  1  0.100100  0.294200  0.896100  1.0  0.5107
  C  C79  1  0.399900  0.294200  0.603900  1.0  0.5107
  C  C80  1  0.399900  0.205800  0.896100  1.0  0.5408
  C  C81  1  0.100100  0.205800  0.603900  1.0  0.543
  C  C82  1  0.294200  0.603900  0.399900  1.0  0.5421
  C  C83  1  0.294200  0.896100  0.100100  1.0  0.5094
  C  C84  1  0.205800  0.603900  0.100100  1.0  0.5103
  C  C85  1  0.205800  0.896100  0.399900  1.0  0.5424
  C  C86  1  0.399900  0.896100  0.205800  1.0  0.5343
  C  C87  1  0.100100  0.603900  0.205800  1.0  0.536
  C  C88  1  0.100100  0.896100  0.294200  1.0  0.504
  C  C89  1  0.399900  0.603900  0.294200  1.0  0.5029
  C  C90  1  0.205800  0.399900  0.896100  1.0  0.5346
  C  C91  1  0.205800  0.100100  0.603900  1.0  0.5045
  C  C92  1  0.294200  0.100100  0.896100  1.0  0.5014
  C  C93  1  0.294200  0.399900  0.603900  1.0  0.5353
  C  C94  1  0.896100  0.205800  0.399900  1.0  0.5297
  C  C95  1  0.603900  0.205800  0.100100  1.0  0.5006
  C  C96  1  0.896100  0.294200  0.100100  1.0  0.5005
  C  C97  1  0.603900  0.294200  0.399900  1.0  0.5299
  C  C98  1  0.396100  0.899900  0.794200  1.0  0.5046
  C  C99  1  0.103900  0.600100  0.794200  1.0  0.5009
  C  C100  1  0.396100  0.600100  0.705800  1.0  0.5248
  C  C101  1  0.103900  0.899900  0.705800  1.0  0.5294
  C  C102  1  0.899900  0.705800  0.103900  1.0  0.5375
  C  C103  1  0.600100  0.705800  0.396100  1.0  0.535
  C  C104  1  0.600100  0.794200  0.103900  1.0  0.5057
  C  C105  1  0.899900  0.794200  0.396100  1.0  0.5026
  C  C106  1  0.705800  0.396100  0.600100  1.0  0.5273
  C  C107  1  0.705800  0.103900  0.899900  1.0  0.5361
  C  C108  1  0.794200  0.396100  0.899900  1.0  0.1608
  C  C109  1  0.794200  0.103900  0.600100  1.0  0.5011
  C  C110  1  0.631000  0.224900  0.869000  1.0  0.2154
  C  C111  1  0.655600  0.054000  0.844400  1.0  0.0318
  C  C112  1  0.869000  0.275100  0.869000  1.0  0.216
  C  C113  1  0.844400  0.446000  0.844400  1.0  0.0833
  C  C114  1  0.869000  0.224900  0.631000  1.0  0.2156
  C  C115  1  0.844400  0.054000  0.655600  1.0  0.0277
  C  C116  1  0.631000  0.275100  0.631000  1.0  0.2147
  C  C117  1  0.655600  0.446000  0.655600  1.0  0.0625
  C  C118  1  0.869000  0.631000  0.224900  1.0  0.2176
  C  C119  1  0.844400  0.655600  0.054000  1.0  0.0338
  C  C120  1  0.869000  0.869000  0.275100  1.0  0.216
  C  C121  1  0.844400  0.844400  0.446000  1.0  0.0346
  C  C122  1  0.631000  0.869000  0.224900  1.0  0.2165
  C  C123  1  0.655600  0.844400  0.054000  1.0  0.0366
  C  C124  1  0.631000  0.631000  0.275100  1.0  0.2143
  C  C125  1  0.655600  0.655600  0.446000  1.0  0.035
  C  C126  1  0.224900  0.869000  0.631000  1.0  0.2163
  C  C127  1  0.054000  0.844400  0.655600  1.0  0.0318
  C  C128  1  0.275100  0.869000  0.869000  1.0  0.2175
  C  C129  1  0.446000  0.844400  0.844400  1.0  0.0647
  C  C130  1  0.224900  0.631000  0.869000  1.0  0.2166
  C  C131  1  0.054000  0.655600  0.844400  1.0  0.0315
  C  C132  1  0.275100  0.631000  0.631000  1.0  0.2202
  C  C133  1  0.446000  0.655600  0.655600  1.0  0.0117
  C  C134  1  0.724900  0.131000  0.131000  1.0  0.2165
  C  C135  1  0.554000  0.155600  0.155600  1.0  0.0282
  C  C136  1  0.775100  0.369000  0.131000  1.0  0.2132
  C  C137  1  0.946000  0.344400  0.155600  1.0  0.0314
  C  C138  1  0.724900  0.369000  0.369000  1.0  0.2166
  C  C139  1  0.554000  0.344400  0.344400  1.0  0.0332
  C  C140  1  0.775100  0.131000  0.369000  1.0  0.2176
  C  C141  1  0.946000  0.155600  0.344400  1.0  0.0322
  C  C142  1  0.131000  0.369000  0.775100  1.0  0.2145
  C  C143  1  0.155600  0.344400  0.946000  1.0  0.0362
  C  C144  1  0.369000  0.369000  0.724900  1.0  0.2175
  C  C145  1  0.344400  0.344400  0.554000  1.0  0.0404
  C  C146  1  0.369000  0.131000  0.775100  1.0  0.2161
  C  C147  1  0.344400  0.155600  0.946000  1.0  0.034
  C  C148  1  0.131000  0.131000  0.724900  1.0  0.2162
  C  C149  1  0.155600  0.155600  0.554000  1.0  0.0365
  C  C150  1  0.369000  0.724900  0.369000  1.0  0.2115
  C  C151  1  0.344400  0.554000  0.344400  1.0  0.0306
  C  C152  1  0.369000  0.775100  0.131000  1.0  0.2162
  C  C153  1  0.344400  0.946000  0.155600  1.0  0.0321
  C  C154  1  0.131000  0.724900  0.131000  1.0  0.2142
  C  C155  1  0.155600  0.554000  0.155600  1.0  0.0281
  C  C156  1  0.131000  0.775100  0.369000  1.0  0.2148
  C  C157  1  0.155600  0.946000  0.344400  1.0  0.0298
  N  N158  1  0.583100  0.180800  0.810800  1.0  -0.2885
  N  N159  1  0.916900  0.319200  0.810800  1.0  -0.2893
  N  N160  1  0.916900  0.180800  0.689200  1.0  -0.2897
  N  N161  1  0.583100  0.319200  0.689200  1.0  -0.2886
  N  N162  1  0.810800  0.583100  0.180800  1.0  -0.2885
  N  N163  1  0.810800  0.916900  0.319200  1.0  -0.288
  N  N164  1  0.689200  0.916900  0.180800  1.0  -0.2888
  N  N165  1  0.689200  0.583100  0.319200  1.0  -0.2883
  N  N166  1  0.180800  0.810800  0.583100  1.0  -0.2902
  N  N167  1  0.319200  0.810800  0.916900  1.0  -0.2886
  N  N168  1  0.180800  0.689200  0.916900  1.0  -0.2908
  N  N169  1  0.319200  0.689200  0.583100  1.0  -0.2959
  N  N170  1  0.680800  0.083100  0.189200  1.0  -0.2894
  N  N171  1  0.819200  0.416900  0.189200  1.0  -0.2875
  N  N172  1  0.680800  0.416900  0.310800  1.0  -0.2913
  N  N173  1  0.819200  0.083100  0.310800  1.0  -0.2886
  N  N174  1  0.083100  0.310800  0.819200  1.0  -0.2892
  N  N175  1  0.416900  0.310800  0.680800  1.0  -0.2916
  N  N176  1  0.416900  0.189200  0.819200  1.0  -0.2905
  N  N177  1  0.083100  0.189200  0.680800  1.0  -0.2887
  N  N178  1  0.310800  0.680800  0.416900  1.0  -0.2887
  N  N179  1  0.310800  0.819200  0.083100  1.0  -0.288
  N  N180  1  0.189200  0.680800  0.083100  1.0  -0.2875
  N  N181  1  0.189200  0.819200  0.416900  1.0  -0.2881
  N  N182  1  0.416900  0.819200  0.189200  1.0  -0.2906
  N  N183  1  0.083100  0.680800  0.189200  1.0  -0.2888
  N  N184  1  0.083100  0.819200  0.310800  1.0  -0.2898
  N  N185  1  0.416900  0.680800  0.310800  1.0  -0.2908
  N  N186  1  0.189200  0.416900  0.819200  1.0  -0.2892
  N  N187  1  0.189200  0.083100  0.680800  1.0  -0.2888
  N  N188  1  0.310800  0.083100  0.819200  1.0  -0.2888
  N  N189  1  0.310800  0.416900  0.680800  1.0  -0.2894
  N  N190  1  0.819200  0.189200  0.416900  1.0  -0.2898
  N  N191  1  0.680800  0.189200  0.083100  1.0  -0.2917
  N  N192  1  0.819200  0.310800  0.083100  1.0  -0.2796
  N  N193  1  0.680800  0.310800  0.416900  1.0  -0.2916
  N  N194  1  0.319200  0.916900  0.810800  1.0  -0.2898
  N  N195  1  0.180800  0.583100  0.810800  1.0  -0.2911
  N  N196  1  0.319200  0.583100  0.689200  1.0  -0.2883
  N  N197  1  0.180800  0.916900  0.689200  1.0  -0.2911
  N  N198  1  0.916900  0.689200  0.180800  1.0  -0.292
  N  N199  1  0.583100  0.689200  0.319200  1.0  -0.2892
  N  N200  1  0.583100  0.810800  0.180800  1.0  -0.2903
  N  N201  1  0.916900  0.810800  0.319200  1.0  -0.2919
  N  N202  1  0.689200  0.319200  0.583100  1.0  -0.2886
  N  N203  1  0.689200  0.180800  0.916900  1.0  -0.2863
  N  N204  1  0.810800  0.319200  0.916900  1.0  -0.3001
  N  N205  1  0.810800  0.180800  0.583100  1.0  -0.2882
  O  O206  1  0.550000  0.079000  0.731000  1.0  -0.6587
  O  O207  1  0.950000  0.421000  0.731000  1.0  -0.6496
  O  O208  1  0.950000  0.079000  0.769000  1.0  -0.6475
  O  O209  1  0.550000  0.421000  0.769000  1.0  -0.6508
  O  O210  1  0.731000  0.550000  0.079000  1.0  -0.6308
  O  O211  1  0.731000  0.950000  0.421000  1.0  -0.6562
  O  O212  1  0.769000  0.950000  0.079000  1.0  -0.6454
  O  O213  1  0.769000  0.550000  0.421000  1.0  -0.6478
  O  O214  1  0.079000  0.731000  0.550000  1.0  -0.6421
  O  O215  1  0.421000  0.731000  0.950000  1.0  -0.6365
  O  O216  1  0.079000  0.769000  0.950000  1.0  -0.643
  O  O217  1  0.579000  0.050000  0.269000  1.0  -0.6555
  O  O218  1  0.921000  0.450000  0.269000  1.0  -0.6456
  O  O219  1  0.579000  0.450000  0.231000  1.0  -0.65
  O  O220  1  0.921000  0.050000  0.231000  1.0  -0.6499
  O  O221  1  0.050000  0.231000  0.921000  1.0  -0.6484
  O  O222  1  0.450000  0.231000  0.579000  1.0  -0.6481
  O  O223  1  0.450000  0.269000  0.921000  1.0  -0.6353
  O  O224  1  0.050000  0.269000  0.579000  1.0  -0.6445
  O  O225  1  0.231000  0.579000  0.450000  1.0  -0.6441
  O  O226  1  0.231000  0.921000  0.050000  1.0  -0.6458
  O  O227  1  0.269000  0.579000  0.050000  1.0  -0.6486
  O  O228  1  0.269000  0.921000  0.450000  1.0  -0.6462
  O  O229  1  0.450000  0.921000  0.269000  1.0  -0.6571
  O  O230  1  0.050000  0.579000  0.269000  1.0  -0.649
  O  O231  1  0.050000  0.921000  0.231000  1.0  -0.6445
  O  O232  1  0.450000  0.579000  0.231000  1.0  -0.6446
  O  O233  1  0.269000  0.450000  0.921000  1.0  -0.6428
  O  O234  1  0.269000  0.050000  0.579000  1.0  -0.6416
  O  O235  1  0.231000  0.050000  0.921000  1.0  -0.6384
  O  O236  1  0.231000  0.450000  0.579000  1.0  -0.6477
  O  O237  1  0.921000  0.269000  0.450000  1.0  -0.643
  O  O238  1  0.579000  0.269000  0.050000  1.0  -0.637
  O  O239  1  0.921000  0.231000  0.050000  1.0  -0.6367
  O  O240  1  0.579000  0.231000  0.450000  1.0  -0.6368
  O  O241  1  0.421000  0.950000  0.731000  1.0  -0.6576
  O  O242  1  0.079000  0.550000  0.731000  1.0  -0.6437
  O  O243  1  0.421000  0.550000  0.769000  1.0  -0.6423
  O  O244  1  0.079000  0.950000  0.769000  1.0  -0.6463
  O  O245  1  0.950000  0.769000  0.079000  1.0  -0.6465
  O  O246  1  0.550000  0.769000  0.421000  1.0  -0.6597
  O  O247  1  0.550000  0.731000  0.079000  1.0  -0.6416
  O  O248  1  0.950000  0.731000  0.421000  1.0  -0.6399
  O  O249  1  0.769000  0.421000  0.550000  1.0  -0.6481
  O  O250  1  0.769000  0.079000  0.950000  1.0  -0.6493
  O  O251  1  0.731000  0.079000  0.550000  1.0  -0.6473
