# generated using pymatgen
data_Cu3H10C17O10
_symmetry_space_group_name_H-M   'P 1'
_cell_length_a   8.13870000
_cell_length_b   18.46090000
_cell_length_c   18.65530000
_cell_angle_alpha   90.00000000
_cell_angle_beta   90.00000000
_cell_angle_gamma   90.00000000
_symmetry_Int_Tables_number   1
_chemical_formula_structural   Cu3H10C17O10
_chemical_formula_sum   'Cu12 H40 C68 O40'
_cell_volume   2802.91641833
_cell_formula_units_Z   4
loop_
 _symmetry_equiv_pos_site_id
 _symmetry_equiv_pos_as_xyz
  1  'x, y, z'
loop_
 _atom_site_type_symbol
 _atom_site_label
 _atom_site_symmetry_multiplicity
 _atom_site_fract_x
 _atom_site_fract_y
 _atom_site_fract_z
 _atom_site_occupancy
 _atom_site_charge
  Cu  Cu1  1  0.790670  0.930760  0.414360  1.0  0.8599
  Cu  Cu2  1  0.790670  0.569240  0.085640  1.0  0.8625
  Cu  Cu3  1  0.709330  0.069240  0.914360  1.0  0.8606
  Cu  Cu4  1  0.709330  0.430760  0.585640  1.0  0.8622
  Cu  Cu5  1  0.209330  0.069240  0.585640  1.0  0.8619
  Cu  Cu6  1  0.209330  0.430760  0.914360  1.0  0.8609
  Cu  Cu7  1  0.290670  0.930760  0.085640  1.0  0.8619
  Cu  Cu8  1  0.290670  0.569240  0.414360  1.0  0.86
  Cu  Cu9  1  0.000000  0.500000  0.500000  1.0  1.1218
  Cu  Cu10  1  0.000000  0.000000  0.000000  1.0  1.1218
  Cu  Cu11  1  0.500000  0.500000  0.000000  1.0  1.1218
  Cu  Cu12  1  0.500000  0.000000  0.500000  1.0  1.1218
  H  H13  1  0.805800  0.710400  0.516700  1.0  0.1146
  H  H14  1  0.577000  0.630400  0.690300  1.0  0.115
  H  H15  1  0.583200  0.844600  0.655500  1.0  0.1108
  H  H16  1  0.389500  0.708100  0.756500  1.0  0.0989
  H  H17  1  0.995000  0.446000  0.629000  1.0  0.4277
  H  H18  1  0.805800  0.789600  0.983300  1.0  0.1144
  H  H19  1  0.577000  0.869600  0.809700  1.0  0.1151
  H  H20  1  0.583200  0.655400  0.844500  1.0  0.111
  H  H21  1  0.389500  0.791900  0.743500  1.0  0.0985
  H  H22  1  0.995000  0.054000  0.871000  1.0  0.4264
  H  H23  1  0.694200  0.289600  0.016700  1.0  0.1148
  H  H24  1  0.923000  0.369600  0.190300  1.0  0.1153
  H  H25  1  0.916800  0.155400  0.155500  1.0  0.1109
  H  H26  1  0.110500  0.291900  0.256500  1.0  0.098
  H  H27  1  0.505000  0.554000  0.129000  1.0  0.429
  H  H28  1  0.694200  0.210400  0.483300  1.0  0.1144
  H  H29  1  0.923000  0.130400  0.309700  1.0  0.1147
  H  H30  1  0.916800  0.344600  0.344500  1.0  0.1107
  H  H31  1  0.110500  0.208100  0.243500  1.0  0.0987
  H  H32  1  0.505000  0.946000  0.371000  1.0  0.4261
  H  H33  1  0.194200  0.289600  0.483300  1.0  0.1144
  H  H34  1  0.423000  0.369600  0.309700  1.0  0.1155
  H  H35  1  0.416800  0.155400  0.344500  1.0  0.1107
  H  H36  1  0.610500  0.291900  0.243500  1.0  0.098
  H  H37  1  0.005000  0.554000  0.371000  1.0  0.4264
  H  H38  1  0.194200  0.210400  0.016700  1.0  0.1146
  H  H39  1  0.423000  0.130400  0.190300  1.0  0.1148
  H  H40  1  0.416800  0.344600  0.155500  1.0  0.1105
  H  H41  1  0.610500  0.208100  0.256500  1.0  0.0987
  H  H42  1  0.005000  0.946000  0.129000  1.0  0.4284
  H  H43  1  0.305800  0.710400  0.983300  1.0  0.1144
  H  H44  1  0.077000  0.630400  0.809700  1.0  0.1148
  H  H45  1  0.083200  0.844600  0.844500  1.0  0.111
  H  H46  1  0.889500  0.708100  0.743500  1.0  0.0989
  H  H47  1  0.495000  0.446000  0.871000  1.0  0.4259
  H  H48  1  0.305800  0.789600  0.516700  1.0  0.1146
  H  H49  1  0.077000  0.869600  0.690300  1.0  0.1148
  H  H50  1  0.083200  0.655400  0.655500  1.0  0.1111
  H  H51  1  0.889500  0.791900  0.756500  1.0  0.0984
  H  H52  1  0.495000  0.054000  0.629000  1.0  0.4286
  C  C53  1  0.701100  0.787200  0.578470  1.0  -0.1168
  C  C54  1  0.745800  0.717800  0.558500  1.0  -0.0059
  C  C55  1  0.701000  0.659000  0.600700  1.0  -0.143
  C  C56  1  0.608300  0.669900  0.662590  1.0  -0.0735
  C  C57  1  0.562400  0.739400  0.683060  1.0  0.0661
  C  C58  1  0.610900  0.797900  0.641400  1.0  -0.0795
  C  C59  1  0.745600  0.850400  0.532000  1.0  0.6861
  C  C60  1  0.749800  0.583600  0.579800  1.0  0.7015
  C  C61  1  0.701100  0.712800  0.921530  1.0  -0.1174
  C  C62  1  0.745800  0.782200  0.941500  1.0  -0.0062
  C  C63  1  0.701000  0.841000  0.899300  1.0  -0.1434
  C  C64  1  0.608300  0.830100  0.837410  1.0  -0.0736
  C  C65  1  0.562400  0.760600  0.816940  1.0  0.0663
  C  C66  1  0.610900  0.702100  0.858600  1.0  -0.0776
  C  C67  1  0.745600  0.649600  0.968000  1.0  0.6854
  C  C68  1  0.749800  0.916400  0.920200  1.0  0.7024
  C  C69  1  0.798900  0.212800  0.078470  1.0  -0.1185
  C  C70  1  0.754200  0.282200  0.058500  1.0  -0.0059
  C  C71  1  0.799000  0.341000  0.100700  1.0  -0.1427
  C  C72  1  0.891700  0.330100  0.162590  1.0  -0.0735
  C  C73  1  0.937600  0.260600  0.183060  1.0  0.0658
  C  C74  1  0.889100  0.202100  0.141400  1.0  -0.0771
  C  C75  1  0.754400  0.149600  0.032000  1.0  0.6882
  C  C76  1  0.750200  0.416400  0.079800  1.0  0.7015
  C  C77  1  0.798900  0.287200  0.421530  1.0  -0.1175
  C  C78  1  0.754200  0.217800  0.441500  1.0  -0.0067
  C  C79  1  0.799000  0.159000  0.399300  1.0  -0.1426
  C  C80  1  0.891700  0.169900  0.337410  1.0  -0.0739
  C  C81  1  0.937600  0.239400  0.316940  1.0  0.0662
  C  C82  1  0.889100  0.297900  0.358600  1.0  -0.0781
  C  C83  1  0.754400  0.350400  0.468000  1.0  0.6847
  C  C84  1  0.750200  0.083600  0.420200  1.0  0.7018
  C  C85  1  0.298900  0.212800  0.421530  1.0  -0.1176
  C  C86  1  0.254200  0.282200  0.441500  1.0  -0.007
  C  C87  1  0.299000  0.341000  0.399300  1.0  -0.143
  C  C88  1  0.391700  0.330100  0.337410  1.0  -0.0728
  C  C89  1  0.437600  0.260600  0.316940  1.0  0.0663
  C  C90  1  0.389100  0.202100  0.358600  1.0  -0.0768
  C  C91  1  0.254400  0.149600  0.468000  1.0  0.6856
  C  C92  1  0.250200  0.416400  0.420200  1.0  0.7019
  C  C93  1  0.298900  0.287200  0.078470  1.0  -0.1169
  C  C94  1  0.254200  0.217800  0.058500  1.0  -0.0051
  C  C95  1  0.299000  0.159000  0.100700  1.0  -0.143
  C  C96  1  0.391700  0.169900  0.162590  1.0  -0.0742
  C  C97  1  0.437600  0.239400  0.183060  1.0  0.0659
  C  C98  1  0.389100  0.297900  0.141400  1.0  -0.0788
  C  C99  1  0.254400  0.350400  0.032000  1.0  0.6874
  C  C100  1  0.250200  0.083600  0.079800  1.0  0.701
  C  C101  1  0.201100  0.787200  0.921530  1.0  -0.1174
  C  C102  1  0.245800  0.717800  0.941500  1.0  -0.0061
  C  C103  1  0.201000  0.659000  0.899300  1.0  -0.1424
  C  C104  1  0.108300  0.669900  0.837410  1.0  -0.0733
  C  C105  1  0.062400  0.739400  0.816940  1.0  0.0664
  C  C106  1  0.110900  0.797900  0.858600  1.0  -0.0787
  C  C107  1  0.245600  0.850400  0.968000  1.0  0.6848
  C  C108  1  0.249800  0.583600  0.920200  1.0  0.7023
  C  C109  1  0.201100  0.712800  0.578470  1.0  -0.1181
  C  C110  1  0.245800  0.782200  0.558500  1.0  -0.0064
  C  C111  1  0.201000  0.841000  0.600700  1.0  -0.1429
  C  C112  1  0.108300  0.830100  0.662590  1.0  -0.0741
  C  C113  1  0.062400  0.760600  0.683060  1.0  0.0659
  C  C114  1  0.110900  0.702100  0.641400  1.0  -0.0778
  C  C115  1  0.245600  0.649600  0.532000  1.0  0.6868
  C  C116  1  0.249800  0.916400  0.579800  1.0  0.7021
  C  C117  1  0.459800  0.750000  0.750000  1.0  -0.2138
  C  C118  1  0.040200  0.250000  0.250000  1.0  -0.2141
  C  C119  1  0.540200  0.250000  0.250000  1.0  -0.2141
  C  C120  1  0.959800  0.750000  0.750000  1.0  -0.2138
  O  O121  1  0.752500  0.912570  0.557070  1.0  -0.6233
  O  O122  1  0.772700  0.836780  0.465430  1.0  -0.5767
  O  O123  1  0.848700  0.577760  0.527710  1.0  -0.5833
  O  O124  1  0.692200  0.532710  0.615230  1.0  -0.5877
  O  O125  1  0.946700  0.442810  0.583150  1.0  -0.8441
  O  O126  1  0.752500  0.587430  0.942930  1.0  -0.6229
  O  O127  1  0.772700  0.663220  0.034570  1.0  -0.5774
  O  O128  1  0.848700  0.922240  0.972290  1.0  -0.5858
  O  O129  1  0.692200  0.967290  0.884770  1.0  -0.5869
  O  O130  1  0.946700  0.057190  0.916850  1.0  -0.8448
  O  O131  1  0.747500  0.087430  0.057070  1.0  -0.6222
  O  O132  1  0.727300  0.163220  0.965430  1.0  -0.5768
  O  O133  1  0.651300  0.422240  0.027710  1.0  -0.5842
  O  O134  1  0.807800  0.467290  0.115230  1.0  -0.5867
  O  O135  1  0.553300  0.557190  0.083150  1.0  -0.8462
  O  O136  1  0.747500  0.412570  0.442930  1.0  -0.6229
  O  O137  1  0.727300  0.336780  0.534570  1.0  -0.5783
  O  O138  1  0.651300  0.077760  0.472290  1.0  -0.5851
  O  O139  1  0.807800  0.032710  0.384770  1.0  -0.588
  O  O140  1  0.553300  0.942810  0.416850  1.0  -0.8452
  O  O141  1  0.247500  0.087430  0.442930  1.0  -0.6228
  O  O142  1  0.227300  0.163220  0.534570  1.0  -0.5782
  O  O143  1  0.151300  0.422240  0.472290  1.0  -0.5857
  O  O144  1  0.307800  0.467290  0.384770  1.0  -0.5875
  O  O145  1  0.053300  0.557190  0.416850  1.0  -0.8457
  O  O146  1  0.247500  0.412570  0.057070  1.0  -0.6232
  O  O147  1  0.227300  0.336780  0.965430  1.0  -0.5771
  O  O148  1  0.151300  0.077760  0.027710  1.0  -0.5842
  O  O149  1  0.307800  0.032710  0.115230  1.0  -0.5881
  O  O150  1  0.053300  0.942810  0.083150  1.0  -0.8453
  O  O151  1  0.252500  0.912570  0.942930  1.0  -0.6228
  O  O152  1  0.272700  0.836780  0.034570  1.0  -0.5774
  O  O153  1  0.348700  0.577760  0.972290  1.0  -0.5854
  O  O154  1  0.192200  0.532710  0.884770  1.0  -0.5875
  O  O155  1  0.446700  0.442810  0.916850  1.0  -0.8445
  O  O156  1  0.252500  0.587430  0.557070  1.0  -0.6225
  O  O157  1  0.272700  0.663220  0.465430  1.0  -0.5766
  O  O158  1  0.348700  0.922240  0.527710  1.0  -0.584
  O  O159  1  0.192200  0.967290  0.615230  1.0  -0.5864
  O  O160  1  0.446700  0.057190  0.583150  1.0  -0.8442
