# generated using pymatgen
data_KBi3H20C18N2O23
_symmetry_space_group_name_H-M   'P 1'
_cell_length_a   15.25610000
_cell_length_b   15.25610000
_cell_length_c   28.08600000
_cell_angle_alpha   91.11050000
_cell_angle_beta   91.11050000
_cell_angle_gamma   36.69650000
_symmetry_Int_Tables_number   1
_chemical_formula_structural   KBi3H20C18N2O23
_chemical_formula_sum   'K4 Bi12 H80 C72 N8 O92'
_cell_volume   3905.52714909
_cell_formula_units_Z   4
loop_
 _symmetry_equiv_pos_site_id
 _symmetry_equiv_pos_as_xyz
  1  'x, y, z'
loop_
 _atom_site_type_symbol
 _atom_site_label
 _atom_site_symmetry_multiplicity
 _atom_site_fract_x
 _atom_site_fract_y
 _atom_site_fract_z
 _atom_site_occupancy
 _atom_site_charge
  K  K1  1  0.378490  0.715870  0.895000  1.0  0.9752
  K  K2  1  0.275020  0.638210  0.598610  1.0  1.003
  K  K3  1  0.598830  0.304580  0.095220  1.0  0.9521
  K  K4  1  0.708380  0.397120  0.407200  1.0  0.9829
  Bi  Bi5  1  0.562740  0.629440  0.038690  1.0  1.4139
  Bi  Bi6  1  0.757920  0.674950  0.015760  1.0  1.4407
  Bi  Bi7  1  0.449290  0.616630  0.144460  1.0  1.3966
  Bi  Bi8  1  0.365640  0.472100  0.452750  1.0  1.4244
  Bi  Bi9  1  0.204090  0.443760  0.521140  1.0  1.3625
  Bi  Bi10  1  0.409570  0.568650  0.347270  1.0  1.39
  Bi  Bi11  1  0.424960  0.390250  0.953360  1.0  1.3907
  Bi  Bi12  1  0.224040  0.350310  0.978590  1.0  1.434
  Bi  Bi13  1  0.541480  0.401440  0.846200  1.0  1.3897
  Bi  Bi14  1  0.639090  0.537780  0.543880  1.0  1.4354
  Bi  Bi15  1  0.717990  0.708800  0.525910  1.0  1.4317
  Bi  Bi16  1  0.596310  0.439190  0.649470  1.0  1.3777
  H  H17  1  0.557740  0.061650  0.114100  1.0  0.1427
  H  H18  1  0.455950  0.045550  0.120160  1.0  0.1526
  H  H19  1  0.294090  0.309730  0.154540  1.0  0.1551
  H  H20  1  0.390770  0.315470  0.123580  1.0  0.1414
  H  H21  1  0.797100  0.520110  0.203410  1.0  0.1585
  H  H22  1  0.846940  0.371550  0.184040  1.0  0.1543
  H  H23  1  0.718960  0.533670  0.290990  1.0  0.1515
  H  H24  1  0.805890  0.364490  0.271060  1.0  0.1439
  H  H25  1  0.922960  0.268560  0.056320  1.0  0.1551
  H  H26  1  0.001450  0.175420  0.000420  1.0  0.144
  H  H27  1  0.904160  0.117290  0.976930  1.0  0.1406
  H  H28  1  0.874270  0.131980  0.040370  1.0  0.1375
  H  H29  1  0.997590  0.399300  0.395470  1.0  0.161
  H  H30  1  0.974350  0.523170  0.369090  1.0  0.1503
  H  H31  1  0.733570  0.674060  0.347680  1.0  0.1498
  H  H32  1  0.728380  0.577740  0.379130  1.0  0.1492
  H  H33  1  0.251580  0.442690  0.284070  1.0  0.1518
  H  H34  1  0.445500  0.293990  0.294940  1.0  0.1557
  H  H35  1  0.276660  0.489050  0.200260  1.0  0.1424
  H  H36  1  0.470210  0.327580  0.211340  1.0  0.152
  H  H37  1  0.680830  0.104810  0.437860  1.0  0.1352
  H  H38  1  0.763000  0.019700  0.494560  1.0  0.156
  H  H39  1  0.871120  0.070080  0.525020  1.0  0.1322
  H  H40  1  0.876180  0.083800  0.461790  1.0  0.1235
  H  H41  1  0.406480  0.961550  0.886540  1.0  0.1457
  H  H42  1  0.496430  0.989140  0.873480  1.0  0.1545
  H  H43  1  0.674430  0.723950  0.841190  1.0  0.1519
  H  H44  1  0.590050  0.705020  0.873320  1.0  0.1446
  H  H45  1  0.227810  0.454510  0.786720  1.0  0.1635
  H  H46  1  0.168270  0.611150  0.801570  1.0  0.1572
  H  H47  1  0.338090  0.399280  0.699260  1.0  0.1479
  H  H48  1  0.218200  0.585420  0.712800  1.0  0.1562
  H  H49  1  0.060210  0.755980  0.936260  1.0  0.151
  H  H50  1  0.985480  0.846610  0.992660  1.0  0.1388
  H  H51  1  0.084680  0.903150  0.014730  1.0  0.1378
  H  H52  1  0.113870  0.888620  0.951290  1.0  0.1435
  H  H53  1  0.084400  0.430590  0.662200  1.0  0.1518
  H  H54  1  0.089680  0.322900  0.631590  1.0  0.1564
  H  H55  1  0.370000  0.108920  0.652390  1.0  0.1663
  H  H56  1  0.339300  0.240560  0.677090  1.0  0.1447
  H  H57  1  0.666500  0.652240  0.712820  1.0  0.1552
  H  H58  1  0.484280  0.761710  0.698650  1.0  0.1564
  H  H59  1  0.690850  0.558260  0.797450  1.0  0.1346
  H  H60  1  0.497100  0.713390  0.786400  1.0  0.1461
  H  H61  1  0.295110  0.913810  0.564990  1.0  0.1432
  H  H62  1  0.200190  0.000870  0.509740  1.0  0.1398
  H  H63  1  0.107020  0.940310  0.487360  1.0  0.1284
  H  H64  1  0.124570  0.898210  0.548880  1.0  0.1566
  H  H65  1  0.853430  0.181160  0.224290  1.0  0.2042
  H  H66  1  0.742060  0.184420  0.237140  1.0  0.247
  H  H67  1  0.837740  0.160180  0.281600  1.0  0.2526
  H  H68  1  0.152460  0.956600  0.268330  1.0  0.2711
  H  H69  1  0.144280  0.058710  0.300700  1.0  0.3154
  H  H70  1  0.281690  0.875350  0.311020  1.0  0.2896
  H  H71  1  0.985240  0.842760  0.352530  1.0  0.2718
  H  H72  1  0.035900  0.897510  0.380810  1.0  0.2734
  H  H73  1  0.951230  0.884790  0.411670  1.0  0.2594
  H  H74  1  0.021780  0.126130  0.586940  1.0  0.2275
  H  H75  1  0.995670  0.175250  0.645190  1.0  0.2465
  H  H76  1  0.127290  0.995030  0.630080  1.0  0.2526
  H  H77  1  0.921410  0.914240  0.738310  1.0  0.268
  H  H78  1  0.807900  0.016430  0.690260  1.0  0.29
  H  H79  1  0.981490  0.918810  0.689130  1.0  0.2606
  H  H80  1  0.202230  0.805800  0.744390  1.0  0.2362
  H  H81  1  0.081960  0.984140  0.731080  1.0  0.2655
  H  H82  1  0.261710  0.863850  0.741670  1.0  0.2489
  H  H83  1  0.921290  0.077430  0.861060  1.0  0.2669
  H  H84  1  0.878330  0.020510  0.892120  1.0  0.2516
  H  H85  1  0.049450  0.894750  0.868870  1.0  0.2412
  H  H86  1  0.949740  0.118160  0.129110  1.0  0.2567
  H  H87  1  0.086400  0.964960  0.162930  1.0  0.2649
  H  H88  1  0.117460  0.963830  0.104760  1.0  0.271
  H  H89  1  0.152130  0.920490  0.787300  1.0  0.2577
  H  H90  1  0.852490  0.069990  0.724790  1.0  0.2603
  H  H91  1  0.903390  0.993040  0.832030  1.0  0.2586
  H  H92  1  0.946620  0.112640  0.624540  1.0  0.2579
  H  H93  1  0.854940  0.020480  0.370780  1.0  0.2658
  H  H94  1  0.927890  0.024060  0.240780  1.0  0.242
  H  H95  1  0.106350  0.991960  0.327060  1.0  0.2742
  H  H96  1  0.006050  0.967750  0.118690  1.0  0.253
  C  C97  1  0.565330  0.971480  0.053570  1.0  0.5574
  C  C98  1  0.481750  0.077400  0.094640  1.0  -0.2751
  C  C99  1  0.340450  0.240170  0.079550  1.0  0.2549
  C  C100  1  0.215850  0.276360  0.072430  1.0  0.621
  C  C101  1  0.300910  0.338410  0.119980  1.0  -0.2557
  C  C102  1  0.158730  0.500340  0.112300  1.0  0.774
  C  C103  1  0.691630  0.558830  0.138330  1.0  0.5665
  C  C104  1  0.753380  0.492880  0.187690  1.0  -0.2368
  C  C105  1  0.639170  0.545830  0.221600  1.0  0.2622
  C  C106  1  0.504270  0.705520  0.222610  1.0  0.6191
  C  C107  1  0.699240  0.485140  0.272870  1.0  -0.2353
  C  C108  1  0.595080  0.514230  0.302060  1.0  0.5216
  C  C109  1  0.880500  0.392190  0.000360  1.0  0.605
  C  C110  1  0.900760  0.283470  0.017350  1.0  -0.2531
  C  C111  1  0.767830  0.328470  0.007300  1.0  0.2287
  C  C112  1  0.688810  0.414480  0.962710  1.0  0.6106
  C  C113  1  0.822210  0.188630  0.005600  1.0  -0.1795
  C  C114  1  0.707650  0.212440  0.994530  1.0  0.7612
  C  C115  1  0.080410  0.440600  0.436600  1.0  0.6055
  C  C116  1  0.967370  0.492970  0.403160  1.0  -0.2546
  C  C117  1  0.808360  0.624510  0.422260  1.0  0.2677
  C  C118  1  0.766650  0.752010  0.433400  1.0  0.6086
  C  C119  1  0.706570  0.666800  0.382610  1.0  -0.2508
  C  C120  1  0.545200  0.810310  0.390150  1.0  0.7565
  C  C121  1  0.315420  0.455510  0.350240  1.0  0.5752
  C  C122  1  0.340540  0.414810  0.298140  1.0  -0.2322
  C  C123  1  0.348710  0.491590  0.268340  1.0  0.2771
  C  C124  1  0.213620  0.654530  0.274040  1.0  0.6245
  C  C125  1  0.372390  0.449090  0.214900  1.0  -0.2716
  C  C126  1  0.397790  0.509130  0.185660  1.0  0.5579
  C  C127  1  0.529810  0.185070  0.491540  1.0  0.5595
  C  C128  1  0.665450  0.127030  0.476800  1.0  -0.2541
  C  C129  1  0.658040  0.233000  0.488860  1.0  0.2224
  C  C130  1  0.567870  0.322200  0.532400  1.0  0.6202
  C  C131  1  0.813620  0.147820  0.494910  1.0  -0.2493
  C  C132  1  0.809380  0.248890  0.504160  1.0  0.7479
  C  C133  1  0.403320  0.057740  0.943090  1.0  0.5589
  C  C134  1  0.481120  0.952630  0.901930  1.0  -0.2708
  C  C135  1  0.629180  0.791790  0.916220  1.0  0.2758
  C  C136  1  0.745510  0.767660  0.922330  1.0  0.6283
  C  C137  1  0.674100  0.690410  0.875940  1.0  -0.2869
  C  C138  1  0.822120  0.529990  0.882800  1.0  0.7573
  C  C139  1  0.316640  0.437180  0.852440  1.0  0.5288
  C  C140  1  0.265110  0.489230  0.801350  1.0  -0.2867
  C  C141  1  0.383070  0.432060  0.768100  1.0  0.2629
  C  C142  1  0.524100  0.274810  0.772890  1.0  0.6127
  C  C143  1  0.333840  0.469920  0.715100  1.0  -0.2605
  C  C144  1  0.426480  0.457030  0.686370  1.0  0.5549
  C  C145  1  0.105370  0.630360  0.992000  1.0  0.5749
  C  C146  1  0.084790  0.739230  0.975080  1.0  -0.2624
  C  C147  1  0.218840  0.692610  0.984230  1.0  0.2286
  C  C148  1  0.299040  0.606080  0.028640  1.0  0.6101
  C  C149  1  0.166160  0.831390  0.985960  1.0  -0.1809
  C  C150  1  0.282380  0.805320  0.996760  1.0  0.7357
  C  C151  1  0.967370  0.520550  0.596340  1.0  0.615
  C  C152  1  0.095900  0.389880  0.626310  1.0  -0.2892
  C  C153  1  0.246380  0.294830  0.605340  1.0  0.2831
  C  C154  1  0.277870  0.214770  0.561510  1.0  0.5908
  C  C155  1  0.366520  0.182520  0.643580  1.0  -0.2424
  C  C156  1  0.516160  0.091560  0.628350  1.0  0.7686
  C  C157  1  0.644480  0.597280  0.646640  1.0  0.5845
  C  C158  1  0.601730  0.648110  0.697860  1.0  -0.254
  C  C159  1  0.624670  0.549270  0.729280  1.0  0.2663
  C  C160  1  0.769330  0.393810  0.723450  1.0  0.6249
  C  C161  1  0.598890  0.592240  0.782600  1.0  -0.2741
  C  C162  1  0.580390  0.525000  0.810900  1.0  0.5578
  C  C163  1  0.426610  0.854700  0.508360  1.0  0.5663
  C  C164  1  0.305080  0.894410  0.525970  1.0  -0.2671
  C  C165  1  0.328690  0.776220  0.515810  1.0  0.2361
  C  C166  1  0.411830  0.693160  0.471380  1.0  0.6017
  C  C167  1  0.177650  0.849840  0.513460  1.0  -0.2139
  C  C168  1  0.184280  0.749150  0.498410  1.0  0.7673
  N  N169  1  0.938040  0.996510  0.863530  1.0  -0.6372
  N  N170  1  0.022840  0.102240  0.621700  1.0  -0.3319
  N  N171  1  0.039910  0.003660  0.128880  1.0  -0.3428
  N  N172  1  0.956830  0.911410  0.378940  1.0  -0.3673
  N  N173  1  0.171180  0.970670  0.301780  1.0  -0.6409
  N  N174  1  0.840260  0.137470  0.245960  1.0  -0.204
  N  N175  1  0.890810  0.979840  0.710630  1.0  -0.6515
  N  N176  1  0.174470  0.893530  0.751120  1.0  -0.6376
  O  O177  1  0.645270  0.954300  0.030300  1.0  -0.5124
  O  O178  1  0.556310  0.888830  0.043500  1.0  -0.5631
  O  O179  1  0.184700  0.249360  0.103340  1.0  -0.4787
  O  O180  1  0.127260  0.352360  0.032610  1.0  -0.5722
  O  O181  1  0.037240  0.557010  0.113020  1.0  -0.5188
  O  O182  1  0.158870  0.582670  0.107430  1.0  -0.4933
  O  O183  1  0.368990  0.263780  0.037670  1.0  -0.5623
  O  O184  1  0.627930  0.541830  0.110450  1.0  -0.6451
  O  O185  1  0.700680  0.625320  0.122470  1.0  -0.4638
  O  O186  1  0.386400  0.760460  0.200620  1.0  -0.6055
  O  O187  1  0.493800  0.785330  0.242730  1.0  -0.4687
  O  O188  1  0.546080  0.574550  0.347240  1.0  -0.6873
  O  O189  1  0.543210  0.486570  0.287700  1.0  -0.6311
  O  O190  1  0.596810  0.497860  0.204260  1.0  -0.5949
  O  O191  1  0.747800  0.543740  0.006140  1.0  -0.6775
  O  O192  1  0.981160  0.346340  0.979460  1.0  -0.5102
  O  O193  1  0.557900  0.563710  0.968310  1.0  -0.7025
  O  O194  1  0.737530  0.358030  0.923320  1.0  -0.4943
  O  O195  1  0.640070  0.267400  0.955140  1.0  -0.5688
  O  O196  1  0.663650  0.195280  0.025810  1.0  -0.664
  O  O197  1  0.666210  0.420120  0.044090  1.0  -0.6897
  O  O198  1  0.652280  0.385560  0.143960  1.0  -0.7899
  O  O199  1  0.231920  0.957000  0.877840  1.0  -0.2404
  O  O200  1  0.207620  0.342590  0.423440  1.0  -0.4652
  O  O201  1  0.040130  0.503690  0.481960  1.0  -0.5966
  O  O202  1  0.776270  0.799920  0.402840  1.0  -0.4571
  O  O203  1  0.715050  0.817510  0.478000  1.0  -0.5721
  O  O204  1  0.491130  0.930400  0.390110  1.0  -0.4952
  O  O205  1  0.460250  0.813150  0.393380  1.0  -0.4992
  O  O206  1  0.801870  0.576870  0.462970  1.0  -0.5465
  O  O207  1  0.409320  0.437420  0.376120  1.0  -0.6718
  O  O208  1  0.211130  0.505070  0.369780  1.0  -0.4633
  O  O209  1  0.225640  0.722940  0.299420  1.0  -0.5718
  O  O210  1  0.096230  0.726500  0.256380  1.0  -0.4835
  O  O211  1  0.530440  0.426290  0.167550  1.0  -0.6921
  O  O212  1  0.306950  0.637740  0.178080  1.0  -0.5333
  O  O213  1  0.468450  0.445120  0.284830  1.0  -0.6774
  O  O214  1  0.387610  0.322040  0.475900  1.0  -0.6722
  O  O215  1  0.546400  0.109640  0.517720  1.0  -0.4768
  O  O216  1  0.429770  0.467020  0.524790  1.0  -0.6833
  O  O217  1  0.609480  0.268940  0.572120  1.0  -0.4946
  O  O218  1  0.742130  0.331880  0.540550  1.0  -0.5774
  O  O219  1  0.854180  0.266260  0.473330  1.0  -0.6248
  O  O220  1  0.588350  0.332370  0.451470  1.0  -0.6459
  O  O221  1  0.619070  0.346260  0.360850  1.0  -0.6139
  O  O222  1  0.043540  0.757970  0.611300  1.0  -0.1937
  O  O223  1  0.320230  0.080790  0.967110  1.0  -0.5087
  O  O224  1  0.422250  0.132020  0.952760  1.0  -0.5916
  O  O225  1  0.766230  0.804930  0.891450  1.0  -0.4846
  O  O226  1  0.838900  0.690940  0.961110  1.0  -0.5704
  O  O227  1  0.938270  0.482800  0.881950  1.0  -0.5237
  O  O228  1  0.832270  0.439440  0.886900  1.0  -0.5281
  O  O229  1  0.608530  0.761830  0.958490  1.0  -0.553
  O  O230  1  0.367990  0.467710  0.880370  1.0  -0.6424
  O  O231  1  0.309440  0.370220  0.869680  1.0  -0.4638
  O  O232  1  0.632020  0.240800  0.791990  1.0  -0.5833
  O  O233  1  0.548230  0.180670  0.758740  1.0  -0.4515
  O  O234  1  0.381270  0.574610  0.673410  1.0  -0.6445
  O  O235  1  0.552930  0.343630  0.675340  1.0  -0.5547
  O  O236  1  0.413360  0.494390  0.781400  1.0  -0.6382
  O  O237  1  0.237740  0.478830  0.985800  1.0  -0.6841
  O  O238  1  0.005070  0.676050  0.013180  1.0  -0.492
  O  O239  1  0.429640  0.457170  0.022730  1.0  -0.682
  O  O240  1  0.251650  0.661850  0.068170  1.0  -0.5185
  O  O241  1  0.345290  0.757080  0.036980  1.0  -0.5842
  O  O242  1  0.334100  0.811450  0.964510  1.0  -0.6256
  O  O243  1  0.318480  0.601150  0.946890  1.0  -0.7033
  O  O244  1  0.332050  0.629930  0.843740  1.0  -0.8299
  O  O245  1  0.717010  0.077660  0.115430  1.0  -0.2929
  O  O246  1  0.894030  0.642200  0.609510  1.0  -0.4482
  O  O247  1  0.930530  0.503320  0.554440  1.0  -0.5677
  O  O248  1  0.296130  0.121200  0.564610  1.0  -0.5089
  O  O249  1  0.284830  0.247580  0.517280  1.0  -0.5639
  O  O250  1  0.615250  0.955680  0.619680  1.0  -0.4973
  O  O251  1  0.545180  0.149340  0.624900  1.0  -0.4852
  O  O252  1  0.246930  0.384090  0.594800  1.0  -0.5507
  O  O253  1  0.577800  0.583980  0.618750  1.0  -0.6488
  O  O254  1  0.737760  0.569410  0.629380  1.0  -0.4607
  O  O255  1  0.764800  0.314230  0.704510  1.0  -0.5714
  O  O256  1  0.883670  0.336370  0.737050  1.0  -0.4904
  O  O257  1  0.447090  0.597520  0.821790  1.0  -0.7204
  O  O258  1  0.678560  0.398230  0.823200  1.0  -0.55
  O  O259  1  0.528030  0.560290  0.714890  1.0  -0.5939
  O  O260  1  0.574940  0.714120  0.514300  1.0  -0.6723
  O  O261  1  0.393990  0.947490  0.487340  1.0  -0.4993
  O  O262  1  0.554550  0.550920  0.477200  1.0  -0.6634
  O  O263  1  0.358790  0.747330  0.432060  1.0  -0.5006
  O  O264  1  0.223430  0.695730  0.456670  1.0  -0.588
  O  O265  1  0.175160  0.696580  0.528740  1.0  -0.6439
  O  O266  1  0.415260  0.672650  0.552490  1.0  -0.6927
  O  O267  1  0.378960  0.663430  0.651020  1.0  -0.8051
  O  O268  1  0.935920  0.267430  0.379480  1.0  -0.2418
