# generated using pymatgen
data_Mn2H8C16O9
_symmetry_space_group_name_H-M   'P 1'
_cell_length_a   23.11300000
_cell_length_b   7.39540000
_cell_length_c   29.65700000
_cell_angle_alpha   90.00000000
_cell_angle_beta   93.03700000
_cell_angle_gamma   90.00000000
_symmetry_Int_Tables_number   1
_chemical_formula_structural   Mn2H8C16O9
_chemical_formula_sum   'Mn16 H64 C128 O72'
_cell_volume   5062.14782022
_cell_formula_units_Z   8
loop_
 _symmetry_equiv_pos_site_id
 _symmetry_equiv_pos_as_xyz
  1  'x, y, z'
loop_
 _atom_site_type_symbol
 _atom_site_label
 _atom_site_symmetry_multiplicity
 _atom_site_fract_x
 _atom_site_fract_y
 _atom_site_fract_z
 _atom_site_occupancy
 _atom_site_charge
  Mn  Mn1  1  0.975770  0.536030  0.356710  1.0  1.009
  Mn  Mn2  1  0.475770  0.036030  0.356710  1.0  1.009
  Mn  Mn3  1  0.024230  0.536030  0.143290  1.0  1.0112
  Mn  Mn4  1  0.524230  0.036030  0.143290  1.0  1.0112
  Mn  Mn5  1  0.024230  0.463970  0.643290  1.0  1.011
  Mn  Mn6  1  0.524230  0.963970  0.643290  1.0  1.011
  Mn  Mn7  1  0.975770  0.463970  0.856710  1.0  1.0137
  Mn  Mn8  1  0.475770  0.963970  0.856710  1.0  1.0137
  Mn  Mn9  1  0.000000  0.249790  0.250000  1.0  1.1184
  Mn  Mn10  1  0.500000  0.749790  0.250000  1.0  1.1184
  Mn  Mn11  1  0.000000  0.750210  0.750000  1.0  1.1168
  Mn  Mn12  1  0.500000  0.250210  0.750000  1.0  1.1168
  Mn  Mn13  1  0.250000  0.250000  0.500000  1.0  1.1017
  Mn  Mn14  1  0.750000  0.250000  0.000000  1.0  1.1017
  Mn  Mn15  1  0.750000  0.750000  0.500000  1.0  1.1017
  Mn  Mn16  1  0.250000  0.750000  0.000000  1.0  1.1017
  H  H17  1  0.159100  0.384800  0.377900  1.0  0.1089
  H  H18  1  0.303200  0.280800  0.313100  1.0  0.1189
  H  H19  1  0.159400  0.443000  0.244000  1.0  0.111
  H  H20  1  0.203600  0.269800  0.187700  1.0  0.1099
  H  H21  1  0.347800  0.386200  0.123300  1.0  0.1089
  H  H22  1  0.343800  0.458100  0.256800  1.0  0.1041
  H  H23  1  0.999700  0.206100  0.333900  1.0  0.4495
  H  H24  1  0.943200  0.192600  0.326200  1.0  0.3872
  H  H25  1  0.659100  0.884800  0.377900  1.0  0.1089
  H  H26  1  0.803200  0.780800  0.313100  1.0  0.1189
  H  H27  1  0.659400  0.943000  0.244000  1.0  0.111
  H  H28  1  0.703600  0.769800  0.187700  1.0  0.1099
  H  H29  1  0.847800  0.886200  0.123300  1.0  0.1089
  H  H30  1  0.843800  0.958100  0.256800  1.0  0.1041
  H  H31  1  0.499700  0.706100  0.333900  1.0  0.4495
  H  H32  1  0.443200  0.692600  0.326200  1.0  0.3872
  H  H33  1  0.840900  0.384800  0.122100  1.0  0.1102
  H  H34  1  0.696800  0.280800  0.186900  1.0  0.1187
  H  H35  1  0.840600  0.443000  0.256000  1.0  0.1103
  H  H36  1  0.796400  0.269800  0.312300  1.0  0.1102
  H  H37  1  0.652200  0.386200  0.376700  1.0  0.109
  H  H38  1  0.656200  0.458100  0.243200  1.0  0.105
  H  H39  1  0.000300  0.206100  0.166100  1.0  0.4503
  H  H40  1  0.056800  0.192600  0.173800  1.0  0.3894
  H  H41  1  0.340900  0.884800  0.122100  1.0  0.1102
  H  H42  1  0.196800  0.780800  0.186900  1.0  0.1187
  H  H43  1  0.340600  0.943000  0.256000  1.0  0.1103
  H  H44  1  0.296400  0.769800  0.312300  1.0  0.1102
  H  H45  1  0.152200  0.886200  0.376700  1.0  0.109
  H  H46  1  0.156200  0.958100  0.243200  1.0  0.105
  H  H47  1  0.500300  0.706100  0.166100  1.0  0.4503
  H  H48  1  0.556800  0.692600  0.173800  1.0  0.3894
  H  H49  1  0.840900  0.615200  0.622100  1.0  0.1099
  H  H50  1  0.696800  0.719200  0.686900  1.0  0.1185
  H  H51  1  0.840600  0.557000  0.756000  1.0  0.1105
  H  H52  1  0.796400  0.730200  0.812300  1.0  0.1099
  H  H53  1  0.652200  0.613800  0.876700  1.0  0.109
  H  H54  1  0.656200  0.541900  0.743200  1.0  0.1053
  H  H55  1  0.000300  0.793900  0.666100  1.0  0.4517
  H  H56  1  0.056800  0.807400  0.673800  1.0  0.3904
  H  H57  1  0.340900  0.115200  0.622100  1.0  0.1099
  H  H58  1  0.196800  0.219200  0.686900  1.0  0.1185
  H  H59  1  0.340600  0.057000  0.756000  1.0  0.1105
  H  H60  1  0.296400  0.230200  0.812300  1.0  0.1099
  H  H61  1  0.152200  0.113800  0.876700  1.0  0.109
  H  H62  1  0.156200  0.041900  0.743200  1.0  0.1053
  H  H63  1  0.500300  0.293900  0.666100  1.0  0.4517
  H  H64  1  0.556800  0.307400  0.673800  1.0  0.3904
  H  H65  1  0.159100  0.615200  0.877900  1.0  0.1087
  H  H66  1  0.303200  0.719200  0.813100  1.0  0.1187
  H  H67  1  0.159400  0.557000  0.744000  1.0  0.1111
  H  H68  1  0.203600  0.730200  0.687700  1.0  0.1095
  H  H69  1  0.347800  0.613800  0.623300  1.0  0.1087
  H  H70  1  0.343800  0.541900  0.756800  1.0  0.104
  H  H71  1  0.999700  0.793900  0.833900  1.0  0.4486
  H  H72  1  0.943200  0.807400  0.826200  1.0  0.3895
  H  H73  1  0.659100  0.115200  0.877900  1.0  0.1087
  H  H74  1  0.803200  0.219200  0.813100  1.0  0.1187
  H  H75  1  0.659400  0.057000  0.744000  1.0  0.1111
  H  H76  1  0.703600  0.230200  0.687700  1.0  0.1095
  H  H77  1  0.847800  0.113800  0.623300  1.0  0.1087
  H  H78  1  0.843800  0.041900  0.756800  1.0  0.104
  H  H79  1  0.499700  0.293900  0.833900  1.0  0.4486
  H  H80  1  0.443200  0.307400  0.826200  1.0  0.3895
  C  C81  1  0.086700  0.474500  0.310200  1.0  0.7191
  C  C82  1  0.149500  0.423100  0.310930  1.0  -0.1655
  C  C83  1  0.178400  0.377900  0.351270  1.0  0.0105
  C  C84  1  0.235400  0.322900  0.352710  1.0  -0.1746
  C  C85  1  0.264600  0.317100  0.312410  1.0  -0.0727
  C  C86  1  0.236800  0.364400  0.271820  1.0  -0.0125
  C  C87  1  0.178900  0.414600  0.271340  1.0  -0.0565
  C  C88  1  0.268700  0.364000  0.229350  1.0  -0.0036
  C  C89  1  0.241700  0.310600  0.188410  1.0  -0.0562
  C  C90  1  0.270900  0.317000  0.148320  1.0  -0.1675
  C  C91  1  0.328000  0.380100  0.149760  1.0  0.0151
  C  C92  1  0.355500  0.434000  0.190640  1.0  -0.1813
  C  C93  1  0.325300  0.423700  0.229560  1.0  -0.0672
  C  C94  1  0.240800  0.260600  0.104710  1.0  0.7087
  C  C95  1  0.415300  0.510500  0.191810  1.0  0.6705
  C  C96  1  0.264500  0.269900  0.397070  1.0  0.7288
  C  C97  1  0.586700  0.974500  0.310200  1.0  0.7191
  C  C98  1  0.649500  0.923100  0.310930  1.0  -0.1655
  C  C99  1  0.678400  0.877900  0.351270  1.0  0.0105
  C  C100  1  0.735400  0.822900  0.352710  1.0  -0.1746
  C  C101  1  0.764600  0.817100  0.312410  1.0  -0.0727
  C  C102  1  0.736800  0.864400  0.271820  1.0  -0.0125
  C  C103  1  0.678900  0.914600  0.271340  1.0  -0.0565
  C  C104  1  0.768700  0.864000  0.229350  1.0  -0.0036
  C  C105  1  0.741700  0.810600  0.188410  1.0  -0.0562
  C  C106  1  0.770900  0.817000  0.148320  1.0  -0.1675
  C  C107  1  0.828000  0.880100  0.149760  1.0  0.0151
  C  C108  1  0.855500  0.934000  0.190640  1.0  -0.1813
  C  C109  1  0.825300  0.923700  0.229560  1.0  -0.0672
  C  C110  1  0.740800  0.760600  0.104710  1.0  0.7087
  C  C111  1  0.915300  0.010500  0.191810  1.0  0.6705
  C  C112  1  0.764500  0.769900  0.397070  1.0  0.7288
  C  C113  1  0.913300  0.474500  0.189800  1.0  0.7189
  C  C114  1  0.850500  0.423100  0.189070  1.0  -0.1664
  C  C115  1  0.821600  0.377900  0.148730  1.0  0.0098
  C  C116  1  0.764600  0.322900  0.147290  1.0  -0.1777
  C  C117  1  0.735400  0.317100  0.187590  1.0  -0.074
  C  C118  1  0.763200  0.364400  0.228180  1.0  -0.0124
  C  C119  1  0.821100  0.414600  0.228660  1.0  -0.0572
  C  C120  1  0.731300  0.364000  0.270650  1.0  -0.0043
  C  C121  1  0.758300  0.310600  0.311590  1.0  -0.0584
  C  C122  1  0.729100  0.317000  0.351680  1.0  -0.1663
  C  C123  1  0.672000  0.380100  0.350240  1.0  0.0147
  C  C124  1  0.644500  0.434000  0.309360  1.0  -0.1812
  C  C125  1  0.674700  0.423700  0.270440  1.0  -0.0663
  C  C126  1  0.759200  0.260600  0.395290  1.0  0.7113
  C  C127  1  0.584700  0.510500  0.308190  1.0  0.6697
  C  C128  1  0.735500  0.269900  0.102930  1.0  0.7307
  C  C129  1  0.413300  0.974500  0.189800  1.0  0.7189
  C  C130  1  0.350500  0.923100  0.189070  1.0  -0.1664
  C  C131  1  0.321600  0.877900  0.148730  1.0  0.0098
  C  C132  1  0.264600  0.822900  0.147290  1.0  -0.1777
  C  C133  1  0.235400  0.817100  0.187590  1.0  -0.074
  C  C134  1  0.263200  0.864400  0.228180  1.0  -0.0124
  C  C135  1  0.321100  0.914600  0.228660  1.0  -0.0572
  C  C136  1  0.231300  0.864000  0.270650  1.0  -0.0043
  C  C137  1  0.258300  0.810600  0.311590  1.0  -0.0584
  C  C138  1  0.229100  0.817000  0.351680  1.0  -0.1663
  C  C139  1  0.172000  0.880100  0.350240  1.0  0.0147
  C  C140  1  0.144500  0.934000  0.309360  1.0  -0.1812
  C  C141  1  0.174700  0.923700  0.270440  1.0  -0.0663
  C  C142  1  0.259200  0.760600  0.395290  1.0  0.7113
  C  C143  1  0.084700  0.010500  0.308190  1.0  0.6697
  C  C144  1  0.235500  0.769900  0.102930  1.0  0.7307
  C  C145  1  0.913300  0.525500  0.689800  1.0  0.7175
  C  C146  1  0.850500  0.576900  0.689070  1.0  -0.1665
  C  C147  1  0.821600  0.622100  0.648730  1.0  0.0097
  C  C148  1  0.764600  0.677100  0.647290  1.0  -0.1768
  C  C149  1  0.735400  0.682900  0.687590  1.0  -0.0738
  C  C150  1  0.763200  0.635600  0.728180  1.0  -0.0124
  C  C151  1  0.821100  0.585400  0.728660  1.0  -0.0574
  C  C152  1  0.731300  0.636000  0.770650  1.0  -0.0042
  C  C153  1  0.758300  0.689400  0.811590  1.0  -0.0588
  C  C154  1  0.729100  0.683000  0.851680  1.0  -0.1673
  C  C155  1  0.672000  0.619900  0.850240  1.0  0.0148
  C  C156  1  0.644500  0.566000  0.809360  1.0  -0.1807
  C  C157  1  0.674700  0.576300  0.770440  1.0  -0.0661
  C  C158  1  0.759200  0.739400  0.895290  1.0  0.7123
  C  C159  1  0.584700  0.489500  0.808190  1.0  0.6702
  C  C160  1  0.735500  0.730100  0.602930  1.0  0.731
  C  C161  1  0.413300  0.025500  0.689800  1.0  0.7175
  C  C162  1  0.350500  0.076900  0.689070  1.0  -0.1665
  C  C163  1  0.321600  0.122100  0.648730  1.0  0.0097
  C  C164  1  0.264600  0.177100  0.647290  1.0  -0.1768
  C  C165  1  0.235400  0.182900  0.687590  1.0  -0.0738
  C  C166  1  0.263200  0.135600  0.728180  1.0  -0.0124
  C  C167  1  0.321100  0.085400  0.728660  1.0  -0.0574
  C  C168  1  0.231300  0.136000  0.770650  1.0  -0.0042
  C  C169  1  0.258300  0.189400  0.811590  1.0  -0.0588
  C  C170  1  0.229100  0.183000  0.851680  1.0  -0.1673
  C  C171  1  0.172000  0.119900  0.850240  1.0  0.0148
  C  C172  1  0.144500  0.066000  0.809360  1.0  -0.1807
  C  C173  1  0.174700  0.076300  0.770440  1.0  -0.0661
  C  C174  1  0.259200  0.239400  0.895290  1.0  0.7123
  C  C175  1  0.084700  0.989500  0.808190  1.0  0.6702
  C  C176  1  0.235500  0.230100  0.602930  1.0  0.731
  C  C177  1  0.086700  0.525500  0.810200  1.0  0.7186
  C  C178  1  0.149500  0.576900  0.810930  1.0  -0.1667
  C  C179  1  0.178400  0.622100  0.851270  1.0  0.0104
  C  C180  1  0.235400  0.677100  0.852710  1.0  -0.175
  C  C181  1  0.264600  0.682900  0.812410  1.0  -0.073
  C  C182  1  0.236800  0.635600  0.771820  1.0  -0.0124
  C  C183  1  0.178900  0.585400  0.771340  1.0  -0.0572
  C  C184  1  0.268700  0.636000  0.729350  1.0  -0.0035
  C  C185  1  0.241700  0.689400  0.688410  1.0  -0.0562
  C  C186  1  0.270900  0.683000  0.648320  1.0  -0.1669
  C  C187  1  0.328000  0.619900  0.649760  1.0  0.0151
  C  C188  1  0.355500  0.566000  0.690640  1.0  -0.1811
  C  C189  1  0.325300  0.576300  0.729560  1.0  -0.0672
  C  C190  1  0.240800  0.739400  0.604710  1.0  0.7083
  C  C191  1  0.415300  0.489500  0.691810  1.0  0.6696
  C  C192  1  0.264500  0.730100  0.897070  1.0  0.7291
  C  C193  1  0.586700  0.025500  0.810200  1.0  0.7186
  C  C194  1  0.649500  0.076900  0.810930  1.0  -0.1667
  C  C195  1  0.678400  0.122100  0.851270  1.0  0.0104
  C  C196  1  0.735400  0.177100  0.852710  1.0  -0.175
  C  C197  1  0.764600  0.182900  0.812410  1.0  -0.073
  C  C198  1  0.736800  0.135600  0.771820  1.0  -0.0124
  C  C199  1  0.678900  0.085400  0.771340  1.0  -0.0572
  C  C200  1  0.768700  0.136000  0.729350  1.0  -0.0035
  C  C201  1  0.741700  0.189400  0.688410  1.0  -0.0562
  C  C202  1  0.770900  0.183000  0.648320  1.0  -0.1669
  C  C203  1  0.828000  0.119900  0.649760  1.0  0.0151
  C  C204  1  0.855500  0.066000  0.690640  1.0  -0.1811
  C  C205  1  0.825300  0.076300  0.729560  1.0  -0.0672
  C  C206  1  0.740800  0.239400  0.604710  1.0  0.7083
  C  C207  1  0.915300  0.989500  0.691810  1.0  0.6696
  C  C208  1  0.764500  0.230100  0.897070  1.0  0.7291
  O  O209  1  0.057620  0.463700  0.272590  1.0  -0.6496
  O  O210  1  0.065970  0.520300  0.346890  1.0  -0.5972
  O  O211  1  0.231890  0.255200  0.429850  1.0  -0.6503
  O  O212  1  0.317960  0.247700  0.400000  1.0  -0.5012
  O  O213  1  0.438840  0.546200  0.230210  1.0  -0.6031
  O  O214  1  0.439350  0.542600  0.155510  1.0  -0.5885
  O  O215  1  0.271340  0.237400  0.070940  1.0  -0.5259
  O  O216  1  0.187210  0.235700  0.103300  1.0  -0.5385
  O  O217  1  0.971320  0.257100  0.322060  1.0  -0.8558
  O  O218  1  0.557620  0.963700  0.272590  1.0  -0.6496
  O  O219  1  0.565970  0.020300  0.346890  1.0  -0.5972
  O  O220  1  0.731890  0.755200  0.429850  1.0  -0.6503
  O  O221  1  0.817960  0.747700  0.400000  1.0  -0.5012
  O  O222  1  0.938840  0.046200  0.230210  1.0  -0.6031
  O  O223  1  0.939350  0.042600  0.155510  1.0  -0.5885
  O  O224  1  0.771340  0.737400  0.070940  1.0  -0.5259
  O  O225  1  0.687210  0.735700  0.103300  1.0  -0.5385
  O  O226  1  0.471320  0.757100  0.322060  1.0  -0.8558
  O  O227  1  0.942380  0.463700  0.227410  1.0  -0.6488
  O  O228  1  0.934030  0.520300  0.153110  1.0  -0.5995
  O  O229  1  0.768110  0.255200  0.070150  1.0  -0.6518
  O  O230  1  0.682040  0.247700  0.100000  1.0  -0.5024
  O  O231  1  0.561160  0.546200  0.269790  1.0  -0.6048
  O  O232  1  0.560650  0.542600  0.344490  1.0  -0.5904
  O  O233  1  0.728660  0.237400  0.429060  1.0  -0.529
  O  O234  1  0.812790  0.235700  0.396700  1.0  -0.5379
  O  O235  1  0.028680  0.257100  0.177940  1.0  -0.8569
  O  O236  1  0.442380  0.963700  0.227410  1.0  -0.6488
  O  O237  1  0.434030  0.020300  0.153110  1.0  -0.5995
  O  O238  1  0.268110  0.755200  0.070150  1.0  -0.6518
  O  O239  1  0.182040  0.747700  0.100000  1.0  -0.5024
  O  O240  1  0.061160  0.046200  0.269790  1.0  -0.6048
  O  O241  1  0.060650  0.042600  0.344490  1.0  -0.5904
  O  O242  1  0.228660  0.737400  0.429060  1.0  -0.529
  O  O243  1  0.312790  0.735700  0.396700  1.0  -0.5379
  O  O244  1  0.528680  0.757100  0.177940  1.0  -0.8569
  O  O245  1  0.942380  0.536300  0.727410  1.0  -0.6479
  O  O246  1  0.934030  0.479700  0.653110  1.0  -0.5984
  O  O247  1  0.768110  0.744800  0.570150  1.0  -0.6522
  O  O248  1  0.682040  0.752300  0.600000  1.0  -0.5026
  O  O249  1  0.561160  0.453800  0.769790  1.0  -0.605
  O  O250  1  0.560650  0.457400  0.844490  1.0  -0.5898
  O  O251  1  0.728660  0.762600  0.929060  1.0  -0.5289
  O  O252  1  0.812790  0.764300  0.896700  1.0  -0.5381
  O  O253  1  0.028680  0.742900  0.677940  1.0  -0.8557
  O  O254  1  0.442380  0.036300  0.727410  1.0  -0.6479
  O  O255  1  0.434030  0.979700  0.653110  1.0  -0.5984
  O  O256  1  0.268110  0.244800  0.570150  1.0  -0.6522
  O  O257  1  0.182040  0.252300  0.600000  1.0  -0.5026
  O  O258  1  0.061160  0.953800  0.769790  1.0  -0.605
  O  O259  1  0.060650  0.957400  0.844490  1.0  -0.5898
  O  O260  1  0.228660  0.262600  0.929060  1.0  -0.5289
  O  O261  1  0.312790  0.264300  0.896700  1.0  -0.5381
  O  O262  1  0.528680  0.242900  0.677940  1.0  -0.8557
  O  O263  1  0.057620  0.536300  0.772590  1.0  -0.6494
  O  O264  1  0.065970  0.479700  0.846890  1.0  -0.5963
  O  O265  1  0.231890  0.744800  0.929850  1.0  -0.6498
  O  O266  1  0.317960  0.752300  0.900000  1.0  -0.5013
  O  O267  1  0.438840  0.453800  0.730210  1.0  -0.6039
  O  O268  1  0.439350  0.457400  0.655510  1.0  -0.5886
  O  O269  1  0.271340  0.762600  0.570940  1.0  -0.5256
  O  O270  1  0.187210  0.764300  0.603300  1.0  -0.5389
  O  O271  1  0.971320  0.742900  0.822060  1.0  -0.8545
  O  O272  1  0.557620  0.036300  0.772590  1.0  -0.6494
  O  O273  1  0.565970  0.979700  0.846890  1.0  -0.5963
  O  O274  1  0.731890  0.244800  0.929850  1.0  -0.6498
  O  O275  1  0.817960  0.252300  0.900000  1.0  -0.5013
  O  O276  1  0.938840  0.953800  0.730210  1.0  -0.6039
  O  O277  1  0.939350  0.957400  0.655510  1.0  -0.5886
  O  O278  1  0.771340  0.262600  0.570940  1.0  -0.5256
  O  O279  1  0.687210  0.264300  0.603300  1.0  -0.5389
  O  O280  1  0.471320  0.242900  0.822060  1.0  -0.8545
