# generated using pymatgen
data_Ce6H38C72O37
_symmetry_space_group_name_H-M   'P 1'
_cell_length_a   11.09870000
_cell_length_b   17.76800000
_cell_length_c   29.15900000
_cell_angle_alpha   86.54700000
_cell_angle_beta   79.81100000
_cell_angle_gamma   73.12300000
_symmetry_Int_Tables_number   1
_chemical_formula_structural   Ce6H38C72O37
_chemical_formula_sum   'Ce12 H76 C144 O74'
_cell_volume   5415.52650531
_cell_formula_units_Z   2
loop_
 _symmetry_equiv_pos_site_id
 _symmetry_equiv_pos_as_xyz
  1  'x, y, z'
loop_
 _atom_site_type_symbol
 _atom_site_label
 _atom_site_symmetry_multiplicity
 _atom_site_fract_x
 _atom_site_fract_y
 _atom_site_fract_z
 _atom_site_occupancy
 _atom_site_charge
  Ce  Ce1  1  0.242770  0.289120  0.620960  1.0  2.2934
  Ce  Ce2  1  0.559970  0.390140  0.965330  1.0  2.2892
  Ce  Ce3  1  0.115840  0.503810  0.690750  1.0  2.2979
  Ce  Ce4  1  0.545860  0.109780  0.964320  1.0  2.3037
  Ce  Ce5  1  0.107700  0.795020  0.710530  1.0  2.294
  Ce  Ce6  1  0.197850  0.013000  0.643300  1.0  2.3276
  Ce  Ce7  1  0.757230  0.710880  0.379050  1.0  2.291
  Ce  Ce8  1  0.440030  0.609860  0.034670  1.0  2.2874
  Ce  Ce9  1  0.884160  0.496190  0.309250  1.0  2.2952
  Ce  Ce10  1  0.454140  0.890220  0.035680  1.0  2.3074
  Ce  Ce11  1  0.892300  0.204980  0.289470  1.0  2.2939
  Ce  Ce12  1  0.802150  0.987000  0.356700  1.0  2.3281
  H  H13  1  0.986100  0.263800  0.950600  1.0  0.0961
  H  H14  1  0.180500  0.209700  0.974100  1.0  0.092
  H  H15  1  0.052000  0.036500  0.040100  1.0  0.1017
  H  H16  1  0.857500  0.091600  0.016300  1.0  0.0895
  H  H17  1  0.497200  0.004700  0.695400  1.0  0.0946
  H  H18  1  0.682800  0.946700  0.723100  1.0  0.0999
  H  H19  1  0.854600  0.087600  0.641700  1.0  0.0897
  H  H20  1  0.668500  0.146100  0.614300  1.0  0.1005
  H  H21  1  0.691900  0.622000  0.706800  1.0  0.0999
  H  H22  1  0.492900  0.680300  0.687600  1.0  0.0952
  H  H23  1  0.592500  0.873700  0.644600  1.0  0.0988
  H  H24  1  0.792300  0.817800  0.665500  1.0  0.0873
  H  H25  1  0.253100  0.843000  0.830400  1.0  0.0924
  H  H26  1  0.312700  0.860800  0.900000  1.0  0.0957
  H  H27  1  0.410100  0.052300  0.847000  1.0  0.096
  H  H28  1  0.345100  0.035000  0.778300  1.0  0.0921
  H  H29  1  0.033800  0.236500  0.421700  1.0  0.1045
  H  H30  1  0.094200  0.255200  0.492000  1.0  0.0946
  H  H31  1  0.967700  0.076400  0.549300  1.0  0.0961
  H  H32  1  0.908700  0.057900  0.479800  1.0  0.093
  H  H33  1  0.619800  0.281600  0.644200  1.0  0.0937
  H  H34  1  0.825100  0.266500  0.656700  1.0  0.1044
  H  H35  1  0.741300  0.498600  0.671300  1.0  0.0994
  H  H36  1  0.538600  0.511900  0.658900  1.0  0.0918
  H  H37  1  0.596500  0.299400  0.131200  1.0  0.0978
  H  H38  1  0.684700  0.502500  0.104800  1.0  0.0973
  H  H39  1  0.654300  0.293300  0.204200  1.0  0.1
  H  H40  1  0.748200  0.494100  0.177000  1.0  0.0929
  H  H41  1  0.428000  0.381300  0.834100  1.0  0.0894
  H  H42  1  0.366900  0.392100  0.761600  1.0  0.1134
  H  H43  1  0.258500  0.193700  0.790000  1.0  0.1103
  H  H44  1  0.310200  0.190100  0.863800  1.0  0.0874
  H  H45  1  0.028000  0.607500  0.533000  1.0  0.0963
  H  H46  1  0.973300  0.618800  0.459200  1.0  0.1048
  H  H47  1  0.054200  0.609700  0.016200  1.0  0.0907
  H  H48  1  0.852000  0.622200  0.002900  1.0  0.0987
  H  H49  1  0.409800  0.295200  0.013700  1.0  0.4401
  H  H50  1  0.492000  0.239000  0.036700  1.0  0.4595
  H  H51  1  0.013900  0.736200  0.049400  1.0  0.0966
  H  H52  1  0.819500  0.790300  0.025900  1.0  0.092
  H  H53  1  0.948000  0.963500  0.959900  1.0  0.1021
  H  H54  1  0.142500  0.908400  0.983700  1.0  0.0897
  H  H55  1  0.502800  0.995300  0.304600  1.0  0.0952
  H  H56  1  0.317200  0.053300  0.276900  1.0  0.0994
  H  H57  1  0.145400  0.912400  0.358300  1.0  0.0893
  H  H58  1  0.331500  0.853900  0.385700  1.0  0.1006
  H  H59  1  0.308100  0.378000  0.293200  1.0  0.1
  H  H60  1  0.507100  0.319700  0.312400  1.0  0.0949
  H  H61  1  0.407500  0.126300  0.355400  1.0  0.0988
  H  H62  1  0.207700  0.182200  0.334500  1.0  0.0869
  H  H63  1  0.746900  0.157000  0.169600  1.0  0.0931
  H  H64  1  0.687300  0.139200  0.100000  1.0  0.0959
  H  H65  1  0.589900  0.947700  0.153000  1.0  0.0954
  H  H66  1  0.654900  0.965000  0.221700  1.0  0.0918
  H  H67  1  0.966200  0.763500  0.578300  1.0  0.1049
  H  H68  1  0.905800  0.744800  0.508000  1.0  0.0947
  H  H69  1  0.032300  0.923600  0.450700  1.0  0.0959
  H  H70  1  0.091300  0.942100  0.520200  1.0  0.0922
  H  H71  1  0.380200  0.718400  0.355800  1.0  0.0942
  H  H72  1  0.174900  0.733500  0.343300  1.0  0.1038
  H  H73  1  0.258700  0.501400  0.328700  1.0  0.0995
  H  H74  1  0.461400  0.488100  0.341100  1.0  0.0918
  H  H75  1  0.403500  0.700600  0.868800  1.0  0.0978
  H  H76  1  0.315300  0.497500  0.895200  1.0  0.0975
  H  H77  1  0.345700  0.706700  0.795800  1.0  0.0999
  H  H78  1  0.251800  0.505900  0.823000  1.0  0.0933
  H  H79  1  0.572000  0.618700  0.165900  1.0  0.0903
  H  H80  1  0.633100  0.607900  0.238400  1.0  0.1135
  H  H81  1  0.741500  0.806300  0.210000  1.0  0.1104
  H  H82  1  0.689800  0.809900  0.136200  1.0  0.0866
  H  H83  1  0.972000  0.392500  0.467000  1.0  0.0968
  H  H84  1  0.026700  0.381200  0.540800  1.0  0.105
  H  H85  1  0.945800  0.390300  0.983800  1.0  0.0907
  H  H86  1  0.148000  0.377800  0.997100  1.0  0.0986
  H  H87  1  0.590200  0.704800  0.986300  1.0  0.4385
  H  H88  1  0.508000  0.761000  0.963300  1.0  0.4601
  C  C89  1  0.902100  0.181900  0.980500  1.0  -0.1397
  C  C90  1  0.999600  0.217800  0.968400  1.0  -0.0567
  C  C91  1  0.115700  0.185600  0.982500  1.0  -0.051
  C  C92  1  0.136400  0.117000  0.009500  1.0  -0.1428
  C  C93  1  0.039200  0.082100  0.022000  1.0  -0.0466
  C  C94  1  0.922900  0.115100  0.007500  1.0  -0.0419
  C  C95  1  0.780500  0.212800  0.960900  1.0  0.7986
  C  C96  1  0.265200  0.079400  0.023300  1.0  0.7838
  C  C97  1  0.563600  0.080000  0.651400  1.0  -0.1471
  C  C98  1  0.569400  0.021200  0.684300  1.0  -0.0383
  C  C99  1  0.680200  0.986600  0.700800  1.0  -0.0451
  C  C100  1  0.790200  0.010300  0.684600  1.0  -0.1393
  C  C101  1  0.782900  0.070400  0.652400  1.0  -0.0377
  C  C102  1  0.671900  0.105200  0.636000  1.0  -0.0531
  C  C103  1  0.443700  0.115200  0.631500  1.0  0.8087
  C  C104  1  0.913300  0.968400  0.701900  1.0  0.7963
  C  C105  1  0.672300  0.673300  0.695100  1.0  -0.071
  C  C106  1  0.553600  0.707900  0.682900  1.0  -0.051
  C  C107  1  0.523600  0.782000  0.663900  1.0  -0.141
  C  C108  1  0.612200  0.823300  0.657500  1.0  -0.0505
  C  C109  1  0.732300  0.789700  0.670300  1.0  -0.0531
  C  C110  1  0.762700  0.715200  0.690000  1.0  -0.1252
  C  C111  1  0.390000  0.821400  0.652700  1.0  0.7843
  C  C112  1  0.888500  0.680800  0.706600  1.0  0.7714
  C  C113  1  0.284100  0.885300  0.833700  1.0  -0.0393
  C  C114  1  0.320100  0.895900  0.875500  1.0  -0.05
  C  C115  1  0.367200  0.958500  0.880900  1.0  -0.1449
  C  C116  1  0.377800  0.010400  0.844100  1.0  -0.0634
  C  C117  1  0.339600  0.999400  0.802700  1.0  -0.0332
  C  C118  1  0.293900  0.937100  0.797200  1.0  -0.1455
  C  C119  1  0.406500  0.970600  0.926300  1.0  0.7966
  C  C120  1  0.252300  0.926600  0.752200  1.0  0.8024
  C  C121  1  0.021700  0.203800  0.447200  1.0  -0.0481
  C  C122  1  0.057500  0.215100  0.489500  1.0  -0.0482
  C  C123  1  0.038600  0.167100  0.527400  1.0  -0.1388
  C  C124  1  0.982200  0.108400  0.523800  1.0  -0.0558
  C  C125  1  0.947100  0.097300  0.482000  1.0  -0.0445
  C  C126  1  0.968000  0.143300  0.443900  1.0  -0.1491
  C  C127  1  0.088000  0.174800  0.571700  1.0  0.8193
  C  C128  1  0.933100  0.127400  0.398800  1.0  0.7911
  C  C129  1  0.644300  0.325600  0.649500  1.0  -0.0317
  C  C130  1  0.767300  0.316400  0.657000  1.0  -0.0722
  C  C131  1  0.803900  0.381800  0.665100  1.0  -0.1402
  C  C132  1  0.717700  0.454300  0.665800  1.0  -0.0626
  C  C133  1  0.596300  0.462000  0.658200  1.0  -0.0465
  C  C134  1  0.557600  0.399000  0.649900  1.0  -0.1369
  C  C135  1  0.427400  0.407000  0.639500  1.0  0.807
  C  C136  1  0.939600  0.371200  0.673500  1.0  0.7493
  C  C137  1  0.626500  0.338900  0.140300  1.0  -0.0644
  C  C138  1  0.636400  0.399800  0.110400  1.0  -0.1014
  C  C139  1  0.680000  0.459900  0.124500  1.0  -0.0747
  C  C140  1  0.660600  0.335200  0.184200  1.0  -0.0453
  C  C141  1  0.601100  0.404000  0.063400  1.0  0.7404
  C  C142  1  0.745200  0.390300  0.244500  1.0  0.8089
  C  C143  1  0.716000  0.455500  0.168000  1.0  -0.0298
  C  C144  1  0.704100  0.394500  0.197900  1.0  -0.1452
  C  C145  1  0.412600  0.281100  0.903400  1.0  0.7721
  C  C146  1  0.373600  0.285700  0.856700  1.0  -0.1706
  C  C147  1  0.391600  0.344500  0.825500  1.0  -0.023
  C  C148  1  0.357200  0.350700  0.781700  1.0  -0.1178
  C  C149  1  0.307300  0.292700  0.768500  1.0  -0.1073
  C  C150  1  0.290800  0.232300  0.798900  1.0  -0.0693
  C  C151  1  0.323000  0.230000  0.843000  1.0  -0.0328
  C  C152  1  0.272600  0.296300  0.720900  1.0  0.7411
  C  C153  1  0.016700  0.564300  0.519700  1.0  -0.0496
  C  C154  1  0.983900  0.571300  0.475500  1.0  -0.0807
  C  C155  1  0.032900  0.494300  0.544000  1.0  -0.1223
  C  C156  1  0.068100  0.489700  0.591600  1.0  0.7608
  C  C157  1  0.032700  0.565200  0.009600  1.0  -0.0356
  C  C158  1  0.911200  0.572800  0.001800  1.0  -0.0655
  C  C159  1  0.255100  0.485700  0.017000  1.0  0.7978
  C  C160  1  0.123700  0.492800  0.007700  1.0  -0.135
  C  C161  1  0.097900  0.818100  0.019500  1.0  -0.1398
  C  C162  1  0.000400  0.782200  0.031600  1.0  -0.056
  C  C163  1  0.884300  0.814400  0.017500  1.0  -0.0512
  C  C164  1  0.863600  0.883000  0.990500  1.0  -0.1418
  C  C165  1  0.960800  0.917900  0.978000  1.0  -0.0462
  C  C166  1  0.077100  0.884900  0.992500  1.0  -0.0425
  C  C167  1  0.219500  0.787200  0.039100  1.0  0.7986
  C  C168  1  0.734800  0.920600  0.976700  1.0  0.7836
  C  C169  1  0.436400  0.920000  0.348600  1.0  -0.1473
  C  C170  1  0.430600  0.978800  0.315700  1.0  -0.0383
  C  C171  1  0.319800  0.013400  0.299200  1.0  -0.0448
  C  C172  1  0.209800  0.989700  0.315400  1.0  -0.1402
  C  C173  1  0.217100  0.929600  0.347600  1.0  -0.0377
  C  C174  1  0.328100  0.894800  0.364000  1.0  -0.0531
  C  C175  1  0.556300  0.884800  0.368500  1.0  0.8076
  C  C176  1  0.086700  0.031600  0.298100  1.0  0.7922
  C  C177  1  0.327700  0.326700  0.304900  1.0  -0.0704
  C  C178  1  0.446400  0.292100  0.317100  1.0  -0.0514
  C  C179  1  0.476400  0.218000  0.336100  1.0  -0.1406
  C  C180  1  0.387800  0.176700  0.342500  1.0  -0.05
  C  C181  1  0.267700  0.210300  0.329700  1.0  -0.0529
  C  C182  1  0.237300  0.284800  0.310000  1.0  -0.125
  C  C183  1  0.610000  0.178600  0.347300  1.0  0.7859
  C  C184  1  0.111500  0.319200  0.293400  1.0  0.7795
  C  C185  1  0.715900  0.114700  0.166300  1.0  -0.0407
  C  C186  1  0.679900  0.104100  0.124500  1.0  -0.0485
  C  C187  1  0.632800  0.041500  0.119100  1.0  -0.1449
  C  C188  1  0.622200  0.989600  0.155900  1.0  -0.063
  C  C189  1  0.660400  0.000600  0.197300  1.0  -0.0343
  C  C190  1  0.706100  0.062900  0.202800  1.0  -0.1453
  C  C191  1  0.593500  0.029400  0.073700  1.0  0.7969
  C  C192  1  0.747700  0.073400  0.247800  1.0  0.8071
  C  C193  1  0.978300  0.796200  0.552800  1.0  -0.049
  C  C194  1  0.942500  0.784900  0.510500  1.0  -0.0487
  C  C195  1  0.961400  0.832900  0.472600  1.0  -0.1392
  C  C196  1  0.017800  0.891600  0.476200  1.0  -0.0557
  C  C197  1  0.052900  0.902700  0.518000  1.0  -0.0443
  C  C198  1  0.032000  0.856700  0.556100  1.0  -0.1476
  C  C199  1  0.912000  0.825200  0.428300  1.0  0.8186
  C  C200  1  0.066900  0.872600  0.601200  1.0  0.7935
  C  C201  1  0.355700  0.674400  0.350500  1.0  -0.0339
  C  C202  1  0.232700  0.683600  0.343000  1.0  -0.0724
  C  C203  1  0.196100  0.618200  0.334900  1.0  -0.1403
  C  C204  1  0.282300  0.545700  0.334200  1.0  -0.0623
  C  C205  1  0.403700  0.538000  0.341800  1.0  -0.048
  C  C206  1  0.442400  0.601000  0.350100  1.0  -0.1362
  C  C207  1  0.572600  0.593000  0.360500  1.0  0.8068
  C  C208  1  0.060400  0.628800  0.326500  1.0  0.7512
  C  C209  1  0.373500  0.661100  0.859700  1.0  -0.0649
  C  C210  1  0.363600  0.600200  0.889600  1.0  -0.1013
  C  C211  1  0.320000  0.540100  0.875500  1.0  -0.0745
  C  C212  1  0.339400  0.664800  0.815800  1.0  -0.0457
  C  C213  1  0.398900  0.596000  0.936600  1.0  0.7406
  C  C214  1  0.254800  0.609700  0.755500  1.0  0.8116
  C  C215  1  0.284000  0.544500  0.832000  1.0  -0.0279
  C  C216  1  0.295900  0.605500  0.802100  1.0  -0.1485
  C  C217  1  0.587400  0.718900  0.096600  1.0  0.763
  C  C218  1  0.626400  0.714300  0.143300  1.0  -0.1716
  C  C219  1  0.608400  0.655500  0.174500  1.0  -0.0227
  C  C220  1  0.642800  0.649300  0.218300  1.0  -0.1187
  C  C221  1  0.692700  0.707300  0.231500  1.0  -0.1073
  C  C222  1  0.709200  0.767700  0.201100  1.0  -0.0722
  C  C223  1  0.677000  0.770000  0.157000  1.0  -0.0324
  C  C224  1  0.727400  0.703700  0.279100  1.0  0.7404
  C  C225  1  0.983300  0.435700  0.480300  1.0  -0.0494
  C  C226  1  0.016100  0.428700  0.524500  1.0  -0.0802
  C  C227  1  0.967100  0.505700  0.456000  1.0  -0.1226
  C  C228  1  0.931900  0.510300  0.408400  1.0  0.7613
  C  C229  1  0.967300  0.434800  0.990400  1.0  -0.0368
  C  C230  1  0.088800  0.427200  0.998200  1.0  -0.0662
  C  C231  1  0.744900  0.514300  0.983000  1.0  0.7818
  C  C232  1  0.876300  0.507200  0.992300  1.0  -0.1383
  O  O233  1  0.719100  0.164800  0.958200  1.0  -0.7898
  O  O234  1  0.750300  0.281400  0.946000  1.0  -0.7592
  O  O235  1  0.346800  0.117000  0.014400  1.0  -0.7599
  O  O236  1  0.281800  0.014900  0.044100  1.0  -0.7469
  O  O237  1  0.431300  0.176200  0.607200  1.0  -0.7283
  O  O238  1  0.359400  0.080600  0.639100  1.0  -0.6817
  O  O239  1  0.003500  0.995800  0.689800  1.0  -0.7979
  O  O240  1  0.916900  0.909300  0.727100  1.0  -0.724
  O  O241  1  0.371000  0.889300  0.636000  1.0  -0.7606
  O  O242  1  0.311100  0.783100  0.659800  1.0  -0.7352
  O  O243  1  0.923200  0.610100  0.714190  1.0  -0.7407
  O  O244  1  0.946000  0.730000  0.713900  1.0  -0.8136
  O  O245  1  0.258800  0.976900  0.721000  1.0  -0.7052
  O  O246  1  0.447500  0.026700  0.929400  1.0  -0.7797
  O  O247  1  0.395000  0.921200  0.958300  1.0  -0.7241
  O  O248  1  0.887600  0.071000  0.398600  1.0  -0.7148
  O  O249  1  0.952700  0.170900  0.364900  1.0  -0.7566
  O  O250  1  0.072500  0.126300  0.603200  1.0  -0.7717
  O  O251  1  0.138200  0.227500  0.573400  1.0  -0.766
  O  O252  1  0.343400  0.469800  0.650400  1.0  -0.7362
  O  O253  1  0.410700  0.351400  0.620100  1.0  -0.7498
  O  O254  1  0.024600  0.309200  0.664100  1.0  -0.6965
  O  O255  1  0.954200  0.432900  0.690400  1.0  -0.7562
  O  O256  1  0.627800  0.340700  0.041700  1.0  -0.653
  O  O257  1  0.547300  0.468600  0.046200  1.0  -0.8459
  O  O258  1  0.747100  0.329900  0.268900  1.0  -0.7726
  O  O259  1  0.775500  0.446900  0.256500  1.0  -0.7789
  O  O260  1  0.453900  0.334700  0.914400  1.0  -0.7912
  O  O261  1  0.403600  0.222700  0.928700  1.0  -0.7264
  O  O262  1  0.289000  0.233700  0.700600  1.0  -0.6384
  O  O263  1  0.228700  0.362600  0.701770  1.0  -0.8772
  O  O264  1  0.032100  0.550400  0.615500  1.0  -0.6554
  O  O265  1  0.129700  0.424000  0.606620  1.0  -0.8727
  O  O266  1  0.339100  0.423100  0.007000  1.0  -0.7175
  O  O267  1  0.270100  0.544300  0.034500  1.0  -0.7468
  O  O268  1  0.210700  0.870000  0.749100  1.0  -0.7802
  O  O269  1  0.479200  0.255100  0.008400  1.0  -0.9015
  O  O270  1  0.280900  0.835200  0.041800  1.0  -0.7909
  O  O271  1  0.249700  0.718600  0.054000  1.0  -0.759
  O  O272  1  0.653200  0.883000  0.985600  1.0  -0.7591
  O  O273  1  0.718200  0.985100  0.955900  1.0  -0.7477
  O  O274  1  0.568700  0.823800  0.392800  1.0  -0.7306
  O  O275  1  0.640600  0.919400  0.360900  1.0  -0.6816
  O  O276  1  0.996500  0.004200  0.310200  1.0  -0.7998
  O  O277  1  0.083100  0.090700  0.272900  1.0  -0.7245
  O  O278  1  0.629000  0.110700  0.364000  1.0  -0.7572
  O  O279  1  0.688900  0.216900  0.340200  1.0  -0.7344
  O  O280  1  0.076800  0.389900  0.285810  1.0  -0.7426
  O  O281  1  0.054000  0.270000  0.286100  1.0  -0.8114
  O  O282  1  0.741200  0.023100  0.279000  1.0  -0.7041
  O  O283  1  0.552500  0.973300  0.070600  1.0  -0.781
  O  O284  1  0.605000  0.078800  0.041700  1.0  -0.7275
  O  O285  1  0.112400  0.929000  0.601400  1.0  -0.6998
  O  O286  1  0.047300  0.829100  0.635100  1.0  -0.7568
  O  O287  1  0.927500  0.873700  0.396800  1.0  -0.7695
  O  O288  1  0.861800  0.772500  0.426600  1.0  -0.7691
  O  O289  1  0.656600  0.530200  0.349600  1.0  -0.7415
  O  O290  1  0.589300  0.648600  0.379900  1.0  -0.7513
  O  O291  1  0.975400  0.690800  0.335900  1.0  -0.6954
  O  O292  1  0.045800  0.567100  0.309600  1.0  -0.7557
  O  O293  1  0.372200  0.659300  0.958300  1.0  -0.6512
  O  O294  1  0.452700  0.531400  0.953800  1.0  -0.8446
  O  O295  1  0.252900  0.670100  0.731100  1.0  -0.7705
  O  O296  1  0.224500  0.553100  0.743500  1.0  -0.7798
  O  O297  1  0.546100  0.665300  0.085600  1.0  -0.7915
  O  O298  1  0.596400  0.777300  0.071300  1.0  -0.7311
  O  O299  1  0.711000  0.766300  0.299400  1.0  -0.6394
  O  O300  1  0.771300  0.637400  0.298230  1.0  -0.8757
  O  O301  1  0.967900  0.449600  0.384500  1.0  -0.6557
  O  O302  1  0.870300  0.576000  0.393380  1.0  -0.8736
  O  O303  1  0.660900  0.576900  0.993000  1.0  -0.7171
  O  O304  1  0.729900  0.455700  0.965500  1.0  -0.748
  O  O305  1  0.789300  0.130000  0.250900  1.0  -0.775
  O  O306  1  0.520800  0.744900  0.991600  1.0  -0.9009
