# generated using pymatgen
data_La3H20C36O19
_symmetry_space_group_name_H-M   'P 1'
_cell_length_a   11.10680000
_cell_length_b   17.77270000
_cell_length_c   29.22800000
_cell_angle_alpha   86.62400000
_cell_angle_beta   79.68900000
_cell_angle_gamma   73.27500000
_symmetry_Int_Tables_number   1
_chemical_formula_structural   La3H20C36O19
_chemical_formula_sum   'La12 H80 C144 O76'
_cell_volume   5436.07544202
_cell_formula_units_Z   4
loop_
 _symmetry_equiv_pos_site_id
 _symmetry_equiv_pos_as_xyz
  1  'x, y, z'
loop_
 _atom_site_type_symbol
 _atom_site_label
 _atom_site_symmetry_multiplicity
 _atom_site_fract_x
 _atom_site_fract_y
 _atom_site_fract_z
 _atom_site_occupancy
 _atom_site_charge
  La  La1  1  0.244230  0.289040  0.620530  1.0  2.2196
  La  La2  1  0.560550  0.390150  0.964870  1.0  2.1857
  La  La3  1  0.116080  0.504700  0.690720  1.0  2.2032
  La  La4  1  0.546280  0.110150  0.964150  1.0  2.1971
  La  La5  1  0.107550  0.794700  0.710500  1.0  2.2189
  La  La6  1  0.198430  0.013720  0.643350  1.0  2.1686
  La  La7  1  0.755770  0.710960  0.379470  1.0  2.2212
  La  La8  1  0.439450  0.609850  0.035130  1.0  2.1868
  La  La9  1  0.883920  0.495300  0.309280  1.0  2.2204
  La  La10  1  0.453720  0.889850  0.035850  1.0  2.1952
  La  La11  1  0.892450  0.205300  0.289500  1.0  2.2182
  La  La12  1  0.801570  0.986280  0.356650  1.0  2.1685
  H  H13  1  0.989700  0.263700  0.950300  1.0  0.1007
  H  H14  1  0.184300  0.208300  0.973900  1.0  0.091
  H  H15  1  0.050100  0.037700  0.040000  1.0  0.0952
  H  H16  1  0.855800  0.092900  0.015900  1.0  0.1002
  H  H17  1  0.498100  0.004100  0.694900  1.0  0.0965
  H  H18  1  0.682800  0.946000  0.722500  1.0  0.1013
  H  H19  1  0.855900  0.086300  0.642100  1.0  0.0963
  H  H20  1  0.671100  0.145200  0.614200  1.0  0.1063
  H  H21  1  0.690500  0.622900  0.706200  1.0  0.0978
  H  H22  1  0.491000  0.680600  0.687200  1.0  0.1009
  H  H23  1  0.596000  0.873700  0.644700  1.0  0.0988
  H  H24  1  0.793300  0.817600  0.666800  1.0  0.0897
  H  H25  1  0.254200  0.842300  0.829400  1.0  0.0978
  H  H26  1  0.310200  0.860500  0.899800  1.0  0.0961
  H  H27  1  0.410700  0.051300  0.847600  1.0  0.097
  H  H28  1  0.349200  0.035000  0.778600  1.0  0.0919
  H  H29  1  0.038000  0.234300  0.421500  1.0  0.0987
  H  H30  1  0.095100  0.255600  0.491000  1.0  0.1005
  H  H31  1  0.966500  0.077500  0.549200  1.0  0.0902
  H  H32  1  0.908500  0.057500  0.480800  1.0  0.1017
  H  H33  1  0.618800  0.283300  0.642700  1.0  0.0913
  H  H34  1  0.824100  0.266600  0.656000  1.0  0.0997
  H  H35  1  0.743900  0.498300  0.671900  1.0  0.0994
  H  H36  1  0.539000  0.513800  0.659800  1.0  0.1047
  H  H37  1  0.599500  0.297800  0.130600  1.0  0.099
  H  H38  1  0.685200  0.501700  0.104300  1.0  0.0968
  H  H39  1  0.651200  0.293200  0.203300  1.0  0.1072
  H  H40  1  0.748500  0.493700  0.176200  1.0  0.0991
  H  H41  1  0.426700  0.382400  0.834200  1.0  0.0941
  H  H42  1  0.367800  0.392100  0.761900  1.0  0.1086
  H  H43  1  0.259300  0.194400  0.789300  1.0  0.1026
  H  H44  1  0.308900  0.190700  0.863000  1.0  0.091
  H  H45  1  0.029000  0.607900  0.531400  1.0  0.0997
  H  H46  1  0.971600  0.616900  0.459000  1.0  0.096
  H  H47  1  0.056200  0.608500  0.016600  1.0  0.091
  H  H48  1  0.852800  0.621800  0.004700  1.0  0.0976
  H  H49  1  0.023000  0.144400  0.694700  1.0  0.4155
  H  H50  1  0.125800  0.123500  0.718300  1.0  0.434
  H  H51  1  0.411500  0.294200  0.012000  1.0  0.4488
  H  H52  1  0.488700  0.237000  0.035900  1.0  0.4448
  H  H53  1  0.010300  0.736300  0.049700  1.0  0.1014
  H  H54  1  0.815700  0.791700  0.026100  1.0  0.0909
  H  H55  1  0.949900  0.962300  0.960000  1.0  0.0965
  H  H56  1  0.144200  0.907100  0.984100  1.0  0.1004
  H  H57  1  0.501900  0.995900  0.305100  1.0  0.0967
  H  H58  1  0.317200  0.054000  0.277500  1.0  0.1007
  H  H59  1  0.144100  0.913700  0.357900  1.0  0.0959
  H  H60  1  0.328900  0.854800  0.385800  1.0  0.1063
  H  H61  1  0.309500  0.377100  0.293800  1.0  0.0981
  H  H62  1  0.509000  0.319400  0.312800  1.0  0.1008
  H  H63  1  0.404000  0.126300  0.355300  1.0  0.0978
  H  H64  1  0.206700  0.182400  0.333200  1.0  0.0894
  H  H65  1  0.745800  0.157700  0.170600  1.0  0.0982
  H  H66  1  0.689800  0.139500  0.100200  1.0  0.0963
  H  H67  1  0.589300  0.948700  0.152400  1.0  0.0958
  H  H68  1  0.650800  0.965000  0.221400  1.0  0.092
  H  H69  1  0.962000  0.765700  0.578500  1.0  0.0986
  H  H70  1  0.904900  0.744400  0.509000  1.0  0.1006
  H  H71  1  0.033500  0.922500  0.450800  1.0  0.09
  H  H72  1  0.091500  0.942500  0.519200  1.0  0.1011
  H  H73  1  0.381200  0.716700  0.357300  1.0  0.0926
  H  H74  1  0.175900  0.733400  0.344000  1.0  0.0992
  H  H75  1  0.256100  0.501700  0.328100  1.0  0.0981
  H  H76  1  0.461000  0.486200  0.340200  1.0  0.1043
  H  H77  1  0.400500  0.702200  0.869400  1.0  0.0993
  H  H78  1  0.314800  0.498300  0.895700  1.0  0.097
  H  H79  1  0.348800  0.706800  0.796700  1.0  0.107
  H  H80  1  0.251500  0.506300  0.823800  1.0  0.0992
  H  H81  1  0.573300  0.617600  0.165800  1.0  0.0945
  H  H82  1  0.632200  0.607900  0.238100  1.0  0.1084
  H  H83  1  0.740700  0.805600  0.210700  1.0  0.1027
  H  H84  1  0.691100  0.809300  0.137000  1.0  0.0906
  H  H85  1  0.971000  0.392100  0.468600  1.0  0.1
  H  H86  1  0.028400  0.383100  0.541000  1.0  0.0961
  H  H87  1  0.943800  0.391500  0.983400  1.0  0.0901
  H  H88  1  0.147200  0.378200  0.995300  1.0  0.0981
  H  H89  1  0.977000  0.855600  0.305300  1.0  0.4171
  H  H90  1  0.874200  0.876500  0.281700  1.0  0.4316
  H  H91  1  0.588500  0.705800  0.988000  1.0  0.4484
  H  H92  1  0.511300  0.763000  0.964100  1.0  0.4442
  C  C93  1  0.905700  0.182100  0.979590  1.0  -0.1318
  C  C94  1  0.002600  0.217600  0.967900  1.0  -0.0438
  C  C95  1  0.118500  0.184800  0.982300  1.0  -0.0305
  C  C96  1  0.136800  0.116500  0.009400  1.0  -0.1531
  C  C97  1  0.038500  0.082900  0.021700  1.0  -0.0296
  C  C98  1  0.922200  0.115700  0.007100  1.0  -0.0658
  C  C99  1  0.784100  0.214300  0.960200  1.0  0.7831
  C  C100  1  0.264200  0.079100  0.023800  1.0  0.7989
  C  C101  1  0.565500  0.080000  0.651100  1.0  -0.1438
  C  C102  1  0.570400  0.020600  0.684000  1.0  -0.039
  C  C103  1  0.680400  0.986200  0.700500  1.0  -0.0586
  C  C104  1  0.787800  0.009800  0.685100  1.0  -0.1434
  C  C105  1  0.783500  0.069700  0.652600  1.0  -0.0139
  C  C106  1  0.673600  0.104600  0.635900  1.0  -0.0452
  C  C107  1  0.445700  0.116500  0.630800  1.0  0.7883
  C  C108  1  0.910700  0.968300  0.702300  1.0  0.7418
  C  C109  1  0.670700  0.674200  0.694900  1.0  -0.0521
  C  C110  1  0.551700  0.708200  0.682800  1.0  -0.038
  C  C111  1  0.523400  0.783400  0.664300  1.0  -0.1348
  C  C112  1  0.614000  0.823700  0.657900  1.0  -0.0434
  C  C113  1  0.732600  0.789900  0.671000  1.0  -0.0434
  C  C114  1  0.760100  0.715300  0.690250  1.0  -0.146
  C  C115  1  0.393300  0.822400  0.652200  1.0  0.7779
  C  C116  1  0.885600  0.682500  0.706680  1.0  0.7834
  C  C117  1  0.284200  0.884900  0.833200  1.0  -0.0471
  C  C118  1  0.319000  0.895500  0.875300  1.0  -0.0384
  C  C119  1  0.366900  0.957900  0.881100  1.0  -0.1321
  C  C120  1  0.378200  0.009600  0.844400  1.0  -0.0423
  C  C121  1  0.341700  0.999600  0.802900  1.0  -0.0359
  C  C122  1  0.294200  0.937500  0.797330  1.0  -0.1433
  C  C123  1  0.406900  0.968400  0.926200  1.0  0.7846
  C  C124  1  0.249600  0.928700  0.752900  1.0  0.7775
  C  C125  1  0.024200  0.202500  0.447200  1.0  -0.0401
  C  C126  1  0.059000  0.215100  0.488800  1.0  -0.0497
  C  C127  1  0.039700  0.166800  0.527300  1.0  -0.1552
  C  C128  1  0.982000  0.108900  0.523500  1.0  -0.0546
  C  C129  1  0.947200  0.096900  0.482600  1.0  -0.0627
  C  C130  1  0.969000  0.142900  0.443900  1.0  -0.1441
  C  C131  1  0.086800  0.174900  0.570900  1.0  0.7939
  C  C132  1  0.932600  0.126700  0.399200  1.0  0.7863
  C  C133  1  0.644200  0.327000  0.648400  1.0  -0.0203
  C  C134  1  0.767600  0.316700  0.656300  1.0  -0.0622
  C  C135  1  0.805900  0.381000  0.664700  1.0  -0.1418
  C  C136  1  0.719300  0.454600  0.665900  1.0  -0.0338
  C  C137  1  0.596800  0.464000  0.658400  1.0  -0.0483
  C  C138  1  0.560000  0.399500  0.648800  1.0  -0.1409
  C  C139  1  0.427700  0.409100  0.638800  1.0  0.7488
  C  C140  1  0.938400  0.372100  0.673400  1.0  0.7652
  C  C141  1  0.627500  0.338000  0.140000  1.0  -0.0738
  C  C142  1  0.636000  0.399800  0.110140  1.0  -0.1073
  C  C143  1  0.680000  0.459300  0.124000  1.0  -0.0735
  C  C144  1  0.659500  0.334700  0.183300  1.0  -0.0465
  C  C145  1  0.601500  0.402600  0.062800  1.0  0.7223
  C  C146  1  0.744600  0.389500  0.243600  1.0  0.7665
  C  C147  1  0.716200  0.455000  0.167400  1.0  -0.032
  C  C148  1  0.704700  0.393900  0.197400  1.0  -0.1398
  C  C149  1  0.413400  0.280600  0.902610  1.0  0.763
  C  C150  1  0.373300  0.286000  0.856110  1.0  -0.168
  C  C151  1  0.391200  0.345200  0.825400  1.0  -0.031
  C  C152  1  0.357600  0.350700  0.781800  1.0  -0.1095
  C  C153  1  0.308400  0.293700  0.767800  1.0  -0.1123
  C  C154  1  0.291400  0.233000  0.798400  1.0  -0.0794
  C  C155  1  0.322500  0.230500  0.842400  1.0  -0.0278
  C  C156  1  0.274400  0.296900  0.720400  1.0  0.7349
  C  C157  1  0.017200  0.564200  0.518800  1.0  -0.0623
  C  C158  1  0.983100  0.569600  0.475400  1.0  -0.0555
  C  C159  1  0.033900  0.494500  0.544000  1.0  -0.1336
  C  C160  1  0.067600  0.490200  0.591500  1.0  0.7545
  C  C161  1  0.033700  0.564300  0.010000  1.0  -0.0383
  C  C162  1  0.912100  0.572500  0.002600  1.0  -0.0647
  C  C163  1  0.255100  0.484500  0.017500  1.0  0.7787
  C  C164  1  0.122700  0.492300  0.007920  1.0  -0.1397
  C  C165  1  0.094300  0.817900  0.020410  1.0  -0.1322
  C  C166  1  0.997400  0.782400  0.032100  1.0  -0.0491
  C  C167  1  0.881500  0.815200  0.017700  1.0  -0.031
  C  C168  1  0.863200  0.883500  0.990600  1.0  -0.1531
  C  C169  1  0.961500  0.917100  0.978300  1.0  -0.0286
  C  C170  1  0.077800  0.884300  0.992900  1.0  -0.0664
  C  C171  1  0.215900  0.785700  0.039800  1.0  0.7839
  C  C172  1  0.735800  0.920900  0.976200  1.0  0.7993
  C  C173  1  0.434500  0.920000  0.348900  1.0  -0.1442
  C  C174  1  0.429600  0.979400  0.316000  1.0  -0.0392
  C  C175  1  0.319600  0.013800  0.299500  1.0  -0.0594
  C  C176  1  0.212200  0.990200  0.314900  1.0  -0.143
  C  C177  1  0.216500  0.930300  0.347400  1.0  -0.0201
  C  C178  1  0.326400  0.895400  0.364100  1.0  -0.0452
  C  C179  1  0.554300  0.883500  0.369200  1.0  0.7891
  C  C180  1  0.089300  0.031700  0.297700  1.0  0.7577
  C  C181  1  0.329300  0.325800  0.305100  1.0  -0.057
  C  C182  1  0.448300  0.291800  0.317200  1.0  -0.0378
  C  C183  1  0.476600  0.216600  0.335700  1.0  -0.1349
  C  C184  1  0.386000  0.176300  0.342100  1.0  -0.0426
  C  C185  1  0.267400  0.210100  0.329000  1.0  -0.0433
  C  C186  1  0.239900  0.284700  0.309750  1.0  -0.1448
  C  C187  1  0.606700  0.177600  0.347800  1.0  0.7783
  C  C188  1  0.114400  0.317500  0.293320  1.0  0.783
  C  C189  1  0.715800  0.115100  0.166800  1.0  -0.0478
  C  C190  1  0.681000  0.104500  0.124700  1.0  -0.0376
  C  C191  1  0.633100  0.042100  0.118900  1.0  -0.133
  C  C192  1  0.621800  0.990400  0.155600  1.0  -0.042
  C  C193  1  0.658300  0.000400  0.197100  1.0  -0.0368
  C  C194  1  0.705800  0.062500  0.202670  1.0  -0.1421
  C  C195  1  0.593100  0.031600  0.073800  1.0  0.7835
  C  C196  1  0.750400  0.071300  0.247100  1.0  0.7791
  C  C197  1  0.975800  0.797500  0.552800  1.0  -0.0422
  C  C198  1  0.941000  0.784900  0.511200  1.0  -0.0483
  C  C199  1  0.960300  0.833200  0.472700  1.0  -0.1552
  C  C200  1  0.018000  0.891100  0.476500  1.0  -0.0534
  C  C201  1  0.052800  0.903100  0.517400  1.0  -0.0626
  C  C202  1  0.031000  0.857100  0.556100  1.0  -0.1437
  C  C203  1  0.913200  0.825100  0.429100  1.0  0.792
  C  C204  1  0.067400  0.873300  0.600800  1.0  0.7861
  C  C205  1  0.355800  0.673000  0.351600  1.0  -0.0197
  C  C206  1  0.232400  0.683300  0.343700  1.0  -0.0663
  C  C207  1  0.194100  0.619000  0.335300  1.0  -0.1438
  C  C208  1  0.280700  0.545400  0.334100  1.0  -0.0336
  C  C209  1  0.403200  0.536000  0.341600  1.0  -0.0511
  C  C210  1  0.440000  0.600500  0.351200  1.0  -0.1402
  C  C211  1  0.572300  0.590900  0.361200  1.0  0.7671
  C  C212  1  0.061600  0.627900  0.326600  1.0  0.7474
  C  C213  1  0.372500  0.662000  0.860000  1.0  -0.0679
  C  C214  1  0.364000  0.600200  0.889860  1.0  -0.108
  C  C215  1  0.320000  0.540700  0.876000  1.0  -0.0751
  C  C216  1  0.340500  0.665300  0.816700  1.0  -0.047
  C  C217  1  0.398500  0.597400  0.937200  1.0  0.7226
  C  C218  1  0.255400  0.610500  0.756400  1.0  0.7697
  C  C219  1  0.283800  0.545000  0.832600  1.0  -0.0306
  C  C220  1  0.295300  0.606100  0.802600  1.0  -0.1397
  C  C221  1  0.586600  0.719400  0.097390  1.0  0.7573
  C  C222  1  0.626700  0.714000  0.143890  1.0  -0.169
  C  C223  1  0.608800  0.654800  0.174600  1.0  -0.0321
  C  C224  1  0.642400  0.649300  0.218200  1.0  -0.1111
  C  C225  1  0.691600  0.706300  0.232200  1.0  -0.1136
  C  C226  1  0.708600  0.767000  0.201600  1.0  -0.0804
  C  C227  1  0.677500  0.769500  0.157600  1.0  -0.0278
  C  C228  1  0.725600  0.703100  0.279600  1.0  0.7359
  C  C229  1  0.982800  0.435800  0.481200  1.0  -0.0654
  C  C230  1  0.016900  0.430400  0.524600  1.0  -0.0559
  C  C231  1  0.966100  0.505500  0.456000  1.0  -0.1331
  C  C232  1  0.932400  0.509800  0.408500  1.0  0.7562
  C  C233  1  0.966300  0.435700  0.990000  1.0  -0.0391
  C  C234  1  0.087900  0.427500  0.997400  1.0  -0.0585
  C  C235  1  0.744900  0.515500  0.982500  1.0  0.7683
  C  C236  1  0.877300  0.507700  0.992080  1.0  -0.141
  O  O237  1  0.720100  0.167000  0.957990  1.0  -0.7755
  O  O238  1  0.755800  0.282300  0.945170  1.0  -0.7261
  O  O239  1  0.345200  0.116000  0.014910  1.0  -0.7316
  O  O240  1  0.279200  0.015100  0.044550  1.0  -0.7417
  O  O241  1  0.438400  0.177100  0.606700  1.0  -0.6663
  O  O242  1  0.360900  0.082700  0.639110  1.0  -0.7166
  O  O243  1  0.004500  0.994000  0.690290  1.0  -0.7598
  O  O244  1  0.913900  0.909100  0.728050  1.0  -0.7259
  O  O245  1  0.373300  0.890700  0.635970  1.0  -0.7469
  O  O246  1  0.312300  0.783700  0.659250  1.0  -0.7342
  O  O247  1  0.920900  0.610100  0.714250  1.0  -0.7405
  O  O248  1  0.944200  0.728200  0.714760  1.0  -0.7711
  O  O249  1  0.257700  0.979700  0.721450  1.0  -0.6935
  O  O250  1  0.449400  0.025100  0.929170  1.0  -0.7422
  O  O251  1  0.393800  0.919600  0.958030  1.0  -0.7288
  O  O252  1  0.885100  0.071500  0.399060  1.0  -0.7623
  O  O253  1  0.953200  0.170100  0.365330  1.0  -0.7419
  O  O254  1  0.071800  0.126900  0.602900  1.0  -0.6901
  O  O255  1  0.141000  0.227200  0.572680  1.0  -0.7428
  O  O256  1  0.344100  0.473300  0.649760  1.0  -0.7324
  O  O257  1  0.411100  0.354200  0.619070  1.0  -0.7338
  O  O258  1  0.022200  0.308800  0.663950  1.0  -0.6907
  O  O259  1  0.954500  0.431200  0.691010  1.0  -0.648
  O  O260  1  0.626900  0.340200  0.041740  1.0  -0.6116
  O  O261  1  0.548100  0.468200  0.045850  1.0  -0.872
  O  O262  1  0.745500  0.329000  0.268050  1.0  -0.7634
  O  O263  1  0.776000  0.446200  0.255970  1.0  -0.7643
  O  O264  1  0.455400  0.333600  0.913650  1.0  -0.7692
  O  O265  1  0.402100  0.222700  0.927890  1.0  -0.7143
  O  O266  1  0.289700  0.235000  0.700380  1.0  -0.5902
  O  O267  1  0.230900  0.363000  0.702010  1.0  -0.8617
  O  O268  1  0.035500  0.551000  0.614950  1.0  -0.6767
  O  O269  1  0.130700  0.425400  0.606340  1.0  -0.8758
  O  O270  1  0.337600  0.421500  0.007340  1.0  -0.6664
  O  O271  1  0.270500  0.541600  0.035440  1.0  -0.7399
  O  O272  1  0.208300  0.871700  0.749360  1.0  -0.7648
  O  O273  1  0.103900  0.131100  0.691590  1.0  -0.8182
  O  O274  1  0.477000  0.254600  0.008840  1.0  -0.8457
  O  O275  1  0.279900  0.833000  0.042010  1.0  -0.7749
  O  O276  1  0.244200  0.717700  0.054830  1.0  -0.7256
  O  O277  1  0.654800  0.884000  0.985090  1.0  -0.7275
  O  O278  1  0.720800  0.984900  0.955450  1.0  -0.7386
  O  O279  1  0.561600  0.822900  0.393300  1.0  -0.6699
  O  O280  1  0.639100  0.917300  0.360890  1.0  -0.7173
  O  O281  1  0.995500  0.006000  0.309710  1.0  -0.759
  O  O282  1  0.086100  0.090900  0.271950  1.0  -0.7239
  O  O283  1  0.626700  0.109300  0.364030  1.0  -0.7506
  O  O284  1  0.687700  0.216300  0.340750  1.0  -0.7342
  O  O285  1  0.079100  0.389900  0.285750  1.0  -0.7423
  O  O286  1  0.055800  0.271800  0.285240  1.0  -0.7725
  O  O287  1  0.742300  0.020300  0.278550  1.0  -0.7043
  O  O288  1  0.550600  0.974900  0.070830  1.0  -0.7462
  O  O289  1  0.606200  0.080400  0.041970  1.0  -0.7238
  O  O290  1  0.114900  0.928500  0.600940  1.0  -0.7562
  O  O291  1  0.046800  0.829900  0.634670  1.0  -0.7425
  O  O292  1  0.928200  0.873100  0.397100  1.0  -0.6916
  O  O293  1  0.859000  0.772800  0.427320  1.0  -0.743
  O  O294  1  0.655900  0.526700  0.350240  1.0  -0.7375
  O  O295  1  0.588900  0.645800  0.380930  1.0  -0.7345
  O  O296  1  0.977800  0.691200  0.336050  1.0  -0.6907
  O  O297  1  0.045500  0.568800  0.308990  1.0  -0.6409
  O  O298  1  0.373100  0.659800  0.958260  1.0  -0.6096
  O  O299  1  0.451900  0.531800  0.954150  1.0  -0.8712
  O  O300  1  0.254500  0.671000  0.731950  1.0  -0.7616
  O  O301  1  0.224000  0.553800  0.744030  1.0  -0.7619
  O  O302  1  0.544600  0.666400  0.086350  1.0  -0.7706
  O  O303  1  0.597900  0.777300  0.072110  1.0  -0.7089
  O  O304  1  0.710300  0.765000  0.299620  1.0  -0.5893
  O  O305  1  0.769100  0.637000  0.297990  1.0  -0.8589
  O  O306  1  0.964500  0.449000  0.385050  1.0  -0.6765
  O  O307  1  0.869300  0.574600  0.393660  1.0  -0.8769
  O  O308  1  0.662400  0.578500  0.992660  1.0  -0.6675
  O  O309  1  0.729500  0.458400  0.964560  1.0  -0.7354
  O  O310  1  0.791700  0.128300  0.250640  1.0  -0.7612
  O  O311  1  0.896100  0.868900  0.308410  1.0  -0.8147
  O  O312  1  0.523000  0.745400  0.991160  1.0  -0.8455
