# generated using pymatgen
data_NdH6(C2O)6
_symmetry_space_group_name_H-M   'P 1'
_cell_length_a   11.14360000
_cell_length_b   17.85000000
_cell_length_c   29.34000000
_cell_angle_alpha   86.63800000
_cell_angle_beta   79.66600000
_cell_angle_gamma   73.20600000
_symmetry_Int_Tables_number   1
_chemical_formula_structural   NdH6(C2O)6
_chemical_formula_sum   'Nd12 H72 C144 O72'
_cell_volume   5496.42812053
_cell_formula_units_Z   12
loop_
 _symmetry_equiv_pos_site_id
 _symmetry_equiv_pos_as_xyz
  1  'x, y, z'
loop_
 _atom_site_type_symbol
 _atom_site_label
 _atom_site_symmetry_multiplicity
 _atom_site_fract_x
 _atom_site_fract_y
 _atom_site_fract_z
 _atom_site_occupancy
 _atom_site_charge
  Nd  Nd1  1  0.243870  0.289210  0.620660  1.0  2.3229
  Nd  Nd2  1  0.560600  0.390160  0.964910  1.0  2.3188
  Nd  Nd3  1  0.115860  0.504740  0.690820  1.0  2.3302
  Nd  Nd4  1  0.546280  0.110160  0.964190  1.0  2.332
  Nd  Nd5  1  0.107350  0.794840  0.710460  1.0  2.3297
  Nd  Nd6  1  0.198340  0.013810  0.643260  1.0  2.3605
  Nd  Nd7  1  0.756130  0.710790  0.379340  1.0  2.323
  Nd  Nd8  1  0.439400  0.609840  0.035090  1.0  2.321
  Nd  Nd9  1  0.884140  0.495260  0.309190  1.0  2.329
  Nd  Nd10  1  0.453720  0.889840  0.035810  1.0  2.3328
  Nd  Nd11  1  0.892650  0.205160  0.289540  1.0  2.3289
  Nd  Nd12  1  0.801660  0.986190  0.356740  1.0  2.3617
  H  H13  1  0.989400  0.263300  0.950900  1.0  0.0975
  H  H14  1  0.184000  0.208500  0.973400  1.0  0.113
  H  H15  1  0.048400  0.039000  0.040500  1.0  0.0955
  H  H16  1  0.856900  0.092500  0.015900  1.0  0.1087
  H  H17  1  0.496600  0.005800  0.695700  1.0  0.1036
  H  H18  1  0.681600  0.946000  0.722200  1.0  0.0988
  H  H19  1  0.855100  0.087800  0.642700  1.0  0.1087
  H  H20  1  0.670400  0.145000  0.614600  1.0  0.0987
  H  H21  1  0.689400  0.624400  0.706700  1.0  0.0966
  H  H22  1  0.493600  0.679400  0.686200  1.0  0.1124
  H  H23  1  0.596600  0.873400  0.645000  1.0  0.0955
  H  H24  1  0.790800  0.818700  0.667600  1.0  0.0927
  H  H25  1  0.746600  0.156800  0.169900  1.0  0.0973
  H  H26  1  0.688800  0.139100  0.100600  1.0  0.0967
  H  H27  1  0.588400  0.949500  0.152700  1.0  0.0946
  H  H28  1  0.650100  0.965900  0.221500  1.0  0.0971
  H  H29  1  0.037700  0.234700  0.422000  1.0  0.097
  H  H30  1  0.096000  0.255500  0.490400  1.0  0.1095
  H  H31  1  0.968400  0.077200  0.549200  1.0  0.0928
  H  H32  1  0.907500  0.057900  0.481400  1.0  0.1024
  H  H33  1  0.619200  0.282900  0.644400  1.0  0.0978
  H  H34  1  0.824000  0.267800  0.656100  1.0  0.1028
  H  H35  1  0.743200  0.497500  0.671500  1.0  0.0978
  H  H36  1  0.540900  0.512800  0.658600  1.0  0.1053
  H  H37  1  0.402400  0.701200  0.869400  1.0  0.1074
  H  H38  1  0.313200  0.499000  0.895400  1.0  0.0992
  H  H39  1  0.349700  0.706600  0.796600  1.0  0.1056
  H  H40  1  0.254000  0.505900  0.823600  1.0  0.0991
  H  H41  1  0.427200  0.381900  0.833900  1.0  0.0973
  H  H42  1  0.364300  0.391700  0.762200  1.0  0.102
  H  H43  1  0.257600  0.195500  0.789700  1.0  0.1071
  H  H44  1  0.310100  0.190800  0.862800  1.0  0.0931
  H  H45  1  0.026100  0.607500  0.531700  1.0  0.0994
  H  H46  1  0.972300  0.616500  0.459400  1.0  0.1012
  H  H47  1  0.944200  0.391200  0.983500  1.0  0.0972
  H  H48  1  0.146200  0.378600  0.995600  1.0  0.1008
  H  H49  1  0.010600  0.736700  0.049100  1.0  0.098
  H  H50  1  0.816000  0.791500  0.026600  1.0  0.1128
  H  H51  1  0.951600  0.961000  0.959500  1.0  0.0956
  H  H52  1  0.143100  0.907500  0.984100  1.0  0.1087
  H  H53  1  0.503400  0.994200  0.304300  1.0  0.1035
  H  H54  1  0.318400  0.054000  0.277800  1.0  0.0981
  H  H55  1  0.144900  0.912200  0.357300  1.0  0.108
  H  H56  1  0.329600  0.855000  0.385400  1.0  0.0992
  H  H57  1  0.310600  0.375600  0.293300  1.0  0.0964
  H  H58  1  0.506400  0.320600  0.313800  1.0  0.1126
  H  H59  1  0.403400  0.126600  0.355000  1.0  0.0949
  H  H60  1  0.209200  0.181300  0.332400  1.0  0.0927
  H  H61  1  0.253400  0.843200  0.830100  1.0  0.0971
  H  H62  1  0.311200  0.860900  0.899400  1.0  0.0966
  H  H63  1  0.411600  0.050500  0.847300  1.0  0.0949
  H  H64  1  0.349900  0.034100  0.778500  1.0  0.0974
  H  H65  1  0.962300  0.765300  0.578000  1.0  0.0968
  H  H66  1  0.904000  0.744500  0.509600  1.0  0.1095
  H  H67  1  0.031600  0.922800  0.450800  1.0  0.0926
  H  H68  1  0.092500  0.942100  0.518600  1.0  0.102
  H  H69  1  0.380800  0.717100  0.355600  1.0  0.0985
  H  H70  1  0.176000  0.732200  0.343900  1.0  0.1025
  H  H71  1  0.256800  0.502500  0.328500  1.0  0.0975
  H  H72  1  0.459100  0.487200  0.341400  1.0  0.1055
  H  H73  1  0.597600  0.298800  0.130600  1.0  0.1076
  H  H74  1  0.686800  0.501000  0.104600  1.0  0.0991
  H  H75  1  0.650300  0.293400  0.203400  1.0  0.1056
  H  H76  1  0.746000  0.494100  0.176400  1.0  0.0986
  H  H77  1  0.572800  0.618100  0.166100  1.0  0.0981
  H  H78  1  0.635700  0.608300  0.237800  1.0  0.1022
  H  H79  1  0.742400  0.804500  0.210300  1.0  0.1067
  H  H80  1  0.689900  0.809200  0.137200  1.0  0.093
  H  H81  1  0.973900  0.392500  0.468300  1.0  0.0999
  H  H82  1  0.027700  0.383500  0.540600  1.0  0.1009
  H  H83  1  0.055800  0.608800  0.016500  1.0  0.0977
  H  H84  1  0.853800  0.621400  0.004400  1.0  0.1002
  C  C85  1  0.906400  0.182200  0.979400  1.0  -0.1433
  C  C86  1  0.002800  0.217100  0.968200  1.0  -0.0541
  C  C87  1  0.118500  0.185300  0.981900  1.0  -0.0561
  C  C88  1  0.136100  0.116300  0.009400  1.0  -0.1481
  C  C89  1  0.037400  0.083600  0.021800  1.0  -0.0348
  C  C90  1  0.922800  0.115400  0.007200  1.0  -0.057
  C  C91  1  0.784100  0.214300  0.960000  1.0  0.8074
  C  C92  1  0.265100  0.079800  0.023800  1.0  0.7921
  C  C93  1  0.565700  0.080200  0.650700  1.0  -0.1448
  C  C94  1  0.569400  0.021200  0.684300  1.0  -0.0577
  C  C95  1  0.679300  0.986300  0.700500  1.0  -0.0497
  C  C96  1  0.786700  0.009500  0.685400  1.0  -0.152
  C  C97  1  0.783400  0.070700  0.652800  1.0  -0.0742
  C  C98  1  0.673100  0.104500  0.636200  1.0  -0.0349
  C  C99  1  0.445300  0.116100  0.630900  1.0  0.8215
  C  C100  1  0.911900  0.966500  0.702200  1.0  0.7951
  C  C101  1  0.670100  0.675100  0.694800  1.0  -0.041
  C  C102  1  0.553200  0.707500  0.682500  1.0  -0.0767
  C  C103  1  0.524300  0.783900  0.664100  1.0  -0.1383
  C  C104  1  0.614500  0.823500  0.658100  1.0  -0.0385
  C  C105  1  0.731200  0.790600  0.671200  1.0  -0.0566
  C  C106  1  0.759900  0.715400  0.690000  1.0  -0.1482
  C  C107  1  0.390300  0.822000  0.652600  1.0  0.7942
  C  C108  1  0.885600  0.683100  0.706600  1.0  0.8183
  C  C109  1  0.716200  0.114500  0.166300  1.0  -0.0573
  C  C110  1  0.680600  0.104000  0.124800  1.0  -0.0388
  C  C111  1  0.633600  0.042800  0.118600  1.0  -0.1313
  C  C112  1  0.621400  0.990900  0.155800  1.0  -0.0513
  C  C113  1  0.658200  0.000900  0.197200  1.0  -0.0429
  C  C114  1  0.706400  0.061700  0.202800  1.0  -0.1458
  C  C115  1  0.591700  0.032100  0.073800  1.0  0.7953
  C  C116  1  0.749800  0.071700  0.247300  1.0  0.7925
  C  C117  1  0.024100  0.203000  0.447600  1.0  -0.0331
  C  C118  1  0.059400  0.215400  0.488400  1.0  -0.0649
  C  C119  1  0.040000  0.167100  0.527100  1.0  -0.1495
  C  C120  1  0.982600  0.108700  0.523600  1.0  -0.0409
  C  C121  1  0.946500  0.097000  0.483000  1.0  -0.0474
  C  C122  1  0.967800  0.143200  0.444100  1.0  -0.1374
  C  C123  1  0.088800  0.175000  0.570900  1.0  0.8056
  C  C124  1  0.931800  0.125900  0.399500  1.0  0.7844
  C  C125  1  0.644600  0.326600  0.649200  1.0  -0.0493
  C  C126  1  0.766700  0.317500  0.656600  1.0  -0.0598
  C  C127  1  0.803900  0.381900  0.664800  1.0  -0.1327
  C  C128  1  0.719000  0.453800  0.665600  1.0  -0.0413
  C  C129  1  0.597900  0.463000  0.657800  1.0  -0.0646
  C  C130  1  0.559900  0.400000  0.649000  1.0  -0.1324
  C  C131  1  0.429500  0.410200  0.638600  1.0  0.7901
  C  C132  1  0.938900  0.372600  0.673700  1.0  0.7598
  C  C133  1  0.373400  0.661700  0.859900  1.0  -0.0727
  C  C134  1  0.362600  0.599400  0.889800  1.0  -0.1072
  C  C135  1  0.319300  0.541000  0.875800  1.0  -0.0771
  C  C136  1  0.341300  0.665300  0.816500  1.0  -0.047
  C  C137  1  0.399100  0.597100  0.936800  1.0  0.7598
  C  C138  1  0.253900  0.611400  0.755800  1.0  0.7999
  C  C139  1  0.284900  0.544800  0.832700  1.0  -0.0338
  C  C140  1  0.296400  0.606800  0.802800  1.0  -0.1469
  C  C141  1  0.414500  0.280600  0.902600  1.0  0.79
  C  C142  1  0.373000  0.285700  0.856000  1.0  -0.1631
  C  C143  1  0.391100  0.345100  0.825300  1.0  -0.0387
  C  C144  1  0.355900  0.350100  0.781900  1.0  -0.0875
  C  C145  1  0.308400  0.293500  0.768100  1.0  -0.103
  C  C146  1  0.290700  0.233500  0.798600  1.0  -0.0787
  C  C147  1  0.322800  0.230700  0.842400  1.0  -0.0379
  C  C148  1  0.273000  0.297200  0.720000  1.0  0.7595
  C  C149  1  0.015800  0.563800  0.518900  1.0  -0.0467
  C  C150  1  0.983200  0.569400  0.475700  1.0  -0.064
  C  C151  1  0.033400  0.494900  0.543700  1.0  -0.1245
  C  C152  1  0.070500  0.489500  0.590800  1.0  0.7638
  C  C153  1  0.966800  0.435200  0.990000  1.0  -0.041
  C  C154  1  0.087000  0.427600  0.997600  1.0  -0.058
  C  C155  1  0.745200  0.515900  0.982100  1.0  0.7846
  C  C156  1  0.878300  0.508100  0.991800  1.0  -0.1435
  C  C157  1  0.093600  0.817800  0.020600  1.0  -0.1435
  C  C158  1  0.997200  0.782900  0.031800  1.0  -0.0542
  C  C159  1  0.881500  0.814700  0.018100  1.0  -0.0553
  C  C160  1  0.863900  0.883700  0.990600  1.0  -0.1476
  C  C161  1  0.962600  0.916400  0.978200  1.0  -0.035
  C  C162  1  0.077200  0.884600  0.992800  1.0  -0.0576
  C  C163  1  0.215900  0.785700  0.040000  1.0  0.8067
  C  C164  1  0.734900  0.920200  0.976200  1.0  0.7926
  C  C165  1  0.434300  0.919800  0.349300  1.0  -0.1455
  C  C166  1  0.430600  0.978800  0.315700  1.0  -0.057
  C  C167  1  0.320700  0.013700  0.299500  1.0  -0.0502
  C  C168  1  0.213300  0.990500  0.314600  1.0  -0.1537
  C  C169  1  0.216600  0.929300  0.347200  1.0  -0.0741
  C  C170  1  0.326900  0.895500  0.363800  1.0  -0.0352
  C  C171  1  0.554700  0.883900  0.369100  1.0  0.8205
  C  C172  1  0.088100  0.033500  0.297800  1.0  0.7942
  C  C173  1  0.329900  0.324900  0.305200  1.0  -0.0405
  C  C174  1  0.446800  0.292500  0.317500  1.0  -0.0779
  C  C175  1  0.475700  0.216100  0.335900  1.0  -0.1393
  C  C176  1  0.385500  0.176500  0.341900  1.0  -0.0385
  C  C177  1  0.268800  0.209400  0.328800  1.0  -0.0566
  C  C178  1  0.240100  0.284600  0.310000  1.0  -0.1481
  C  C179  1  0.609700  0.178000  0.347400  1.0  0.7938
  C  C180  1  0.114400  0.316900  0.293400  1.0  0.8176
  C  C181  1  0.283800  0.885500  0.833700  1.0  -0.0568
  C  C182  1  0.319400  0.896000  0.875200  1.0  -0.04
  C  C183  1  0.366400  0.957200  0.881400  1.0  -0.1317
  C  C184  1  0.378600  0.009100  0.844200  1.0  -0.0518
  C  C185  1  0.341800  0.999100  0.802800  1.0  -0.0412
  C  C186  1  0.293600  0.938300  0.797200  1.0  -0.1462
  C  C187  1  0.408300  0.967900  0.926200  1.0  0.7965
  C  C188  1  0.250200  0.928300  0.752700  1.0  0.7904
  C  C189  1  0.975900  0.797000  0.552400  1.0  -0.0349
  C  C190  1  0.940600  0.784600  0.511600  1.0  -0.0642
  C  C191  1  0.960000  0.832900  0.472900  1.0  -0.1486
  C  C192  1  0.017400  0.891300  0.476400  1.0  -0.0404
  C  C193  1  0.053500  0.903000  0.517000  1.0  -0.0485
  C  C194  1  0.032200  0.856800  0.555900  1.0  -0.1364
  C  C195  1  0.911200  0.825000  0.429100  1.0  0.8033
  C  C196  1  0.068200  0.874100  0.600500  1.0  0.7877
  C  C197  1  0.355400  0.673400  0.350800  1.0  -0.0499
  C  C198  1  0.233300  0.682500  0.343400  1.0  -0.0611
  C  C199  1  0.196100  0.618100  0.335200  1.0  -0.1335
  C  C200  1  0.281000  0.546200  0.334400  1.0  -0.0421
  C  C201  1  0.402100  0.537000  0.342200  1.0  -0.0643
  C  C202  1  0.440100  0.600000  0.351000  1.0  -0.1321
  C  C203  1  0.570500  0.589800  0.361400  1.0  0.7887
  C  C204  1  0.061100  0.627400  0.326300  1.0  0.7619
  C  C205  1  0.626600  0.338300  0.140100  1.0  -0.0712
  C  C206  1  0.637400  0.400600  0.110200  1.0  -0.1066
  C  C207  1  0.680700  0.459000  0.124200  1.0  -0.0779
  C  C208  1  0.658700  0.334700  0.183500  1.0  -0.046
  C  C209  1  0.600900  0.402900  0.063200  1.0  0.7591
  C  C210  1  0.746100  0.388600  0.244200  1.0  0.8011
  C  C211  1  0.715100  0.455200  0.167300  1.0  -0.0351
  C  C212  1  0.703600  0.393200  0.197200  1.0  -0.1466
  C  C213  1  0.585500  0.719400  0.097400  1.0  0.7911
  C  C214  1  0.627000  0.714300  0.144000  1.0  -0.1632
  C  C215  1  0.608900  0.654900  0.174700  1.0  -0.0376
  C  C216  1  0.644100  0.649900  0.218100  1.0  -0.0875
  C  C217  1  0.691600  0.706500  0.231900  1.0  -0.1042
  C  C218  1  0.709300  0.766500  0.201400  1.0  -0.0814
  C  C219  1  0.677200  0.769300  0.157600  1.0  -0.0373
  C  C220  1  0.727000  0.702800  0.280000  1.0  0.7591
  C  C221  1  0.984200  0.436200  0.481100  1.0  -0.0491
  C  C222  1  0.016800  0.430600  0.524300  1.0  -0.0647
  C  C223  1  0.966600  0.505100  0.456300  1.0  -0.1235
  C  C224  1  0.929500  0.510500  0.409200  1.0  0.766
  C  C225  1  0.033200  0.564800  0.010000  1.0  -0.04
  C  C226  1  0.913000  0.572400  0.002400  1.0  -0.0578
  C  C227  1  0.254800  0.484100  0.017900  1.0  0.7698
  C  C228  1  0.121700  0.491900  0.008200  1.0  -0.143
  O  O229  1  0.720100  0.167200  0.957900  1.0  -0.8169
  O  O230  1  0.755600  0.283200  0.945200  1.0  -0.7398
  O  O231  1  0.346400  0.115500  0.014800  1.0  -0.7699
  O  O232  1  0.278900  0.014700  0.043700  1.0  -0.7528
  O  O233  1  0.438400  0.176700  0.606900  1.0  -0.7252
  O  O234  1  0.359900  0.083900  0.638900  1.0  -0.8222
  O  O235  1  0.005100  0.992700  0.690000  1.0  -0.8056
  O  O236  1  0.913900  0.909000  0.727000  1.0  -0.7133
  O  O237  1  0.374600  0.889800  0.636400  1.0  -0.7587
  O  O238  1  0.311800  0.785200  0.659600  1.0  -0.728
  O  O239  1  0.920100  0.610900  0.714400  1.0  -0.7443
  O  O240  1  0.943600  0.728900  0.714800  1.0  -0.7898
  O  O241  1  0.742100  0.019600  0.277900  1.0  -0.7405
  O  O242  1  0.551100  0.974500  0.070800  1.0  -0.7685
  O  O243  1  0.604800  0.081200  0.042100  1.0  -0.7347
  O  O244  1  0.884900  0.071200  0.399500  1.0  -0.7529
  O  O245  1  0.953900  0.170300  0.365100  1.0  -0.7665
  O  O246  1  0.070700  0.127100  0.603100  1.0  -0.7528
  O  O247  1  0.141000  0.226700  0.572700  1.0  -0.7818
  O  O248  1  0.343400  0.474000  0.649700  1.0  -0.725
  O  O249  1  0.412400  0.354300  0.619000  1.0  -0.7544
  O  O250  1  0.024200  0.308600  0.663300  1.0  -0.7281
  O  O251  1  0.954700  0.431600  0.690500  1.0  -0.7499
  O  O252  1  0.372000  0.659700  0.958400  1.0  -0.6612
  O  O253  1  0.452400  0.531700  0.953790  1.0  -0.8759
  O  O254  1  0.254800  0.671300  0.731900  1.0  -0.7812
  O  O255  1  0.224200  0.554800  0.744200  1.0  -0.7797
  O  O256  1  0.454900  0.333900  0.913700  1.0  -0.7981
  O  O257  1  0.402400  0.222100  0.927800  1.0  -0.7743
  O  O258  1  0.290700  0.234900  0.700100  1.0  -0.613
  O  O259  1  0.230400  0.363000  0.701400  1.0  -0.8706
  O  O260  1  0.035200  0.551800  0.614100  1.0  -0.6923
  O  O261  1  0.130200  0.426000  0.606000  1.0  -0.8627
  O  O262  1  0.661600  0.579100  0.992800  1.0  -0.7431
  O  O263  1  0.730700  0.457600  0.964200  1.0  -0.7523
  O  O264  1  0.792000  0.128600  0.250500  1.0  -0.7916
  O  O265  1  0.279900  0.832800  0.042100  1.0  -0.8173
  O  O266  1  0.244400  0.716800  0.054800  1.0  -0.7369
  O  O267  1  0.653600  0.884500  0.985200  1.0  -0.77
  O  O268  1  0.721100  0.985300  0.956300  1.0  -0.7541
  O  O269  1  0.561600  0.823300  0.393100  1.0  -0.7334
  O  O270  1  0.640100  0.916100  0.361100  1.0  -0.8208
  O  O271  1  0.994900  0.007300  0.310000  1.0  -0.8083
  O  O272  1  0.086100  0.091000  0.273000  1.0  -0.71
  O  O273  1  0.625400  0.110200  0.363600  1.0  -0.7515
  O  O274  1  0.688200  0.214800  0.340400  1.0  -0.7269
  O  O275  1  0.079900  0.389100  0.285600  1.0  -0.7546
  O  O276  1  0.056400  0.271100  0.285200  1.0  -0.7838
  O  O277  1  0.257900  0.980400  0.722100  1.0  -0.7408
  O  O278  1  0.448900  0.025500  0.929200  1.0  -0.7594
  O  O279  1  0.395200  0.918800  0.957900  1.0  -0.7337
  O  O280  1  0.115100  0.928800  0.600500  1.0  -0.7494
  O  O281  1  0.046100  0.829700  0.634900  1.0  -0.7654
  O  O282  1  0.929300  0.872900  0.396900  1.0  -0.7505
  O  O283  1  0.859000  0.773300  0.427300  1.0  -0.7806
  O  O284  1  0.656600  0.526000  0.350300  1.0  -0.7322
  O  O285  1  0.587600  0.645700  0.381000  1.0  -0.7546
  O  O286  1  0.975800  0.691400  0.336700  1.0  -0.7279
  O  O287  1  0.045300  0.568400  0.309500  1.0  -0.7517
  O  O288  1  0.628000  0.340300  0.041600  1.0  -0.6615
  O  O289  1  0.547600  0.468300  0.046210  1.0  -0.8774
  O  O290  1  0.745200  0.328700  0.268100  1.0  -0.7825
  O  O291  1  0.775800  0.445200  0.255800  1.0  -0.7812
  O  O292  1  0.545100  0.666100  0.086300  1.0  -0.7989
  O  O293  1  0.597600  0.777900  0.072200  1.0  -0.7772
  O  O294  1  0.709300  0.765100  0.299900  1.0  -0.613
  O  O295  1  0.769600  0.637000  0.298600  1.0  -0.8684
  O  O296  1  0.964800  0.448200  0.385900  1.0  -0.6914
  O  O297  1  0.869800  0.574000  0.394000  1.0  -0.8637
  O  O298  1  0.338400  0.420900  0.007200  1.0  -0.7446
  O  O299  1  0.269300  0.542400  0.035800  1.0  -0.7545
  O  O300  1  0.208000  0.871400  0.749500  1.0  -0.7977
