# generated using pymatgen
data_YH6(C2O)6
_symmetry_space_group_name_H-M   'P 1'
_cell_length_a   8.61300000
_cell_length_b   10.12200000
_cell_length_c   11.09500000
_cell_angle_alpha   65.20500000
_cell_angle_beta   71.60900000
_cell_angle_gamma   78.61700000
_symmetry_Int_Tables_number   1
_chemical_formula_structural   YH6(C2O)6
_chemical_formula_sum   'Y2 H12 C24 O12'
_cell_volume   830.87414607
_cell_formula_units_Z   2
loop_
 _symmetry_equiv_pos_site_id
 _symmetry_equiv_pos_as_xyz
  1  'x, y, z'
loop_
 _atom_site_type_symbol
 _atom_site_label
 _atom_site_symmetry_multiplicity
 _atom_site_fract_x
 _atom_site_fract_y
 _atom_site_fract_z
 _atom_site_occupancy
 _atom_site_charge
  Y  Y1  1  0.366880  0.063280  0.338690  1.0  2.0227
  Y  Y2  1  0.633120  0.936720  0.661310  1.0  2.0233
  H  H3  1  0.553800  0.722700  0.314000  1.0  0.107
  H  H4  1  0.494800  0.475200  0.718400  1.0  0.1048
  H  H5  1  0.958400  0.151100  0.115800  1.0  0.0757
  H  H6  1  0.781000  0.884300  0.013200  1.0  0.1126
  H  H7  1  0.275800  0.448000  0.916100  1.0  0.1009
  H  H8  1  0.865800  0.370800  0.229200  1.0  0.1076
  H  H9  1  0.446200  0.277300  0.686000  1.0  0.1069
  H  H10  1  0.505200  0.524800  0.281600  1.0  0.1048
  H  H11  1  0.041600  0.848900  0.884200  1.0  0.0761
  H  H12  1  0.219000  0.115700  0.986800  1.0  0.1131
  H  H13  1  0.724200  0.552000  0.083900  1.0  0.1004
  H  H14  1  0.134200  0.629200  0.770800  1.0  0.1077
  C  C15  1  0.556900  0.745000  0.543700  1.0  0.7514
  C  C16  1  0.528400  0.618800  0.519600  1.0  -0.1236
  C  C17  1  0.532200  0.634100  0.388000  1.0  -0.0627
  C  C18  1  0.496600  0.484400  0.631000  1.0  -0.0619
  C  C19  1  0.674100  0.045800  0.161000  1.0  0.6707
  C  C20  1  0.843400  0.020800  0.078700  1.0  -0.1226
  C  C21  1  0.976700  0.089900  0.068600  1.0  -0.0396
  C  C22  1  0.867500  0.930200  0.008400  1.0  -0.0751
  C  C23  1  0.176900  0.270500  0.179800  1.0  0.6577
  C  C24  1  0.083400  0.391300  0.088400  1.0  -0.1099
  C  C25  1  0.164400  0.469900  0.949000  1.0  -0.0432
  C  C26  1  0.919600  0.422000  0.138100  1.0  -0.0498
  C  C27  1  0.443100  0.255000  0.456300  1.0  0.7521
  C  C28  1  0.471600  0.381200  0.480400  1.0  -0.1235
  C  C29  1  0.467800  0.365900  0.612000  1.0  -0.0641
  C  C30  1  0.503400  0.515600  0.369000  1.0  -0.0618
  C  C31  1  0.325900  0.954200  0.839000  1.0  0.6712
  C  C32  1  0.156600  0.979200  0.921300  1.0  -0.1228
  C  C33  1  0.023300  0.910100  0.931400  1.0  -0.0393
  C  C34  1  0.132500  0.069800  0.991600  1.0  -0.0757
  C  C35  1  0.823100  0.729500  0.820200  1.0  0.6576
  C  C36  1  0.916600  0.608700  0.911600  1.0  -0.1094
  C  C37  1  0.835600  0.530100  0.051000  1.0  -0.0438
  C  C38  1  0.080400  0.578000  0.861900  1.0  -0.0491
  O  O39  1  0.518400  0.872200  0.468400  1.0  -0.7806
  O  O40  1  0.622300  0.720300  0.638600  1.0  -0.6354
  O  O41  1  0.655400  0.122500  0.229700  1.0  -0.6569
  O  O42  1  0.552600  0.988500  0.164400  1.0  -0.6401
  O  O43  1  0.105000  0.196800  0.305800  1.0  -0.6929
  O  O44  1  0.326300  0.244900  0.126800  1.0  -0.6192
  O  O45  1  0.481600  0.127800  0.531600  1.0  -0.7797
  O  O46  1  0.377700  0.279700  0.361400  1.0  -0.635
  O  O47  1  0.344600  0.877500  0.770300  1.0  -0.6555
  O  O48  1  0.447400  0.011500  0.835600  1.0  -0.6412
  O  O49  1  0.895000  0.803200  0.694200  1.0  -0.6908
  O  O50  1  0.673700  0.755100  0.873200  1.0  -0.6189
