# generated using pymatgen
data_SmH12C21(NO2)3
_symmetry_space_group_name_H-M   'P 1'
_cell_length_a   16.10860000
_cell_length_b   16.10860000
_cell_length_c   27.96320000
_cell_angle_alpha   79.97990000
_cell_angle_beta   79.97990000
_cell_angle_gamma   63.01880000
_symmetry_Int_Tables_number   1
_chemical_formula_structural   SmH12C21(NO2)3
_chemical_formula_sum   'Sm4 H48 C84 N12 O24'
_cell_volume   6330.20589639
_cell_formula_units_Z   4
loop_
 _symmetry_equiv_pos_site_id
 _symmetry_equiv_pos_as_xyz
  1  'x, y, z'
loop_
 _atom_site_type_symbol
 _atom_site_label
 _atom_site_symmetry_multiplicity
 _atom_site_fract_x
 _atom_site_fract_y
 _atom_site_fract_z
 _atom_site_occupancy
 _atom_site_charge
  Sm  Sm1  1  0.531250  0.066570  0.046100  1.0  2.2483
  Sm  Sm2  1  0.933430  0.468750  0.453900  1.0  2.2482
  Sm  Sm3  1  0.468750  0.933430  0.953900  1.0  2.2479
  Sm  Sm4  1  0.066570  0.531250  0.546100  1.0  2.2485
  H  H5  1  0.633200  0.065000  0.202800  1.0  0.1161
  H  H6  1  0.707600  0.106200  0.253700  1.0  0.1117
  H  H7  1  0.840600  0.195000  0.133700  1.0  0.1313
  H  H8  1  0.759900  0.160100  0.085500  1.0  0.1058
  H  H9  1  0.325700  0.827100  0.090000  1.0  0.0991
  H  H10  1  0.261200  0.767600  0.158300  1.0  0.1215
  H  H11  1  0.367600  0.865000  0.242400  1.0  0.1235
  H  H12  1  0.429100  0.933700  0.170700  1.0  0.1191
  H  H13  1  0.823300  0.789100  0.056100  1.0  0.1228
  H  H14  1  0.949700  0.646500  0.042800  1.0  0.1153
  H  H15  1  0.806400  0.588000  0.961100  1.0  0.1042
  H  H16  1  0.682000  0.732200  0.968900  1.0  0.0898
  H  H17  1  0.935000  0.366800  0.297200  1.0  0.1163
  H  H18  1  0.893800  0.292400  0.246300  1.0  0.1113
  H  H19  1  0.805000  0.159400  0.366300  1.0  0.1311
  H  H20  1  0.839900  0.240100  0.414500  1.0  0.1059
  H  H21  1  0.172900  0.674300  0.410000  1.0  0.099
  H  H22  1  0.232400  0.738800  0.341700  1.0  0.1214
  H  H23  1  0.135000  0.632400  0.257600  1.0  0.1229
  H  H24  1  0.066300  0.570900  0.329300  1.0  0.1192
  H  H25  1  0.210900  0.176700  0.443900  1.0  0.1221
  H  H26  1  0.353500  0.050300  0.457200  1.0  0.1146
  H  H27  1  0.412000  0.193600  0.538900  1.0  0.106
  H  H28  1  0.267800  0.318000  0.531100  1.0  0.0882
  H  H29  1  0.366800  0.935000  0.797200  1.0  0.1164
  H  H30  1  0.292400  0.893800  0.746300  1.0  0.1111
  H  H31  1  0.159400  0.805000  0.866300  1.0  0.1318
  H  H32  1  0.240100  0.839900  0.914500  1.0  0.1059
  H  H33  1  0.674300  0.172900  0.910000  1.0  0.0992
  H  H34  1  0.738800  0.232400  0.841700  1.0  0.1215
  H  H35  1  0.632400  0.135000  0.757600  1.0  0.1231
  H  H36  1  0.570900  0.066300  0.829300  1.0  0.1192
  H  H37  1  0.176700  0.210900  0.943900  1.0  0.122
  H  H38  1  0.050300  0.353500  0.957200  1.0  0.1152
  H  H39  1  0.193600  0.412000  0.038900  1.0  0.1054
  H  H40  1  0.318000  0.267800  0.031100  1.0  0.0891
  H  H41  1  0.065000  0.633200  0.702800  1.0  0.1163
  H  H42  1  0.106200  0.707600  0.753700  1.0  0.1118
  H  H43  1  0.195000  0.840600  0.633700  1.0  0.1314
  H  H44  1  0.160100  0.759900  0.585500  1.0  0.1056
  H  H45  1  0.827100  0.325700  0.590000  1.0  0.099
  H  H46  1  0.767600  0.261200  0.658300  1.0  0.1213
  H  H47  1  0.865000  0.367600  0.742400  1.0  0.1232
  H  H48  1  0.933700  0.429100  0.670700  1.0  0.1189
  H  H49  1  0.789100  0.823300  0.556100  1.0  0.1231
  H  H50  1  0.646500  0.949700  0.542800  1.0  0.1149
  H  H51  1  0.588000  0.806400  0.461100  1.0  0.1048
  H  H52  1  0.732200  0.682000  0.468900  1.0  0.089
  C  C53  1  0.645290  0.077090  0.109710  1.0  0.6595
  C  C54  1  0.705400  0.092200  0.138850  1.0  -0.1062
  C  C55  1  0.677930  0.086530  0.189650  1.0  0.0232
  C  C56  1  0.719930  0.114530  0.219910  1.0  -0.0873
  C  C57  1  0.779600  0.154200  0.199120  1.0  0.1738
  C  C58  1  0.799580  0.168980  0.147470  1.0  -0.1723
  C  C59  1  0.755810  0.143010  0.119080  1.0  -0.0015
  C  C60  1  0.421130  0.923930  0.076980  1.0  0.7651
  C  C61  1  0.381470  0.887070  0.122690  1.0  -0.1717
  C  C62  1  0.332980  0.836780  0.120570  1.0  -0.0207
  C  C63  1  0.294810  0.800210  0.161130  1.0  -0.1255
  C  C64  1  0.307070  0.812270  0.204930  1.0  0.261
  C  C65  1  0.358390  0.859790  0.211400  1.0  -0.1536
  C  C66  1  0.396100  0.900100  0.168370  1.0  -0.0545
  C  C67  1  0.665370  0.870170  0.018990  1.0  0.7504
  C  C68  1  0.740740  0.776740  0.012530  1.0  -0.1463
  C  C69  1  0.820670  0.750070  0.036030  1.0  -0.0647
  C  C70  1  0.895200  0.664600  0.028600  1.0  -0.1384
  C  C71  1  0.889550  0.602150  0.998600  1.0  0.2251
  C  C72  1  0.810840  0.629040  0.979000  1.0  -0.1549
  C  C73  1  0.735370  0.714970  0.983950  1.0  -0.0567
  C  C74  1  0.922910  0.354710  0.390290  1.0  0.6601
  C  C75  1  0.907800  0.294600  0.361150  1.0  -0.1041
  C  C76  1  0.913470  0.322070  0.310350  1.0  0.0242
  C  C77  1  0.885470  0.280070  0.280090  1.0  -0.0876
  C  C78  1  0.845800  0.220400  0.300880  1.0  0.1723
  C  C79  1  0.831020  0.200420  0.352530  1.0  -0.1725
  C  C80  1  0.856990  0.244190  0.380920  1.0  0.0006
  C  C81  1  0.076070  0.578870  0.423020  1.0  0.7669
  C  C82  1  0.112930  0.618530  0.377310  1.0  -0.1727
  C  C83  1  0.163220  0.667020  0.379430  1.0  -0.0195
  C  C84  1  0.199790  0.705190  0.338870  1.0  -0.124
  C  C85  1  0.187730  0.692930  0.295070  1.0  0.2612
  C  C86  1  0.140210  0.641610  0.288600  1.0  -0.1541
  C  C87  1  0.099900  0.603900  0.331630  1.0  -0.0585
  C  C88  1  0.129830  0.334630  0.481010  1.0  0.7499
  C  C89  1  0.223260  0.259260  0.487470  1.0  -0.1464
  C  C90  1  0.249930  0.179330  0.463970  1.0  -0.0662
  C  C91  1  0.335400  0.104800  0.471400  1.0  -0.1377
  C  C92  1  0.397850  0.110450  0.501400  1.0  0.2255
  C  C93  1  0.370960  0.189160  0.521000  1.0  -0.1523
  C  C94  1  0.285030  0.264630  0.516050  1.0  -0.0543
  C  C95  1  0.354710  0.922910  0.890290  1.0  0.6589
  C  C96  1  0.294600  0.907800  0.861150  1.0  -0.1055
  C  C97  1  0.322070  0.913470  0.810350  1.0  0.0236
  C  C98  1  0.280070  0.885470  0.780090  1.0  -0.0876
  C  C99  1  0.220400  0.845800  0.800880  1.0  0.1743
  C  C100  1  0.200420  0.831020  0.852530  1.0  -0.1719
  C  C101  1  0.244190  0.856990  0.880920  1.0  -0.0003
  C  C102  1  0.578870  0.076070  0.923020  1.0  0.7662
  C  C103  1  0.618530  0.112930  0.877310  1.0  -0.172
  C  C104  1  0.667020  0.163220  0.879430  1.0  -0.0196
  C  C105  1  0.705190  0.199790  0.838870  1.0  -0.1243
  C  C106  1  0.692930  0.187730  0.795070  1.0  0.2618
  C  C107  1  0.641610  0.140210  0.788600  1.0  -0.1546
  C  C108  1  0.603900  0.099900  0.831630  1.0  -0.0591
  C  C109  1  0.334630  0.129830  0.981010  1.0  0.7497
  C  C110  1  0.259260  0.223260  0.987470  1.0  -0.1464
  C  C111  1  0.179330  0.249930  0.963970  1.0  -0.0662
  C  C112  1  0.104800  0.335400  0.971400  1.0  -0.1395
  C  C113  1  0.110450  0.397850  0.001400  1.0  0.224
  C  C114  1  0.189160  0.370960  0.021000  1.0  -0.1548
  C  C115  1  0.264630  0.285030  0.016050  1.0  -0.0562
  C  C116  1  0.077090  0.645290  0.609710  1.0  0.6605
  C  C117  1  0.092200  0.705400  0.638850  1.0  -0.1051
  C  C118  1  0.086530  0.677930  0.689650  1.0  0.0238
  C  C119  1  0.114530  0.719930  0.719910  1.0  -0.0879
  C  C120  1  0.154200  0.779600  0.699120  1.0  0.1724
  C  C121  1  0.168980  0.799580  0.647470  1.0  -0.1713
  C  C122  1  0.143010  0.755810  0.619080  1.0  -0.0014
  C  C123  1  0.923930  0.421130  0.576980  1.0  0.7651
  C  C124  1  0.887070  0.381470  0.622690  1.0  -0.172
  C  C125  1  0.836780  0.332980  0.620570  1.0  -0.0205
  C  C126  1  0.800210  0.294810  0.661130  1.0  -0.1254
  C  C127  1  0.812270  0.307070  0.704930  1.0  0.2604
  C  C128  1  0.859790  0.358390  0.711400  1.0  -0.1533
  C  C129  1  0.900100  0.396100  0.668370  1.0  -0.0546
  C  C130  1  0.870170  0.665370  0.518990  1.0  0.7503
  C  C131  1  0.776740  0.740740  0.512530  1.0  -0.1456
  C  C132  1  0.750070  0.820670  0.536030  1.0  -0.0653
  C  C133  1  0.664600  0.895200  0.528600  1.0  -0.1372
  C  C134  1  0.602150  0.889550  0.498600  1.0  0.2234
  C  C135  1  0.629040  0.810840  0.479000  1.0  -0.154
  C  C136  1  0.714970  0.735370  0.483950  1.0  -0.0546
  N  N137  1  0.820010  0.191010  0.225200  1.0  -0.2546
  N  N138  1  0.275950  0.774350  0.249090  1.0  -0.2302
  N  N139  1  0.955780  0.515380  0.995020  1.0  -0.2233
  N  N140  1  0.808990  0.179990  0.274800  1.0  -0.2548
  N  N141  1  0.225650  0.724050  0.250910  1.0  -0.2314
  N  N142  1  0.484620  0.044220  0.504980  1.0  -0.2259
  N  N143  1  0.179990  0.808990  0.774800  1.0  -0.2552
  N  N144  1  0.724050  0.225650  0.750910  1.0  -0.2305
  N  N145  1  0.044220  0.484620  0.004980  1.0  -0.2254
  N  N146  1  0.191010  0.820010  0.725200  1.0  -0.2544
  N  N147  1  0.774350  0.275950  0.749090  1.0  -0.23
  N  N148  1  0.515380  0.955780  0.495020  1.0  -0.2231
  O  O149  1  0.590470  0.042130  0.126010  1.0  -0.6887
  O  O150  1  0.656580  0.103540  0.063140  1.0  -0.6978
  O  O151  1  0.408140  0.914960  0.034980  1.0  -0.7158
  O  O152  1  0.469050  0.964010  0.086070  1.0  -0.7355
  O  O153  1  0.596990  0.896030  0.997140  1.0  -0.8253
  O  O154  1  0.675580  0.920660  0.046190  1.0  -0.6386
  O  O155  1  0.957870  0.409530  0.373990  1.0  -0.6891
  O  O156  1  0.896460  0.343420  0.436860  1.0  -0.6944
  O  O157  1  0.085040  0.591860  0.465020  1.0  -0.7151
  O  O158  1  0.035990  0.530950  0.413930  1.0  -0.7373
  O  O159  1  0.103970  0.403010  0.502860  1.0  -0.8317
  O  O160  1  0.079340  0.324420  0.453810  1.0  -0.6384
  O  O161  1  0.409530  0.957870  0.873990  1.0  -0.69
  O  O162  1  0.343420  0.896460  0.936860  1.0  -0.6955
  O  O163  1  0.591860  0.085040  0.965020  1.0  -0.7143
  O  O164  1  0.530950  0.035990  0.913930  1.0  -0.7368
  O  O165  1  0.403010  0.103970  0.002860  1.0  -0.8238
  O  O166  1  0.324420  0.079340  0.953810  1.0  -0.6394
  O  O167  1  0.042130  0.590470  0.626010  1.0  -0.6857
  O  O168  1  0.103540  0.656580  0.563140  1.0  -0.6979
  O  O169  1  0.914960  0.408140  0.534980  1.0  -0.7166
  O  O170  1  0.964010  0.469050  0.586070  1.0  -0.7376
  O  O171  1  0.896030  0.596990  0.497140  1.0  -0.8295
  O  O172  1  0.920660  0.675580  0.546190  1.0  -0.6393
