# generated using pymatgen
data_CeH12C21(NO2)3
_symmetry_space_group_name_H-M   'P 1'
_cell_length_a   16.10350000
_cell_length_b   16.10350000
_cell_length_c   28.12800000
_cell_angle_alpha   79.39080000
_cell_angle_beta   79.39080000
_cell_angle_gamma   63.17720000
_symmetry_Int_Tables_number   1
_chemical_formula_structural   CeH12C21(NO2)3
_chemical_formula_sum   'Ce4 H48 C84 N12 O24'
_cell_volume   6355.55873287
_cell_formula_units_Z   4
loop_
 _symmetry_equiv_pos_site_id
 _symmetry_equiv_pos_as_xyz
  1  'x, y, z'
loop_
 _atom_site_type_symbol
 _atom_site_label
 _atom_site_symmetry_multiplicity
 _atom_site_fract_x
 _atom_site_fract_y
 _atom_site_fract_z
 _atom_site_occupancy
 _atom_site_charge
  Ce  Ce1  1  0.531220  0.066620  0.046100  1.0  2.1819
  Ce  Ce2  1  0.933380  0.468780  0.453900  1.0  2.1822
  Ce  Ce3  1  0.468780  0.933380  0.953900  1.0  2.1831
  Ce  Ce4  1  0.066620  0.531220  0.546100  1.0  2.1836
  H  H5  1  0.633800  0.064400  0.203400  1.0  0.1151
  H  H6  1  0.706900  0.105700  0.253500  1.0  0.1136
  H  H7  1  0.842200  0.193800  0.133500  1.0  0.1306
  H  H8  1  0.760300  0.161100  0.085700  1.0  0.1088
  H  H9  1  0.325300  0.827700  0.090000  1.0  0.1077
  H  H10  1  0.262300  0.765700  0.159100  1.0  0.125
  H  H11  1  0.366200  0.866000  0.242200  1.0  0.1312
  H  H12  1  0.430400  0.931400  0.170500  1.0  0.1169
  H  H13  1  0.823900  0.788300  0.056000  1.0  0.1258
  H  H14  1  0.949200  0.646400  0.042600  1.0  0.1166
  H  H15  1  0.807500  0.588500  0.960900  1.0  0.113
  H  H16  1  0.682400  0.732200  0.968800  1.0  0.0928
  H  H17  1  0.935600  0.366200  0.296600  1.0  0.1151
  H  H18  1  0.894300  0.293100  0.246500  1.0  0.1137
  H  H19  1  0.806200  0.157800  0.366500  1.0  0.1311
  H  H20  1  0.838900  0.239700  0.414300  1.0  0.1085
  H  H21  1  0.172300  0.674700  0.410000  1.0  0.108
  H  H22  1  0.234300  0.737700  0.340900  1.0  0.1245
  H  H23  1  0.134000  0.633800  0.257800  1.0  0.1311
  H  H24  1  0.068600  0.569600  0.329500  1.0  0.1166
  H  H25  1  0.211700  0.176100  0.444000  1.0  0.1258
  H  H26  1  0.353600  0.050800  0.457400  1.0  0.1161
  H  H27  1  0.411500  0.192500  0.539100  1.0  0.1144
  H  H28  1  0.267800  0.317600  0.531200  1.0  0.0905
  H  H29  1  0.366200  0.935600  0.796600  1.0  0.1152
  H  H30  1  0.293100  0.894300  0.746500  1.0  0.1137
  H  H31  1  0.157800  0.806200  0.866500  1.0  0.1311
  H  H32  1  0.239700  0.838900  0.914300  1.0  0.1086
  H  H33  1  0.674700  0.172300  0.910000  1.0  0.1079
  H  H34  1  0.737700  0.234300  0.840900  1.0  0.1245
  H  H35  1  0.633800  0.134000  0.757800  1.0  0.1313
  H  H36  1  0.569600  0.068600  0.829500  1.0  0.1168
  H  H37  1  0.176100  0.211700  0.944000  1.0  0.1255
  H  H38  1  0.050800  0.353600  0.957400  1.0  0.1164
  H  H39  1  0.192500  0.411500  0.039100  1.0  0.1136
  H  H40  1  0.317600  0.267800  0.031200  1.0  0.0917
  H  H41  1  0.064400  0.633800  0.703400  1.0  0.1152
  H  H42  1  0.105700  0.706900  0.753500  1.0  0.1135
  H  H43  1  0.193800  0.842200  0.633500  1.0  0.1312
  H  H44  1  0.161100  0.760300  0.585700  1.0  0.1085
  H  H45  1  0.827700  0.325300  0.590000  1.0  0.1077
  H  H46  1  0.765700  0.262300  0.659100  1.0  0.125
  H  H47  1  0.866000  0.366200  0.742200  1.0  0.1311
  H  H48  1  0.931400  0.430400  0.670500  1.0  0.1169
  H  H49  1  0.788300  0.823900  0.556000  1.0  0.1261
  H  H50  1  0.646400  0.949200  0.542600  1.0  0.1163
  H  H51  1  0.588500  0.807500  0.460900  1.0  0.1136
  H  H52  1  0.732200  0.682400  0.468800  1.0  0.0916
  C  C53  1  0.645370  0.076570  0.109960  1.0  0.672
  C  C54  1  0.704700  0.092900  0.138890  1.0  -0.1126
  C  C55  1  0.678190  0.086590  0.189930  1.0  -0.0109
  C  C56  1  0.719770  0.114370  0.219780  1.0  -0.1325
  C  C57  1  0.780000  0.154600  0.199050  1.0  0.2226
  C  C58  1  0.800380  0.168580  0.147550  1.0  -0.1662
  C  C59  1  0.755860  0.143460  0.119170  1.0  -0.0192
  C  C60  1  0.421050  0.923850  0.076980  1.0  0.769
  C  C61  1  0.381400  0.886800  0.123060  1.0  -0.1628
  C  C62  1  0.332810  0.836610  0.120410  1.0  -0.0313
  C  C63  1  0.295320  0.799320  0.161290  1.0  -0.1479
  C  C64  1  0.307560  0.812760  0.204730  1.0  0.2415
  C  C65  1  0.358060  0.860060  0.211310  1.0  -0.1638
  C  C66  1  0.396230  0.898830  0.168530  1.0  -0.0274
  C  C67  1  0.664900  0.870700  0.019120  1.0  0.7601
  C  C68  1  0.740920  0.777320  0.012560  1.0  -0.1445
  C  C69  1  0.821120  0.749720  0.036030  1.0  -0.0329
  C  C70  1  0.894790  0.664590  0.028540  1.0  -0.1407
  C  C71  1  0.889580  0.602180  0.999110  1.0  0.2298
  C  C72  1  0.811280  0.629280  0.979010  1.0  -0.1478
  C  C73  1  0.735620  0.715020  0.983790  1.0  -0.053
  C  C74  1  0.923430  0.354630  0.390040  1.0  0.6721
  C  C75  1  0.907100  0.295300  0.361110  1.0  -0.1116
  C  C76  1  0.913410  0.321810  0.310070  1.0  -0.0114
  C  C77  1  0.885630  0.280230  0.280220  1.0  -0.1326
  C  C78  1  0.845400  0.220000  0.300950  1.0  0.2222
  C  C79  1  0.831420  0.199620  0.352450  1.0  -0.1665
  C  C80  1  0.856540  0.244140  0.380830  1.0  -0.0178
  C  C81  1  0.076150  0.578950  0.423020  1.0  0.7693
  C  C82  1  0.113200  0.618600  0.376940  1.0  -0.1634
  C  C83  1  0.163390  0.667190  0.379590  1.0  -0.0311
  C  C84  1  0.200680  0.704680  0.338710  1.0  -0.1481
  C  C85  1  0.187240  0.692440  0.295270  1.0  0.242
  C  C86  1  0.139940  0.641940  0.288690  1.0  -0.1627
  C  C87  1  0.101170  0.603770  0.331470  1.0  -0.0288
  C  C88  1  0.129300  0.335100  0.480880  1.0  0.7599
  C  C89  1  0.222680  0.259080  0.487440  1.0  -0.1438
  C  C90  1  0.250280  0.178880  0.463970  1.0  -0.0359
  C  C91  1  0.335410  0.105210  0.471460  1.0  -0.1403
  C  C92  1  0.397820  0.110420  0.500890  1.0  0.2309
  C  C93  1  0.370720  0.188720  0.520990  1.0  -0.1457
  C  C94  1  0.284980  0.264380  0.516210  1.0  -0.0501
  C  C95  1  0.354630  0.923430  0.890040  1.0  0.6716
  C  C96  1  0.295300  0.907100  0.861110  1.0  -0.1136
  C  C97  1  0.321810  0.913410  0.810070  1.0  -0.0128
  C  C98  1  0.280230  0.885630  0.780220  1.0  -0.1324
  C  C99  1  0.220000  0.845400  0.800950  1.0  0.224
  C  C100  1  0.199620  0.831420  0.852450  1.0  -0.1667
  C  C101  1  0.244140  0.856540  0.880830  1.0  -0.018
  C  C102  1  0.578950  0.076150  0.923020  1.0  0.7691
  C  C103  1  0.618600  0.113200  0.876940  1.0  -0.1629
  C  C104  1  0.667190  0.163390  0.879590  1.0  -0.0312
  C  C105  1  0.704680  0.200680  0.838710  1.0  -0.148
  C  C106  1  0.692440  0.187240  0.795270  1.0  0.242
  C  C107  1  0.641940  0.139940  0.788690  1.0  -0.1633
  C  C108  1  0.603770  0.101170  0.831470  1.0  -0.0288
  C  C109  1  0.335100  0.129300  0.980880  1.0  0.7597
  C  C110  1  0.259080  0.222680  0.987440  1.0  -0.1439
  C  C111  1  0.178880  0.250280  0.963970  1.0  -0.0347
  C  C112  1  0.105210  0.335410  0.971460  1.0  -0.1415
  C  C113  1  0.110420  0.397820  0.000890  1.0  0.2382
  C  C114  1  0.188720  0.370720  0.020990  1.0  -0.1469
  C  C115  1  0.264380  0.284980  0.016210  1.0  -0.0519
  C  C116  1  0.076570  0.645370  0.609960  1.0  0.6728
  C  C117  1  0.092900  0.704700  0.638890  1.0  -0.1118
  C  C118  1  0.086590  0.678190  0.689930  1.0  -0.0101
  C  C119  1  0.114370  0.719770  0.719780  1.0  -0.1331
  C  C120  1  0.154600  0.780000  0.699050  1.0  0.2211
  C  C121  1  0.168580  0.800380  0.647550  1.0  -0.165
  C  C122  1  0.143460  0.755860  0.619170  1.0  -0.0187
  C  C123  1  0.923850  0.421050  0.576980  1.0  0.7694
  C  C124  1  0.886800  0.381400  0.623060  1.0  -0.1628
  C  C125  1  0.836610  0.332810  0.620410  1.0  -0.0311
  C  C126  1  0.799320  0.295320  0.661290  1.0  -0.1479
  C  C127  1  0.812760  0.307560  0.704730  1.0  0.2408
  C  C128  1  0.860060  0.358060  0.711310  1.0  -0.1635
  C  C129  1  0.898830  0.396230  0.668530  1.0  -0.0276
  C  C130  1  0.870700  0.664900  0.519120  1.0  0.7595
  C  C131  1  0.777320  0.740920  0.512560  1.0  -0.1443
  C  C132  1  0.749720  0.821120  0.536030  1.0  -0.0339
  C  C133  1  0.664590  0.894790  0.528540  1.0  -0.1397
  C  C134  1  0.602180  0.889580  0.499110  1.0  0.2386
  C  C135  1  0.629280  0.811280  0.479010  1.0  -0.1465
  C  C136  1  0.715020  0.735620  0.483790  1.0  -0.0497
  N  N137  1  0.820030  0.190430  0.225090  1.0  -0.2132
  N  N138  1  0.275960  0.773960  0.249180  1.0  -0.2384
  N  N139  1  0.955580  0.515360  0.994740  1.0  -0.2173
  N  N140  1  0.809570  0.179970  0.274910  1.0  -0.2132
  N  N141  1  0.226040  0.724040  0.250820  1.0  -0.2383
  N  N142  1  0.484640  0.044420  0.505260  1.0  -0.218
  N  N143  1  0.179970  0.809570  0.774910  1.0  -0.2134
  N  N144  1  0.724040  0.226040  0.750820  1.0  -0.2378
  N  N145  1  0.044420  0.484640  0.005260  1.0  -0.2183
  N  N146  1  0.190430  0.820030  0.725090  1.0  -0.2131
  N  N147  1  0.773960  0.275960  0.749180  1.0  -0.2384
  N  N148  1  0.515360  0.955580  0.494740  1.0  -0.2175
  O  O149  1  0.590680  0.041760  0.126030  1.0  -0.6831
  O  O150  1  0.656460  0.103620  0.063440  1.0  -0.7306
  O  O151  1  0.407550  0.915350  0.035190  1.0  -0.7129
  O  O152  1  0.469280  0.963520  0.086200  1.0  -0.7292
  O  O153  1  0.597060  0.896500  0.997140  1.0  -0.828
  O  O154  1  0.674960  0.920640  0.046060  1.0  -0.6338
  O  O155  1  0.958240  0.409320  0.373970  1.0  -0.6816
  O  O156  1  0.896380  0.343540  0.436560  1.0  -0.7294
  O  O157  1  0.084650  0.592450  0.464810  1.0  -0.7129
  O  O158  1  0.036480  0.530720  0.413800  1.0  -0.7288
  O  O159  1  0.103500  0.402940  0.502860  1.0  -0.8335
  O  O160  1  0.079360  0.325040  0.453940  1.0  -0.6338
  O  O161  1  0.409320  0.958240  0.873970  1.0  -0.6823
  O  O162  1  0.343540  0.896380  0.936560  1.0  -0.729
  O  O163  1  0.592450  0.084650  0.964810  1.0  -0.7124
  O  O164  1  0.530720  0.036480  0.913800  1.0  -0.729
  O  O165  1  0.402940  0.103500  0.002860  1.0  -0.8265
  O  O166  1  0.325040  0.079360  0.953940  1.0  -0.6344
  O  O167  1  0.041760  0.590680  0.626030  1.0  -0.6786
  O  O168  1  0.103620  0.656460  0.563440  1.0  -0.732
  O  O169  1  0.915350  0.407550  0.535190  1.0  -0.7135
  O  O170  1  0.963520  0.469280  0.586200  1.0  -0.73
  O  O171  1  0.896500  0.597060  0.497140  1.0  -0.8321
  O  O172  1  0.920640  0.674960  0.546060  1.0  -0.6343
