# generated using pymatgen
data_DyH6(C2O)6
_symmetry_space_group_name_H-M   'P 1'
_cell_length_a   8.52200000
_cell_length_b   10.15400000
_cell_length_c   11.06700000
_cell_angle_alpha   64.72600000
_cell_angle_beta   71.73800000
_cell_angle_gamma   79.58100000
_symmetry_Int_Tables_number   1
_chemical_formula_structural   DyH6(C2O)6
_chemical_formula_sum   'Dy2 H12 C24 O12'
_cell_volume   821.13168847
_cell_formula_units_Z   2
loop_
 _symmetry_equiv_pos_site_id
 _symmetry_equiv_pos_as_xyz
  1  'x, y, z'
loop_
 _atom_site_type_symbol
 _atom_site_label
 _atom_site_symmetry_multiplicity
 _atom_site_fract_x
 _atom_site_fract_y
 _atom_site_fract_z
 _atom_site_occupancy
 _atom_site_charge
  Dy  Dy1  1  0.367830  0.061830  0.343490  1.0  2.1919
  Dy  Dy2  1  0.632170  0.938170  0.656510  1.0  2.192
  H  H3  1  0.565000  0.721400  0.315100  1.0  0.0973
  H  H4  1  0.490800  0.471700  0.720000  1.0  0.1013
  H  H5  1  0.960700  0.147200  0.120300  1.0  0.0803
  H  H6  1  0.779700  0.882600  0.017100  1.0  0.0927
  H  H7  1  0.274000  0.439800  0.916900  1.0  0.0985
  H  H8  1  0.864200  0.378100  0.230700  1.0  0.0966
  H  H9  1  0.435000  0.278600  0.684900  1.0  0.0972
  H  H10  1  0.509200  0.528300  0.280000  1.0  0.1015
  H  H11  1  0.039300  0.852800  0.879700  1.0  0.0803
  H  H12  1  0.220300  0.117400  0.982900  1.0  0.0925
  H  H13  1  0.726000  0.560200  0.083100  1.0  0.0982
  H  H14  1  0.135800  0.621900  0.769300  1.0  0.0957
  C  C15  1  0.563700  0.740200  0.548900  1.0  0.7573
  C  C16  1  0.530300  0.616200  0.521700  1.0  -0.1331
  C  C17  1  0.538200  0.632700  0.389500  1.0  -0.073
  C  C18  1  0.493800  0.483100  0.631400  1.0  -0.0593
  C  C19  1  0.675200  0.041900  0.166100  1.0  0.671
  C  C20  1  0.844500  0.019900  0.080100  1.0  -0.117
  C  C21  1  0.976700  0.088600  0.071400  1.0  -0.0484
  C  C22  1  0.868100  0.930100  0.009700  1.0  -0.0544
  C  C23  1  0.175100  0.269000  0.180200  1.0  0.6582
  C  C24  1  0.082600  0.389000  0.089100  1.0  -0.1163
  C  C25  1  0.163100  0.463900  0.950500  1.0  -0.0352
  C  C26  1  0.919200  0.426500  0.138000  1.0  -0.0621
  C  C27  1  0.436300  0.259800  0.451100  1.0  0.7571
  C  C28  1  0.469700  0.383800  0.478300  1.0  -0.133
  C  C29  1  0.461800  0.367300  0.610500  1.0  -0.0728
  C  C30  1  0.506200  0.516900  0.368600  1.0  -0.0575
  C  C31  1  0.324800  0.958100  0.833900  1.0  0.6709
  C  C32  1  0.155500  0.980100  0.919900  1.0  -0.1168
  C  C33  1  0.023300  0.911400  0.928600  1.0  -0.0504
  C  C34  1  0.131900  0.069900  0.990300  1.0  -0.0553
  C  C35  1  0.824900  0.731000  0.819800  1.0  0.663
  C  C36  1  0.917400  0.611000  0.910900  1.0  -0.1166
  C  C37  1  0.836900  0.536100  0.049500  1.0  -0.0393
  C  C38  1  0.080800  0.573500  0.862000  1.0  -0.0609
  O  O39  1  0.527000  0.869900  0.475600  1.0  -0.8413
  O  O40  1  0.628800  0.711200  0.643900  1.0  -0.6369
  O  O41  1  0.654700  0.121600  0.233000  1.0  -0.6284
  O  O42  1  0.556200  0.981800  0.170900  1.0  -0.6755
  O  O43  1  0.103200  0.198000  0.306600  1.0  -0.7329
  O  O44  1  0.324000  0.238100  0.130000  1.0  -0.6477
  O  O45  1  0.473000  0.130100  0.524400  1.0  -0.8343
  O  O46  1  0.371200  0.288800  0.356100  1.0  -0.6368
  O  O47  1  0.345300  0.878400  0.767000  1.0  -0.6207
  O  O48  1  0.443800  0.018200  0.829100  1.0  -0.6759
  O  O49  1  0.896800  0.802000  0.693400  1.0  -0.7156
  O  O50  1  0.676000  0.761900  0.870000  1.0  -0.646
