# generated using pymatgen
data_EuH12C21(NO2)3
_symmetry_space_group_name_H-M   'P 1'
_cell_length_a   16.10440000
_cell_length_b   16.10440000
_cell_length_c   27.91900000
_cell_angle_alpha   79.89870000
_cell_angle_beta   79.89870000
_cell_angle_gamma   63.14600000
_symmetry_Int_Tables_number   1
_chemical_formula_structural   EuH12C21(NO2)3
_chemical_formula_sum   'Eu4 H48 C84 N12 O24'
_cell_volume   6321.62496282
_cell_formula_units_Z   4
loop_
 _symmetry_equiv_pos_site_id
 _symmetry_equiv_pos_as_xyz
  1  'x, y, z'
loop_
 _atom_site_type_symbol
 _atom_site_label
 _atom_site_symmetry_multiplicity
 _atom_site_fract_x
 _atom_site_fract_y
 _atom_site_fract_z
 _atom_site_occupancy
 _atom_site_charge
  Eu  Eu1  1  0.531340  0.066570  0.046090  1.0  2.1038
  Eu  Eu2  1  0.933430  0.468660  0.453910  1.0  2.1032
  Eu  Eu3  1  0.468660  0.933430  0.953910  1.0  2.1075
  Eu  Eu4  1  0.066570  0.531340  0.546090  1.0  2.1076
  H  H5  1  0.633200  0.065600  0.203300  1.0  0.1238
  H  H6  1  0.707400  0.106600  0.253600  1.0  0.1164
  H  H7  1  0.841800  0.193800  0.133500  1.0  0.1371
  H  H8  1  0.759400  0.161000  0.085600  1.0  0.1139
  H  H9  1  0.675100  0.172500  0.910200  1.0  0.1116
  H  H10  1  0.738500  0.233100  0.841300  1.0  0.1294
  H  H11  1  0.632900  0.134700  0.757400  1.0  0.1342
  H  H12  1  0.569500  0.067900  0.829200  1.0  0.1236
  H  H13  1  0.175900  0.210700  0.944400  1.0  0.1307
  H  H14  1  0.050900  0.354300  0.956900  1.0  0.117
  H  H15  1  0.192800  0.411600  0.039600  1.0  0.1182
  H  H16  1  0.317900  0.268500  0.031000  1.0  0.1092
  H  H17  1  0.934400  0.366800  0.296700  1.0  0.124
  H  H18  1  0.893400  0.292600  0.246400  1.0  0.1161
  H  H19  1  0.806200  0.158200  0.366500  1.0  0.1376
  H  H20  1  0.839000  0.240600  0.414400  1.0  0.1135
  H  H21  1  0.827500  0.324900  0.589800  1.0  0.1119
  H  H22  1  0.766900  0.261500  0.658700  1.0  0.1292
  H  H23  1  0.865300  0.367100  0.742600  1.0  0.1341
  H  H24  1  0.932100  0.430500  0.670800  1.0  0.1237
  H  H25  1  0.789300  0.824100  0.555600  1.0  0.1313
  H  H26  1  0.645700  0.949100  0.543100  1.0  0.1166
  H  H27  1  0.588400  0.807200  0.460400  1.0  0.1182
  H  H28  1  0.731500  0.682100  0.469000  1.0  0.1097
  H  H29  1  0.366800  0.934400  0.796700  1.0  0.124
  H  H30  1  0.292600  0.893400  0.746400  1.0  0.1161
  H  H31  1  0.158200  0.806200  0.866500  1.0  0.1379
  H  H32  1  0.240600  0.839000  0.914400  1.0  0.1135
  H  H33  1  0.324900  0.827500  0.089800  1.0  0.1118
  H  H34  1  0.261500  0.766900  0.158700  1.0  0.1293
  H  H35  1  0.367100  0.865300  0.242600  1.0  0.1343
  H  H36  1  0.430500  0.932100  0.170800  1.0  0.1238
  H  H37  1  0.824100  0.789300  0.055600  1.0  0.131
  H  H38  1  0.949100  0.645700  0.043100  1.0  0.1169
  H  H39  1  0.807200  0.588400  0.960400  1.0  0.1178
  H  H40  1  0.682100  0.731500  0.969000  1.0  0.1105
  H  H41  1  0.065600  0.633200  0.703300  1.0  0.124
  H  H42  1  0.106600  0.707400  0.753600  1.0  0.1163
  H  H43  1  0.193800  0.841800  0.633500  1.0  0.1378
  H  H44  1  0.161000  0.759400  0.585600  1.0  0.1138
  H  H45  1  0.172500  0.675100  0.410200  1.0  0.1116
  H  H46  1  0.233100  0.738500  0.341300  1.0  0.1293
  H  H47  1  0.134700  0.632900  0.257400  1.0  0.134
  H  H48  1  0.067900  0.569500  0.329200  1.0  0.1235
  H  H49  1  0.210700  0.175900  0.444400  1.0  0.1306
  H  H50  1  0.354300  0.050900  0.456900  1.0  0.1162
  H  H51  1  0.411600  0.192800  0.539600  1.0  0.1185
  H  H52  1  0.268500  0.317900  0.531000  1.0  0.1084
  C  C53  1  0.645310  0.076110  0.110000  1.0  0.663
  C  C54  1  0.705130  0.092170  0.138850  1.0  -0.1171
  C  C55  1  0.678010  0.087010  0.189870  1.0  -0.0052
  C  C56  1  0.719900  0.114800  0.219700  1.0  -0.0955
  C  C57  1  0.779950  0.154550  0.198990  1.0  0.2341
  C  C58  1  0.800240  0.168600  0.147480  1.0  -0.143
  C  C59  1  0.755680  0.143320  0.119170  1.0  0.0035
  C  C60  1  0.578420  0.076160  0.923170  1.0  0.7857
  C  C61  1  0.618110  0.113050  0.877010  1.0  -0.1758
  C  C62  1  0.667320  0.163320  0.879580  1.0  -0.0029
  C  C63  1  0.705020  0.200020  0.838700  1.0  -0.1305
  C  C64  1  0.692830  0.187630  0.795340  1.0  0.2425
  C  C65  1  0.641550  0.140170  0.788540  1.0  -0.1542
  C  C66  1  0.603270  0.100710  0.831520  1.0  -0.0365
  C  C67  1  0.335590  0.129510  0.980950  1.0  0.7583
  C  C68  1  0.259440  0.223000  0.987450  1.0  -0.1402
  C  C69  1  0.179180  0.249780  0.964120  1.0  -0.0777
  C  C70  1  0.105250  0.335850  0.971450  1.0  -0.1111
  C  C71  1  0.110070  0.397990  0.001140  1.0  0.2333
  C  C72  1  0.188810  0.370810  0.021260  1.0  -0.1952
  C  C73  1  0.264480  0.285280  0.016080  1.0  -0.0468
  C  C74  1  0.923890  0.354690  0.390000  1.0  0.6649
  C  C75  1  0.907830  0.294870  0.361150  1.0  -0.1152
  C  C76  1  0.912990  0.321990  0.310130  1.0  -0.007
  C  C77  1  0.885200  0.280100  0.280300  1.0  -0.0967
  C  C78  1  0.845450  0.220050  0.301010  1.0  0.2332
  C  C79  1  0.831400  0.199760  0.352520  1.0  -0.1437
  C  C80  1  0.856680  0.244320  0.380830  1.0  0.0037
  C  C81  1  0.923840  0.421580  0.576830  1.0  0.7858
  C  C82  1  0.886950  0.381890  0.622990  1.0  -0.1753
  C  C83  1  0.836680  0.332680  0.620420  1.0  -0.004
  C  C84  1  0.799980  0.294980  0.661300  1.0  -0.1317
  C  C85  1  0.812370  0.307170  0.704660  1.0  0.2416
  C  C86  1  0.859830  0.358450  0.711460  1.0  -0.152
  C  C87  1  0.899290  0.396730  0.668480  1.0  -0.0355
  C  C88  1  0.870490  0.664410  0.519050  1.0  0.7579
  C  C89  1  0.777000  0.740560  0.512550  1.0  -0.1404
  C  C90  1  0.750220  0.820820  0.535880  1.0  -0.0781
  C  C91  1  0.664150  0.894750  0.528550  1.0  -0.1093
  C  C92  1  0.602010  0.889930  0.498860  1.0  0.2333
  C  C93  1  0.629190  0.811190  0.478740  1.0  -0.1968
  C  C94  1  0.714720  0.735520  0.483920  1.0  -0.0454
  C  C95  1  0.354690  0.923890  0.890000  1.0  0.664
  C  C96  1  0.294870  0.907830  0.861150  1.0  -0.1177
  C  C97  1  0.321990  0.912990  0.810130  1.0  -0.0074
  C  C98  1  0.280100  0.885200  0.780300  1.0  -0.0968
  C  C99  1  0.220050  0.845450  0.801010  1.0  0.2345
  C  C100  1  0.199760  0.831400  0.852520  1.0  -0.1433
  C  C101  1  0.244320  0.856680  0.880830  1.0  0.0034
  C  C102  1  0.421580  0.923840  0.076830  1.0  0.7858
  C  C103  1  0.381890  0.886950  0.122990  1.0  -0.1752
  C  C104  1  0.332680  0.836680  0.120420  1.0  -0.0041
  C  C105  1  0.294980  0.799980  0.161300  1.0  -0.1318
  C  C106  1  0.307170  0.812370  0.204660  1.0  0.2421
  C  C107  1  0.358450  0.859830  0.211460  1.0  -0.1521
  C  C108  1  0.396730  0.899290  0.168480  1.0  -0.0353
  C  C109  1  0.664410  0.870490  0.019050  1.0  0.7581
  C  C110  1  0.740560  0.777000  0.012550  1.0  -0.1412
  C  C111  1  0.820820  0.750220  0.035880  1.0  -0.077
  C  C112  1  0.894750  0.664150  0.028550  1.0  -0.1103
  C  C113  1  0.889930  0.602010  0.998860  1.0  0.2326
  C  C114  1  0.811190  0.629190  0.978740  1.0  -0.1979
  C  C115  1  0.735520  0.714720  0.983920  1.0  -0.0482
  C  C116  1  0.076110  0.645310  0.610000  1.0  0.6645
  C  C117  1  0.092170  0.705130  0.638850  1.0  -0.1163
  C  C118  1  0.087010  0.678010  0.689870  1.0  -0.0059
  C  C119  1  0.114800  0.719900  0.719700  1.0  -0.0962
  C  C120  1  0.154550  0.779950  0.698990  1.0  0.2329
  C  C121  1  0.168600  0.800240  0.647480  1.0  -0.1429
  C  C122  1  0.143320  0.755680  0.619170  1.0  0.0036
  C  C123  1  0.076160  0.578420  0.423170  1.0  0.7859
  C  C124  1  0.113050  0.618110  0.377010  1.0  -0.1763
  C  C125  1  0.163320  0.667320  0.379580  1.0  -0.003
  C  C126  1  0.200020  0.705020  0.338700  1.0  -0.1309
  C  C127  1  0.187630  0.692830  0.295340  1.0  0.2426
  C  C128  1  0.140170  0.641550  0.288540  1.0  -0.1533
  C  C129  1  0.100710  0.603270  0.331520  1.0  -0.0367
  C  C130  1  0.129510  0.335590  0.480950  1.0  0.758
  C  C131  1  0.223000  0.259440  0.487450  1.0  -0.1404
  C  C132  1  0.249780  0.179180  0.464120  1.0  -0.0784
  C  C133  1  0.335850  0.105250  0.471450  1.0  -0.1103
  C  C134  1  0.397990  0.110070  0.501140  1.0  0.2324
  C  C135  1  0.370810  0.188810  0.521260  1.0  -0.1936
  C  C136  1  0.285280  0.264480  0.516080  1.0  -0.0453
  N  N137  1  0.819960  0.190940  0.225320  1.0  -0.2441
  N  N138  1  0.723720  0.225900  0.750930  1.0  -0.2547
  N  N139  1  0.044360  0.484180  0.005200  1.0  -0.2716
  N  N140  1  0.809060  0.180040  0.274680  1.0  -0.2445
  N  N141  1  0.774100  0.276280  0.749070  1.0  -0.2537
  N  N142  1  0.515820  0.955640  0.494800  1.0  -0.2722
  N  N143  1  0.180040  0.809060  0.774680  1.0  -0.2452
  N  N144  1  0.276280  0.774100  0.249070  1.0  -0.2533
  N  N145  1  0.955640  0.515820  0.994800  1.0  -0.2721
  N  N146  1  0.190940  0.819960  0.725320  1.0  -0.2445
  N  N147  1  0.225900  0.723720  0.250930  1.0  -0.2552
  N  N148  1  0.484180  0.044360  0.505200  1.0  -0.2722
  O  O149  1  0.590760  0.041760  0.125910  1.0  -0.636
  O  O150  1  0.656470  0.103770  0.063370  1.0  -0.7143
  O  O151  1  0.592330  0.084650  0.964840  1.0  -0.7331
  O  O152  1  0.531020  0.036400  0.913890  1.0  -0.743
  O  O153  1  0.402940  0.103780  0.002930  1.0  -0.8122
  O  O154  1  0.324880  0.079480  0.953820  1.0  -0.6446
  O  O155  1  0.958240  0.409240  0.374090  1.0  -0.6364
  O  O156  1  0.896230  0.343530  0.436630  1.0  -0.7132
  O  O157  1  0.915350  0.407670  0.535160  1.0  -0.7356
  O  O158  1  0.963600  0.468980  0.586110  1.0  -0.7443
  O  O159  1  0.896220  0.597060  0.497070  1.0  -0.8171
  O  O160  1  0.920520  0.675120  0.546180  1.0  -0.6438
  O  O161  1  0.409240  0.958240  0.874090  1.0  -0.6377
  O  O162  1  0.343530  0.896230  0.936630  1.0  -0.7148
  O  O163  1  0.407670  0.915350  0.035160  1.0  -0.7345
  O  O164  1  0.468980  0.963600  0.086110  1.0  -0.7439
  O  O165  1  0.597060  0.896220  0.997070  1.0  -0.8135
  O  O166  1  0.675120  0.920520  0.046180  1.0  -0.6439
  O  O167  1  0.041760  0.590760  0.625910  1.0  -0.6311
  O  O168  1  0.103770  0.656470  0.563370  1.0  -0.7174
  O  O169  1  0.084650  0.592330  0.464840  1.0  -0.7335
  O  O170  1  0.036400  0.531020  0.413890  1.0  -0.7446
  O  O171  1  0.103780  0.402940  0.502930  1.0  -0.8186
  O  O172  1  0.079480  0.324880  0.453820  1.0  -0.644
