# generated using pymatgen
data_CeH16C28(NO2)4
_symmetry_space_group_name_H-M   'P 1'
_cell_length_a   34.51460000
_cell_length_b   34.51460000
_cell_length_c   34.51460000
_cell_angle_alpha   109.47100000
_cell_angle_beta   109.47100000
_cell_angle_gamma   109.47100000
_symmetry_Int_Tables_number   1
_chemical_formula_structural   CeH16C28(NO2)4
_chemical_formula_sum   'Ce12 H192 C336 N48 O96'
_cell_volume   31651.20075978
_cell_formula_units_Z   12
loop_
 _symmetry_equiv_pos_site_id
 _symmetry_equiv_pos_as_xyz
  1  'x, y, z'
loop_
 _atom_site_type_symbol
 _atom_site_label
 _atom_site_symmetry_multiplicity
 _atom_site_fract_x
 _atom_site_fract_y
 _atom_site_fract_z
 _atom_site_occupancy
 _atom_site_charge
  Ce  Ce1  1  0.500000  0.500000  0.000000  1.0  2.1689
  Ce  Ce2  1  0.000000  0.500000  0.500000  1.0  2.1689
  Ce  Ce3  1  0.500000  0.000000  0.500000  1.0  2.1689
  Ce  Ce4  1  0.000000  0.000000  0.000000  1.0  2.1689
  Ce  Ce5  1  0.617130  0.617130  0.117130  1.0  2.2072
  Ce  Ce6  1  0.000000  0.500000  0.382870  1.0  2.2079
  Ce  Ce7  1  0.500000  0.882870  0.500000  1.0  2.2077
  Ce  Ce8  1  0.882870  0.000000  0.000000  1.0  2.207
  Ce  Ce9  1  0.382870  0.382870  0.882870  1.0  2.2076
  Ce  Ce10  1  0.000000  0.500000  0.617130  1.0  2.2082
  Ce  Ce11  1  0.500000  0.117130  0.500000  1.0  2.2072
  Ce  Ce12  1  0.117130  0.000000  0.000000  1.0  2.2065
  H  H13  1  0.764300  0.904200  0.032300  1.0  0.1392
  H  H14  1  0.715000  0.839600  0.027000  1.0  0.1261
  H  H15  1  0.731600  0.757100  0.926300  1.0  0.13
  H  H16  1  0.783400  0.825200  0.932400  1.0  0.1336
  H  H17  1  0.595200  0.589200  0.938800  1.0  0.1212
  H  H18  1  0.639900  0.652100  0.933000  1.0  0.1415
  H  H19  1  0.635300  0.741000  0.040500  1.0  0.1489
  H  H20  1  0.594200  0.675900  0.047700  1.0  0.1224
  H  H21  1  0.371900  0.732000  0.467700  1.0  0.1383
  H  H22  1  0.312600  0.688000  0.473000  1.0  0.1226
  H  H23  1  0.330800  0.805300  0.573700  1.0  0.1301
  H  H24  1  0.392800  0.851000  0.567600  1.0  0.1339
  H  H25  1  0.150400  0.656400  0.561200  1.0  0.1223
  H  H26  1  0.219100  0.706900  0.567000  1.0  0.1422
  H  H27  1  0.200500  0.594800  0.459500  1.0  0.1479
  H  H28  1  0.128200  0.546500  0.452300  1.0  0.1225
  H  H29  1  0.128100  0.595800  0.360100  1.0  0.1386
  H  H30  1  0.187400  0.660400  0.375400  1.0  0.1254
  H  H31  1  0.169200  0.742900  0.474500  1.0  0.1302
  H  H32  1  0.107200  0.674800  0.458200  1.0  0.1354
  H  H33  1  0.349600  0.910800  0.506000  1.0  0.1218
  H  H34  1  0.280900  0.847900  0.487800  1.0  0.1416
  H  H35  1  0.299500  0.759000  0.394300  1.0  0.1473
  H  H36  1  0.371800  0.824100  0.418300  1.0  0.1219
  H  H37  1  0.735700  0.768000  0.139900  1.0  0.1378
  H  H38  1  0.785000  0.812000  0.124600  1.0  0.1249
  H  H39  1  0.768400  0.694700  0.025500  1.0  0.1305
  H  H40  1  0.716600  0.649000  0.041800  1.0  0.1342
  H  H41  1  0.904800  0.843600  0.994000  1.0  0.1217
  H  H42  1  0.860100  0.793100  0.012200  1.0  0.1427
  H  H43  1  0.864700  0.905200  0.105700  1.0  0.1497
  H  H44  1  0.905800  0.953500  0.081700  1.0  0.1228
  H  H45  1  0.860100  0.128100  0.095800  1.0  0.1391
  H  H46  1  0.875400  0.187400  0.160400  1.0  0.1259
  H  H47  1  0.974500  0.169200  0.242900  1.0  0.1294
  H  H48  1  0.958200  0.107200  0.174800  1.0  0.1338
  H  H49  1  0.006000  0.349600  0.410800  1.0  0.1221
  H  H50  1  0.987800  0.280900  0.347900  1.0  0.1409
  H  H51  1  0.894300  0.299500  0.259000  1.0  0.1468
  H  H52  1  0.918300  0.371800  0.324100  1.0  0.122
  H  H53  1  0.639900  0.735700  0.268000  1.0  0.1361
  H  H54  1  0.624600  0.785000  0.312000  1.0  0.1261
  H  H55  1  0.525500  0.768400  0.194700  1.0  0.1288
  H  H56  1  0.541800  0.716600  0.149000  1.0  0.1349
  H  H57  1  0.494000  0.904800  0.343600  1.0  0.1212
  H  H58  1  0.512200  0.860100  0.293100  1.0  0.1403
  H  H59  1  0.605700  0.864700  0.405200  1.0  0.1467
  H  H60  1  0.581700  0.905800  0.453500  1.0  0.122
  H  H61  1  0.532300  0.764300  0.404200  1.0  0.1385
  H  H62  1  0.527000  0.715000  0.339600  1.0  0.1256
  H  H63  1  0.426300  0.731600  0.257100  1.0  0.1286
  H  H64  1  0.432400  0.783400  0.325200  1.0  0.1336
  H  H65  1  0.438800  0.595200  0.089200  1.0  0.1228
  H  H66  1  0.433000  0.639900  0.152100  1.0  0.1418
  H  H67  1  0.540500  0.635300  0.241000  1.0  0.1473
  H  H68  1  0.547700  0.594200  0.175900  1.0  0.1221
  H  H69  1  0.967700  0.371900  0.232000  1.0  0.1372
  H  H70  1  0.973000  0.312600  0.188000  1.0  0.1255
  H  H71  1  0.073700  0.330800  0.305300  1.0  0.1282
  H  H72  1  0.067600  0.392800  0.351000  1.0  0.1367
  H  H73  1  0.061200  0.150400  0.156400  1.0  0.1206
  H  H74  1  0.067000  0.219100  0.206900  1.0  0.1408
  H  H75  1  0.959500  0.200500  0.094800  1.0  0.1485
  H  H76  1  0.952300  0.128200  0.046500  1.0  0.1222
  H  H77  1  0.732000  0.967700  0.871900  1.0  0.1388
  H  H78  1  0.688000  0.973000  0.812600  1.0  0.1266
  H  H79  1  0.805300  0.073700  0.830800  1.0  0.1313
  H  H80  1  0.851000  0.067600  0.892800  1.0  0.1354
  H  H81  1  0.656400  0.061200  0.650400  1.0  0.1224
  H  H82  1  0.706900  0.067000  0.719100  1.0  0.1416
  H  H83  1  0.594800  0.959500  0.700500  1.0  0.1492
  H  H84  1  0.546500  0.952300  0.628200  1.0  0.1225
  H  H85  1  0.904200  0.532300  0.264300  1.0  0.139
  H  H86  1  0.839600  0.527000  0.215000  1.0  0.1261
  H  H87  1  0.757100  0.426300  0.231600  1.0  0.13
  H  H88  1  0.825200  0.432400  0.283400  1.0  0.1346
  H  H89  1  0.589200  0.438800  0.095200  1.0  0.1216
  H  H90  1  0.652100  0.433000  0.139900  1.0  0.1438
  H  H91  1  0.741000  0.540500  0.135300  1.0  0.149
  H  H92  1  0.675900  0.547700  0.094200  1.0  0.1227
  H  H93  1  0.768000  0.639900  0.235700  1.0  0.1367
  H  H94  1  0.812000  0.624600  0.285000  1.0  0.1258
  H  H95  1  0.694700  0.525500  0.268400  1.0  0.1302
  H  H96  1  0.649000  0.541800  0.216600  1.0  0.1353
  H  H97  1  0.843600  0.494000  0.404800  1.0  0.1221
  H  H98  1  0.793100  0.512200  0.360100  1.0  0.1416
  H  H99  1  0.905200  0.605700  0.364700  1.0  0.1477
  H  H100  1  0.953500  0.581700  0.405800  1.0  0.123
  H  H101  1  0.595800  0.860100  0.628100  1.0  0.1396
  H  H102  1  0.660400  0.875400  0.687400  1.0  0.1265
  H  H103  1  0.742900  0.974500  0.669200  1.0  0.1302
  H  H104  1  0.674800  0.958200  0.607200  1.0  0.1327
  H  H105  1  0.910800  0.006000  0.849600  1.0  0.1221
  H  H106  1  0.847900  0.987800  0.780900  1.0  0.1409
  H  H107  1  0.759000  0.894300  0.799500  1.0  0.1463
  H  H108  1  0.824100  0.918300  0.871800  1.0  0.1231
  H  H109  1  0.235700  0.095800  0.967700  1.0  0.1387
  H  H110  1  0.285000  0.160400  0.973000  1.0  0.1262
  H  H111  1  0.268400  0.242900  0.073700  1.0  0.1304
  H  H112  1  0.216600  0.174800  0.067600  1.0  0.1341
  H  H113  1  0.404800  0.410800  0.061200  1.0  0.1215
  H  H114  1  0.360100  0.347900  0.067000  1.0  0.1413
  H  H115  1  0.364700  0.259000  0.959500  1.0  0.1498
  H  H116  1  0.405800  0.324100  0.952300  1.0  0.1239
  H  H117  1  0.628100  0.268000  0.532300  1.0  0.1383
  H  H118  1  0.687400  0.312000  0.527000  1.0  0.1247
  H  H119  1  0.669200  0.194700  0.426300  1.0  0.1291
  H  H120  1  0.607200  0.149000  0.432400  1.0  0.1339
  H  H121  1  0.849600  0.343600  0.438800  1.0  0.1221
  H  H122  1  0.780900  0.293100  0.433000  1.0  0.1414
  H  H123  1  0.799500  0.405200  0.540500  1.0  0.1481
  H  H124  1  0.871800  0.453500  0.547700  1.0  0.1221
  H  H125  1  0.871900  0.404200  0.639900  1.0  0.1393
  H  H126  1  0.812600  0.339600  0.624600  1.0  0.1252
  H  H127  1  0.830800  0.257100  0.525500  1.0  0.1292
  H  H128  1  0.892800  0.325200  0.541800  1.0  0.1352
  H  H129  1  0.650400  0.089200  0.494000  1.0  0.121
  H  H130  1  0.719100  0.152100  0.512200  1.0  0.1417
  H  H131  1  0.700500  0.241000  0.605700  1.0  0.1486
  H  H132  1  0.628200  0.175900  0.581700  1.0  0.123
  H  H133  1  0.264300  0.232000  0.860100  1.0  0.1373
  H  H134  1  0.215000  0.188000  0.875400  1.0  0.1236
  H  H135  1  0.231600  0.305300  0.974500  1.0  0.131
  H  H136  1  0.283400  0.351000  0.958200  1.0  0.1343
  H  H137  1  0.095200  0.156400  0.006000  1.0  0.1218
  H  H138  1  0.139900  0.206900  0.987800  1.0  0.1436
  H  H139  1  0.135300  0.094800  0.894300  1.0  0.1492
  H  H140  1  0.094200  0.046500  0.918300  1.0  0.1227
  H  H141  1  0.139900  0.871900  0.904200  1.0  0.1391
  H  H142  1  0.124600  0.812600  0.839600  1.0  0.1252
  H  H143  1  0.025500  0.830800  0.757100  1.0  0.1289
  H  H144  1  0.041800  0.892800  0.825200  1.0  0.1338
  H  H145  1  0.994000  0.650400  0.589200  1.0  0.1219
  H  H146  1  0.012200  0.719100  0.652100  1.0  0.1409
  H  H147  1  0.105700  0.700500  0.741000  1.0  0.1474
  H  H148  1  0.081700  0.628200  0.675900  1.0  0.1223
  H  H149  1  0.360100  0.264300  0.732000  1.0  0.137
  H  H150  1  0.375400  0.215000  0.688000  1.0  0.1265
  H  H151  1  0.474500  0.231600  0.805300  1.0  0.1282
  H  H152  1  0.458200  0.283400  0.851000  1.0  0.1348
  H  H153  1  0.506000  0.095200  0.656400  1.0  0.121
  H  H154  1  0.487800  0.139900  0.706900  1.0  0.14
  H  H155  1  0.394300  0.135300  0.594800  1.0  0.148
  H  H156  1  0.418300  0.094200  0.546500  1.0  0.1229
  H  H157  1  0.467700  0.235700  0.595800  1.0  0.1376
  H  H158  1  0.473000  0.285000  0.660400  1.0  0.1255
  H  H159  1  0.573700  0.268400  0.742900  1.0  0.1296
  H  H160  1  0.567600  0.216600  0.674800  1.0  0.1344
  H  H161  1  0.561200  0.404800  0.910800  1.0  0.1222
  H  H162  1  0.567000  0.360100  0.847900  1.0  0.1404
  H  H163  1  0.459500  0.364700  0.759000  1.0  0.1459
  H  H164  1  0.452300  0.405800  0.824100  1.0  0.1223
  H  H165  1  0.032300  0.628100  0.768000  1.0  0.1371
  H  H166  1  0.027000  0.687400  0.812000  1.0  0.1249
  H  H167  1  0.926300  0.669200  0.694700  1.0  0.1287
  H  H168  1  0.932400  0.607200  0.649000  1.0  0.1363
  H  H169  1  0.938800  0.849600  0.843600  1.0  0.1211
  H  H170  1  0.933000  0.780900  0.793100  1.0  0.1401
  H  H171  1  0.040500  0.799500  0.905200  1.0  0.1496
  H  H172  1  0.047700  0.871800  0.953500  1.0  0.1237
  H  H173  1  0.268000  0.032300  0.128100  1.0  0.1377
  H  H174  1  0.312000  0.027000  0.187400  1.0  0.1258
  H  H175  1  0.194700  0.926300  0.169200  1.0  0.1313
  H  H176  1  0.149000  0.932400  0.107200  1.0  0.1343
  H  H177  1  0.343600  0.938800  0.349600  1.0  0.1224
  H  H178  1  0.293100  0.933000  0.280900  1.0  0.1411
  H  H179  1  0.405200  0.040500  0.299500  1.0  0.1484
  H  H180  1  0.453500  0.047700  0.371800  1.0  0.1232
  H  H181  1  0.095800  0.467700  0.735700  1.0  0.1391
  H  H182  1  0.160400  0.473000  0.785000  1.0  0.1261
  H  H183  1  0.242900  0.573700  0.768400  1.0  0.1304
  H  H184  1  0.174800  0.567600  0.716600  1.0  0.1358
  H  H185  1  0.410800  0.561200  0.904800  1.0  0.1219
  H  H186  1  0.347900  0.567000  0.860100  1.0  0.1438
  H  H187  1  0.259000  0.459500  0.864700  1.0  0.1502
  H  H188  1  0.324100  0.452300  0.905800  1.0  0.1229
  H  H189  1  0.232000  0.360100  0.764300  1.0  0.1371
  H  H190  1  0.188000  0.375400  0.715000  1.0  0.126
  H  H191  1  0.305300  0.474500  0.731600  1.0  0.1296
  H  H192  1  0.351000  0.458200  0.783400  1.0  0.1362
  H  H193  1  0.156400  0.506000  0.595200  1.0  0.1217
  H  H194  1  0.206900  0.487800  0.639900  1.0  0.1414
  H  H195  1  0.094800  0.394300  0.635300  1.0  0.1473
  H  H196  1  0.046500  0.418300  0.594200  1.0  0.1232
  H  H197  1  0.404200  0.139900  0.371900  1.0  0.1404
  H  H198  1  0.339600  0.124600  0.312600  1.0  0.1276
  H  H199  1  0.257100  0.025500  0.330800  1.0  0.1302
  H  H200  1  0.325200  0.041800  0.392800  1.0  0.1327
  H  H201  1  0.089200  0.994000  0.150400  1.0  0.1217
  H  H202  1  0.152100  0.012200  0.219100  1.0  0.1414
  H  H203  1  0.241000  0.105700  0.200500  1.0  0.1477
  H  H204  1  0.175900  0.081700  0.128200  1.0  0.124
  C  C205  1  0.811270  0.914610  0.986260  1.0  0.7354
  C  C206  1  0.778850  0.871450  0.982720  1.0  -0.1266
  C  C207  1  0.757710  0.874660  0.011050  1.0  -0.0475
  C  C208  1  0.728800  0.836430  0.007950  1.0  -0.0179
  C  C209  1  0.717430  0.789850  0.976380  1.0  0.0637
  C  C210  1  0.738410  0.786710  0.947740  1.0  -0.1855
  C  C211  1  0.769220  0.827380  0.951120  1.0  -0.0203
  C  C212  1  0.564890  0.586360  0.998290  1.0  0.7048
  C  C213  1  0.589180  0.626580  0.992840  1.0  -0.109
  C  C214  1  0.603590  0.619820  0.959330  1.0  -0.0236
  C  C215  1  0.629930  0.656710  0.955340  1.0  -0.1175
  C  C216  1  0.640460  0.700850  0.986550  1.0  0.1841
  C  C217  1  0.627650  0.710440  0.020650  1.0  -0.1395
  C  C218  1  0.602150  0.671140  0.023930  1.0  0.0039
  C  C219  1  0.428350  0.825010  0.513740  1.0  0.7283
  C  C220  1  0.388730  0.796130  0.517280  1.0  -0.1248
  C  C221  1  0.363610  0.746660  0.488950  1.0  -0.0446
  C  C222  1  0.328480  0.720850  0.492050  1.0  -0.0164
  C  C223  1  0.313470  0.741050  0.523620  1.0  0.0654
  C  C224  1  0.338970  0.790670  0.552260  1.0  -0.1813
  C  C225  1  0.376260  0.818100  0.548880  1.0  -0.0221
  C  C226  1  0.088070  0.566600  0.501710  1.0  0.7033
  C  C227  1  0.133740  0.596340  0.507160  1.0  -0.1059
  C  C228  1  0.160490  0.644260  0.540670  1.0  -0.0239
  C  C229  1  0.201370  0.674590  0.544660  1.0  -0.118
  C  C230  1  0.214300  0.653910  0.513450  1.0  0.1844
  C  C231  1  0.189790  0.607000  0.479350  1.0  -0.1384
  C  C232  1  0.147210  0.578220  0.476070  1.0  0.0017
  C  C233  1  0.071650  0.585390  0.396660  1.0  0.729
  C  C234  1  0.111270  0.628550  0.407400  1.0  -0.1315
  C  C235  1  0.136390  0.625340  0.383050  1.0  -0.0442
  C  C236  1  0.171520  0.663570  0.392370  1.0  -0.0193
  C  C237  1  0.186530  0.710150  0.427580  1.0  0.0618
  C  C238  1  0.161030  0.713290  0.451700  1.0  -0.1828
  C  C239  1  0.123740  0.672620  0.441840  1.0  -0.0242
  C  C240  1  0.411930  0.913640  0.478530  1.0  0.7035
  C  C241  1  0.366260  0.873420  0.462600  1.0  -0.1065
  C  C242  1  0.339510  0.880180  0.483770  1.0  -0.0236
  C  C243  1  0.298630  0.843290  0.473220  1.0  -0.1181
  C  C244  1  0.285700  0.799150  0.439610  1.0  0.1822
  C  C245  1  0.310210  0.789560  0.417210  1.0  -0.1356
  C  C246  1  0.352790  0.828860  0.431010  1.0  0.0072
  C  C247  1  0.688730  0.674990  0.103340  1.0  0.7401
  C  C248  1  0.721150  0.703870  0.092600  1.0  -0.1278
  C  C249  1  0.742290  0.753340  0.116950  1.0  -0.0439
  C  C250  1  0.771200  0.779150  0.107630  1.0  -0.0179
  C  C251  1  0.782570  0.758950  0.072420  1.0  0.0645
  C  C252  1  0.761590  0.709330  0.048300  1.0  -0.183
  C  C253  1  0.730780  0.681900  0.058160  1.0  -0.024
  C  C254  1  0.935110  0.933400  0.021470  1.0  0.7084
  C  C255  1  0.910820  0.903660  0.037400  1.0  -0.1098
  C  C256  1  0.896410  0.855740  0.016230  1.0  -0.0268
  C  C257  1  0.870070  0.825410  0.026780  1.0  -0.1174
  C  C258  1  0.859540  0.846090  0.060390  1.0  0.186
  C  C259  1  0.872350  0.893000  0.082790  1.0  -0.1353
  C  C260  1  0.897850  0.921780  0.068990  1.0  0.0002
  C  C261  1  0.896660  0.071650  0.085390  1.0  0.7309
  C  C262  1  0.907400  0.111270  0.128550  1.0  -0.1254
  C  C263  1  0.883050  0.136390  0.125340  1.0  -0.045
  C  C264  1  0.892370  0.171520  0.163570  1.0  -0.0119
  C  C265  1  0.927580  0.186530  0.210150  1.0  0.0621
  C  C266  1  0.951700  0.161030  0.213290  1.0  -0.182
  C  C267  1  0.941840  0.123740  0.172620  1.0  -0.0232
  C  C268  1  0.978530  0.411930  0.413640  1.0  0.7043
  C  C269  1  0.962600  0.366260  0.373420  1.0  -0.1068
  C  C270  1  0.983770  0.339510  0.380180  1.0  -0.0217
  C  C271  1  0.973220  0.298630  0.343290  1.0  -0.1218
  C  C272  1  0.939610  0.285700  0.299150  1.0  0.1866
  C  C273  1  0.917210  0.310210  0.289560  1.0  -0.1415
  C  C274  1  0.931010  0.352790  0.328860  1.0  0.0061
  C  C275  1  0.603340  0.688730  0.174990  1.0  0.7321
  C  C276  1  0.592600  0.721150  0.203870  1.0  -0.1254
  C  C277  1  0.616950  0.742290  0.253340  1.0  -0.0449
  C  C278  1  0.607630  0.771200  0.279150  1.0  -0.0206
  C  C279  1  0.572420  0.782570  0.258950  1.0  0.0654
  C  C280  1  0.548300  0.761590  0.209330  1.0  -0.1855
  C  C281  1  0.558160  0.730780  0.181900  1.0  -0.0211
  C  C282  1  0.521470  0.935110  0.433400  1.0  0.7022
  C  C283  1  0.537400  0.910820  0.403660  1.0  -0.1028
  C  C284  1  0.516230  0.896410  0.355740  1.0  -0.0225
  C  C285  1  0.526780  0.870070  0.325410  1.0  -0.1187
  C  C286  1  0.560390  0.859540  0.346090  1.0  0.1854
  C  C287  1  0.582790  0.872350  0.393000  1.0  -0.1331
  C  C288  1  0.568990  0.897850  0.421780  1.0  0.0019
  C  C289  1  0.486260  0.811270  0.414610  1.0  0.7386
  C  C290  1  0.482720  0.778850  0.371450  1.0  -0.1242
  C  C291  1  0.511050  0.757710  0.374660  1.0  -0.042
  C  C292  1  0.507950  0.728800  0.336430  1.0  -0.0202
  C  C293  1  0.476380  0.717430  0.289850  1.0  0.0635
  C  C294  1  0.447740  0.738410  0.286710  1.0  -0.1866
  C  C295  1  0.451120  0.769220  0.327380  1.0  -0.0187
  C  C296  1  0.498290  0.564890  0.086360  1.0  0.7082
  C  C297  1  0.492840  0.589180  0.126580  1.0  -0.1068
  C  C298  1  0.459330  0.603590  0.119820  1.0  -0.0271
  C  C299  1  0.455340  0.629930  0.156710  1.0  -0.1164
  C  C300  1  0.486550  0.640460  0.200850  1.0  0.1851
  C  C301  1  0.520650  0.627650  0.210440  1.0  -0.1355
  C  C302  1  0.523930  0.602150  0.171140  1.0  0.0013
  C  C303  1  0.013740  0.428350  0.325010  1.0  0.7275
  C  C304  1  0.017280  0.388730  0.296130  1.0  -0.1269
  C  C305  1  0.988950  0.363610  0.246660  1.0  -0.0444
  C  C306  1  0.992050  0.328480  0.220850  1.0  -0.0169
  C  C307  1  0.023620  0.313470  0.241050  1.0  0.063
  C  C308  1  0.052260  0.338970  0.290670  1.0  -0.179
  C  C309  1  0.048880  0.376260  0.318100  1.0  -0.0251
  C  C310  1  0.001710  0.088070  0.066600  1.0  0.7031
  C  C311  1  0.007160  0.133740  0.096340  1.0  -0.109
  C  C312  1  0.040670  0.160490  0.144260  1.0  -0.0244
  C  C313  1  0.044660  0.201370  0.174590  1.0  -0.1202
  C  C314  1  0.013450  0.214300  0.153910  1.0  0.1851
  C  C315  1  0.979350  0.189790  0.107000  1.0  -0.1376
  C  C316  1  0.976070  0.147210  0.078220  1.0  0.0074
  C  C317  1  0.825010  0.013740  0.928350  1.0  0.739
  C  C318  1  0.796130  0.017280  0.888730  1.0  -0.126
  C  C319  1  0.746660  0.988950  0.863610  1.0  -0.04
  C  C320  1  0.720850  0.992050  0.828480  1.0  -0.014
  C  C321  1  0.741050  0.023620  0.813470  1.0  0.0627
  C  C322  1  0.790670  0.052260  0.838970  1.0  -0.1812
  C  C323  1  0.818100  0.048880  0.876260  1.0  -0.0231
  C  C324  1  0.566600  0.001710  0.588070  1.0  0.7072
  C  C325  1  0.596340  0.007160  0.633740  1.0  -0.111
  C  C326  1  0.644260  0.040670  0.660490  1.0  -0.0209
  C  C327  1  0.674590  0.044660  0.701370  1.0  -0.1153
  C  C328  1  0.653910  0.013450  0.714300  1.0  0.1874
  C  C329  1  0.607000  0.979350  0.689790  1.0  -0.1315
  C  C330  1  0.578220  0.976070  0.647210  1.0  0.001
  C  C331  1  0.914610  0.486260  0.311270  1.0  0.726
  C  C332  1  0.871450  0.482720  0.278850  1.0  -0.1273
  C  C333  1  0.874660  0.511050  0.257710  1.0  -0.043
  C  C334  1  0.836430  0.507950  0.228800  1.0  -0.0176
  C  C335  1  0.789850  0.476380  0.217430  1.0  0.0656
  C  C336  1  0.786710  0.447740  0.238410  1.0  -0.1831
  C  C337  1  0.827380  0.451120  0.269220  1.0  -0.0249
  C  C338  1  0.586360  0.498290  0.064890  1.0  0.7013
  C  C339  1  0.626580  0.492840  0.089180  1.0  -0.1057
  C  C340  1  0.619820  0.459330  0.103590  1.0  -0.0221
  C  C341  1  0.656710  0.455340  0.129930  1.0  -0.1179
  C  C342  1  0.700850  0.486550  0.140460  1.0  0.1843
  C  C343  1  0.710440  0.520650  0.127650  1.0  -0.1346
  C  C344  1  0.671140  0.523930  0.102150  1.0  0.006
  C  C345  1  0.674990  0.603340  0.188730  1.0  0.7303
  C  C346  1  0.703870  0.592600  0.221150  1.0  -0.1258
  C  C347  1  0.753340  0.616950  0.242290  1.0  -0.0422
  C  C348  1  0.779150  0.607630  0.271200  1.0  -0.0171
  C  C349  1  0.758950  0.572420  0.282570  1.0  0.0651
  C  C350  1  0.709330  0.548300  0.261590  1.0  -0.178
  C  C351  1  0.681900  0.558160  0.230780  1.0  -0.0231
  C  C352  1  0.933400  0.521470  0.435110  1.0  0.7021
  C  C353  1  0.903660  0.537400  0.410820  1.0  -0.1057
  C  C354  1  0.855740  0.516230  0.396410  1.0  -0.0205
  C  C355  1  0.825410  0.526780  0.370070  1.0  -0.1205
  C  C356  1  0.846090  0.560390  0.359540  1.0  0.1855
  C  C357  1  0.893000  0.582790  0.372350  1.0  -0.1349
  C  C358  1  0.921780  0.568990  0.397850  1.0  0.0041
  C  C359  1  0.585390  0.896660  0.571650  1.0  0.7295
  C  C360  1  0.628550  0.907400  0.611270  1.0  -0.1243
  C  C361  1  0.625340  0.883050  0.636390  1.0  -0.0454
  C  C362  1  0.663570  0.892370  0.671520  1.0  -0.0188
  C  C363  1  0.710150  0.927580  0.686530  1.0  0.0598
  C  C364  1  0.713290  0.951700  0.661030  1.0  -0.1829
  C  C365  1  0.672620  0.941840  0.623740  1.0  -0.0168
  C  C366  1  0.913640  0.978530  0.911930  1.0  0.7013
  C  C367  1  0.873420  0.962600  0.866260  1.0  -0.1107
  C  C368  1  0.880180  0.983770  0.839510  1.0  -0.0215
  C  C369  1  0.843290  0.973220  0.798630  1.0  -0.1146
  C  C370  1  0.799150  0.939610  0.785700  1.0  0.1845
  C  C371  1  0.789560  0.917210  0.810210  1.0  -0.138
  C  C372  1  0.828860  0.931010  0.852790  1.0  1e-04
  C  C373  1  0.188730  0.085390  0.013740  1.0  0.7361
  C  C374  1  0.221150  0.128550  0.017280  1.0  -0.1271
  C  C375  1  0.242290  0.125340  0.988950  1.0  -0.0457
  C  C376  1  0.271200  0.163570  0.992050  1.0  -0.0205
  C  C377  1  0.282570  0.210150  0.023620  1.0  0.0636
  C  C378  1  0.261590  0.213290  0.052260  1.0  -0.1849
  C  C379  1  0.230780  0.172620  0.048880  1.0  -0.0212
  C  C380  1  0.435110  0.413640  0.001710  1.0  0.703
  C  C381  1  0.410820  0.373420  0.007160  1.0  -0.1095
  C  C382  1  0.396410  0.380180  0.040670  1.0  -0.0222
  C  C383  1  0.370070  0.343290  0.044660  1.0  -0.1205
  C  C384  1  0.359540  0.299150  0.013450  1.0  0.1843
  C  C385  1  0.372350  0.289560  0.979350  1.0  -0.139
  C  C386  1  0.397850  0.328860  0.976070  1.0  0.0042
  C  C387  1  0.571650  0.174990  0.486260  1.0  0.7286
  C  C388  1  0.611270  0.203870  0.482720  1.0  -0.1276
  C  C389  1  0.636390  0.253340  0.511050  1.0  -0.0456
  C  C390  1  0.671520  0.279150  0.507950  1.0  -0.0147
  C  C391  1  0.686530  0.258950  0.476380  1.0  0.065
  C  C392  1  0.661030  0.209330  0.447740  1.0  -0.1821
  C  C393  1  0.623740  0.181900  0.451120  1.0  -0.0193
  C  C394  1  0.911930  0.433400  0.498290  1.0  0.7031
  C  C395  1  0.866260  0.403660  0.492840  1.0  -0.1063
  C  C396  1  0.839510  0.355740  0.459330  1.0  -0.0222
  C  C397  1  0.798630  0.325410  0.455340  1.0  -0.1174
  C  C398  1  0.785700  0.346090  0.486550  1.0  0.1843
  C  C399  1  0.810210  0.393000  0.520650  1.0  -0.1398
  C  C400  1  0.852790  0.421780  0.523930  1.0  0.0032
  C  C401  1  0.928350  0.414610  0.603340  1.0  0.7269
  C  C402  1  0.888730  0.371450  0.592600  1.0  -0.1269
  C  C403  1  0.863610  0.374660  0.616950  1.0  -0.044
  C  C404  1  0.828480  0.336430  0.607630  1.0  -0.0202
  C  C405  1  0.813470  0.289850  0.572420  1.0  0.0625
  C  C406  1  0.838970  0.286710  0.548300  1.0  -0.1841
  C  C407  1  0.876260  0.327380  0.558160  1.0  -0.0226
  C  C408  1  0.588070  0.086360  0.521470  1.0  0.7052
  C  C409  1  0.633740  0.126580  0.537400  1.0  -0.106
  C  C410  1  0.660490  0.119820  0.516230  1.0  -0.0253
  C  C411  1  0.701370  0.156710  0.526780  1.0  -0.1175
  C  C412  1  0.714300  0.200850  0.560390  1.0  0.1846
  C  C413  1  0.689790  0.210440  0.582790  1.0  -0.1366
  C  C414  1  0.647210  0.171140  0.568990  1.0  0.008
  C  C415  1  0.311270  0.325010  0.896660  1.0  0.7402
  C  C416  1  0.278850  0.296130  0.907400  1.0  -0.127
  C  C417  1  0.257710  0.246660  0.883050  1.0  -0.0419
  C  C418  1  0.228800  0.220850  0.892370  1.0  -0.0181
  C  C419  1  0.217430  0.241050  0.927580  1.0  0.0637
  C  C420  1  0.238410  0.290670  0.951700  1.0  -0.1837
  C  C421  1  0.269220  0.318100  0.941840  1.0  -0.024
  C  C422  1  0.064890  0.066600  0.978530  1.0  0.7065
  C  C423  1  0.089180  0.096340  0.962600  1.0  -0.1092
  C  C424  1  0.103590  0.144260  0.983770  1.0  -0.0261
  C  C425  1  0.129930  0.174590  0.973220  1.0  -0.1186
  C  C426  1  0.140460  0.153910  0.939610  1.0  0.1872
  C  C427  1  0.127650  0.107000  0.917210  1.0  -0.1328
  C  C428  1  0.102150  0.078220  0.931010  1.0  -0.0014
  C  C429  1  0.103340  0.928350  0.914610  1.0  0.7315
  C  C430  1  0.092600  0.888730  0.871450  1.0  -0.125
  C  C431  1  0.116950  0.863610  0.874660  1.0  -0.0439
  C  C432  1  0.107630  0.828480  0.836430  1.0  -0.0179
  C  C433  1  0.072420  0.813470  0.789850  1.0  0.0627
  C  C434  1  0.048300  0.838970  0.786710  1.0  -0.1787
  C  C435  1  0.058160  0.876260  0.827380  1.0  -0.0188
  C  C436  1  0.021470  0.588070  0.586360  1.0  0.7034
  C  C437  1  0.037400  0.633740  0.626580  1.0  -0.1082
  C  C438  1  0.016230  0.660490  0.619820  1.0  -0.0177
  C  C439  1  0.026780  0.701370  0.656710  1.0  -0.1212
  C  C440  1  0.060390  0.714300  0.700850  1.0  0.1859
  C  C441  1  0.082790  0.689790  0.710440  1.0  -0.1379
  C  C442  1  0.068990  0.647210  0.671140  1.0  0.0068
  C  C443  1  0.396660  0.311270  0.825010  1.0  0.7331
  C  C444  1  0.407400  0.278850  0.796130  1.0  -0.1255
  C  C445  1  0.383050  0.257710  0.746660  1.0  -0.0435
  C  C446  1  0.392370  0.228800  0.720850  1.0  -0.0175
  C  C447  1  0.427580  0.217430  0.741050  1.0  0.066
  C  C448  1  0.451700  0.238410  0.790670  1.0  -0.1853
  C  C449  1  0.441840  0.269220  0.818100  1.0  -0.0223
  C  C450  1  0.478530  0.064890  0.566600  1.0  0.703
  C  C451  1  0.462600  0.089180  0.596340  1.0  -0.1031
  C  C452  1  0.483770  0.103590  0.644260  1.0  -0.0233
  C  C453  1  0.473220  0.129930  0.674590  1.0  -0.1192
  C  C454  1  0.439610  0.140460  0.653910  1.0  0.1851
  C  C455  1  0.417210  0.127650  0.607000  1.0  -0.1367
  C  C456  1  0.431010  0.102150  0.578220  1.0  0.0002
  C  C457  1  0.513740  0.188730  0.585390  1.0  0.7375
  C  C458  1  0.517280  0.221150  0.628550  1.0  -0.1243
  C  C459  1  0.488950  0.242290  0.625340  1.0  -0.0401
  C  C460  1  0.492050  0.271200  0.663570  1.0  -0.0172
  C  C461  1  0.523620  0.282570  0.710150  1.0  0.0656
  C  C462  1  0.552260  0.261590  0.713290  1.0  -0.1833
  C  C463  1  0.548880  0.230780  0.672620  1.0  -0.0206
  C  C464  1  0.501710  0.435110  0.913640  1.0  0.7044
  C  C465  1  0.507160  0.410820  0.873420  1.0  -0.1067
  C  C466  1  0.540670  0.396410  0.880180  1.0  -0.0257
  C  C467  1  0.544660  0.370070  0.843290  1.0  -0.1154
  C  C468  1  0.513450  0.359540  0.799150  1.0  0.1881
  C  C469  1  0.479350  0.372350  0.789560  1.0  -0.1326
  C  C470  1  0.476070  0.397850  0.828860  1.0  0.0016
  C  C471  1  0.986260  0.571650  0.674990  1.0  0.7269
  C  C472  1  0.982720  0.611270  0.703870  1.0  -0.126
  C  C473  1  0.011050  0.636390  0.753340  1.0  -0.0452
  C  C474  1  0.007950  0.671520  0.779150  1.0  -0.0207
  C  C475  1  0.976380  0.686530  0.758950  1.0  0.0629
  C  C476  1  0.947740  0.661030  0.709330  1.0  -0.1816
  C  C477  1  0.951120  0.623740  0.681900  1.0  -0.0265
  C  C478  1  0.998290  0.911930  0.933400  1.0  0.7037
  C  C479  1  0.992840  0.866260  0.903660  1.0  -0.1094
  C  C480  1  0.959330  0.839510  0.855740  1.0  -0.0212
  C  C481  1  0.955340  0.798630  0.825410  1.0  -0.1183
  C  C482  1  0.986550  0.785700  0.846090  1.0  0.186
  C  C483  1  0.020650  0.810210  0.893000  1.0  -0.1387
  C  C484  1  0.023930  0.852790  0.921780  1.0  0.0083
  C  C485  1  0.174990  0.986260  0.071650  1.0  0.7381
  C  C486  1  0.203870  0.982720  0.111270  1.0  -0.1248
  C  C487  1  0.253340  0.011050  0.136390  1.0  -0.0406
  C  C488  1  0.279150  0.007950  0.171520  1.0  -0.0186
  C  C489  1  0.258950  0.976380  0.186530  1.0  0.0626
  C  C490  1  0.209330  0.947740  0.161030  1.0  -0.1867
  C  C491  1  0.181900  0.951120  0.123740  1.0  -0.0221
  C  C492  1  0.433400  0.998290  0.411930  1.0  0.7062
  C  C493  1  0.403660  0.992840  0.366260  1.0  -0.1108
  C  C494  1  0.355740  0.959330  0.339510  1.0  -0.0232
  C  C495  1  0.325410  0.955340  0.298630  1.0  -0.1174
  C  C496  1  0.346090  0.986550  0.285700  1.0  0.1869
  C  C497  1  0.393000  0.020650  0.310210  1.0  -0.1282
  C  C498  1  0.421780  0.023930  0.352790  1.0  0.0029
  C  C499  1  0.085390  0.513740  0.688730  1.0  0.7256
  C  C500  1  0.128550  0.517280  0.721150  1.0  -0.1292
  C  C501  1  0.125340  0.488950  0.742290  1.0  -0.0435
  C  C502  1  0.163570  0.492050  0.771200  1.0  -0.0185
  C  C503  1  0.210150  0.523620  0.782570  1.0  0.0653
  C  C504  1  0.213290  0.552260  0.761590  1.0  -0.183
  C  C505  1  0.172620  0.548880  0.730780  1.0  -0.0262
  C  C506  1  0.413640  0.501710  0.935110  1.0  0.703
  C  C507  1  0.373420  0.507160  0.910820  1.0  -0.1074
  C  C508  1  0.380180  0.540670  0.896410  1.0  -0.0217
  C  C509  1  0.343290  0.544660  0.870070  1.0  -0.1166
  C  C510  1  0.299150  0.513450  0.859540  1.0  0.1857
  C  C511  1  0.289560  0.479350  0.872350  1.0  -0.1393
  C  C512  1  0.328860  0.476070  0.897850  1.0  0.0074
  C  C513  1  0.325010  0.396660  0.811270  1.0  0.7284
  C  C514  1  0.296130  0.407400  0.778850  1.0  -0.1233
  C  C515  1  0.246660  0.383050  0.757710  1.0  -0.0433
  C  C516  1  0.220850  0.392370  0.728800  1.0  -0.0146
  C  C517  1  0.241050  0.427580  0.717430  1.0  0.0626
  C  C518  1  0.290670  0.451700  0.738410  1.0  -0.1787
  C  C519  1  0.318100  0.441840  0.769220  1.0  -0.0207
  C  C520  1  0.066600  0.478530  0.564890  1.0  0.6991
  C  C521  1  0.096340  0.462600  0.589180  1.0  -0.1063
  C  C522  1  0.144260  0.483770  0.603590  1.0  -0.0194
  C  C523  1  0.174590  0.473220  0.629930  1.0  -0.1165
  C  C524  1  0.153910  0.439610  0.640460  1.0  0.1862
  C  C525  1  0.107000  0.417210  0.627650  1.0  -0.1363
  C  C526  1  0.078220  0.431010  0.602150  1.0  0.002
  C  C527  1  0.414610  0.103340  0.428350  1.0  0.7324
  C  C528  1  0.371450  0.092600  0.388730  1.0  -0.1258
  C  C529  1  0.374660  0.116950  0.363610  1.0  -0.0427
  C  C530  1  0.336430  0.107630  0.328480  1.0  -0.0186
  C  C531  1  0.289850  0.072420  0.313470  1.0  0.0623
  C  C532  1  0.286710  0.048300  0.338970  1.0  -0.1837
  C  C533  1  0.327380  0.058160  0.376260  1.0  -0.016
  C  C534  1  0.086360  0.021470  0.088070  1.0  0.7024
  C  C535  1  0.126580  0.037400  0.133740  1.0  -0.1109
  C  C536  1  0.119820  0.016230  0.160490  1.0  -0.0205
  C  C537  1  0.156710  0.026780  0.201370  1.0  -0.1152
  C  C538  1  0.200850  0.060390  0.214300  1.0  0.1866
  C  C539  1  0.210440  0.082790  0.189790  1.0  -0.1359
  C  C540  1  0.171140  0.068990  0.147210  1.0  0.0009
  N  N541  1  0.689660  0.745260  0.966480  1.0  -0.238
  N  N542  1  0.667820  0.742590  0.989750  1.0  -0.2695
  N  N543  1  0.278780  0.723180  0.533520  1.0  -0.2334
  N  N544  1  0.252840  0.678070  0.510250  1.0  -0.2681
  N  N545  1  0.221220  0.754740  0.444400  1.0  -0.2353
  N  N546  1  0.247160  0.757410  0.425230  1.0  -0.271
  N  N547  1  0.810340  0.776820  0.055600  1.0  -0.2336
  N  N548  1  0.832180  0.821930  0.074770  1.0  -0.2679
  N  N549  1  0.944400  0.221220  0.254740  1.0  -0.235
  N  N550  1  0.925230  0.247160  0.257410  1.0  -0.2727
  N  N551  1  0.555600  0.810340  0.276820  1.0  -0.2386
  N  N552  1  0.574770  0.832180  0.321930  1.0  -0.2711
  N  N553  1  0.466480  0.689660  0.245260  1.0  -0.2388
  N  N554  1  0.489750  0.667820  0.242590  1.0  -0.2708
  N  N555  1  0.033520  0.278780  0.223180  1.0  -0.2366
  N  N556  1  0.010250  0.252840  0.178070  1.0  -0.273
  N  N557  1  0.723180  0.033520  0.778780  1.0  -0.237
  N  N558  1  0.678070  0.010250  0.752840  1.0  -0.269
  N  N559  1  0.745260  0.466480  0.189660  1.0  -0.2343
  N  N560  1  0.742590  0.489750  0.167820  1.0  -0.2681
  N  N561  1  0.776820  0.555600  0.310340  1.0  -0.2347
  N  N562  1  0.821930  0.574770  0.332180  1.0  -0.2714
  N  N563  1  0.754740  0.944400  0.721220  1.0  -0.2361
  N  N564  1  0.757410  0.925230  0.747160  1.0  -0.2722
  N  N565  1  0.310340  0.254740  0.033520  1.0  -0.2365
  N  N566  1  0.332180  0.257410  0.010250  1.0  -0.2685
  N  N567  1  0.721220  0.276820  0.466480  1.0  -0.2383
  N  N568  1  0.747160  0.321930  0.489750  1.0  -0.2683
  N  N569  1  0.778780  0.245260  0.555600  1.0  -0.2356
  N  N570  1  0.752840  0.242590  0.574770  1.0  -0.2723
  N  N571  1  0.189660  0.223180  0.944400  1.0  -0.2329
  N  N572  1  0.167820  0.178070  0.925230  1.0  -0.2683
  N  N573  1  0.055600  0.778780  0.745260  1.0  -0.2377
  N  N574  1  0.074770  0.752840  0.742590  1.0  -0.2726
  N  N575  1  0.444400  0.189660  0.723180  1.0  -0.238
  N  N576  1  0.425230  0.167820  0.678070  1.0  -0.2677
  N  N577  1  0.533520  0.310340  0.754740  1.0  -0.2389
  N  N578  1  0.510250  0.332180  0.757410  1.0  -0.2734
  N  N579  1  0.966480  0.721220  0.776820  1.0  -0.2371
  N  N580  1  0.989750  0.747160  0.821930  1.0  -0.2719
  N  N581  1  0.276820  0.966480  0.221220  1.0  -0.2373
  N  N582  1  0.321930  0.989750  0.247160  1.0  -0.2702
  N  N583  1  0.254740  0.533520  0.810340  1.0  -0.2342
  N  N584  1  0.257410  0.510250  0.832180  1.0  -0.2674
  N  N585  1  0.223180  0.444400  0.689660  1.0  -0.2377
  N  N586  1  0.178070  0.425230  0.667820  1.0  -0.2723
  N  N587  1  0.245260  0.055600  0.278780  1.0  -0.2352
  N  N588  1  0.242590  0.074770  0.252840  1.0  -0.2706
  O  O589  1  0.547930  0.544150  0.966340  1.0  -0.6391
  O  O590  1  0.560790  0.594620  0.034830  1.0  -0.7632
  O  O591  1  0.830420  0.910380  0.959540  1.0  -0.5971
  O  O592  1  0.822810  0.953600  0.017270  1.0  -0.5757
  O  O593  1  0.077810  0.581590  0.533660  1.0  -0.6426
  O  O594  1  0.059790  0.525960  0.465170  1.0  -0.7674
  O  O595  1  0.450840  0.870880  0.540460  1.0  -0.595
  O  O596  1  0.436330  0.805540  0.482730  1.0  -0.5639
  O  O597  1  0.422190  0.955850  0.503780  1.0  -0.6401
  O  O598  1  0.440210  0.905380  0.466170  1.0  -0.765
  O  O599  1  0.049160  0.589620  0.420040  1.0  -0.5977
  O  O600  1  0.063670  0.546400  0.369210  1.0  -0.5424
  O  O601  1  0.952070  0.918410  0.996220  1.0  -0.6388
  O  O602  1  0.939210  0.974040  0.033830  1.0  -0.7651
  O  O603  1  0.669580  0.629120  0.079960  1.0  -0.5984
  O  O604  1  0.677190  0.694460  0.130790  1.0  -0.5761
  O  O605  1  0.003780  0.422190  0.455850  1.0  -0.6403
  O  O606  1  0.966170  0.440210  0.405380  1.0  -0.7632
  O  O607  1  0.920040  0.049160  0.089620  1.0  -0.5951
  O  O608  1  0.869210  0.063670  0.046400  1.0  -0.5529
  O  O609  1  0.496220  0.952070  0.418410  1.0  -0.6408
  O  O610  1  0.533830  0.939210  0.474040  1.0  -0.764
  O  O611  1  0.579960  0.669580  0.129120  1.0  -0.5993
  O  O612  1  0.630790  0.677190  0.194460  1.0  -0.5759
  O  O613  1  0.466340  0.547930  0.044150  1.0  -0.6408
  O  O614  1  0.534830  0.560790  0.094620  1.0  -0.763
  O  O615  1  0.459540  0.830420  0.410380  1.0  -0.5941
  O  O616  1  0.517270  0.822810  0.453600  1.0  -0.5762
  O  O617  1  0.033660  0.077810  0.081590  1.0  -0.6371
  O  O618  1  0.965170  0.059790  0.025960  1.0  -0.7652
  O  O619  1  0.040460  0.450840  0.370880  1.0  -0.5967
  O  O620  1  0.982730  0.436330  0.305540  1.0  -0.5579
  O  O621  1  0.581590  0.033660  0.577810  1.0  -0.6376
  O  O622  1  0.525960  0.965170  0.559790  1.0  -0.7627
  O  O623  1  0.870880  0.040460  0.950840  1.0  -0.5896
  O  O624  1  0.805540  0.982730  0.936330  1.0  -0.564
  O  O625  1  0.544150  0.466340  0.047930  1.0  -0.6355
  O  O626  1  0.594620  0.534830  0.060790  1.0  -0.7668
  O  O627  1  0.910380  0.459540  0.330420  1.0  -0.5932
  O  O628  1  0.953600  0.517270  0.322810  1.0  -0.5742
  O  O629  1  0.918410  0.496220  0.452070  1.0  -0.6419
  O  O630  1  0.974040  0.533830  0.439210  1.0  -0.7643
  O  O631  1  0.629120  0.579960  0.169580  1.0  -0.6005
  O  O632  1  0.694460  0.630790  0.177190  1.0  -0.5746
  O  O633  1  0.955850  0.003780  0.922190  1.0  -0.6414
  O  O634  1  0.905380  0.966170  0.940210  1.0  -0.7638
  O  O635  1  0.589620  0.920040  0.549160  1.0  -0.5979
  O  O636  1  0.546400  0.869210  0.563670  1.0  -0.5423
  O  O637  1  0.452070  0.455850  0.033660  1.0  -0.6389
  O  O638  1  0.439210  0.405380  0.965170  1.0  -0.7635
  O  O639  1  0.169580  0.089620  0.040460  1.0  -0.5989
  O  O640  1  0.177190  0.046400  0.982730  1.0  -0.577
  O  O641  1  0.922190  0.418410  0.466340  1.0  -0.6393
  O  O642  1  0.940210  0.474040  0.534830  1.0  -0.766
  O  O643  1  0.549160  0.129120  0.459540  1.0  -0.5977
  O  O644  1  0.563670  0.194460  0.517270  1.0  -0.5619
  O  O645  1  0.577810  0.044150  0.496220  1.0  -0.6401
  O  O646  1  0.559790  0.094620  0.533830  1.0  -0.7642
  O  O647  1  0.950840  0.410380  0.579960  1.0  -0.595
  O  O648  1  0.936330  0.453600  0.630790  1.0  -0.5434
  O  O649  1  0.047930  0.081590  0.003780  1.0  -0.6397
  O  O650  1  0.060790  0.025960  0.966170  1.0  -0.7667
  O  O651  1  0.330420  0.370880  0.920040  1.0  -0.5962
  O  O652  1  0.322810  0.305540  0.869210  1.0  -0.5786
  O  O653  1  0.996220  0.577810  0.544150  1.0  -0.6401
  O  O654  1  0.033830  0.559790  0.594620  1.0  -0.7636
  O  O655  1  0.079960  0.950840  0.910380  1.0  -0.5964
  O  O656  1  0.130790  0.936330  0.953600  1.0  -0.5491
  O  O657  1  0.503780  0.047930  0.581590  1.0  -0.641
  O  O658  1  0.466170  0.060790  0.525960  1.0  -0.7646
  O  O659  1  0.420040  0.330420  0.870880  1.0  -0.5978
  O  O660  1  0.369210  0.322810  0.805540  1.0  -0.5752
  O  O661  1  0.533660  0.452070  0.955850  1.0  -0.6413
  O  O662  1  0.465170  0.439210  0.905380  1.0  -0.7625
  O  O663  1  0.540460  0.169580  0.589620  1.0  -0.5924
  O  O664  1  0.482730  0.177190  0.546400  1.0  -0.5768
  O  O665  1  0.966340  0.922190  0.918410  1.0  -0.6364
  O  O666  1  0.034830  0.940210  0.974040  1.0  -0.765
  O  O667  1  0.959540  0.549160  0.629120  1.0  -0.5973
  O  O668  1  0.017270  0.563670  0.694460  1.0  -0.5595
  O  O669  1  0.418410  0.966340  0.422190  1.0  -0.6371
  O  O670  1  0.474040  0.034830  0.440210  1.0  -0.7643
  O  O671  1  0.129120  0.959540  0.049160  1.0  -0.593
  O  O672  1  0.194460  0.017270  0.063670  1.0  -0.5646
  O  O673  1  0.455850  0.533660  0.952070  1.0  -0.6358
  O  O674  1  0.405380  0.465170  0.939210  1.0  -0.7665
  O  O675  1  0.089620  0.540460  0.669580  1.0  -0.5919
  O  O676  1  0.046400  0.482730  0.677190  1.0  -0.5724
  O  O677  1  0.081590  0.503780  0.547930  1.0  -0.6421
  O  O678  1  0.025960  0.466170  0.560790  1.0  -0.7626
  O  O679  1  0.370880  0.420040  0.830420  1.0  -0.5976
  O  O680  1  0.305540  0.369210  0.822810  1.0  -0.574
  O  O681  1  0.044150  0.996220  0.077810  1.0  -0.6392
  O  O682  1  0.094620  0.033830  0.059790  1.0  -0.7643
  O  O683  1  0.410380  0.079960  0.450840  1.0  -0.5994
  O  O684  1  0.453600  0.130790  0.436330  1.0  -0.5444
