# generated using pymatgen
data_CeH12C21(NO2)3
_symmetry_space_group_name_H-M   'P 1'
_cell_length_a   15.74280000
_cell_length_b   16.55620000
_cell_length_c   16.97600000
_cell_angle_alpha   99.86600000
_cell_angle_beta   95.61700000
_cell_angle_gamma   115.06000000
_symmetry_Int_Tables_number   1
_chemical_formula_structural   CeH12C21(NO2)3
_chemical_formula_sum   'Ce4 H48 C84 N12 O24'
_cell_volume   3876.15856881
_cell_formula_units_Z   4
loop_
 _symmetry_equiv_pos_site_id
 _symmetry_equiv_pos_as_xyz
  1  'x, y, z'
loop_
 _atom_site_type_symbol
 _atom_site_label
 _atom_site_symmetry_multiplicity
 _atom_site_fract_x
 _atom_site_fract_y
 _atom_site_fract_z
 _atom_site_occupancy
 _atom_site_charge
  Ce  Ce1  1  0.471060  0.460710  0.365480  1.0  2.3094
  Ce  Ce2  1  0.446980  0.517380  0.139740  1.0  2.2144
  Ce  Ce3  1  0.528940  0.539290  0.634520  1.0  2.3106
  Ce  Ce4  1  0.553020  0.482620  0.860260  1.0  2.2168
  H  H5  1  0.763100  0.514700  0.139900  1.0  0.1009
  H  H6  1  0.896700  0.492700  0.189300  1.0  0.1273
  H  H7  1  0.872700  0.584800  0.414400  1.0  0.1075
  H  H8  1  0.725600  0.573400  0.363900  1.0  0.0816
  H  H9  1  0.116200  0.494400  0.318900  1.0  0.1271
  H  H10  1  0.251200  0.485400  0.371600  1.0  0.0764
  H  H11  1  0.265600  0.627300  0.588300  1.0  0.0939
  H  H12  1  0.128400  0.637700  0.541500  1.0  0.1288
  H  H13  1  0.441800  0.238000  0.104100  1.0  0.1053
  H  H14  1  0.450000  0.099900  0.090800  1.0  0.1128
  H  H15  1  0.517300  0.117600  0.875400  1.0  0.1126
  H  H16  1  0.525300  0.262400  0.894000  1.0  0.1026
  H  H17  1  0.123800  0.228800  0.260400  1.0  0.1098
  H  H18  1  0.012500  0.087100  0.179100  1.0  0.1038
  H  H19  1  0.157100  0.131100  0.998100  1.0  0.1223
  H  H20  1  0.272400  0.266400  0.082900  1.0  0.083
  H  H21  1  0.279200  0.254000  0.617100  1.0  0.0947
  H  H22  1  0.136400  0.124400  0.605200  1.0  0.1095
  H  H23  1  0.098600  0.080600  0.361100  1.0  0.1214
  H  H24  1  0.243500  0.208600  0.374800  1.0  0.0883
  H  H25  1  0.553600  0.836800  0.281900  1.0  0.1127
  H  H26  1  0.546600  0.958000  0.369100  1.0  0.0998
  H  H27  1  0.442600  0.801100  0.521300  1.0  0.1144
  H  H28  1  0.440700  0.679600  0.433600  1.0  0.0709
  H  H29  1  0.236900  0.485300  0.860100  1.0  0.1008
  H  H30  1  0.103300  0.507300  0.810700  1.0  0.1269
  H  H31  1  0.127300  0.415200  0.585600  1.0  0.1083
  H  H32  1  0.274400  0.426600  0.636100  1.0  0.0813
  H  H33  1  0.883800  0.505600  0.681100  1.0  0.128
  H  H34  1  0.748800  0.514600  0.628400  1.0  0.0768
  H  H35  1  0.734400  0.372700  0.411700  1.0  0.0948
  H  H36  1  0.871600  0.362300  0.458500  1.0  0.1277
  H  H37  1  0.558200  0.762000  0.895900  1.0  0.105
  H  H38  1  0.550000  0.900100  0.909200  1.0  0.1124
  H  H39  1  0.482700  0.882400  0.124600  1.0  0.1124
  H  H40  1  0.474700  0.737600  0.106000  1.0  0.1046
  H  H41  1  0.876200  0.771200  0.739600  1.0  0.1101
  H  H42  1  0.987500  0.912900  0.820900  1.0  0.1037
  H  H43  1  0.842900  0.868900  0.001900  1.0  0.1228
  H  H44  1  0.727600  0.733600  0.917100  1.0  0.0837
  H  H45  1  0.720800  0.746000  0.382900  1.0  0.0946
  H  H46  1  0.863600  0.875600  0.394800  1.0  0.1088
  H  H47  1  0.901400  0.919400  0.638900  1.0  0.122
  H  H48  1  0.756500  0.791400  0.625200  1.0  0.0877
  H  H49  1  0.446400  0.163200  0.718100  1.0  0.1133
  H  H50  1  0.453400  0.042000  0.630900  1.0  0.0995
  H  H51  1  0.557400  0.198900  0.478700  1.0  0.1142
  H  H52  1  0.559300  0.320400  0.566400  1.0  0.0707
  C  C53  1  0.730600  0.543300  0.248300  1.0  -0.1271
  C  C54  1  0.782900  0.524000  0.195600  1.0  -0.0511
  C  C55  1  0.867400  0.517800  0.224100  1.0  -0.1712
  C  C56  1  0.903500  0.551800  0.307400  1.0  0.1776
  C  C57  1  0.850600  0.569000  0.358400  1.0  -0.145
  C  C58  1  0.762800  0.563200  0.327900  1.0  -0.0242
  C  C59  1  0.106600  0.561800  0.427300  1.0  0.1927
  C  C60  1  0.144400  0.519200  0.373700  1.0  -0.1849
  C  C61  1  0.226500  0.515800  0.406500  1.0  -0.0156
  C  C62  1  0.275400  0.553400  0.486400  1.0  -0.1586
  C  C63  1  0.235000  0.599100  0.534400  1.0  -0.0205
  C  C64  1  0.152100  0.605500  0.507300  1.0  -0.2057
  C  C65  1  0.360700  0.547600  0.517800  1.0  0.6894
  C  C66  1  0.486100  0.264100  0.002500  1.0  -0.1785
  C  C67  1  0.462300  0.216100  0.059300  1.0  -0.0231
  C  C68  1  0.467800  0.134200  0.051900  1.0  -0.1286
  C  C69  1  0.500000  0.104300  0.986400  1.0  0.1841
  C  C70  1  0.510000  0.145600  0.924900  1.0  -0.1607
  C  C71  1  0.509600  0.229600  0.934100  1.0  -0.0883
  C  C72  1  0.286000  0.346300  0.234200  1.0  0.7315
  C  C73  1  0.209500  0.260700  0.177400  1.0  -0.1456
  C  C74  1  0.131000  0.208500  0.208000  1.0  -0.0497
  C  C75  1  0.063400  0.124900  0.158300  1.0  -0.1365
  C  C76  1  0.070000  0.097500  0.080900  1.0  0.1653
  C  C77  1  0.150100  0.150100  0.050900  1.0  -0.1489
  C  C78  1  0.218400  0.231100  0.101800  1.0  -0.0265
  C  C79  1  0.364800  0.330600  0.501300  1.0  0.7619
  C  C80  1  0.275700  0.245800  0.496900  1.0  -0.1712
  C  C81  1  0.243300  0.219400  0.565700  1.0  -0.03
  C  C82  1  0.157600  0.141600  0.558700  1.0  -0.1111
  C  C83  1  0.104000  0.089900  0.482300  1.0  0.1706
  C  C84  1  0.134800  0.114700  0.412500  1.0  -0.1898
  C  C85  1  0.221400  0.192300  0.421300  1.0  -0.0233
  C  C86  1  0.492000  0.663900  0.289900  1.0  0.7035
  C  C87  1  0.491200  0.742400  0.348400  1.0  -0.1273
  C  C88  1  0.528000  0.828500  0.328700  1.0  -0.0739
  C  C89  1  0.524600  0.901100  0.382100  1.0  -0.0836
  C  C90  1  0.490100  0.891500  0.452500  1.0  0.1777
  C  C91  1  0.461900  0.808400  0.471900  1.0  -0.1623
  C  C92  1  0.461900  0.735800  0.419300  1.0  -0.0066
  C  C93  1  0.479100  0.351800  0.013700  1.0  0.7703
  C  C94  1  0.636300  0.532000  0.215500  1.0  0.7712
  C  C95  1  0.269400  0.456700  0.751700  1.0  -0.1282
  C  C96  1  0.217100  0.476000  0.804400  1.0  -0.0493
  C  C97  1  0.132600  0.482200  0.775900  1.0  -0.1731
  C  C98  1  0.096500  0.448200  0.692600  1.0  0.1767
  C  C99  1  0.149400  0.431000  0.641600  1.0  -0.1431
  C  C100  1  0.237200  0.436800  0.672100  1.0  -0.0243
  C  C101  1  0.893400  0.438200  0.572700  1.0  0.1925
  C  C102  1  0.855600  0.480800  0.626300  1.0  -0.1858
  C  C103  1  0.773500  0.484200  0.593500  1.0  -0.0207
  C  C104  1  0.724600  0.446600  0.513600  1.0  -0.159
  C  C105  1  0.765000  0.400900  0.465600  1.0  -0.0304
  C  C106  1  0.847900  0.394500  0.492700  1.0  -0.2039
  C  C107  1  0.639300  0.452400  0.482200  1.0  0.6898
  C  C108  1  0.513900  0.735900  0.997500  1.0  -0.1761
  C  C109  1  0.537700  0.783900  0.940700  1.0  -0.0233
  C  C110  1  0.532200  0.865800  0.948100  1.0  -0.1284
  C  C111  1  0.500000  0.895700  0.013600  1.0  0.184
  C  C112  1  0.490000  0.854400  0.075100  1.0  -0.1614
  C  C113  1  0.490400  0.770400  0.065900  1.0  -0.0733
  C  C114  1  0.714000  0.653700  0.765800  1.0  0.7324
  C  C115  1  0.790500  0.739300  0.822600  1.0  -0.1459
  C  C116  1  0.869000  0.791500  0.792000  1.0  -0.0501
  C  C117  1  0.936600  0.875100  0.841700  1.0  -0.1365
  C  C118  1  0.930000  0.902500  0.919100  1.0  0.1633
  C  C119  1  0.849900  0.849900  0.949100  1.0  -0.1489
  C  C120  1  0.781600  0.768900  0.898200  1.0  -0.0251
  C  C121  1  0.635200  0.669400  0.498700  1.0  0.762
  C  C122  1  0.724300  0.754200  0.503100  1.0  -0.1721
  C  C123  1  0.756700  0.780600  0.434300  1.0  -0.0314
  C  C124  1  0.842400  0.858400  0.441300  1.0  -0.1238
  C  C125  1  0.896000  0.910100  0.517700  1.0  0.1707
  C  C126  1  0.865200  0.885300  0.587500  1.0  -0.189
  C  C127  1  0.778600  0.807700  0.578700  1.0  -0.023
  C  C128  1  0.508000  0.336100  0.710100  1.0  0.7034
  C  C129  1  0.508800  0.257600  0.651600  1.0  -0.1279
  C  C130  1  0.472000  0.171500  0.671300  1.0  -0.0713
  C  C131  1  0.475400  0.098900  0.617900  1.0  -0.0816
  C  C132  1  0.509900  0.108500  0.547500  1.0  0.1756
  C  C133  1  0.538100  0.191600  0.528100  1.0  -0.1627
  C  C134  1  0.538100  0.264200  0.580700  1.0  -0.0068
  C  C135  1  0.520900  0.648200  0.986300  1.0  0.7758
  C  C136  1  0.363700  0.468000  0.784500  1.0  0.7702
  N  N137  1  0.992000  0.546000  0.331500  1.0  -0.1479
  N  N138  1  0.022300  0.572100  0.403800  1.0  -0.1483
  N  N139  1  0.504900  0.016100  0.970800  1.0  -0.1336
  N  N140  1  0.994700  0.012500  0.034000  1.0  -0.1479
  N  N141  1  0.012800  0.007800  0.468600  1.0  -0.1312
  N  N142  1  0.488900  0.964500  0.510600  1.0  -0.1544
  N  N143  1  0.008000  0.454000  0.668500  1.0  -0.1497
  N  N144  1  0.977700  0.427900  0.596200  1.0  -0.1471
  N  N145  1  0.495100  0.983900  0.029200  1.0  -0.1303
  N  N146  1  0.005300  0.987500  0.966000  1.0  -0.1485
  N  N147  1  0.987200  0.992200  0.531400  1.0  -0.1282
  N  N148  1  0.511100  0.035500  0.489400  1.0  -0.1549
  O  O149  1  0.569400  0.505800  0.253600  1.0  -0.7601
  O  O150  1  0.625100  0.551000  0.152000  1.0  -0.6257
  O  O151  1  0.393900  0.575900  0.591500  1.0  -0.6803
  O  O152  1  0.400900  0.517400  0.468500  1.0  -0.8048
  O  O153  1  0.455500  0.379400  0.077900  1.0  -0.687
  O  O154  1  0.352200  0.398400  0.204100  1.0  -0.8161
  O  O155  1  0.286700  0.361900  0.307200  1.0  -0.6227
  O  O156  1  0.399700  0.338300  0.440100  1.0  -0.6424
  O  O157  1  0.398200  0.385300  0.569800  1.0  -0.6841
  O  O158  1  0.445000  0.584000  0.302200  1.0  -0.7375
  O  O159  1  0.532400  0.678200  0.230900  1.0  -0.6286
  O  O160  1  0.504900  0.398300  0.962500  1.0  -0.8055
  O  O161  1  0.430600  0.494200  0.746400  1.0  -0.7599
  O  O162  1  0.374900  0.449000  0.848000  1.0  -0.6268
  O  O163  1  0.606100  0.424100  0.408500  1.0  -0.6824
  O  O164  1  0.599100  0.482600  0.531500  1.0  -0.8079
  O  O165  1  0.544500  0.620600  0.922100  1.0  -0.6891
  O  O166  1  0.647800  0.601600  0.795900  1.0  -0.8143
  O  O167  1  0.713300  0.638100  0.692800  1.0  -0.6227
  O  O168  1  0.600300  0.661700  0.559900  1.0  -0.6426
  O  O169  1  0.601800  0.614700  0.430200  1.0  -0.6848
  O  O170  1  0.555000  0.416000  0.697800  1.0  -0.7368
  O  O171  1  0.467600  0.321800  0.769100  1.0  -0.628
  O  O172  1  0.495100  0.601700  0.037500  1.0  -0.8027
