# generated using pymatgen
data_GdH12C21(NO2)3
_symmetry_space_group_name_H-M   'P 1'
_cell_length_a   16.06360000
_cell_length_b   16.06360000
_cell_length_c   27.91500000
_cell_angle_alpha   79.89020000
_cell_angle_beta   79.89020000
_cell_angle_gamma   63.17630000
_symmetry_Int_Tables_number   1
_chemical_formula_structural   GdH12C21(NO2)3
_chemical_formula_sum   'Gd4 H48 C84 N12 O24'
_cell_volume   6290.13886724
_cell_formula_units_Z   4
loop_
 _symmetry_equiv_pos_site_id
 _symmetry_equiv_pos_as_xyz
  1  'x, y, z'
loop_
 _atom_site_type_symbol
 _atom_site_label
 _atom_site_symmetry_multiplicity
 _atom_site_fract_x
 _atom_site_fract_y
 _atom_site_fract_z
 _atom_site_occupancy
 _atom_site_charge
  Gd  Gd1  1  0.531270  0.066570  0.046110  1.0  2.1362
  Gd  Gd2  1  0.933430  0.468730  0.453890  1.0  2.1359
  Gd  Gd3  1  0.468730  0.933430  0.953890  1.0  2.141
  Gd  Gd4  1  0.066570  0.531270  0.546110  1.0  2.1404
  H  H5  1  0.633700  0.064900  0.203500  1.0  0.117
  H  H6  1  0.707700  0.106500  0.253500  1.0  0.1142
  H  H7  1  0.841200  0.194800  0.133500  1.0  0.1308
  H  H8  1  0.760300  0.159900  0.085500  1.0  0.1092
  H  H9  1  0.675200  0.172400  0.910100  1.0  0.1068
  H  H10  1  0.738600  0.233400  0.841400  1.0  0.1232
  H  H11  1  0.632800  0.134000  0.757500  1.0  0.1342
  H  H12  1  0.569200  0.067800  0.829400  1.0  0.1177
  H  H13  1  0.176200  0.210800  0.944300  1.0  0.1275
  H  H14  1  0.050400  0.353800  0.957100  1.0  0.1137
  H  H15  1  0.193300  0.411900  0.039300  1.0  0.1147
  H  H16  1  0.318100  0.267500  0.031300  1.0  0.0888
  H  H17  1  0.935100  0.366300  0.296500  1.0  0.117
  H  H18  1  0.893500  0.292300  0.246500  1.0  0.1137
  H  H19  1  0.805200  0.158800  0.366500  1.0  0.1315
  H  H20  1  0.840100  0.239700  0.414500  1.0  0.1089
  H  H21  1  0.827600  0.324800  0.589900  1.0  0.1069
  H  H22  1  0.766600  0.261400  0.658600  1.0  0.1233
  H  H23  1  0.866000  0.367200  0.742500  1.0  0.134
  H  H24  1  0.932200  0.430800  0.670600  1.0  0.1175
  H  H25  1  0.789200  0.823800  0.555700  1.0  0.1281
  H  H26  1  0.646200  0.949600  0.542900  1.0  0.1132
  H  H27  1  0.588100  0.806700  0.460700  1.0  0.1144
  H  H28  1  0.732500  0.681900  0.468700  1.0  0.0891
  H  H29  1  0.366300  0.935100  0.796500  1.0  0.117
  H  H30  1  0.292300  0.893500  0.746500  1.0  0.1135
  H  H31  1  0.158800  0.805200  0.866500  1.0  0.1315
  H  H32  1  0.239700  0.840100  0.914500  1.0  0.1088
  H  H33  1  0.324800  0.827600  0.089900  1.0  0.1068
  H  H34  1  0.261400  0.766600  0.158600  1.0  0.1233
  H  H35  1  0.367200  0.866000  0.242500  1.0  0.1341
  H  H36  1  0.430800  0.932200  0.170600  1.0  0.1178
  H  H37  1  0.823800  0.789200  0.055700  1.0  0.1278
  H  H38  1  0.949600  0.646200  0.042900  1.0  0.1139
  H  H39  1  0.806700  0.588100  0.960700  1.0  0.1141
  H  H40  1  0.681900  0.732500  0.968700  1.0  0.09
  H  H41  1  0.064900  0.633700  0.703500  1.0  0.1171
  H  H42  1  0.106500  0.707700  0.753500  1.0  0.1142
  H  H43  1  0.194800  0.841200  0.633500  1.0  0.1313
  H  H44  1  0.159900  0.760300  0.585500  1.0  0.1089
  H  H45  1  0.172400  0.675200  0.410100  1.0  0.1068
  H  H46  1  0.233400  0.738600  0.341400  1.0  0.1231
  H  H47  1  0.134000  0.632800  0.257500  1.0  0.134
  H  H48  1  0.067800  0.569200  0.329400  1.0  0.1174
  H  H49  1  0.210800  0.176200  0.444300  1.0  0.1276
  H  H50  1  0.353800  0.050400  0.457100  1.0  0.1131
  H  H51  1  0.411900  0.193300  0.539300  1.0  0.1152
  H  H52  1  0.267500  0.318100  0.531300  1.0  0.0876
  C  C53  1  0.644900  0.076500  0.109890  1.0  0.6769
  C  C54  1  0.704200  0.092800  0.138830  1.0  -0.1264
  C  C55  1  0.678200  0.087000  0.189900  1.0  -0.0053
  C  C56  1  0.720100  0.114700  0.219640  1.0  -0.1339
  C  C57  1  0.780100  0.154500  0.198800  1.0  0.2046
  C  C58  1  0.800000  0.169000  0.147430  1.0  -0.1618
  C  C59  1  0.755700  0.143100  0.119110  1.0  0.0117
  C  C60  1  0.578700  0.075900  0.923050  1.0  0.789
  C  C61  1  0.618000  0.113000  0.877160  1.0  -0.155
  C  C62  1  0.667400  0.163200  0.879490  1.0  -0.0136
  C  C63  1  0.705200  0.200200  0.838800  1.0  -0.1482
  C  C64  1  0.692900  0.187300  0.795400  1.0  0.24
  C  C65  1  0.641500  0.139700  0.788600  1.0  -0.1663
  C  C66  1  0.603300  0.100700  0.831650  1.0  -0.0291
  C  C67  1  0.335300  0.129700  0.980960  1.0  0.7663
  C  C68  1  0.259460  0.223060  0.987510  1.0  -0.1414
  C  C69  1  0.179100  0.249900  0.964180  1.0  -0.0366
  C  C70  1  0.104900  0.335700  0.971500  1.0  -0.1444
  C  C71  1  0.110330  0.397730  0.001010  1.0  0.2308
  C  C72  1  0.189200  0.370800  0.021160  1.0  -0.152
  C  C73  1  0.264740  0.284740  0.016140  1.0  -0.0526
  C  C74  1  0.923500  0.355100  0.390110  1.0  0.6778
  C  C75  1  0.907200  0.295800  0.361170  1.0  -0.1256
  C  C76  1  0.913000  0.321800  0.310100  1.0  -0.009
  C  C77  1  0.885300  0.279900  0.280360  1.0  -0.1346
  C  C78  1  0.845500  0.219900  0.301200  1.0  0.2044
  C  C79  1  0.831000  0.200000  0.352570  1.0  -0.1626
  C  C80  1  0.856900  0.244300  0.380890  1.0  0.0119
  C  C81  1  0.924100  0.421300  0.576950  1.0  0.7874
  C  C82  1  0.887000  0.382000  0.622840  1.0  -0.1553
  C  C83  1  0.836800  0.332600  0.620510  1.0  -0.0134
  C  C84  1  0.799800  0.294800  0.661200  1.0  -0.1498
  C  C85  1  0.812700  0.307100  0.704600  1.0  0.2395
  C  C86  1  0.860300  0.358500  0.711400  1.0  -0.1656
  C  C87  1  0.899300  0.396700  0.668350  1.0  -0.0279
  C  C88  1  0.870300  0.664700  0.519040  1.0  0.7661
  C  C89  1  0.776940  0.740540  0.512490  1.0  -0.1415
  C  C90  1  0.750100  0.820900  0.535820  1.0  -0.0367
  C  C91  1  0.664300  0.895100  0.528500  1.0  -0.144
  C  C92  1  0.602270  0.889670  0.498990  1.0  0.2319
  C  C93  1  0.629200  0.810800  0.478840  1.0  -0.1509
  C  C94  1  0.715260  0.735260  0.483860  1.0  -0.0513
  C  C95  1  0.355100  0.923500  0.890110  1.0  0.6775
  C  C96  1  0.295800  0.907200  0.861170  1.0  -0.127
  C  C97  1  0.321800  0.913000  0.810100  1.0  -0.0092
  C  C98  1  0.279900  0.885300  0.780360  1.0  -0.1346
  C  C99  1  0.219900  0.845500  0.801200  1.0  0.2062
  C  C100  1  0.200000  0.831000  0.852570  1.0  -0.1625
  C  C101  1  0.244300  0.856900  0.880890  1.0  0.0113
  C  C102  1  0.421300  0.924100  0.076950  1.0  0.7875
  C  C103  1  0.382000  0.887000  0.122840  1.0  -0.1555
  C  C104  1  0.332600  0.836800  0.120510  1.0  -0.0137
  C  C105  1  0.294800  0.799800  0.161200  1.0  -0.1496
  C  C106  1  0.307100  0.812700  0.204600  1.0  0.24
  C  C107  1  0.358500  0.860300  0.211400  1.0  -0.1659
  C  C108  1  0.396700  0.899300  0.168350  1.0  -0.0274
  C  C109  1  0.664700  0.870300  0.019040  1.0  0.7667
  C  C110  1  0.740540  0.776940  0.012490  1.0  -0.1421
  C  C111  1  0.820900  0.750100  0.035820  1.0  -0.0359
  C  C112  1  0.895100  0.664300  0.028500  1.0  -0.1441
  C  C113  1  0.889670  0.602270  0.998990  1.0  0.2312
  C  C114  1  0.810800  0.629200  0.978840  1.0  -0.1518
  C  C115  1  0.735260  0.715260  0.983860  1.0  -0.0543
  C  C116  1  0.076500  0.644900  0.609890  1.0  0.6783
  C  C117  1  0.092800  0.704200  0.638830  1.0  -0.1253
  C  C118  1  0.087000  0.678200  0.689900  1.0  -0.0062
  C  C119  1  0.114700  0.720100  0.719640  1.0  -0.1345
  C  C120  1  0.154500  0.780100  0.698800  1.0  0.2034
  C  C121  1  0.169000  0.800000  0.647430  1.0  -0.1618
  C  C122  1  0.143100  0.755700  0.619110  1.0  0.012
  C  C123  1  0.075900  0.578700  0.423050  1.0  0.7891
  C  C124  1  0.113000  0.618000  0.377160  1.0  -0.1555
  C  C125  1  0.163200  0.667400  0.379490  1.0  -0.0136
  C  C126  1  0.200200  0.705200  0.338800  1.0  -0.1481
  C  C127  1  0.187300  0.692900  0.295400  1.0  0.2402
  C  C128  1  0.139700  0.641500  0.288600  1.0  -0.1655
  C  C129  1  0.100700  0.603300  0.331650  1.0  -0.0295
  C  C130  1  0.129700  0.335300  0.480960  1.0  0.767
  C  C131  1  0.223060  0.259460  0.487510  1.0  -0.1416
  C  C132  1  0.249900  0.179100  0.464180  1.0  -0.0382
  C  C133  1  0.335700  0.104900  0.471500  1.0  -0.1441
  C  C134  1  0.397730  0.110330  0.501010  1.0  0.2317
  C  C135  1  0.370800  0.189200  0.521160  1.0  -0.1497
  C  C136  1  0.284740  0.264740  0.516140  1.0  -0.0514
  N  N137  1  0.820160  0.190760  0.225220  1.0  -0.2126
  N  N138  1  0.723740  0.225940  0.750950  1.0  -0.2424
  N  N139  1  0.044270  0.484270  0.005150  1.0  -0.2203
  N  N140  1  0.809240  0.179840  0.274780  1.0  -0.2126
  N  N141  1  0.774060  0.276260  0.749050  1.0  -0.2418
  N  N142  1  0.515730  0.955730  0.494850  1.0  -0.2187
  N  N143  1  0.179840  0.809240  0.774780  1.0  -0.2129
  N  N144  1  0.276260  0.774060  0.249050  1.0  -0.2422
  N  N145  1  0.955730  0.515730  0.994850  1.0  -0.2187
  N  N146  1  0.190760  0.820160  0.725220  1.0  -0.2127
  N  N147  1  0.225940  0.723740  0.250950  1.0  -0.2431
  N  N148  1  0.484270  0.044270  0.505150  1.0  -0.2206
  O  O149  1  0.590430  0.041850  0.126060  1.0  -0.653
  O  O150  1  0.656550  0.103550  0.063490  1.0  -0.7191
  O  O151  1  0.592330  0.084630  0.964940  1.0  -0.7171
  O  O152  1  0.530910  0.036310  0.914010  1.0  -0.7378
  O  O153  1  0.402920  0.103720  0.002890  1.0  -0.8347
  O  O154  1  0.324720  0.079400  0.953840  1.0  -0.6465
  O  O155  1  0.958150  0.409570  0.373940  1.0  -0.6535
  O  O156  1  0.896450  0.343450  0.436510  1.0  -0.7179
  O  O157  1  0.915370  0.407670  0.535060  1.0  -0.7188
  O  O158  1  0.963690  0.469090  0.585990  1.0  -0.7391
  O  O159  1  0.896280  0.597080  0.497110  1.0  -0.8396
  O  O160  1  0.920600  0.675280  0.546160  1.0  -0.6458
  O  O161  1  0.409570  0.958150  0.873940  1.0  -0.655
  O  O162  1  0.343450  0.896450  0.936510  1.0  -0.7198
  O  O163  1  0.407670  0.915370  0.035060  1.0  -0.7183
  O  O164  1  0.469090  0.963690  0.085990  1.0  -0.7385
  O  O165  1  0.597080  0.896280  0.997110  1.0  -0.836
  O  O166  1  0.675280  0.920600  0.046160  1.0  -0.6456
  O  O167  1  0.041850  0.590430  0.626060  1.0  -0.6481
  O  O168  1  0.103550  0.656550  0.563490  1.0  -0.7224
  O  O169  1  0.084630  0.592330  0.464940  1.0  -0.718
  O  O170  1  0.036310  0.530910  0.414010  1.0  -0.7393
  O  O171  1  0.103720  0.402920  0.502890  1.0  -0.8418
  O  O172  1  0.079400  0.324720  0.453840  1.0  -0.6462
