# generated using pymatgen
data_Co3H68C76(N7O9)2
_symmetry_space_group_name_H-M   'P 1'
_cell_length_a   11.40000000
_cell_length_b   18.65700000
_cell_length_c   24.38000000
_cell_angle_alpha   90.00000000
_cell_angle_beta   90.00000000
_cell_angle_gamma   90.00000000
_symmetry_Int_Tables_number   1
_chemical_formula_structural   Co3H68C76(N7O9)2
_chemical_formula_sum   'Co6 H136 C152 N28 O36'
_cell_volume   5185.37732400
_cell_formula_units_Z   2
loop_
 _symmetry_equiv_pos_site_id
 _symmetry_equiv_pos_as_xyz
  1  'x, y, z'
loop_
 _atom_site_type_symbol
 _atom_site_label
 _atom_site_symmetry_multiplicity
 _atom_site_fract_x
 _atom_site_fract_y
 _atom_site_fract_z
 _atom_site_occupancy
 _atom_site_charge
  Co  Co1  1  0.535190  0.300280  0.518690  1.0  0.8329
  Co  Co2  1  0.535190  0.699720  0.481310  1.0  0.8327
  Co  Co3  1  0.464810  0.199720  0.018690  1.0  0.8333
  Co  Co4  1  0.464810  0.800280  0.981310  1.0  0.8318
  Co  Co5  1  0.540140  0.500000  0.500000  1.0  0.9547
  Co  Co6  1  0.459860  0.000000  0.000000  1.0  0.9545
  H  H7  1  0.575600  0.474600  0.645000  1.0  0.0885
  H  H8  1  0.367100  0.404600  0.680900  1.0  0.1091
  H  H9  1  0.406100  0.483400  0.696800  1.0  0.1102
  H  H10  1  0.366000  0.466100  0.636100  1.0  0.1181
  H  H11  1  0.907600  0.388800  0.756400  1.0  0.1085
  H  H12  1  0.872400  0.215800  0.853200  1.0  0.1192
  H  H13  1  0.608100  0.275000  0.750900  1.0  0.1153
  H  H14  1  0.225500  0.464500  0.776000  1.0  0.1173
  H  H15  1  0.190800  0.470900  0.838700  1.0  0.1138
  H  H16  1  0.323600  0.459100  0.821800  1.0  0.115
  H  H17  1  0.236400  0.352400  0.853900  1.0  0.0971
  H  H18  1  0.308800  0.193600  0.843000  1.0  0.1158
  H  H19  1  0.329900  0.148000  0.789100  1.0  0.1159
  H  H20  1  0.281100  0.110400  0.842700  1.0  0.1114
  H  H21  1  0.485000  0.085600  0.831300  1.0  0.0836
  H  H22  1  0.127500  0.240700  0.448600  1.0  0.1199
  H  H23  1  0.328200  0.245000  0.451300  1.0  0.0747
  H  H24  1  0.321400  0.346100  0.591300  1.0  0.0743
  H  H25  1  0.121500  0.342100  0.594000  1.0  0.1341
  H  H26  1  0.943900  0.265800  0.599800  1.0  0.1256
  H  H27  1  0.741100  0.269000  0.597400  1.0  0.0898
  H  H28  1  0.748100  0.327500  0.443700  1.0  0.0707
  H  H29  1  0.947300  0.321300  0.440500  1.0  0.1284
  H  H30  1  0.498800  0.167100  0.586400  1.0  0.086
  H  H31  1  0.506200  0.045200  0.582400  1.0  0.1335
  H  H32  1  0.590300  0.063800  0.423700  1.0  0.1214
  H  H33  1  0.582500  0.185400  0.433800  1.0  0.0748
  H  H34  1  0.749100  0.482000  0.579200  1.0  0.0841
  H  H35  1  0.947800  0.483200  0.581100  1.0  0.1159
  H  H36  1  0.128300  0.558500  0.569400  1.0  0.139
  H  H37  1  0.329100  0.556700  0.567000  1.0  0.07
  H  H38  1  0.547600  0.376800  0.724700  1.0  0.2669
  H  H39  1  0.082400  0.361000  0.766300  1.0  0.2976
  H  H40  1  0.505100  0.227900  0.814800  1.0  0.2841
  H  H41  1  0.575600  0.525400  0.355000  1.0  0.0881
  H  H42  1  0.367100  0.595400  0.319100  1.0  0.1093
  H  H43  1  0.406100  0.516600  0.303200  1.0  0.1092
  H  H44  1  0.366000  0.533900  0.363900  1.0  0.1175
  H  H45  1  0.907600  0.611200  0.243600  1.0  0.1085
  H  H46  1  0.872400  0.784200  0.146800  1.0  0.1184
  H  H47  1  0.608100  0.725000  0.249100  1.0  0.1157
  H  H48  1  0.225500  0.535500  0.224000  1.0  0.1163
  H  H49  1  0.190800  0.529100  0.161300  1.0  0.1136
  H  H50  1  0.323600  0.540900  0.178200  1.0  0.1142
  H  H51  1  0.236400  0.647600  0.146100  1.0  0.0973
  H  H52  1  0.308800  0.806400  0.157000  1.0  0.1155
  H  H53  1  0.329900  0.852000  0.210900  1.0  0.1162
  H  H54  1  0.281100  0.889600  0.157300  1.0  0.113
  H  H55  1  0.485000  0.914400  0.168700  1.0  0.084
  H  H56  1  0.127500  0.759300  0.551400  1.0  0.1203
  H  H57  1  0.328200  0.755000  0.548700  1.0  0.0744
  H  H58  1  0.321400  0.653900  0.408700  1.0  0.0743
  H  H59  1  0.121500  0.657900  0.406000  1.0  0.1341
  H  H60  1  0.943900  0.734200  0.400200  1.0  0.1248
  H  H61  1  0.741100  0.731000  0.402600  1.0  0.0899
  H  H62  1  0.748100  0.672500  0.556300  1.0  0.0698
  H  H63  1  0.947300  0.678700  0.559500  1.0  0.1277
  H  H64  1  0.498800  0.832900  0.413600  1.0  0.087
  H  H65  1  0.506200  0.954800  0.417600  1.0  0.1334
  H  H66  1  0.590300  0.936200  0.576300  1.0  0.1229
  H  H67  1  0.582500  0.814600  0.566200  1.0  0.0749
  H  H68  1  0.749100  0.518000  0.420800  1.0  0.0843
  H  H69  1  0.947800  0.516800  0.418900  1.0  0.1167
  H  H70  1  0.128300  0.441500  0.430600  1.0  0.138
  H  H71  1  0.329100  0.443300  0.433000  1.0  0.0711
  H  H72  1  0.547600  0.623200  0.275300  1.0  0.2667
  H  H73  1  0.082400  0.639000  0.233700  1.0  0.2958
  H  H74  1  0.505100  0.772100  0.185200  1.0  0.2833
  H  H75  1  0.424400  0.025400  0.145000  1.0  0.0897
  H  H76  1  0.632900  0.095400  0.180900  1.0  0.1089
  H  H77  1  0.593900  0.016600  0.196800  1.0  0.1103
  H  H78  1  0.634000  0.033900  0.136100  1.0  0.1203
  H  H79  1  0.092400  0.111200  0.256400  1.0  0.1089
  H  H80  1  0.127600  0.284200  0.353200  1.0  0.1198
  H  H81  1  0.391900  0.225000  0.250900  1.0  0.1152
  H  H82  1  0.774500  0.035500  0.276000  1.0  0.1181
  H  H83  1  0.809200  0.029100  0.338700  1.0  0.1135
  H  H84  1  0.676400  0.040900  0.321800  1.0  0.1164
  H  H85  1  0.763600  0.147600  0.353900  1.0  0.0972
  H  H86  1  0.691200  0.306400  0.343000  1.0  0.1155
  H  H87  1  0.670100  0.352000  0.289100  1.0  0.1171
  H  H88  1  0.718900  0.389600  0.342700  1.0  0.1138
  H  H89  1  0.515000  0.414400  0.331300  1.0  0.084
  H  H90  1  0.872500  0.259300  0.948600  1.0  0.1205
  H  H91  1  0.671800  0.255000  0.951300  1.0  0.0749
  H  H92  1  0.678600  0.153900  0.091300  1.0  0.075
  H  H93  1  0.878500  0.157900  0.094000  1.0  0.1336
  H  H94  1  0.056100  0.234200  0.099800  1.0  0.1254
  H  H95  1  0.258900  0.231000  0.097400  1.0  0.0898
  H  H96  1  0.251900  0.172500  0.943700  1.0  0.0709
  H  H97  1  0.052700  0.178700  0.940500  1.0  0.1284
  H  H98  1  0.501200  0.332900  0.086400  1.0  0.0859
  H  H99  1  0.493800  0.454800  0.082400  1.0  0.1335
  H  H100  1  0.409700  0.436200  0.923700  1.0  0.1218
  H  H101  1  0.417500  0.314600  0.933800  1.0  0.0752
  H  H102  1  0.250900  0.018000  0.079200  1.0  0.0847
  H  H103  1  0.052200  0.016800  0.081100  1.0  0.1161
  H  H104  1  0.871700  0.941500  0.069400  1.0  0.1387
  H  H105  1  0.670900  0.943300  0.067000  1.0  0.0704
  H  H106  1  0.452400  0.123200  0.224700  1.0  0.2667
  H  H107  1  0.917600  0.139000  0.266300  1.0  0.2972
  H  H108  1  0.494900  0.272100  0.314800  1.0  0.2838
  H  H109  1  0.424400  0.974600  0.855000  1.0  0.0874
  H  H110  1  0.632900  0.904600  0.819100  1.0  0.1098
  H  H111  1  0.593900  0.983400  0.803200  1.0  0.1105
  H  H112  1  0.634000  0.966100  0.863900  1.0  0.1209
  H  H113  1  0.092400  0.888800  0.743600  1.0  0.108
  H  H114  1  0.127600  0.715800  0.646800  1.0  0.1186
  H  H115  1  0.391900  0.775000  0.749100  1.0  0.1157
  H  H116  1  0.774500  0.964500  0.724000  1.0  0.1166
  H  H117  1  0.809200  0.970900  0.661300  1.0  0.1141
  H  H118  1  0.676400  0.959100  0.678200  1.0  0.1171
  H  H119  1  0.763600  0.852400  0.646100  1.0  0.0976
  H  H120  1  0.691200  0.693600  0.657000  1.0  0.1145
  H  H121  1  0.670100  0.648000  0.710900  1.0  0.1158
  H  H122  1  0.718900  0.610400  0.657300  1.0  0.1126
  H  H123  1  0.515000  0.585600  0.668700  1.0  0.0844
  H  H124  1  0.872500  0.740700  0.051400  1.0  0.1202
  H  H125  1  0.671800  0.745000  0.048700  1.0  0.0749
  H  H126  1  0.678600  0.846100  0.908700  1.0  0.074
  H  H127  1  0.878500  0.842100  0.906000  1.0  0.1341
  H  H128  1  0.056100  0.765800  0.900200  1.0  0.1249
  H  H129  1  0.258900  0.769000  0.902600  1.0  0.0902
  H  H130  1  0.251900  0.827500  0.056300  1.0  0.0704
  H  H131  1  0.052700  0.821300  0.059500  1.0  0.128
  H  H132  1  0.501200  0.667100  0.913600  1.0  0.086
  H  H133  1  0.493800  0.545200  0.917600  1.0  0.1341
  H  H134  1  0.409700  0.563800  0.076300  1.0  0.1229
  H  H135  1  0.417500  0.685400  0.066200  1.0  0.0752
  H  H136  1  0.250900  0.982000  0.920800  1.0  0.0843
  H  H137  1  0.052200  0.983200  0.918900  1.0  0.1166
  H  H138  1  0.871700  0.058500  0.930600  1.0  0.1381
  H  H139  1  0.670900  0.056700  0.933000  1.0  0.0704
  H  H140  1  0.452400  0.876800  0.775300  1.0  0.2674
  H  H141  1  0.917600  0.861000  0.733700  1.0  0.2954
  H  H142  1  0.494900  0.727900  0.685200  1.0  0.2838
  C  C143  1  0.537800  0.382500  0.601500  1.0  0.6303
  C  C144  1  0.533400  0.429400  0.652700  1.0  0.0789
  C  C145  1  0.406500  0.447500  0.668000  1.0  -0.3352
  C  C146  1  0.705800  0.385400  0.701700  1.0  0.5552
  C  C147  1  0.752100  0.338800  0.747000  1.0  -0.0806
  C  C148  1  0.862400  0.349800  0.768600  1.0  -0.0963
  C  C149  1  0.907000  0.304800  0.807600  1.0  -0.0713
  C  C150  1  0.840500  0.247600  0.827200  1.0  -0.0825
  C  C151  1  0.725600  0.237800  0.807900  1.0  -0.1099
  C  C152  1  0.682900  0.282900  0.765900  1.0  -0.1576
  C  C153  1  0.026400  0.316500  0.830900  1.0  0.5544
  C  C154  1  0.242900  0.447700  0.812700  1.0  -0.3436
  C  C155  1  0.225400  0.367500  0.815300  1.0  0.0464
  C  C156  1  0.314900  0.327900  0.780700  1.0  0.6768
  C  C157  1  0.652200  0.179200  0.831100  1.0  0.5591
  C  C158  1  0.333100  0.147300  0.828900  1.0  -0.35
  C  C159  1  0.459000  0.131600  0.847500  1.0  0.0754
  C  C160  1  0.463300  0.125900  0.910200  1.0  0.652
  C  C161  1  0.165400  0.263200  0.478200  1.0  -0.2081
  C  C162  1  0.285900  0.266000  0.480200  1.0  0.1636
  C  C163  1  0.281900  0.324500  0.561800  1.0  0.1725
  C  C164  1  0.161600  0.323200  0.563600  1.0  -0.2165
  C  C165  1  0.100000  0.293900  0.520300  1.0  0.1179
  C  C166  1  0.970000  0.293700  0.520700  1.0  0.1159
  C  C167  1  0.905400  0.278200  0.567100  1.0  -0.2065
  C  C168  1  0.783600  0.281000  0.565600  1.0  0.1605
  C  C169  1  0.788400  0.314400  0.475800  1.0  0.1889
  C  C170  1  0.907600  0.311500  0.473500  1.0  -0.216
  C  C171  1  0.518800  0.145600  0.552800  1.0  0.1779
  C  C172  1  0.522700  0.072500  0.550900  1.0  -0.2205
  C  C173  1  0.550900  0.039600  0.502400  1.0  0.1138
  C  C174  1  0.572200  0.083600  0.458100  1.0  -0.23
  C  C175  1  0.566700  0.156500  0.464600  1.0  0.1856
  C  C176  1  0.790000  0.489700  0.546300  1.0  0.171
  C  C177  1  0.909000  0.490000  0.547500  1.0  -0.2032
  C  C178  1  0.167200  0.534400  0.540800  1.0  -0.2023
  C  C179  1  0.288000  0.532900  0.538900  1.0  0.1806
  C  C180  1  0.537800  0.617500  0.398500  1.0  0.6257
  C  C181  1  0.533400  0.570600  0.347300  1.0  0.0787
  C  C182  1  0.406500  0.552500  0.332000  1.0  -0.3354
  C  C183  1  0.705800  0.614600  0.298300  1.0  0.5563
  C  C184  1  0.752100  0.661200  0.253000  1.0  -0.0802
  C  C185  1  0.862400  0.650200  0.231400  1.0  -0.0955
  C  C186  1  0.907000  0.695200  0.192400  1.0  -0.0706
  C  C187  1  0.840500  0.752400  0.172800  1.0  -0.0824
  C  C188  1  0.725600  0.762200  0.192100  1.0  -0.1098
  C  C189  1  0.682900  0.717100  0.234100  1.0  -0.1576
  C  C190  1  0.026400  0.683500  0.169100  1.0  0.5543
  C  C191  1  0.242900  0.552300  0.187300  1.0  -0.343
  C  C192  1  0.225400  0.632500  0.184700  1.0  0.0469
  C  C193  1  0.314900  0.672100  0.219300  1.0  0.6788
  C  C194  1  0.652200  0.820800  0.168900  1.0  0.5564
  C  C195  1  0.333100  0.852700  0.171100  1.0  -0.3493
  C  C196  1  0.459000  0.868400  0.152500  1.0  0.0751
  C  C197  1  0.463300  0.874100  0.089800  1.0  0.6532
  C  C198  1  0.165400  0.736800  0.521800  1.0  -0.2074
  C  C199  1  0.285900  0.734000  0.519800  1.0  0.1653
  C  C200  1  0.281900  0.675500  0.438200  1.0  0.1717
  C  C201  1  0.161600  0.676800  0.436400  1.0  -0.2165
  C  C202  1  0.100000  0.706100  0.479700  1.0  0.118
  C  C203  1  0.970000  0.706300  0.479300  1.0  0.1161
  C  C204  1  0.905400  0.721800  0.432900  1.0  -0.2041
  C  C205  1  0.783600  0.719000  0.434400  1.0  0.1596
  C  C206  1  0.788400  0.685600  0.524200  1.0  0.1886
  C  C207  1  0.907600  0.688500  0.526500  1.0  -0.2151
  C  C208  1  0.518800  0.854400  0.447200  1.0  0.177
  C  C209  1  0.522700  0.927500  0.449100  1.0  -0.2196
  C  C210  1  0.550900  0.960400  0.497600  1.0  0.1137
  C  C211  1  0.572200  0.916400  0.541900  1.0  -0.2299
  C  C212  1  0.566700  0.843500  0.535400  1.0  0.1861
  C  C213  1  0.790000  0.510300  0.453700  1.0  0.1723
  C  C214  1  0.909000  0.510000  0.452500  1.0  -0.2037
  C  C215  1  0.167200  0.465600  0.459200  1.0  -0.2028
  C  C216  1  0.288000  0.467100  0.461100  1.0  0.1792
  C  C217  1  0.462200  0.117500  0.101500  1.0  0.6298
  C  C218  1  0.466600  0.070600  0.152700  1.0  0.0793
  C  C219  1  0.593500  0.052500  0.168000  1.0  -0.3342
  C  C220  1  0.294200  0.114600  0.201700  1.0  0.556
  C  C221  1  0.247900  0.161200  0.247000  1.0  -0.0803
  C  C222  1  0.137600  0.150200  0.268600  1.0  -0.0942
  C  C223  1  0.093000  0.195200  0.307600  1.0  -0.0708
  C  C224  1  0.159500  0.252400  0.327200  1.0  -0.0838
  C  C225  1  0.274400  0.262200  0.307900  1.0  -0.1105
  C  C226  1  0.317100  0.217100  0.265900  1.0  -0.157
  C  C227  1  0.973600  0.183500  0.330900  1.0  0.5542
  C  C228  1  0.757100  0.052300  0.312700  1.0  -0.3427
  C  C229  1  0.774600  0.132500  0.315300  1.0  0.046
  C  C230  1  0.685100  0.172100  0.280700  1.0  0.6755
  C  C231  1  0.347800  0.320800  0.331100  1.0  0.5572
  C  C232  1  0.666900  0.352700  0.328900  1.0  -0.3491
  C  C233  1  0.541000  0.368400  0.347500  1.0  0.0757
  C  C234  1  0.536700  0.374100  0.410200  1.0  0.6521
  C  C235  1  0.834600  0.236800  0.978200  1.0  -0.2078
  C  C236  1  0.714100  0.234000  0.980200  1.0  0.1656
  C  C237  1  0.718100  0.175500  0.061800  1.0  0.172
  C  C238  1  0.838400  0.176800  0.063600  1.0  -0.2177
  C  C239  1  0.900000  0.206100  0.020300  1.0  0.1176
  C  C240  1  0.030000  0.206300  0.020700  1.0  0.1158
  C  C241  1  0.094600  0.221800  0.067100  1.0  -0.2054
  C  C242  1  0.216400  0.219000  0.065600  1.0  0.1601
  C  C243  1  0.211600  0.185600  0.975800  1.0  0.1894
  C  C244  1  0.092400  0.188500  0.973500  1.0  -0.2169
  C  C245  1  0.481200  0.354400  0.052800  1.0  0.1783
  C  C246  1  0.477300  0.427500  0.050900  1.0  -0.2194
  C  C247  1  0.449100  0.460400  0.002400  1.0  0.1135
  C  C248  1  0.427800  0.416400  0.958100  1.0  -0.231
  C  C249  1  0.433300  0.343500  0.964600  1.0  0.1843
  C  C250  1  0.210000  0.010300  0.046300  1.0  0.1713
  C  C251  1  0.091000  0.010000  0.047500  1.0  -0.2025
  C  C252  1  0.832800  0.965600  0.040800  1.0  -0.2024
  C  C253  1  0.712000  0.967100  0.038900  1.0  0.1808
  C  C254  1  0.462200  0.882500  0.898500  1.0  0.6262
  C  C255  1  0.466600  0.929400  0.847300  1.0  0.0788
  C  C256  1  0.593500  0.947500  0.832000  1.0  -0.3347
  C  C257  1  0.294200  0.885400  0.798300  1.0  0.5551
  C  C258  1  0.247900  0.838800  0.753000  1.0  -0.0804
  C  C259  1  0.137600  0.849800  0.731400  1.0  -0.0962
  C  C260  1  0.093000  0.804800  0.692400  1.0  -0.0706
  C  C261  1  0.159500  0.747600  0.672800  1.0  -0.0838
  C  C262  1  0.274400  0.737800  0.692100  1.0  -0.1103
  C  C263  1  0.317100  0.782900  0.734100  1.0  -0.1565
  C  C264  1  0.973600  0.816500  0.669100  1.0  0.5561
  C  C265  1  0.757100  0.947700  0.687300  1.0  -0.3431
  C  C266  1  0.774600  0.867500  0.684700  1.0  0.0467
  C  C267  1  0.685100  0.827900  0.719300  1.0  0.6791
  C  C268  1  0.347800  0.679200  0.668900  1.0  0.5573
  C  C269  1  0.666900  0.647300  0.671100  1.0  -0.3486
  C  C270  1  0.541000  0.631600  0.652500  1.0  0.0744
  C  C271  1  0.536700  0.625900  0.589800  1.0  0.653
  C  C272  1  0.834600  0.763200  0.021800  1.0  -0.2077
  C  C273  1  0.714100  0.766000  0.019800  1.0  0.1649
  C  C274  1  0.718100  0.824500  0.938200  1.0  0.1723
  C  C275  1  0.838400  0.823200  0.936400  1.0  -0.2148
  C  C276  1  0.900000  0.793900  0.979700  1.0  0.1189
  C  C277  1  0.030000  0.793700  0.979300  1.0  0.115
  C  C278  1  0.094600  0.778200  0.932900  1.0  -0.2017
  C  C279  1  0.216400  0.781000  0.934400  1.0  0.161
  C  C280  1  0.211600  0.814400  0.024200  1.0  0.1882
  C  C281  1  0.092400  0.811500  0.026500  1.0  -0.2162
  C  C282  1  0.481200  0.645600  0.947200  1.0  0.1771
  C  C283  1  0.477300  0.572500  0.949100  1.0  -0.2199
  C  C284  1  0.449100  0.539600  0.997600  1.0  0.1136
  C  C285  1  0.427800  0.583600  0.041900  1.0  -0.2304
  C  C286  1  0.433300  0.656500  0.035400  1.0  0.186
  C  C287  1  0.210000  0.989700  0.953700  1.0  0.1722
  C  C288  1  0.091000  0.990000  0.952500  1.0  -0.2022
  C  C289  1  0.832800  0.034400  0.959200  1.0  -0.2039
  C  C290  1  0.712000  0.032900  0.961100  1.0  0.1792
  C  C291  1  0.974800  0.500000  0.500000  1.0  0.1047
  C  C292  1  0.103600  0.500000  0.500000  1.0  0.1015
  C  C293  1  0.025200  0.000000  0.000000  1.0  0.1042
  C  C294  1  0.896400  0.000000  0.000000  1.0  0.1026
  N  N295  1  0.591000  0.393600  0.698300  1.0  -0.4078
  N  N296  1  0.104500  0.349300  0.799300  1.0  -0.3995
  N  N297  1  0.534600  0.188500  0.828090  1.0  -0.4033
  N  N298  1  0.347300  0.297200  0.521100  1.0  -0.3177
  N  N299  1  0.725000  0.300000  0.520300  1.0  -0.3048
  N  N300  1  0.540900  0.188600  0.510960  1.0  -0.3098
  N  N301  1  0.591000  0.606400  0.301700  1.0  -0.4069
  N  N302  1  0.104500  0.650700  0.200700  1.0  -0.4012
  N  N303  1  0.534600  0.811500  0.171910  1.0  -0.4037
  N  N304  1  0.347300  0.702800  0.478900  1.0  -0.3194
  N  N305  1  0.725000  0.700000  0.479700  1.0  -0.3049
  N  N306  1  0.540900  0.811400  0.489040  1.0  -0.3112
  N  N307  1  0.409000  0.106400  0.198300  1.0  -0.4084
  N  N308  1  0.895500  0.150700  0.299300  1.0  -0.4001
  N  N309  1  0.465400  0.311500  0.328090  1.0  -0.4051
  N  N310  1  0.652700  0.202800  0.021100  1.0  -0.3196
  N  N311  1  0.275000  0.200000  0.020300  1.0  -0.3049
  N  N312  1  0.459100  0.311400  0.010960  1.0  -0.3105
  N  N313  1  0.409000  0.893600  0.801700  1.0  -0.407
  N  N314  1  0.895500  0.849300  0.700700  1.0  -0.4025
  N  N315  1  0.465400  0.688500  0.671910  1.0  -0.4034
  N  N316  1  0.652700  0.797200  0.978900  1.0  -0.3198
  N  N317  1  0.275000  0.800000  0.979700  1.0  -0.3043
  N  N318  1  0.459100  0.688600  0.989040  1.0  -0.3104
  N  N319  1  0.728100  0.500000  0.500000  1.0  -0.3431
  N  N320  1  0.351100  0.500000  0.500000  1.0  -0.3293
  N  N321  1  0.271900  0.000000  0.000000  1.0  -0.3435
  N  N322  1  0.648900  0.000000  0.000000  1.0  -0.3301
  O  O323  1  0.535600  0.409280  0.553720  1.0  -0.6339
  O  O324  1  0.538300  0.314300  0.606400  1.0  -0.5914
  O  O325  1  0.773600  0.413100  0.667600  1.0  -0.5939
  O  O326  1  0.280100  0.293700  0.739800  1.0  -0.5922
  O  O327  1  0.421300  0.334500  0.794600  1.0  -0.5937
  O  O328  1  0.050900  0.298900  0.878900  1.0  -0.5554
  O  O329  1  0.471300  0.183200  0.937240  1.0  -0.5864
  O  O330  1  0.452900  0.063700  0.930180  1.0  -0.6112
  O  O331  1  0.695800  0.126100  0.851700  1.0  -0.5511
  O  O332  1  0.535600  0.590720  0.446280  1.0  -0.6355
  O  O333  1  0.538300  0.685700  0.393600  1.0  -0.5901
  O  O334  1  0.773600  0.586900  0.332400  1.0  -0.5951
  O  O335  1  0.280100  0.706300  0.260200  1.0  -0.5979
  O  O336  1  0.421300  0.665500  0.205400  1.0  -0.5933
  O  O337  1  0.050900  0.701100  0.121100  1.0  -0.5562
  O  O338  1  0.471300  0.816800  0.062760  1.0  -0.5865
  O  O339  1  0.452900  0.936300  0.069820  1.0  -0.6109
  O  O340  1  0.695800  0.873900  0.148300  1.0  -0.5517
  O  O341  1  0.464400  0.090720  0.053720  1.0  -0.6345
  O  O342  1  0.461700  0.185700  0.106400  1.0  -0.5899
  O  O343  1  0.226400  0.086900  0.167600  1.0  -0.5953
  O  O344  1  0.719900  0.206300  0.239800  1.0  -0.5957
  O  O345  1  0.578700  0.165500  0.294600  1.0  -0.5929
  O  O346  1  0.949100  0.201100  0.378900  1.0  -0.5559
  O  O347  1  0.528700  0.316800  0.437240  1.0  -0.5856
  O  O348  1  0.547100  0.436300  0.430180  1.0  -0.6098
  O  O349  1  0.304200  0.373900  0.351700  1.0  -0.5521
  O  O350  1  0.464400  0.909280  0.946280  1.0  -0.6354
  O  O351  1  0.461700  0.814300  0.893600  1.0  -0.5919
  O  O352  1  0.226400  0.913100  0.832400  1.0  -0.5955
  O  O353  1  0.719900  0.793700  0.760200  1.0  -0.5958
  O  O354  1  0.578700  0.834500  0.705400  1.0  -0.5927
  O  O355  1  0.949100  0.798900  0.621100  1.0  -0.5553
  O  O356  1  0.528700  0.683200  0.562760  1.0  -0.5863
  O  O357  1  0.547100  0.563700  0.569820  1.0  -0.6087
  O  O358  1  0.304200  0.626100  0.648300  1.0  -0.5519
