# generated using pymatgen
data_Ni3H68C76(N7O9)2
_symmetry_space_group_name_H-M   'P 1'
_cell_length_a   11.29700000
_cell_length_b   18.49500000
_cell_length_c   24.21500000
_cell_angle_alpha   90.00000000
_cell_angle_beta   90.00000000
_cell_angle_gamma   90.00000000
_symmetry_Int_Tables_number   1
_chemical_formula_structural   Ni3H68C76(N7O9)2
_chemical_formula_sum   'Ni6 H136 C152 N28 O36'
_cell_volume   5059.43403323
_cell_formula_units_Z   2
loop_
 _symmetry_equiv_pos_site_id
 _symmetry_equiv_pos_as_xyz
  1  'x, y, z'
loop_
 _atom_site_type_symbol
 _atom_site_label
 _atom_site_symmetry_multiplicity
 _atom_site_fract_x
 _atom_site_fract_y
 _atom_site_fract_z
 _atom_site_occupancy
 _atom_site_charge
  Ni  Ni1  1  0.532930  0.301030  0.522090  1.0  0.811
  Ni  Ni2  1  0.532930  0.698970  0.477910  1.0  0.8101
  Ni  Ni3  1  0.467070  0.198970  0.022090  1.0  0.811
  Ni  Ni4  1  0.467070  0.801030  0.977910  1.0  0.8088
  Ni  Ni5  1  0.534930  0.500000  0.500000  1.0  0.8094
  Ni  Ni6  1  0.465070  0.000000  0.000000  1.0  0.8088
  H  H7  1  0.574800  0.479000  0.645000  1.0  0.087
  H  H8  1  0.364900  0.408600  0.682000  1.0  0.1127
  H  H9  1  0.403200  0.488700  0.696700  1.0  0.1103
  H  H10  1  0.363300  0.469300  0.635800  1.0  0.1128
  H  H11  1  0.913000  0.394200  0.754300  1.0  0.111
  H  H12  1  0.875100  0.223000  0.855400  1.0  0.1117
  H  H13  1  0.611300  0.277100  0.750700  1.0  0.1151
  H  H14  1  0.244400  0.473100  0.776600  1.0  0.1215
  H  H15  1  0.194400  0.483100  0.837200  1.0  0.11
  H  H16  1  0.331300  0.469300  0.827900  1.0  0.1155
  H  H17  1  0.240400  0.361200  0.858100  1.0  0.0997
  H  H18  1  0.308000  0.195700  0.847500  1.0  0.1152
  H  H19  1  0.330200  0.153100  0.791700  1.0  0.1181
  H  H20  1  0.283300  0.111500  0.844500  1.0  0.1148
  H  H21  1  0.487300  0.089100  0.832500  1.0  0.0688
  H  H22  1  0.123800  0.243300  0.450700  1.0  0.1262
  H  H23  1  0.327200  0.249400  0.452400  1.0  0.0765
  H  H24  1  0.322800  0.341200  0.598000  1.0  0.0817
  H  H25  1  0.121800  0.341200  0.599400  1.0  0.131
  H  H26  1  0.940400  0.275100  0.605700  1.0  0.1302
  H  H27  1  0.736300  0.278100  0.602100  1.0  0.0878
  H  H28  1  0.743900  0.324400  0.444600  1.0  0.0779
  H  H29  1  0.946700  0.318000  0.442400  1.0  0.1324
  H  H30  1  0.494100  0.167300  0.589900  1.0  0.0861
  H  H31  1  0.506100  0.042900  0.583700  1.0  0.1321
  H  H32  1  0.605500  0.065000  0.425700  1.0  0.1189
  H  H33  1  0.593200  0.189300  0.436100  1.0  0.0838
  H  H34  1  0.740200  0.484800  0.579800  1.0  0.0811
  H  H35  1  0.942900  0.486000  0.582600  1.0  0.1281
  H  H36  1  0.124400  0.560400  0.569100  1.0  0.1252
  H  H37  1  0.327800  0.559800  0.566700  1.0  0.072
  H  H38  1  0.546100  0.381900  0.726600  1.0  0.2704
  H  H39  1  0.086400  0.375300  0.769600  1.0  0.314
  H  H40  1  0.509200  0.233000  0.817500  1.0  0.2867
  H  H41  1  0.574800  0.521000  0.355000  1.0  0.0878
  H  H42  1  0.364900  0.591400  0.318000  1.0  0.1128
  H  H43  1  0.403200  0.511300  0.303300  1.0  0.1101
  H  H44  1  0.363300  0.530700  0.364200  1.0  0.1127
  H  H45  1  0.913000  0.605800  0.245700  1.0  0.1116
  H  H46  1  0.875100  0.777000  0.144600  1.0  0.1112
  H  H47  1  0.611300  0.722900  0.249300  1.0  0.1153
  H  H48  1  0.244400  0.526900  0.223400  1.0  0.1208
  H  H49  1  0.194400  0.516900  0.162800  1.0  0.1102
  H  H50  1  0.331300  0.530700  0.172100  1.0  0.1146
  H  H51  1  0.240400  0.638800  0.141900  1.0  0.1008
  H  H52  1  0.308000  0.804300  0.152500  1.0  0.1155
  H  H53  1  0.330200  0.846900  0.208300  1.0  0.118
  H  H54  1  0.283300  0.888500  0.155500  1.0  0.1145
  H  H55  1  0.487300  0.910900  0.167500  1.0  0.0673
  H  H56  1  0.123800  0.756700  0.549300  1.0  0.1268
  H  H57  1  0.327200  0.750600  0.547600  1.0  0.0758
  H  H58  1  0.322800  0.658800  0.402000  1.0  0.0815
  H  H59  1  0.121800  0.658800  0.400600  1.0  0.1304
  H  H60  1  0.940400  0.724900  0.394300  1.0  0.1297
  H  H61  1  0.736300  0.721900  0.397900  1.0  0.0879
  H  H62  1  0.743900  0.675600  0.555400  1.0  0.077
  H  H63  1  0.946700  0.682000  0.557600  1.0  0.1315
  H  H64  1  0.494100  0.832700  0.410100  1.0  0.0873
  H  H65  1  0.506100  0.957100  0.416300  1.0  0.1323
  H  H66  1  0.605500  0.935000  0.574300  1.0  0.1189
  H  H67  1  0.593200  0.810700  0.563900  1.0  0.0843
  H  H68  1  0.740200  0.515200  0.420200  1.0  0.0814
  H  H69  1  0.942900  0.514000  0.417400  1.0  0.1286
  H  H70  1  0.124400  0.439600  0.430900  1.0  0.1253
  H  H71  1  0.327800  0.440200  0.433300  1.0  0.0727
  H  H72  1  0.546100  0.618100  0.273400  1.0  0.271
  H  H73  1  0.086400  0.624700  0.230400  1.0  0.3134
  H  H74  1  0.509200  0.767000  0.182500  1.0  0.285
  H  H75  1  0.425200  0.021000  0.145000  1.0  0.0877
  H  H76  1  0.635100  0.091400  0.182000  1.0  0.1121
  H  H77  1  0.596800  0.011300  0.196700  1.0  0.1098
  H  H78  1  0.636700  0.030700  0.135800  1.0  0.1156
  H  H79  1  0.087000  0.105800  0.254300  1.0  0.1117
  H  H80  1  0.124900  0.277000  0.355400  1.0  0.1105
  H  H81  1  0.388700  0.222900  0.250700  1.0  0.1146
  H  H82  1  0.755600  0.026900  0.276600  1.0  0.1219
  H  H83  1  0.805600  0.016900  0.337200  1.0  0.1111
  H  H84  1  0.668700  0.030700  0.327900  1.0  0.1165
  H  H85  1  0.759600  0.138800  0.358100  1.0  0.0999
  H  H86  1  0.692000  0.304300  0.347500  1.0  0.1147
  H  H87  1  0.669800  0.346900  0.291700  1.0  0.1193
  H  H88  1  0.716700  0.388500  0.344500  1.0  0.1152
  H  H89  1  0.512700  0.410900  0.332500  1.0  0.0688
  H  H90  1  0.876200  0.256700  0.950700  1.0  0.1272
  H  H91  1  0.672800  0.250600  0.952400  1.0  0.0764
  H  H92  1  0.677200  0.158800  0.098000  1.0  0.0807
  H  H93  1  0.878200  0.158800  0.099400  1.0  0.1305
  H  H94  1  0.059600  0.224900  0.105700  1.0  0.13
  H  H95  1  0.263700  0.221900  0.102100  1.0  0.088
  H  H96  1  0.256100  0.175600  0.944600  1.0  0.0772
  H  H97  1  0.053300  0.182000  0.942400  1.0  0.1327
  H  H98  1  0.505900  0.332700  0.089900  1.0  0.0863
  H  H99  1  0.493900  0.457100  0.083700  1.0  0.1321
  H  H100  1  0.394500  0.435000  0.925700  1.0  0.1189
  H  H101  1  0.406800  0.310700  0.936100  1.0  0.0839
  H  H102  1  0.259800  0.015200  0.079800  1.0  0.0809
  H  H103  1  0.057100  0.014000  0.082600  1.0  0.1281
  H  H104  1  0.875600  0.939600  0.069100  1.0  0.1249
  H  H105  1  0.672200  0.940200  0.066700  1.0  0.0725
  H  H106  1  0.453900  0.118100  0.226600  1.0  0.2694
  H  H107  1  0.913600  0.124700  0.269600  1.0  0.3135
  H  H108  1  0.490800  0.267000  0.317500  1.0  0.2863
  H  H109  1  0.425200  0.979000  0.855000  1.0  0.0866
  H  H110  1  0.635100  0.908600  0.818000  1.0  0.1125
  H  H111  1  0.596800  0.988700  0.803300  1.0  0.1089
  H  H112  1  0.636700  0.969300  0.864200  1.0  0.1155
  H  H113  1  0.087000  0.894200  0.745700  1.0  0.1109
  H  H114  1  0.124900  0.723000  0.644600  1.0  0.1109
  H  H115  1  0.388700  0.777100  0.749300  1.0  0.1151
  H  H116  1  0.755600  0.973100  0.723400  1.0  0.12
  H  H117  1  0.805600  0.983100  0.662800  1.0  0.1109
  H  H118  1  0.668700  0.969300  0.672100  1.0  0.1166
  H  H119  1  0.759600  0.861200  0.641900  1.0  0.1014
  H  H120  1  0.692000  0.695700  0.652500  1.0  0.1141
  H  H121  1  0.669800  0.653100  0.708300  1.0  0.1175
  H  H122  1  0.716700  0.611500  0.655500  1.0  0.114
  H  H123  1  0.512700  0.589100  0.667500  1.0  0.0678
  H  H124  1  0.876200  0.743300  0.049300  1.0  0.1265
  H  H125  1  0.672800  0.749400  0.047600  1.0  0.0766
  H  H126  1  0.677200  0.841200  0.902000  1.0  0.0798
  H  H127  1  0.878200  0.841200  0.900600  1.0  0.1305
  H  H128  1  0.059600  0.775100  0.894300  1.0  0.13
  H  H129  1  0.263700  0.778100  0.897900  1.0  0.0881
  H  H130  1  0.256100  0.824400  0.055400  1.0  0.0777
  H  H131  1  0.053300  0.818000  0.057600  1.0  0.1318
  H  H132  1  0.505900  0.667300  0.910100  1.0  0.087
  H  H133  1  0.493900  0.542900  0.916300  1.0  0.1327
  H  H134  1  0.394500  0.565000  0.074300  1.0  0.1193
  H  H135  1  0.406800  0.689300  0.063900  1.0  0.0841
  H  H136  1  0.259800  0.984800  0.920200  1.0  0.0811
  H  H137  1  0.057100  0.986000  0.917400  1.0  0.1285
  H  H138  1  0.875600  0.060400  0.930900  1.0  0.1251
  H  H139  1  0.672200  0.059800  0.933300  1.0  0.073
  H  H140  1  0.453900  0.881900  0.773400  1.0  0.2712
  H  H141  1  0.913600  0.875300  0.730400  1.0  0.3127
  H  H142  1  0.490800  0.733000  0.682500  1.0  0.286
  C  C143  1  0.535610  0.384410  0.602710  1.0  0.6362
  C  C144  1  0.532110  0.433580  0.653500  1.0  0.0787
  C  C145  1  0.404270  0.451700  0.668350  1.0  -0.3294
  C  C146  1  0.708550  0.391460  0.701760  1.0  0.5387
  C  C147  1  0.753560  0.343310  0.746700  1.0  -0.056
  C  C148  1  0.867490  0.355440  0.767670  1.0  -0.0796
  C  C149  1  0.913110  0.310280  0.808170  1.0  -0.1363
  C  C150  1  0.844200  0.253810  0.828150  1.0  -0.0608
  C  C151  1  0.729770  0.242200  0.808350  1.0  -0.0897
  C  C152  1  0.686280  0.286300  0.766010  1.0  -0.1085
  C  C153  1  0.035500  0.321290  0.832050  1.0  0.5904
  C  C154  1  0.252300  0.457910  0.814760  1.0  -0.3456
  C  C155  1  0.231420  0.375720  0.818940  1.0  0.0673
  C  C156  1  0.322600  0.334050  0.784460  1.0  0.685
  C  C157  1  0.656860  0.183210  0.831770  1.0  0.5481
  C  C158  1  0.334120  0.150240  0.831640  1.0  -0.3458
  C  C159  1  0.461380  0.135200  0.849310  1.0  0.079
  C  C160  1  0.466310  0.127800  0.912300  1.0  0.6481
  C  C161  1  0.162750  0.264780  0.480840  1.0  -0.2356
  C  C162  1  0.284830  0.268160  0.482580  1.0  0.1734
  C  C163  1  0.282200  0.322160  0.567390  1.0  0.1698
  C  C164  1  0.161990  0.322100  0.568710  1.0  -0.2029
  C  C165  1  0.098620  0.293660  0.524490  1.0  0.0855
  C  C166  1  0.967620  0.295430  0.524100  1.0  0.0963
  C  C167  1  0.901910  0.284360  0.572010  1.0  -0.2169
  C  C168  1  0.779530  0.287050  0.569650  1.0  0.1651
  C  C169  1  0.784380  0.313440  0.477480  1.0  0.1767
  C  C170  1  0.905990  0.310260  0.475750  1.0  -0.2057
  C  C171  1  0.516700  0.146460  0.556120  1.0  0.1667
  C  C172  1  0.523000  0.071680  0.552680  1.0  -0.2096
  C  C173  1  0.554030  0.040340  0.503510  1.0  0.0626
  C  C174  1  0.581800  0.084910  0.459720  1.0  -0.2147
  C  C175  1  0.574400  0.159430  0.466220  1.0  0.1652
  C  C176  1  0.781980  0.491330  0.546650  1.0  0.1665
  C  C177  1  0.903480  0.491520  0.548700  1.0  -0.2032
  C  C178  1  0.163740  0.535700  0.540630  1.0  -0.1896
  C  C179  1  0.286140  0.534780  0.539060  1.0  0.1744
  C  C180  1  0.535610  0.615590  0.397290  1.0  0.6335
  C  C181  1  0.532110  0.566420  0.346500  1.0  0.0784
  C  C182  1  0.404270  0.548300  0.331650  1.0  -0.3293
  C  C183  1  0.708550  0.608540  0.298240  1.0  0.5399
  C  C184  1  0.753560  0.656690  0.253300  1.0  -0.056
  C  C185  1  0.867490  0.644560  0.232330  1.0  -0.0779
  C  C186  1  0.913110  0.689720  0.191830  1.0  -0.1359
  C  C187  1  0.844200  0.746190  0.171850  1.0  -0.0599
  C  C188  1  0.729770  0.757800  0.191650  1.0  -0.0892
  C  C189  1  0.686280  0.713700  0.233990  1.0  -0.1097
  C  C190  1  0.035500  0.678710  0.167950  1.0  0.5933
  C  C191  1  0.252300  0.542090  0.185240  1.0  -0.3452
  C  C192  1  0.231420  0.624280  0.181060  1.0  0.0689
  C  C193  1  0.322600  0.665950  0.215540  1.0  0.6853
  C  C194  1  0.656860  0.816790  0.168230  1.0  0.5467
  C  C195  1  0.334120  0.849760  0.168360  1.0  -0.3454
  C  C196  1  0.461380  0.864800  0.150690  1.0  0.0797
  C  C197  1  0.466310  0.872200  0.087700  1.0  0.6491
  C  C198  1  0.162750  0.735220  0.519160  1.0  -0.2339
  C  C199  1  0.284830  0.731840  0.517420  1.0  0.1718
  C  C200  1  0.282200  0.677840  0.432610  1.0  0.1681
  C  C201  1  0.161990  0.677900  0.431290  1.0  -0.2018
  C  C202  1  0.098620  0.706340  0.475510  1.0  0.0848
  C  C203  1  0.967620  0.704570  0.475900  1.0  0.0958
  C  C204  1  0.901910  0.715640  0.427990  1.0  -0.2158
  C  C205  1  0.779530  0.712950  0.430350  1.0  0.1649
  C  C206  1  0.784380  0.686560  0.522520  1.0  0.1753
  C  C207  1  0.905990  0.689740  0.524250  1.0  -0.207
  C  C208  1  0.516700  0.853540  0.443880  1.0  0.1667
  C  C209  1  0.523000  0.928320  0.447320  1.0  -0.2077
  C  C210  1  0.554030  0.959660  0.496490  1.0  0.0627
  C  C211  1  0.581800  0.915090  0.540280  1.0  -0.2165
  C  C212  1  0.574400  0.840570  0.533780  1.0  0.1654
  C  C213  1  0.781980  0.508670  0.453350  1.0  0.169
  C  C214  1  0.903480  0.508480  0.451300  1.0  -0.2047
  C  C215  1  0.163740  0.464300  0.459370  1.0  -0.1899
  C  C216  1  0.286140  0.465220  0.460940  1.0  0.1741
  C  C217  1  0.464390  0.115590  0.102710  1.0  0.6355
  C  C218  1  0.467890  0.066420  0.153500  1.0  0.079
  C  C219  1  0.595730  0.048300  0.168350  1.0  -0.3275
  C  C220  1  0.291450  0.108540  0.201760  1.0  0.5372
  C  C221  1  0.246440  0.156690  0.246700  1.0  -0.0557
  C  C222  1  0.132510  0.144560  0.267670  1.0  -0.078
  C  C223  1  0.086890  0.189720  0.308170  1.0  -0.1369
  C  C224  1  0.155800  0.246190  0.328150  1.0  -0.0622
  C  C225  1  0.270230  0.257800  0.308350  1.0  -0.0904
  C  C226  1  0.313720  0.213700  0.266010  1.0  -0.1083
  C  C227  1  0.964500  0.178710  0.332050  1.0  0.589
  C  C228  1  0.747700  0.042090  0.314760  1.0  -0.3446
  C  C229  1  0.768580  0.124280  0.318940  1.0  0.0671
  C  C230  1  0.677400  0.165950  0.284460  1.0  0.6857
  C  C231  1  0.343140  0.316790  0.331770  1.0  0.547
  C  C232  1  0.665880  0.349760  0.331640  1.0  -0.3454
  C  C233  1  0.538620  0.364800  0.349310  1.0  0.0785
  C  C234  1  0.533690  0.372200  0.412300  1.0  0.6482
  C  C235  1  0.837250  0.235220  0.980840  1.0  -0.2333
  C  C236  1  0.715170  0.231840  0.982580  1.0  0.1728
  C  C237  1  0.717800  0.177840  0.067390  1.0  0.1689
  C  C238  1  0.838010  0.177900  0.068710  1.0  -0.2019
  C  C239  1  0.901380  0.206340  0.024490  1.0  0.0851
  C  C240  1  0.032380  0.204570  0.024100  1.0  0.0949
  C  C241  1  0.098090  0.215640  0.072010  1.0  -0.2161
  C  C242  1  0.220470  0.212950  0.069650  1.0  0.1646
  C  C243  1  0.215620  0.186560  0.977480  1.0  0.1768
  C  C244  1  0.094010  0.189740  0.975750  1.0  -0.2059
  C  C245  1  0.483300  0.353540  0.056120  1.0  0.1663
  C  C246  1  0.477000  0.428320  0.052680  1.0  -0.2078
  C  C247  1  0.445970  0.459660  0.003510  1.0  0.0627
  C  C248  1  0.418200  0.415090  0.959720  1.0  -0.2149
  C  C249  1  0.425600  0.340570  0.966220  1.0  0.1637
  C  C250  1  0.218020  0.008670  0.046650  1.0  0.166
  C  C251  1  0.096520  0.008480  0.048700  1.0  -0.2034
  C  C252  1  0.836260  0.964300  0.040630  1.0  -0.1908
  C  C253  1  0.713860  0.965220  0.039060  1.0  0.1752
  C  C254  1  0.464390  0.884410  0.897290  1.0  0.6331
  C  C255  1  0.467890  0.933580  0.846500  1.0  0.0782
  C  C256  1  0.595730  0.951700  0.831650  1.0  -0.3272
  C  C257  1  0.291450  0.891460  0.798240  1.0  0.5366
  C  C258  1  0.246440  0.843310  0.753300  1.0  -0.0555
  C  C259  1  0.132510  0.855440  0.732330  1.0  -0.0799
  C  C260  1  0.086890  0.810280  0.691830  1.0  -0.1368
  C  C261  1  0.155800  0.753810  0.671850  1.0  -0.0615
  C  C262  1  0.270230  0.742200  0.691650  1.0  -0.0895
  C  C263  1  0.313720  0.786300  0.733990  1.0  -0.1089
  C  C264  1  0.964500  0.821290  0.667950  1.0  0.5928
  C  C265  1  0.747700  0.957910  0.685240  1.0  -0.3451
  C  C266  1  0.768580  0.875720  0.681060  1.0  0.0679
  C  C267  1  0.677400  0.834050  0.715540  1.0  0.6864
  C  C268  1  0.343140  0.683210  0.668230  1.0  0.5461
  C  C269  1  0.665880  0.650240  0.668360  1.0  -0.3449
  C  C270  1  0.538620  0.635200  0.650690  1.0  0.0781
  C  C271  1  0.533690  0.627800  0.587700  1.0  0.649
  C  C272  1  0.837250  0.764780  0.019160  1.0  -0.2351
  C  C273  1  0.715170  0.768160  0.017420  1.0  0.1744
  C  C274  1  0.717800  0.822160  0.932610  1.0  0.1679
  C  C275  1  0.838010  0.822100  0.931290  1.0  -0.2007
  C  C276  1  0.901380  0.793660  0.975510  1.0  0.0862
  C  C277  1  0.032380  0.795430  0.975900  1.0  0.095
  C  C278  1  0.098090  0.784360  0.927990  1.0  -0.2139
  C  C279  1  0.220470  0.787050  0.930350  1.0  0.1655
  C  C280  1  0.215620  0.813440  0.022520  1.0  0.1754
  C  C281  1  0.094010  0.810260  0.024250  1.0  -0.2076
  C  C282  1  0.483300  0.646460  0.943880  1.0  0.1668
  C  C283  1  0.477000  0.571680  0.947320  1.0  -0.2081
  C  C284  1  0.445970  0.540340  0.996490  1.0  0.0629
  C  C285  1  0.418200  0.584910  0.040280  1.0  -0.2164
  C  C286  1  0.425600  0.659430  0.033780  1.0  0.1646
  C  C287  1  0.218020  0.991330  0.953350  1.0  0.1691
  C  C288  1  0.096520  0.991520  0.951300  1.0  -0.2041
  C  C289  1  0.836260  0.035700  0.959370  1.0  -0.1905
  C  C290  1  0.713860  0.034780  0.960940  1.0  0.1741
  C  C291  1  0.968000  0.500000  0.500000  1.0  0.0984
  C  C292  1  0.098400  0.500000  0.500000  1.0  0.0985
  C  C293  1  0.032000  0.000000  0.000000  1.0  0.0964
  C  C294  1  0.901600  0.000000  0.000000  1.0  0.0998
  N  N295  1  0.589040  0.398650  0.699660  1.0  -0.3848
  N  N296  1  0.110390  0.359320  0.801520  1.0  -0.3992
  N  N297  1  0.538850  0.192790  0.830050  1.0  -0.4037
  N  N298  1  0.347120  0.296540  0.524720  1.0  -0.3146
  N  N299  1  0.719910  0.301840  0.523150  1.0  -0.3152
  N  N300  1  0.541310  0.190190  0.513930  1.0  -0.2983
  N  N301  1  0.589040  0.601350  0.300340  1.0  -0.384
  N  N302  1  0.110390  0.640680  0.198480  1.0  -0.3983
  N  N303  1  0.538850  0.807210  0.169950  1.0  -0.4032
  N  N304  1  0.347120  0.703460  0.475280  1.0  -0.3158
  N  N305  1  0.719910  0.698160  0.476850  1.0  -0.3152
  N  N306  1  0.541310  0.809810  0.486070  1.0  -0.2987
  N  N307  1  0.410960  0.101350  0.199660  1.0  -0.3845
  N  N308  1  0.889610  0.140680  0.301520  1.0  -0.3985
  N  N309  1  0.461150  0.307210  0.330050  1.0  -0.4053
  N  N310  1  0.652880  0.203460  0.024720  1.0  -0.3164
  N  N311  1  0.280090  0.198160  0.023150  1.0  -0.314
  N  N312  1  0.458690  0.309810  0.013930  1.0  -0.2988
  N  N313  1  0.410960  0.898650  0.800340  1.0  -0.383
  N  N314  1  0.889610  0.859320  0.698480  1.0  -0.3993
  N  N315  1  0.461150  0.692790  0.669950  1.0  -0.4044
  N  N316  1  0.652880  0.796540  0.975280  1.0  -0.3165
  N  N317  1  0.280090  0.801840  0.976850  1.0  -0.314
  N  N318  1  0.458690  0.690190  0.986070  1.0  -0.2978
  N  N319  1  0.719650  0.500000  0.500000  1.0  -0.3376
  N  N320  1  0.348500  0.500000  0.500000  1.0  -0.3302
  N  N321  1  0.280350  0.000000  0.000000  1.0  -0.3375
  N  N322  1  0.651500  0.000000  0.000000  1.0  -0.3324
  O  O323  1  0.530840  0.409710  0.554020  1.0  -0.6435
  O  O324  1  0.537620  0.316940  0.609000  1.0  -0.567
  O  O325  1  0.774520  0.420330  0.667410  1.0  -0.5727
  O  O326  1  0.287850  0.298030  0.744200  1.0  -0.5837
  O  O327  1  0.429360  0.340090  0.798770  1.0  -0.5834
  O  O328  1  0.060730  0.294750  0.876950  1.0  -0.5363
  O  O329  1  0.474520  0.184820  0.940240  1.0  -0.5827
  O  O330  1  0.458000  0.064210  0.931160  1.0  -0.6222
  O  O331  1  0.702740  0.128350  0.852040  1.0  -0.5789
  O  O332  1  0.530840  0.590290  0.445980  1.0  -0.6445
  O  O333  1  0.537620  0.683060  0.391000  1.0  -0.5662
  O  O334  1  0.774520  0.579670  0.332590  1.0  -0.5744
  O  O335  1  0.287850  0.701970  0.255800  1.0  -0.5898
  O  O336  1  0.429360  0.659910  0.201230  1.0  -0.584
  O  O337  1  0.060730  0.705250  0.123050  1.0  -0.5359
  O  O338  1  0.474520  0.815180  0.059760  1.0  -0.5825
  O  O339  1  0.458000  0.935790  0.068840  1.0  -0.6219
  O  O340  1  0.702740  0.871650  0.147960  1.0  -0.5792
  O  O341  1  0.469160  0.090290  0.054020  1.0  -0.6438
  O  O342  1  0.462380  0.183060  0.109000  1.0  -0.5658
  O  O343  1  0.225480  0.079670  0.167410  1.0  -0.573
  O  O344  1  0.712150  0.201970  0.244200  1.0  -0.5873
  O  O345  1  0.570640  0.159910  0.298770  1.0  -0.5827
  O  O346  1  0.939270  0.205250  0.376950  1.0  -0.5369
  O  O347  1  0.525480  0.315180  0.440240  1.0  -0.5818
  O  O348  1  0.542000  0.435790  0.431160  1.0  -0.62
  O  O349  1  0.297260  0.371650  0.352040  1.0  -0.579
  O  O350  1  0.469160  0.909710  0.945980  1.0  -0.6443
  O  O351  1  0.462380  0.816940  0.891000  1.0  -0.5666
  O  O352  1  0.225480  0.920330  0.832590  1.0  -0.5739
  O  O353  1  0.712150  0.798030  0.755800  1.0  -0.588
  O  O354  1  0.570640  0.840090  0.701230  1.0  -0.5829
  O  O355  1  0.939270  0.794750  0.623050  1.0  -0.5347
  O  O356  1  0.525480  0.684820  0.559760  1.0  -0.5827
  O  O357  1  0.542000  0.564210  0.568840  1.0  -0.6202
  O  O358  1  0.297260  0.628350  0.647960  1.0  -0.5779
