# generated using pymatgen
data_Co3H68C76(N7O9)2
_symmetry_space_group_name_H-M   'P 1'
_cell_length_a   11.39500000
_cell_length_b   18.66300000
_cell_length_c   24.32900000
_cell_angle_alpha   90.00000000
_cell_angle_beta   90.00000000
_cell_angle_gamma   90.00000000
_symmetry_Int_Tables_number   1
_chemical_formula_structural   Co3H68C76(N7O9)2
_chemical_formula_sum   'Co6 H136 C152 N28 O36'
_cell_volume   5173.92398716
_cell_formula_units_Z   2
loop_
 _symmetry_equiv_pos_site_id
 _symmetry_equiv_pos_as_xyz
  1  'x, y, z'
loop_
 _atom_site_type_symbol
 _atom_site_label
 _atom_site_symmetry_multiplicity
 _atom_site_fract_x
 _atom_site_fract_y
 _atom_site_fract_z
 _atom_site_occupancy
 _atom_site_charge
  Co  Co1  1  0.465440  0.699930  0.480740  1.0  0.8524
  Co  Co2  1  0.465440  0.300070  0.519260  1.0  0.8525
  Co  Co3  1  0.534560  0.800070  0.980740  1.0  0.8513
  Co  Co4  1  0.534560  0.199930  0.019260  1.0  0.853
  Co  Co5  1  0.460640  0.500000  0.500000  1.0  0.9265
  Co  Co6  1  0.539360  0.000000  0.000000  1.0  0.9272
  H  H7  1  0.423700  0.524900  0.355500  1.0  0.0769
  H  H8  1  0.633500  0.594700  0.319200  1.0  0.1113
  H  H9  1  0.634800  0.533600  0.364400  1.0  0.1148
  H  H10  1  0.595100  0.515800  0.303500  1.0  0.1064
  H  H11  1  0.093200  0.609000  0.243000  1.0  0.1128
  H  H12  1  0.129800  0.780900  0.145100  1.0  0.1073
  H  H13  1  0.392100  0.724800  0.248000  1.0  0.1121
  H  H14  1  0.764200  0.535500  0.224900  1.0  0.1136
  H  H15  1  0.679200  0.539700  0.173400  1.0  0.1109
  H  H16  1  0.815500  0.527700  0.164700  1.0  0.1139
  H  H17  1  0.764100  0.647300  0.145700  1.0  0.0891
  H  H18  1  0.692400  0.806700  0.156600  1.0  0.1151
  H  H19  1  0.718000  0.890100  0.155900  1.0  0.1158
  H  H20  1  0.670300  0.853200  0.210100  1.0  0.1152
  H  H21  1  0.514800  0.913100  0.167800  1.0  0.0674
  H  H22  1  0.874800  0.758800  0.550400  1.0  0.1232
  H  H23  1  0.673500  0.754200  0.548500  1.0  0.0677
  H  H24  1  0.678900  0.653800  0.408200  1.0  0.0692
  H  H25  1  0.880400  0.658400  0.404100  1.0  0.1363
  H  H26  1  0.056000  0.732000  0.399100  1.0  0.1187
  H  H27  1  0.260100  0.730700  0.402400  1.0  0.0829
  H  H28  1  0.251300  0.672600  0.555600  1.0  0.0681
  H  H29  1  0.052500  0.681000  0.559100  1.0  0.1263
  H  H30  1  0.502200  0.832200  0.413000  1.0  0.0849
  H  H31  1  0.493600  0.954700  0.417500  1.0  0.127
  H  H32  1  0.407200  0.937200  0.575300  1.0  0.1117
  H  H33  1  0.418700  0.814000  0.566800  1.0  0.0779
  H  H34  1  0.253300  0.517000  0.420300  1.0  0.0944
  H  H35  1  0.052400  0.516400  0.418700  1.0  0.1101
  H  H36  1  0.871500  0.440700  0.430200  1.0  0.1315
  H  H37  1  0.670500  0.441900  0.433100  1.0  0.0699
  H  H38  1  0.453300  0.622600  0.274200  1.0  0.273
  H  H39  1  0.917700  0.640200  0.233900  1.0  0.2799
  H  H40  1  0.493900  0.771800  0.185400  1.0  0.278
  H  H41  1  0.423700  0.475100  0.644500  1.0  0.0788
  H  H42  1  0.633500  0.405300  0.680800  1.0  0.1114
  H  H43  1  0.634800  0.466400  0.635600  1.0  0.1149
  H  H44  1  0.595100  0.484200  0.696500  1.0  0.1068
  H  H45  1  0.093200  0.391000  0.757000  1.0  0.1132
  H  H46  1  0.129800  0.219100  0.854900  1.0  0.1075
  H  H47  1  0.392100  0.275200  0.752000  1.0  0.1124
  H  H48  1  0.764200  0.464500  0.775100  1.0  0.1141
  H  H49  1  0.679200  0.460300  0.826600  1.0  0.1109
  H  H50  1  0.815500  0.472300  0.835300  1.0  0.1133
  H  H51  1  0.764100  0.352700  0.854300  1.0  0.0898
  H  H52  1  0.692400  0.193300  0.843400  1.0  0.1154
  H  H53  1  0.718000  0.109900  0.844100  1.0  0.1163
  H  H54  1  0.670300  0.146800  0.789900  1.0  0.1167
  H  H55  1  0.514800  0.086900  0.832200  1.0  0.068
  H  H56  1  0.874800  0.241200  0.449600  1.0  0.1229
  H  H57  1  0.673500  0.245800  0.451500  1.0  0.0681
  H  H58  1  0.678900  0.346200  0.591800  1.0  0.0696
  H  H59  1  0.880400  0.341600  0.595900  1.0  0.1366
  H  H60  1  0.056000  0.268000  0.600900  1.0  0.1191
  H  H61  1  0.260100  0.269300  0.597600  1.0  0.0825
  H  H62  1  0.251300  0.327400  0.444400  1.0  0.0685
  H  H63  1  0.052500  0.319000  0.440900  1.0  0.127
  H  H64  1  0.502200  0.167800  0.587000  1.0  0.0846
  H  H65  1  0.493600  0.045300  0.582500  1.0  0.1266
  H  H66  1  0.407200  0.062800  0.424700  1.0  0.1125
  H  H67  1  0.418700  0.186000  0.433200  1.0  0.0774
  H  H68  1  0.253300  0.483000  0.579700  1.0  0.0943
  H  H69  1  0.052400  0.483600  0.581300  1.0  0.1094
  H  H70  1  0.871500  0.559300  0.569800  1.0  0.1324
  H  H71  1  0.670500  0.558100  0.566900  1.0  0.0695
  H  H72  1  0.453300  0.377400  0.725800  1.0  0.2723
  H  H73  1  0.917700  0.359800  0.766100  1.0  0.281
  H  H74  1  0.493900  0.228200  0.814600  1.0  0.2794
  H  H75  1  0.576300  0.975100  0.855500  1.0  0.077
  H  H76  1  0.366500  0.905300  0.819200  1.0  0.1111
  H  H77  1  0.365200  0.966400  0.864400  1.0  0.1129
  H  H78  1  0.404900  0.984200  0.803500  1.0  0.1076
  H  H79  1  0.906800  0.891000  0.743000  1.0  0.1126
  H  H80  1  0.870200  0.719100  0.645100  1.0  0.1073
  H  H81  1  0.607900  0.775200  0.748000  1.0  0.1124
  H  H82  1  0.235800  0.964500  0.724900  1.0  0.1135
  H  H83  1  0.320800  0.960300  0.673400  1.0  0.1093
  H  H84  1  0.184500  0.972300  0.664700  1.0  0.1141
  H  H85  1  0.235900  0.852700  0.645700  1.0  0.0896
  H  H86  1  0.307600  0.693300  0.656600  1.0  0.1153
  H  H87  1  0.282000  0.609900  0.655900  1.0  0.1159
  H  H88  1  0.329700  0.646800  0.710100  1.0  0.1162
  H  H89  1  0.485200  0.586900  0.667800  1.0  0.0685
  H  H90  1  0.125200  0.741200  0.050400  1.0  0.123
  H  H91  1  0.326500  0.745800  0.048500  1.0  0.0683
  H  H92  1  0.321100  0.846200  0.908200  1.0  0.0681
  H  H93  1  0.119600  0.841600  0.904100  1.0  0.1359
  H  H94  1  0.944000  0.768000  0.899100  1.0  0.1186
  H  H95  1  0.739900  0.769300  0.902400  1.0  0.0828
  H  H96  1  0.748700  0.827400  0.055600  1.0  0.0682
  H  H97  1  0.947500  0.819000  0.059100  1.0  0.1265
  H  H98  1  0.497800  0.667800  0.913000  1.0  0.0854
  H  H99  1  0.506400  0.545300  0.917500  1.0  0.1265
  H  H100  1  0.592800  0.562800  0.075300  1.0  0.1123
  H  H101  1  0.581300  0.686000  0.066800  1.0  0.0777
  H  H102  1  0.746700  0.983000  0.920300  1.0  0.0945
  H  H103  1  0.947600  0.983600  0.918700  1.0  0.1102
  H  H104  1  0.128500  0.059300  0.930200  1.0  0.1313
  H  H105  1  0.329500  0.058100  0.933100  1.0  0.0704
  H  H106  1  0.546700  0.877400  0.774200  1.0  0.2729
  H  H107  1  0.082300  0.859800  0.733900  1.0  0.2803
  H  H108  1  0.506100  0.728200  0.685400  1.0  0.2773
  H  H109  1  0.576300  0.024900  0.144500  1.0  0.0798
  H  H110  1  0.366500  0.094700  0.180800  1.0  0.111
  H  H111  1  0.365200  0.033600  0.135600  1.0  0.1122
  H  H112  1  0.404900  0.015800  0.196500  1.0  0.1078
  H  H113  1  0.906800  0.109000  0.257000  1.0  0.1131
  H  H114  1  0.870200  0.280900  0.354900  1.0  0.1072
  H  H115  1  0.607900  0.224800  0.252000  1.0  0.1125
  H  H116  1  0.235800  0.035500  0.275100  1.0  0.1154
  H  H117  1  0.320800  0.039700  0.326600  1.0  0.1087
  H  H118  1  0.184500  0.027700  0.335300  1.0  0.1142
  H  H119  1  0.235900  0.147300  0.354300  1.0  0.0901
  H  H120  1  0.307600  0.306700  0.343400  1.0  0.1144
  H  H121  1  0.282000  0.390100  0.344100  1.0  0.1145
  H  H122  1  0.329700  0.353200  0.289900  1.0  0.1158
  H  H123  1  0.485200  0.413100  0.332200  1.0  0.0674
  H  H124  1  0.125200  0.258800  0.949600  1.0  0.1234
  H  H125  1  0.326500  0.254200  0.951500  1.0  0.0674
  H  H126  1  0.321100  0.153800  0.091800  1.0  0.0693
  H  H127  1  0.119600  0.158400  0.095900  1.0  0.1368
  H  H128  1  0.944000  0.232000  0.100900  1.0  0.1187
  H  H129  1  0.739900  0.230700  0.097600  1.0  0.0818
  H  H130  1  0.748700  0.172600  0.944400  1.0  0.0689
  H  H131  1  0.947500  0.181000  0.940900  1.0  0.1273
  H  H132  1  0.497800  0.332200  0.087000  1.0  0.0848
  H  H133  1  0.506400  0.454700  0.082500  1.0  0.1261
  H  H134  1  0.592800  0.437200  0.924700  1.0  0.1134
  H  H135  1  0.581300  0.314000  0.933200  1.0  0.0778
  H  H136  1  0.746700  0.017000  0.079700  1.0  0.0942
  H  H137  1  0.947600  0.016400  0.081300  1.0  0.1092
  H  H138  1  0.128500  0.940700  0.069800  1.0  0.1328
  H  H139  1  0.329500  0.941900  0.066900  1.0  0.0701
  H  H140  1  0.546700  0.122600  0.225800  1.0  0.2719
  H  H141  1  0.082300  0.140200  0.266100  1.0  0.2815
  H  H142  1  0.506100  0.271800  0.314600  1.0  0.2776
  C  C143  1  0.463600  0.617500  0.397700  1.0  0.632
  C  C144  1  0.466300  0.569900  0.347400  1.0  0.0698
  C  C145  1  0.594300  0.551800  0.332200  1.0  -0.3531
  C  C146  1  0.292600  0.612800  0.297800  1.0  0.5459
  C  C147  1  0.248500  0.660000  0.252400  1.0  -0.0686
  C  C148  1  0.137900  0.648400  0.230900  1.0  -0.0963
  C  C149  1  0.093200  0.693800  0.192100  1.0  -0.0505
  C  C150  1  0.160400  0.750300  0.172200  1.0  -0.0348
  C  C151  1  0.274500  0.761700  0.192800  1.0  -0.0488
  C  C152  1  0.316900  0.717000  0.233300  1.0  -0.1118
  C  C153  1  0.972400  0.682500  0.167000  1.0  0.5967
  C  C154  1  0.756800  0.551400  0.187100  1.0  -0.3454
  C  C155  1  0.775100  0.632100  0.184400  1.0  0.063
  C  C156  1  0.684400  0.672000  0.219600  1.0  0.6545
  C  C157  1  0.346100  0.820600  0.169100  1.0  0.5268
  C  C158  1  0.666900  0.853000  0.170300  1.0  -0.3536
  C  C159  1  0.540900  0.867100  0.151600  1.0  0.0707
  C  C160  1  0.536300  0.873900  0.090100  1.0  0.6762
  C  C161  1  0.836400  0.736700  0.520800  1.0  -0.22
  C  C162  1  0.715400  0.733700  0.519200  1.0  0.1705
  C  C163  1  0.719300  0.675800  0.437300  1.0  0.1646
  C  C164  1  0.840200  0.677100  0.434600  1.0  -0.2349
  C  C165  1  0.900300  0.707100  0.478500  1.0  0.0929
  C  C166  1  0.029900  0.707000  0.478400  1.0  0.109
  C  C167  1  0.094200  0.720900  0.432300  1.0  -0.1883
  C  C168  1  0.217600  0.718700  0.434200  1.0  0.1655
  C  C169  1  0.211500  0.686200  0.523400  1.0  0.1784
  C  C170  1  0.092100  0.689900  0.525900  1.0  -0.217
  C  C171  1  0.482200  0.853600  0.446700  1.0  0.1639
  C  C172  1  0.478200  0.927300  0.449100  1.0  -0.2052
  C  C173  1  0.451500  0.960400  0.497600  1.0  0.0832
  C  C174  1  0.427800  0.916900  0.541300  1.0  -0.202
  C  C175  1  0.433800  0.842700  0.535800  1.0  0.1562
  C  C176  1  0.211800  0.509800  0.453200  1.0  0.1542
  C  C177  1  0.091700  0.509800  0.452300  1.0  -0.158
  C  C178  1  0.832600  0.464800  0.458800  1.0  -0.1946
  C  C179  1  0.712200  0.466100  0.460700  1.0  0.1741
  C  C180  1  0.463600  0.382500  0.602300  1.0  0.6348
  C  C181  1  0.466300  0.430100  0.652600  1.0  0.0702
  C  C182  1  0.594300  0.448200  0.667800  1.0  -0.352
  C  C183  1  0.292600  0.387200  0.702200  1.0  0.5455
  C  C184  1  0.248500  0.340000  0.747600  1.0  -0.0686
  C  C185  1  0.137900  0.351600  0.769100  1.0  -0.0974
  C  C186  1  0.093200  0.306200  0.807900  1.0  -0.0506
  C  C187  1  0.160400  0.249700  0.827800  1.0  -0.0348
  C  C188  1  0.274500  0.238300  0.807200  1.0  -0.0495
  C  C189  1  0.316900  0.283000  0.766700  1.0  -0.1122
  C  C190  1  0.972400  0.317500  0.833000  1.0  0.5946
  C  C191  1  0.756800  0.448600  0.812900  1.0  -0.3457
  C  C192  1  0.775100  0.367900  0.815600  1.0  0.0628
  C  C193  1  0.684400  0.328000  0.780400  1.0  0.6547
  C  C194  1  0.346100  0.179400  0.830900  1.0  0.5274
  C  C195  1  0.666900  0.147000  0.829700  1.0  -0.3533
  C  C196  1  0.540900  0.132900  0.848400  1.0  0.0697
  C  C197  1  0.536300  0.126100  0.909900  1.0  0.6742
  C  C198  1  0.836400  0.263300  0.479200  1.0  -0.2212
  C  C199  1  0.715400  0.266300  0.480800  1.0  0.1692
  C  C200  1  0.719300  0.324200  0.562700  1.0  0.1649
  C  C201  1  0.840200  0.322900  0.565400  1.0  -0.2361
  C  C202  1  0.900300  0.292900  0.521500  1.0  0.0924
  C  C203  1  0.029900  0.293000  0.521600  1.0  0.1092
  C  C204  1  0.094200  0.279100  0.567700  1.0  -0.1894
  C  C205  1  0.217600  0.281300  0.565800  1.0  0.1652
  C  C206  1  0.211500  0.313800  0.476600  1.0  0.1787
  C  C207  1  0.092100  0.310100  0.474100  1.0  -0.2187
  C  C208  1  0.482200  0.146400  0.553300  1.0  0.1665
  C  C209  1  0.478200  0.072700  0.550900  1.0  -0.2049
  C  C210  1  0.451500  0.039600  0.502400  1.0  0.0832
  C  C211  1  0.427800  0.083100  0.458700  1.0  -0.2021
  C  C212  1  0.433800  0.157300  0.464200  1.0  0.1552
  C  C213  1  0.211800  0.490200  0.546800  1.0  0.1544
  C  C214  1  0.091700  0.490200  0.547700  1.0  -0.159
  C  C215  1  0.832600  0.535200  0.541200  1.0  -0.1953
  C  C216  1  0.712200  0.533900  0.539300  1.0  0.1751
  C  C217  1  0.536400  0.882500  0.897700  1.0  0.6333
  C  C218  1  0.533700  0.930100  0.847400  1.0  0.0693
  C  C219  1  0.405700  0.948200  0.832200  1.0  -0.3531
  C  C220  1  0.707400  0.887200  0.797800  1.0  0.5468
  C  C221  1  0.751500  0.840000  0.752400  1.0  -0.0688
  C  C222  1  0.862100  0.851600  0.730900  1.0  -0.0971
  C  C223  1  0.906800  0.806200  0.692100  1.0  -0.0508
  C  C224  1  0.839600  0.749700  0.672200  1.0  -0.0342
  C  C225  1  0.725500  0.738300  0.692800  1.0  -0.0496
  C  C226  1  0.683100  0.783000  0.733300  1.0  -0.1118
  C  C227  1  0.027600  0.817500  0.667000  1.0  0.5971
  C  C228  1  0.243200  0.948600  0.687100  1.0  -0.3459
  C  C229  1  0.224900  0.867900  0.684400  1.0  0.063
  C  C230  1  0.315600  0.828000  0.719600  1.0  0.656
  C  C231  1  0.653900  0.679400  0.669100  1.0  0.5278
  C  C232  1  0.333100  0.647000  0.670300  1.0  -0.3527
  C  C233  1  0.459100  0.632900  0.651600  1.0  0.0699
  C  C234  1  0.463700  0.626100  0.590100  1.0  0.6766
  C  C235  1  0.163600  0.763300  0.020800  1.0  -0.2203
  C  C236  1  0.284600  0.766300  0.019200  1.0  0.1687
  C  C237  1  0.280700  0.824200  0.937300  1.0  0.1655
  C  C238  1  0.159800  0.822900  0.934600  1.0  -0.2341
  C  C239  1  0.099700  0.792900  0.978500  1.0  0.092
  C  C240  1  0.970100  0.793000  0.978400  1.0  0.1083
  C  C241  1  0.905800  0.779100  0.932300  1.0  -0.189
  C  C242  1  0.782400  0.781300  0.934200  1.0  0.1647
  C  C243  1  0.788500  0.813800  0.023400  1.0  0.1784
  C  C244  1  0.907900  0.810100  0.025900  1.0  -0.2174
  C  C245  1  0.517800  0.646400  0.946700  1.0  0.1653
  C  C246  1  0.521800  0.572700  0.949100  1.0  -0.2049
  C  C247  1  0.548500  0.539600  0.997600  1.0  0.0821
  C  C248  1  0.572200  0.583100  0.041300  1.0  -0.2013
  C  C249  1  0.566200  0.657300  0.035800  1.0  0.1563
  C  C250  1  0.788200  0.990200  0.953200  1.0  0.1541
  C  C251  1  0.908300  0.990200  0.952300  1.0  -0.1594
  C  C252  1  0.167400  0.035200  0.958800  1.0  -0.194
  C  C253  1  0.287800  0.033900  0.960700  1.0  0.1744
  C  C254  1  0.536400  0.117500  0.102300  1.0  0.634
  C  C255  1  0.533700  0.069900  0.152600  1.0  0.071
  C  C256  1  0.405700  0.051800  0.167800  1.0  -0.3531
  C  C257  1  0.707400  0.112800  0.202200  1.0  0.5474
  C  C258  1  0.751500  0.160000  0.247600  1.0  -0.0684
  C  C259  1  0.862100  0.148400  0.269100  1.0  -0.0966
  C  C260  1  0.906800  0.193800  0.307900  1.0  -0.0509
  C  C261  1  0.839600  0.250300  0.327800  1.0  -0.0334
  C  C262  1  0.725500  0.261700  0.307200  1.0  -0.0494
  C  C263  1  0.683100  0.217000  0.266700  1.0  -0.1116
  C  C264  1  0.027600  0.182500  0.333000  1.0  0.5948
  C  C265  1  0.243200  0.051400  0.312900  1.0  -0.3458
  C  C266  1  0.224900  0.132100  0.315600  1.0  0.0622
  C  C267  1  0.315600  0.172000  0.280400  1.0  0.6555
  C  C268  1  0.653900  0.320600  0.330900  1.0  0.5274
  C  C269  1  0.333100  0.353000  0.329700  1.0  -0.3531
  C  C270  1  0.459100  0.367100  0.348400  1.0  0.0702
  C  C271  1  0.463700  0.373900  0.409900  1.0  0.6745
  C  C272  1  0.163600  0.236700  0.979200  1.0  -0.2216
  C  C273  1  0.284600  0.233700  0.980800  1.0  0.1698
  C  C274  1  0.280700  0.175800  0.062700  1.0  0.1646
  C  C275  1  0.159800  0.177100  0.065400  1.0  -0.2371
  C  C276  1  0.099700  0.207100  0.021500  1.0  0.0915
  C  C277  1  0.970100  0.207000  0.021600  1.0  0.1097
  C  C278  1  0.905800  0.220900  0.067700  1.0  -0.1885
  C  C279  1  0.782400  0.218700  0.065800  1.0  0.1648
  C  C280  1  0.788500  0.186200  0.976600  1.0  0.1787
  C  C281  1  0.907900  0.189900  0.974100  1.0  -0.2173
  C  C282  1  0.517800  0.353600  0.053300  1.0  0.165
  C  C283  1  0.521800  0.427300  0.050900  1.0  -0.2067
  C  C284  1  0.548500  0.460400  0.002400  1.0  0.0821
  C  C285  1  0.572200  0.416900  0.958700  1.0  -0.2014
  C  C286  1  0.566200  0.342700  0.964200  1.0  0.1548
  C  C287  1  0.788200  0.009800  0.046800  1.0  0.1538
  C  C288  1  0.908300  0.009800  0.047700  1.0  -0.1595
  C  C289  1  0.167400  0.964800  0.041200  1.0  -0.1958
  C  C290  1  0.287800  0.966100  0.039300  1.0  0.1751
  C  C291  1  0.027100  0.500000  0.500000  1.0  0.1025
  C  C292  1  0.897000  0.500000  0.500000  1.0  0.0873
  C  C293  1  0.972900  0.000000  0.000000  1.0  0.1035
  C  C294  1  0.103000  0.000000  0.000000  1.0  0.0872
  N  N295  1  0.410000  0.605600  0.300700  1.0  -0.3905
  N  N296  1  0.895300  0.650600  0.200600  1.0  -0.394
  N  N297  1  0.464700  0.811000  0.171800  1.0  -0.4089
  N  N298  1  0.654400  0.703600  0.478500  1.0  -0.339
  N  N299  1  0.276400  0.700300  0.479200  1.0  -0.3125
  N  N300  1  0.459700  0.811100  0.489000  1.0  -0.3199
  N  N301  1  0.410000  0.394400  0.699300  1.0  -0.392
  N  N302  1  0.895300  0.349400  0.799400  1.0  -0.3936
  N  N303  1  0.464700  0.189000  0.828200  1.0  -0.4083
  N  N304  1  0.654400  0.296400  0.521500  1.0  -0.3385
  N  N305  1  0.276400  0.299700  0.520800  1.0  -0.3114
  N  N306  1  0.459700  0.188900  0.511000  1.0  -0.3196
  N  N307  1  0.590000  0.894400  0.800700  1.0  -0.3902
  N  N308  1  0.104700  0.849400  0.700600  1.0  -0.3936
  N  N309  1  0.535300  0.689000  0.671800  1.0  -0.4074
  N  N310  1  0.345600  0.796400  0.978500  1.0  -0.3385
  N  N311  1  0.723600  0.799700  0.979200  1.0  -0.3109
  N  N312  1  0.540300  0.688900  0.989000  1.0  -0.3202
  N  N313  1  0.590000  0.105600  0.199300  1.0  -0.3916
  N  N314  1  0.104700  0.150600  0.299400  1.0  -0.3928
  N  N315  1  0.535300  0.311000  0.328200  1.0  -0.4088
  N  N316  1  0.345600  0.203600  0.021500  1.0  -0.3399
  N  N317  1  0.723600  0.200300  0.020800  1.0  -0.3106
  N  N318  1  0.540300  0.311100  0.011000  1.0  -0.3207
  N  N319  1  0.271700  0.500000  0.500000  1.0  -0.3362
  N  N320  1  0.650800  0.500000  0.500000  1.0  -0.3485
  N  N321  1  0.728300  0.000000  0.000000  1.0  -0.336
  N  N322  1  0.349200  0.000000  0.000000  1.0  -0.3481
  O  O323  1  0.465100  0.590750  0.445550  1.0  -0.6486
  O  O324  1  0.462800  0.685250  0.392700  1.0  -0.5763
  O  O325  1  0.226000  0.585400  0.332500  1.0  -0.5841
  O  O326  1  0.719100  0.706900  0.260500  1.0  -0.5942
  O  O327  1  0.578100  0.664700  0.204800  1.0  -0.6078
  O  O328  1  0.948600  0.701700  0.121500  1.0  -0.5197
  O  O329  1  0.526800  0.817130  0.062620  1.0  -0.5867
  O  O330  1  0.546400  0.935680  0.069760  1.0  -0.6149
  O  O331  1  0.303300  0.873700  0.148000  1.0  -0.5564
  O  O332  1  0.465100  0.409250  0.554450  1.0  -0.6468
  O  O333  1  0.462800  0.314750  0.607300  1.0  -0.5763
  O  O334  1  0.226000  0.414600  0.667500  1.0  -0.5845
  O  O335  1  0.719100  0.293100  0.739500  1.0  -0.588
  O  O336  1  0.578100  0.335300  0.795200  1.0  -0.6078
  O  O337  1  0.948600  0.298300  0.878500  1.0  -0.5174
  O  O338  1  0.526800  0.182870  0.937380  1.0  -0.5869
  O  O339  1  0.546400  0.064320  0.930240  1.0  -0.6144
  O  O340  1  0.303300  0.126300  0.852000  1.0  -0.5557
  O  O341  1  0.534900  0.909250  0.945550  1.0  -0.6482
  O  O342  1  0.537200  0.814750  0.892700  1.0  -0.5766
  O  O343  1  0.774000  0.914600  0.832500  1.0  -0.5837
  O  O344  1  0.280900  0.793100  0.760500  1.0  -0.5919
  O  O345  1  0.421900  0.835300  0.704800  1.0  -0.6082
  O  O346  1  0.051400  0.798300  0.621500  1.0  -0.5187
  O  O347  1  0.473200  0.682870  0.562620  1.0  -0.5872
  O  O348  1  0.453600  0.564320  0.569760  1.0  -0.6121
  O  O349  1  0.696700  0.626300  0.648000  1.0  -0.5573
  O  O350  1  0.534900  0.090750  0.054450  1.0  -0.6474
  O  O351  1  0.537200  0.185250  0.107300  1.0  -0.5765
  O  O352  1  0.774000  0.085400  0.167500  1.0  -0.5838
  O  O353  1  0.280900  0.206900  0.239500  1.0  -0.5915
  O  O354  1  0.421900  0.164700  0.295200  1.0  -0.6085
  O  O355  1  0.051400  0.201700  0.378500  1.0  -0.5183
  O  O356  1  0.473200  0.317130  0.437380  1.0  -0.5867
  O  O357  1  0.453600  0.435680  0.430240  1.0  -0.6129
  O  O358  1  0.696700  0.373700  0.352000  1.0  -0.5555
