# generated using pymatgen
data_CuH6C10(NO)4
_symmetry_space_group_name_H-M   'P 1'
_cell_length_a   7.77190000
_cell_length_b   12.66130000
_cell_length_c   12.66130000
_cell_angle_alpha   64.07450000
_cell_angle_beta   78.19330000
_cell_angle_gamma   101.80700000
_symmetry_Int_Tables_number   1
_chemical_formula_structural   CuH6C10(NO)4
_chemical_formula_sum   'Cu3 H18 C30 N12 O12'
_cell_volume   1033.80800022
_cell_formula_units_Z   3
loop_
 _symmetry_equiv_pos_site_id
 _symmetry_equiv_pos_as_xyz
  1  'x, y, z'
loop_
 _atom_site_type_symbol
 _atom_site_label
 _atom_site_symmetry_multiplicity
 _atom_site_fract_x
 _atom_site_fract_y
 _atom_site_fract_z
 _atom_site_occupancy
 _atom_site_charge
  Cu  Cu1  1  0.500000  0.500000  0.000000  1.0  0.8441
  Cu  Cu2  1  0.500000  0.000000  0.500000  1.0  0.8441
  Cu  Cu3  1  0.000000  0.500000  0.500000  1.0  0.8441
  H  H4  1  0.083000  0.615000  0.992000  1.0  0.0806
  H  H5  1  0.561000  0.843000  0.740000  1.0  0.0682
  H  H6  1  0.120000  0.842000  0.640000  1.0  0.0743
  H  H7  1  0.075000  0.992000  0.393000  1.0  0.0817
  H  H8  1  0.301000  0.740000  0.417000  1.0  0.0673
  H  H9  1  0.760000  0.640000  0.518000  1.0  0.0751
  H  H10  1  0.468000  0.393000  0.615000  1.0  0.0808
  H  H11  1  0.718000  0.417000  0.843000  1.0  0.0681
  H  H12  1  0.278000  0.518000  0.842000  1.0  0.0747
  H  H13  1  0.917000  0.385000  0.008000  1.0  0.0804
  H  H14  1  0.439000  0.157000  0.260000  1.0  0.0685
  H  H15  1  0.880000  0.158000  0.360000  1.0  0.0743
  H  H16  1  0.925000  0.008000  0.607000  1.0  0.0833
  H  H17  1  0.699000  0.260000  0.583000  1.0  0.0683
  H  H18  1  0.240000  0.360000  0.482000  1.0  0.0746
  H  H19  1  0.532000  0.607000  0.385000  1.0  0.0811
  H  H20  1  0.282000  0.583000  0.157000  1.0  0.0685
  H  H21  1  0.722000  0.482000  0.158000  1.0  0.0743
  C  C22  1  0.853700  0.669440  0.848140  1.0  0.6735
  C  C23  1  0.060340  0.717760  0.822540  1.0  -0.2316
  C  C24  1  0.148540  0.676260  0.910340  1.0  0.2496
  C  C25  1  0.430170  0.811070  0.764260  1.0  0.4024
  C  C26  1  0.171440  0.811740  0.704720  1.0  0.239
  C  C27  1  0.701840  0.848140  0.482420  1.0  0.675
  C  C28  1  0.882880  0.822540  0.459700  1.0  -0.228
  C  C29  1  0.058880  0.910340  0.413400  1.0  0.2616
  C  C30  1  0.194430  0.764260  0.424670  1.0  0.4012
  C  C31  1  0.876160  0.704720  0.483540  1.0  0.2383
  C  C32  1  0.184260  0.482420  0.669440  1.0  0.6745
  C  C33  1  0.342580  0.459700  0.717760  1.0  -0.2295
  C  C34  1  0.472280  0.413400  0.676260  1.0  0.2473
  C  C35  1  0.619100  0.424670  0.811070  1.0  0.4011
  C  C36  1  0.359700  0.483540  0.811740  1.0  0.2388
  C  C37  1  0.146300  0.330560  0.151860  1.0  0.6747
  C  C38  1  0.939660  0.282240  0.177460  1.0  -0.2299
  C  C39  1  0.851460  0.323740  0.089660  1.0  0.2486
  C  C40  1  0.569830  0.188930  0.235740  1.0  0.4006
  C  C41  1  0.828560  0.188260  0.295280  1.0  0.2409
  C  C42  1  0.298160  0.151860  0.517580  1.0  0.6745
  C  C43  1  0.117120  0.177460  0.540300  1.0  -0.2265
  C  C44  1  0.941120  0.089660  0.586600  1.0  0.2629
  C  C45  1  0.805570  0.235740  0.575330  1.0  0.4016
  C  C46  1  0.123840  0.295280  0.516460  1.0  0.2396
  C  C47  1  0.815740  0.517580  0.330560  1.0  0.6754
  C  C48  1  0.657420  0.540300  0.282240  1.0  -0.2289
  C  C49  1  0.527720  0.586600  0.323740  1.0  0.2459
  C  C50  1  0.380900  0.575330  0.188930  1.0  0.4013
  C  C51  1  0.640300  0.516460  0.188260  1.0  0.239
  N  N52  1  0.356640  0.859660  0.674040  1.0  -0.3991
  N  N53  1  0.334530  0.722670  0.881180  1.0  -0.4331
  N  N54  1  0.030680  0.674040  0.466300  1.0  -0.3946
  N  N55  1  0.215710  0.881180  0.396150  1.0  -0.4381
  N  N56  1  0.496980  0.466300  0.859660  1.0  -0.3982
  N  N57  1  0.611860  0.396150  0.722670  1.0  -0.4202
  N  N58  1  0.643360  0.140340  0.325960  1.0  -0.3984
  N  N59  1  0.665470  0.277330  0.118820  1.0  -0.4301
  N  N60  1  0.969320  0.325960  0.533700  1.0  -0.3954
  N  N61  1  0.784290  0.118820  0.603850  1.0  -0.4379
  N  N62  1  0.503020  0.533700  0.140340  1.0  -0.3982
  N  N63  1  0.388140  0.603850  0.277330  1.0  -0.4219
  O  O64  1  0.768820  0.561000  0.944540  1.0  -0.5894
  O  O65  1  0.782810  0.733420  0.778590  1.0  -0.5668
  O  O66  1  0.713360  0.944540  0.494460  1.0  -0.5897
  O  O67  1  0.561400  0.778590  0.487990  1.0  -0.5685
  O  O68  1  0.207820  0.494460  0.561000  1.0  -0.5909
  O  O69  1  0.049390  0.487990  0.733420  1.0  -0.5665
  O  O70  1  0.231180  0.439000  0.055460  1.0  -0.5898
  O  O71  1  0.217190  0.266580  0.221410  1.0  -0.5675
  O  O72  1  0.286640  0.055460  0.505540  1.0  -0.5903
  O  O73  1  0.438600  0.221410  0.512010  1.0  -0.5678
  O  O74  1  0.792180  0.505540  0.439000  1.0  -0.5898
  O  O75  1  0.950610  0.512010  0.266580  1.0  -0.567
