# generated using pymatgen
data_CuH6C10(NO)4
_symmetry_space_group_name_H-M   'P 1'
_cell_length_a   7.71800000
_cell_length_b   25.28690000
_cell_length_c   25.28690000
_cell_angle_alpha   61.02200000
_cell_angle_beta   84.16070000
_cell_angle_gamma   95.83930000
_symmetry_Int_Tables_number   1
_chemical_formula_structural   CuH6C10(NO)4
_chemical_formula_sum   'Cu12 H72 C120 N48 O48'
_cell_volume   4229.68393690
_cell_formula_units_Z   12
loop_
 _symmetry_equiv_pos_site_id
 _symmetry_equiv_pos_as_xyz
  1  'x, y, z'
loop_
 _atom_site_type_symbol
 _atom_site_label
 _atom_site_symmetry_multiplicity
 _atom_site_fract_x
 _atom_site_fract_y
 _atom_site_fract_z
 _atom_site_occupancy
 _atom_site_charge
  Cu  Cu1  1  0.746730  0.747460  0.005820  1.0  0.7784
  Cu  Cu2  1  0.251070  0.500830  0.256530  1.0  0.8082
  Cu  Cu3  1  0.752550  0.005820  0.246720  1.0  0.7785
  Cu  Cu4  1  0.507600  0.256530  0.242640  1.0  0.808
  Cu  Cu5  1  0.999270  0.246720  0.747460  1.0  0.7787
  Cu  Cu6  1  0.750240  0.242640  0.500830  1.0  0.808
  Cu  Cu7  1  0.253270  0.252540  0.994180  1.0  0.7787
  Cu  Cu8  1  0.748930  0.499170  0.743470  1.0  0.8083
  Cu  Cu9  1  0.247450  0.994180  0.753280  1.0  0.7787
  Cu  Cu10  1  0.492400  0.743470  0.757360  1.0  0.8081
  Cu  Cu11  1  0.000730  0.753280  0.252540  1.0  0.7785
  Cu  Cu12  1  0.249760  0.757360  0.499170  1.0  0.8082
  H  H13  1  0.985200  0.677600  0.082900  1.0  0.0892
  H  H14  1  0.478600  0.630100  0.090300  1.0  0.0599
  H  H15  1  0.729100  0.508700  0.204400  1.0  0.097
  H  H16  1  0.512900  0.314500  0.425100  1.0  0.0963
  H  H17  1  0.010100  0.362300  0.426700  1.0  0.0392
  H  H18  1  0.765800  0.487300  0.313500  1.0  0.1012
  H  H19  1  0.220000  0.794200  0.013800  1.0  0.0871
  H  H20  1  0.852000  0.788500  0.135300  1.0  0.0488
  H  H21  1  0.309300  0.746800  0.183300  1.0  0.1087
  H  H22  1  0.177600  0.744300  0.830100  1.0  0.0917
  H  H23  1  0.641500  0.707600  0.875000  1.0  0.067
  H  H24  1  0.273600  0.700000  0.997600  1.0  0.0971
  H  H25  1  0.068100  0.082900  0.239500  1.0  0.0887
  H  H26  1  0.568900  0.090300  0.279600  1.0  0.0614
  H  H27  1  0.933500  0.204400  0.286900  1.0  0.0956
  H  H28  1  0.938000  0.425100  0.260400  1.0  0.0956
  H  H29  1  0.436800  0.426700  0.211000  1.0  0.0401
  H  H30  1  0.079300  0.313500  0.199200  1.0  0.0991
  H  H31  1  0.233800  0.013800  0.192000  1.0  0.0872
  H  H32  1  0.987300  0.135300  0.076200  1.0  0.0481
  H  H33  1  0.492600  0.183300  0.069900  1.0  0.1091
  H  H34  1  0.007700  0.830100  0.425600  1.0  0.0925
  H  H35  1  0.516500  0.875000  0.417400  1.0  0.0667
  H  H36  1  0.271200  0.997600  0.302400  1.0  0.098
  H  H37  1  0.307600  0.239500  0.677600  1.0  0.0886
  H  H38  1  0.848500  0.279600  0.630100  1.0  0.0607
  H  H39  1  0.220400  0.286900  0.508700  1.0  0.0965
  H  H40  1  0.198400  0.260400  0.314500  1.0  0.096
  H  H41  1  0.647800  0.211000  0.362300  1.0  0.0395
  H  H42  1  0.278500  0.199200  0.487300  1.0  0.1002
  H  H43  1  0.425800  0.192000  0.794200  1.0  0.0864
  H  H44  1  0.063500  0.076200  0.788500  1.0  0.0488
  H  H45  1  0.562500  0.069900  0.746800  1.0  0.1086
  H  H46  1  0.433300  0.425600  0.744300  1.0  0.092
  H  H47  1  0.933900  0.417400  0.707600  1.0  0.0678
  H  H48  1  0.573600  0.302400  0.700000  1.0  0.0962
  H  H49  1  0.014800  0.322400  0.917100  1.0  0.0895
  H  H50  1  0.521400  0.369900  0.909700  1.0  0.0609
  H  H51  1  0.270900  0.491300  0.795600  1.0  0.0972
  H  H52  1  0.487100  0.685500  0.574900  1.0  0.0954
  H  H53  1  0.989900  0.637700  0.573300  1.0  0.0386
  H  H54  1  0.234200  0.512700  0.686500  1.0  0.1009
  H  H55  1  0.780000  0.205800  0.986200  1.0  0.0869
  H  H56  1  0.148000  0.211500  0.864700  1.0  0.0489
  H  H57  1  0.690700  0.253200  0.816700  1.0  0.1091
  H  H58  1  0.822400  0.255700  0.169900  1.0  0.0912
  H  H59  1  0.358500  0.292400  0.125000  1.0  0.0661
  H  H60  1  0.726400  0.300000  0.002400  1.0  0.097
  H  H61  1  0.931900  0.917100  0.760500  1.0  0.089
  H  H62  1  0.431100  0.909700  0.720400  1.0  0.0612
  H  H63  1  0.066500  0.795600  0.713100  1.0  0.0958
  H  H64  1  0.062000  0.574900  0.739600  1.0  0.0953
  H  H65  1  0.563200  0.573300  0.789000  1.0  0.0404
  H  H66  1  0.920700  0.686500  0.800800  1.0  0.0991
  H  H67  1  0.766200  0.986200  0.808000  1.0  0.0877
  H  H68  1  0.012700  0.864700  0.923800  1.0  0.0482
  H  H69  1  0.507400  0.816700  0.930100  1.0  0.1099
  H  H70  1  0.992300  0.169900  0.574400  1.0  0.0921
  H  H71  1  0.483500  0.125000  0.582600  1.0  0.0657
  H  H72  1  0.728800  0.002400  0.697600  1.0  0.0975
  H  H73  1  0.692400  0.760500  0.322400  1.0  0.0889
  H  H74  1  0.151500  0.720400  0.369900  1.0  0.0619
  H  H75  1  0.779600  0.713100  0.491300  1.0  0.0964
  H  H76  1  0.801600  0.739600  0.685500  1.0  0.0955
  H  H77  1  0.352200  0.789000  0.637700  1.0  0.0392
  H  H78  1  0.721500  0.800800  0.512700  1.0  0.1004
  H  H79  1  0.574200  0.808000  0.205800  1.0  0.087
  H  H80  1  0.936500  0.923800  0.211500  1.0  0.0491
  H  H81  1  0.437500  0.930100  0.253200  1.0  0.1091
  H  H82  1  0.566700  0.574400  0.255700  1.0  0.092
  H  H83  1  0.066100  0.582600  0.292400  1.0  0.0671
  H  H84  1  0.426400  0.697600  0.300000  1.0  0.0961
  C  C85  1  0.056250  0.579390  0.173540  1.0  0.6723
  C  C86  1  0.883660  0.591980  0.149200  1.0  -0.1686
  C  C87  1  0.879640  0.648040  0.100920  1.0  0.1672
  C  C88  1  0.584900  0.619400  0.105400  1.0  0.3637
  C  C89  1  0.728120  0.549220  0.172560  1.0  0.1643
  C  C90  1  0.440000  0.416400  0.339500  1.0  0.6706
  C  C91  1  0.610800  0.403500  0.363500  1.0  -0.1544
  C  C92  1  0.616400  0.345000  0.409400  1.0  0.1481
  C  C93  1  0.906000  0.373600  0.410100  1.0  0.3881
  C  C94  1  0.765900  0.446100  0.344000  1.0  0.1772
  C  C95  1  0.476900  0.754800  0.083600  1.0  0.6811
  C  C96  1  0.293300  0.766700  0.095800  1.0  -0.1692
  C  C97  1  0.179500  0.785700  0.054500  1.0  0.1729
  C  C98  1  0.968000  0.783300  0.124400  1.0  0.344
  C  C99  1  0.233700  0.758400  0.153500  1.0  0.1605
  C  C100  1  0.014500  0.737800  0.928600  1.0  0.6823
  C  C101  1  0.197400  0.725700  0.915900  1.0  -0.2245
  C  C102  1  0.255700  0.733600  0.859000  1.0  0.1645
  C  C103  1  0.524100  0.711400  0.886300  1.0  0.3472
  C  C104  1  0.312800  0.707900  0.957200  1.0  0.178
  C  C105  1  0.229790  0.173540  0.247070  1.0  0.6724
  C  C106  1  0.032860  0.149200  0.258820  1.0  -0.1643
  C  C107  1  0.980560  0.100920  0.251040  1.0  0.1672
  C  C108  1  0.690300  0.105400  0.275200  1.0  0.3619
  C  C109  1  0.900680  0.172560  0.278220  1.0  0.1662
  C  C110  1  0.779500  0.339500  0.244100  1.0  0.6721
  C  C111  1  0.974300  0.363500  0.233000  1.0  -0.1514
  C  C112  1  0.025800  0.409400  0.245600  1.0  0.15
  C  C113  1  0.316100  0.410100  0.216300  1.0  0.3863
  C  C114  1  0.109900  0.344000  0.209900  1.0  0.1798
  C  C115  1  0.560500  0.083600  0.161600  1.0  0.6817
  C  C116  1  0.389100  0.095800  0.137500  1.0  -0.1733
  C  C117  1  0.234000  0.054500  0.159800  1.0  0.18
  C  C118  1  0.092400  0.124400  0.092300  1.0  0.3437
  C  C119  1  0.387200  0.153500  0.088100  1.0  0.1589
  C  C120  1  0.943100  0.928600  0.333600  1.0  0.6796
  C  C121  1  0.113300  0.915900  0.358400  1.0  -0.2267
  C  C122  1  0.114700  0.859000  0.407400  1.0  0.1615
  C  C123  1  0.410400  0.886300  0.402300  1.0  0.3458
  C  C124  1  0.270000  0.957200  0.334900  1.0  0.1791
  C  C125  1  0.476860  0.247070  0.579390  1.0  0.6725
  C  C126  1  0.291680  0.258820  0.591980  1.0  -0.1658
  C  C127  1  0.231600  0.251040  0.648040  1.0  0.1675
  C  C128  1  0.965500  0.275200  0.619400  1.0  0.3632
  C  C129  1  0.178900  0.278220  0.549220  1.0  0.1626
  C  C130  1  0.023600  0.244100  0.416400  1.0  0.6713
  C  C131  1  0.207300  0.233000  0.403500  1.0  -0.1519
  C  C132  1  0.271400  0.245600  0.345000  1.0  0.15
  C  C133  1  0.532400  0.216300  0.373600  1.0  0.3862
  C  C134  1  0.319800  0.209900  0.446100  1.0  0.1735
  C  C135  1  0.722100  0.161600  0.754800  1.0  0.6818
  C  C136  1  0.526600  0.137500  0.766700  1.0  -0.1735
  C  C137  1  0.393800  0.159800  0.785700  1.0  0.1756
  C  C138  1  0.184700  0.092300  0.783300  1.0  0.3414
  C  C139  1  0.475300  0.088100  0.758400  1.0  0.1604
  C  C140  1  0.276700  0.333600  0.737800  1.0  0.683
  C  C141  1  0.471700  0.358400  0.725700  1.0  -0.2243
  C  C142  1  0.522100  0.407400  0.733600  1.0  0.1625
  C  C143  1  0.812700  0.402300  0.711400  1.0  0.3456
  C  C144  1  0.604900  0.334900  0.707900  1.0  0.1809
  C  C145  1  0.943750  0.420610  0.826460  1.0  0.6711
  C  C146  1  0.116340  0.408020  0.850800  1.0  -0.1688
  C  C147  1  0.120360  0.351960  0.899080  1.0  0.1671
  C  C148  1  0.415100  0.380600  0.894600  1.0  0.3646
  C  C149  1  0.271880  0.450780  0.827440  1.0  0.1628
  C  C150  1  0.560000  0.583600  0.660500  1.0  0.6709
  C  C151  1  0.389200  0.596500  0.636500  1.0  -0.1557
  C  C152  1  0.383600  0.655000  0.590600  1.0  0.1494
  C  C153  1  0.094000  0.626400  0.589900  1.0  0.3875
  C  C154  1  0.234100  0.553900  0.656000  1.0  0.1767
  C  C155  1  0.523100  0.245200  0.916400  1.0  0.6822
  C  C156  1  0.706700  0.233300  0.904200  1.0  -0.1726
  C  C157  1  0.820500  0.214300  0.945500  1.0  0.1738
  C  C158  1  0.032000  0.216700  0.875600  1.0  0.3434
  C  C159  1  0.766300  0.241600  0.846500  1.0  0.1611
  C  C160  1  0.985500  0.262200  0.071400  1.0  0.6824
  C  C161  1  0.802600  0.274300  0.084100  1.0  -0.2229
  C  C162  1  0.744300  0.266400  0.141000  1.0  0.1642
  C  C163  1  0.475900  0.288600  0.113700  1.0  0.3462
  C  C164  1  0.687200  0.292100  0.042800  1.0  0.1773
  C  C165  1  0.770210  0.826460  0.752930  1.0  0.6722
  C  C166  1  0.967140  0.850800  0.741180  1.0  -0.1667
  C  C167  1  0.019440  0.899080  0.748960  1.0  0.1682
  C  C168  1  0.309700  0.894600  0.724800  1.0  0.3616
  C  C169  1  0.099320  0.827440  0.721780  1.0  0.1655
  C  C170  1  0.220500  0.660500  0.755900  1.0  0.6725
  C  C171  1  0.025700  0.636500  0.767000  1.0  -0.1506
  C  C172  1  0.974200  0.590600  0.754400  1.0  0.1498
  C  C173  1  0.683900  0.589900  0.783700  1.0  0.3859
  C  C174  1  0.890100  0.656000  0.790100  1.0  0.1803
  C  C175  1  0.439500  0.916400  0.838400  1.0  0.6802
  C  C176  1  0.610900  0.904200  0.862500  1.0  -0.1726
  C  C177  1  0.766000  0.945500  0.840200  1.0  0.1809
  C  C178  1  0.907600  0.875600  0.907700  1.0  0.3443
  C  C179  1  0.612800  0.846500  0.911900  1.0  0.1588
  C  C180  1  0.056900  0.071400  0.666400  1.0  0.6793
  C  C181  1  0.886700  0.084100  0.641600  1.0  -0.2264
  C  C182  1  0.885300  0.141000  0.592600  1.0  0.1594
  C  C183  1  0.589600  0.113700  0.597700  1.0  0.3449
  C  C184  1  0.730000  0.042800  0.665100  1.0  0.179
  C  C185  1  0.523140  0.752930  0.420610  1.0  0.6717
  C  C186  1  0.708320  0.741180  0.408020  1.0  -0.1679
  C  C187  1  0.768400  0.748960  0.351960  1.0  0.1683
  C  C188  1  0.034500  0.724800  0.380600  1.0  0.3639
  C  C189  1  0.821100  0.721780  0.450780  1.0  0.1631
  C  C190  1  0.976400  0.755900  0.583600  1.0  0.6708
  C  C191  1  0.792700  0.767000  0.596500  1.0  -0.1511
  C  C192  1  0.728600  0.754400  0.655000  1.0  0.1497
  C  C193  1  0.467600  0.783700  0.626400  1.0  0.3871
  C  C194  1  0.680200  0.790100  0.553900  1.0  0.1756
  C  C195  1  0.277900  0.838400  0.245200  1.0  0.682
  C  C196  1  0.473400  0.862500  0.233300  1.0  -0.1767
  C  C197  1  0.606200  0.840200  0.214300  1.0  0.1743
  C  C198  1  0.815300  0.907700  0.216700  1.0  0.341
  C  C199  1  0.524700  0.911900  0.241600  1.0  0.1604
  C  C200  1  0.723300  0.666400  0.262200  1.0  0.6826
  C  C201  1  0.528300  0.641600  0.274300  1.0  -0.2219
  C  C202  1  0.477900  0.592600  0.266400  1.0  0.1623
  C  C203  1  0.187300  0.597700  0.288600  1.0  0.344
  C  C204  1  0.395100  0.665100  0.292100  1.0  0.1816
  N  N205  1  0.731080  0.663010  0.077670  1.0  -0.3378
  N  N206  1  0.574710  0.563350  0.151320  1.0  -0.4079
  N  N207  1  0.764830  0.329780  0.432790  1.0  -0.3205
  N  N208  1  0.917270  0.431340  0.366530  1.0  -0.3909
  N  N209  1  0.069030  0.766730  0.167440  1.0  -0.3413
  N  N210  1  0.012100  0.793500  0.068000  1.0  -0.4041
  N  N211  1  0.419910  0.726550  0.842920  1.0  -0.3279
  N  N212  1  0.479700  0.701300  0.942500  1.0  -0.4197
  N  N213  1  0.808750  0.077670  0.259320  1.0  -0.3364
  N  N214  1  0.726030  0.151320  0.285330  1.0  -0.4086
  N  N215  1  0.197620  0.432790  0.237430  1.0  -0.3221
  N  N216  1  0.283800  0.366530  0.202130  1.0  -0.3931
  N  N217  1  0.236470  0.167440  0.065830  1.0  -0.3411
  N  N218  1  0.080100  0.068000  0.138500  1.0  -0.4019
  N  N219  1  0.262830  0.842920  0.430530  1.0  -0.3269
  N  N220  1  0.422200  0.942500  0.356200  1.0  -0.4159
  N  N221  1  0.068070  0.259320  0.663010  1.0  -0.3382
  N  N222  1  0.011360  0.285330  0.563350  1.0  -0.4057
  N  N223  1  0.435050  0.237430  0.329780  1.0  -0.3228
  N  N224  1  0.485930  0.202130  0.431340  1.0  -0.3914
  N  N225  1  0.302300  0.065830  0.766730  1.0  -0.3414
  N  N226  1  0.218600  0.138500  0.793500  1.0  -0.4022
  N  N227  1  0.693360  0.430530  0.726550  1.0  -0.3235
  N  N228  1  0.778400  0.356200  0.701300  1.0  -0.4175
  N  N229  1  0.268920  0.336990  0.922330  1.0  -0.3371
  N  N230  1  0.425290  0.436650  0.848680  1.0  -0.4072
  N  N231  1  0.235170  0.670220  0.567210  1.0  -0.3197
  N  N232  1  0.082730  0.568660  0.633470  1.0  -0.39
  N  N233  1  0.930970  0.233270  0.832560  1.0  -0.3414
  N  N234  1  0.987900  0.206500  0.932000  1.0  -0.4036
  N  N235  1  0.580090  0.273450  0.157080  1.0  -0.3239
  N  N236  1  0.520300  0.298700  0.057500  1.0  -0.4174
  N  N237  1  0.191250  0.922330  0.740680  1.0  -0.3375
  N  N238  1  0.273970  0.848680  0.714670  1.0  -0.4076
  N  N239  1  0.802380  0.567210  0.762570  1.0  -0.3223
  N  N240  1  0.716200  0.633470  0.797870  1.0  -0.3953
  N  N241  1  0.763530  0.832560  0.934170  1.0  -0.3417
  N  N242  1  0.919900  0.932000  0.861500  1.0  -0.4009
  N  N243  1  0.737170  0.157080  0.569470  1.0  -0.3259
  N  N244  1  0.577800  0.057500  0.643800  1.0  -0.4165
  N  N245  1  0.931930  0.740680  0.336990  1.0  -0.3386
  N  N246  1  0.988640  0.714670  0.436650  1.0  -0.4079
  N  N247  1  0.564950  0.762570  0.670220  1.0  -0.3223
  N  N248  1  0.514070  0.797870  0.568660  1.0  -0.3916
  N  N249  1  0.697700  0.934170  0.233270  1.0  -0.3408
  N  N250  1  0.781400  0.861500  0.206500  1.0  -0.4041
  N  N251  1  0.306640  0.569470  0.273450  1.0  -0.3256
  N  N252  1  0.221600  0.643800  0.298700  1.0  -0.416
  O  O253  1  0.039320  0.528910  0.225450  1.0  -0.5728
  O  O254  1  0.190440  0.616050  0.143930  1.0  -0.5089
  O  O255  1  0.455970  0.470280  0.291770  1.0  -0.5786
  O  O256  1  0.306800  0.378000  0.365900  1.0  -0.495
  O  O257  1  0.509230  0.753570  0.033980  1.0  -0.5618
  O  O258  1  0.575340  0.747070  0.120750  1.0  -0.5348
  O  O259  1  0.983840  0.741100  0.977380  1.0  -0.5652
  O  O260  1  0.911580  0.742610  0.892970  1.0  -0.5692
  O  O261  1  0.264770  0.225450  0.245640  1.0  -0.5724
  O  O262  1  0.334370  0.143930  0.240020  1.0  -0.5096
  O  O263  1  0.747740  0.291770  0.237950  1.0  -0.5796
  O  O264  1  0.672700  0.365900  0.256100  1.0  -0.4942
  O  O265  1  0.543210  0.033980  0.212450  1.0  -0.5628
  O  O266  1  0.696090  0.120750  0.132180  1.0  -0.5345
  O  O267  1  0.961220  0.977380  0.281520  1.0  -0.5649
  O  O268  1  0.804550  0.892970  0.364420  1.0  -0.5727
  O  O269  1  0.510410  0.245640  0.528910  1.0  -0.5708
  O  O270  1  0.574390  0.240020  0.616050  1.0  -0.5091
  O  O271  1  0.985690  0.237950  0.470280  1.0  -0.5805
  O  O272  1  0.928800  0.256100  0.378000  1.0  -0.4935
  O  O273  1  0.755660  0.212450  0.753570  1.0  -0.5629
  O  O274  1  0.828270  0.132180  0.747070  1.0  -0.5346
  O  O275  1  0.242740  0.281520  0.741100  1.0  -0.5648
  O  O276  1  0.168970  0.364420  0.742610  1.0  -0.5711
  O  O277  1  0.960680  0.471090  0.774550  1.0  -0.5717
  O  O278  1  0.809560  0.383950  0.856070  1.0  -0.5093
  O  O279  1  0.544030  0.529720  0.708230  1.0  -0.5798
  O  O280  1  0.693200  0.622000  0.634100  1.0  -0.4943
  O  O281  1  0.490770  0.246430  0.966020  1.0  -0.5631
  O  O282  1  0.424660  0.252930  0.879250  1.0  -0.5335
  O  O283  1  0.016160  0.258900  0.022620  1.0  -0.5643
  O  O284  1  0.088420  0.257390  0.107030  1.0  -0.5693
  O  O285  1  0.735230  0.774550  0.754360  1.0  -0.5724
  O  O286  1  0.665630  0.856070  0.759980  1.0  -0.5088
  O  O287  1  0.252260  0.708230  0.762050  1.0  -0.5789
  O  O288  1  0.327300  0.634100  0.743900  1.0  -0.4946
  O  O289  1  0.456790  0.966020  0.787550  1.0  -0.5629
  O  O290  1  0.303910  0.879250  0.867820  1.0  -0.5351
  O  O291  1  0.038780  0.022620  0.718480  1.0  -0.5652
  O  O292  1  0.195450  0.107030  0.635580  1.0  -0.5719
  O  O293  1  0.489590  0.754360  0.471090  1.0  -0.5716
  O  O294  1  0.425610  0.759980  0.383950  1.0  -0.5084
  O  O295  1  0.014310  0.762050  0.529720  1.0  -0.5807
  O  O296  1  0.071200  0.743900  0.622000  1.0  -0.4942
  O  O297  1  0.244340  0.787550  0.246430  1.0  -0.5621
  O  O298  1  0.171730  0.867820  0.252930  1.0  -0.5335
  O  O299  1  0.757260  0.718480  0.258900  1.0  -0.5646
  O  O300  1  0.831030  0.635580  0.257390  1.0  -0.5717
