# generated using pymatgen
data_Nd2(C3O4)3
_symmetry_space_group_name_H-M   'P 1'
_cell_length_a   11.25800000
_cell_length_b   12.60200000
_cell_length_c   14.68900000
_cell_angle_alpha   90.00000000
_cell_angle_beta   90.00000000
_cell_angle_gamma   90.00000000
_symmetry_Int_Tables_number   1
_chemical_formula_structural   Nd2(C3O4)3
_chemical_formula_sum   'Nd8 C36 O48'
_cell_volume   2083.97713872
_cell_formula_units_Z   4
loop_
 _symmetry_equiv_pos_site_id
 _symmetry_equiv_pos_as_xyz
  1  'x, y, z'
loop_
 _atom_site_type_symbol
 _atom_site_label
 _atom_site_symmetry_multiplicity
 _atom_site_fract_x
 _atom_site_fract_y
 _atom_site_fract_z
 _atom_site_occupancy
 _atom_site_charge
  Nd  Nd1  1  0.149170  0.113430  0.007410  1.0  2.3033
  Nd  Nd2  1  0.350830  0.386570  0.507410  1.0  2.3028
  Nd  Nd3  1  0.850830  0.113430  0.492590  1.0  2.3041
  Nd  Nd4  1  0.649170  0.386570  0.992590  1.0  2.3034
  Nd  Nd5  1  0.850830  0.886570  0.992590  1.0  2.3034
  Nd  Nd6  1  0.649170  0.613430  0.492590  1.0  2.3041
  Nd  Nd7  1  0.149170  0.886570  0.507410  1.0  2.3028
  Nd  Nd8  1  0.350830  0.613430  0.007410  1.0  2.3034
  C  C9  1  0.032500  0.013100  0.167500  1.0  0.7978
  C  C10  1  0.303200  0.884000  0.076400  1.0  0.7744
  C  C11  1  0.385500  0.950600  0.136200  1.0  -0.1882
  C  C12  1  0.429500  0.054600  0.096600  1.0  0.7521
  C  C13  1  0.467500  0.486900  0.667500  1.0  0.7979
  C  C14  1  0.196800  0.616000  0.576400  1.0  0.7744
  C  C15  1  0.114500  0.549400  0.636200  1.0  -0.1897
  C  C16  1  0.070500  0.445400  0.596600  1.0  0.7552
  C  C17  1  0.967500  0.013100  0.332500  1.0  0.7981
  C  C18  1  0.696800  0.884000  0.423600  1.0  0.7812
  C  C19  1  0.614500  0.950600  0.363800  1.0  -0.1902
  C  C20  1  0.570500  0.054600  0.403400  1.0  0.7551
  C  C21  1  0.532500  0.486900  0.832500  1.0  0.7978
  C  C22  1  0.803200  0.616000  0.923600  1.0  0.7818
  C  C23  1  0.885500  0.549400  0.863800  1.0  -0.1895
  C  C24  1  0.929500  0.445400  0.903400  1.0  0.7533
  C  C25  1  0.967500  0.986900  0.832500  1.0  0.7981
  C  C26  1  0.696800  0.116000  0.923600  1.0  0.7817
  C  C27  1  0.614500  0.049400  0.863800  1.0  -0.1892
  C  C28  1  0.570500  0.945400  0.903400  1.0  0.7565
  C  C29  1  0.532500  0.513100  0.332500  1.0  0.7979
  C  C30  1  0.803200  0.384000  0.423600  1.0  0.7814
  C  C31  1  0.885500  0.450600  0.363800  1.0  -0.1885
  C  C32  1  0.929500  0.554600  0.403400  1.0  0.756
  C  C33  1  0.032500  0.986900  0.667500  1.0  0.7978
  C  C34  1  0.303200  0.116000  0.576400  1.0  0.7755
  C  C35  1  0.385500  0.049400  0.636200  1.0  -0.1896
  C  C36  1  0.429500  0.945400  0.596600  1.0  0.7516
  C  C37  1  0.467500  0.513100  0.167500  1.0  0.7979
  C  C38  1  0.196800  0.384000  0.076400  1.0  0.7749
  C  C39  1  0.114500  0.450600  0.136200  1.0  -0.1902
  C  C40  1  0.070500  0.554600  0.096600  1.0  0.7551
  C  C41  1  0.000000  0.947300  0.250000  1.0  -0.4099
  C  C42  1  0.500000  0.552700  0.750000  1.0  -0.4039
  C  C43  1  0.000000  0.052700  0.750000  1.0  -0.4039
  C  C44  1  0.500000  0.447300  0.250000  1.0  -0.4099
  O  O45  1  0.103800  0.085000  0.175000  1.0  -0.5884
  O  O46  1  0.983300  0.991200  0.091100  1.0  -0.8872
  O  O47  1  0.219900  0.930300  0.030700  1.0  -0.707
  O  O48  1  0.314700  0.784500  0.075200  1.0  -0.7501
  O  O49  1  0.354500  0.116200  0.060400  1.0  -0.7642
  O  O50  1  0.534300  0.071100  0.095200  1.0  -0.5446
  O  O51  1  0.396200  0.415000  0.675000  1.0  -0.5846
  O  O52  1  0.516700  0.508800  0.591100  1.0  -0.8881
  O  O53  1  0.280100  0.569700  0.530700  1.0  -0.7072
  O  O54  1  0.185300  0.715500  0.575200  1.0  -0.7507
  O  O55  1  0.145500  0.383800  0.560400  1.0  -0.7626
  O  O56  1  0.965700  0.428900  0.595200  1.0  -0.5471
  O  O57  1  0.896200  0.085000  0.325000  1.0  -0.5852
  O  O58  1  0.016700  0.991200  0.408900  1.0  -0.8891
  O  O59  1  0.780100  0.930300  0.469300  1.0  -0.7067
  O  O60  1  0.685300  0.784500  0.424800  1.0  -0.7504
  O  O61  1  0.645500  0.116200  0.439600  1.0  -0.7643
  O  O62  1  0.465700  0.071100  0.404800  1.0  -0.5474
  O  O63  1  0.603800  0.415000  0.825000  1.0  -0.5884
  O  O64  1  0.483300  0.508800  0.908900  1.0  -0.8867
  O  O65  1  0.719900  0.569700  0.969300  1.0  -0.7065
  O  O66  1  0.814700  0.715500  0.924800  1.0  -0.7525
  O  O67  1  0.854500  0.383800  0.939600  1.0  -0.7617
  O  O68  1  0.034300  0.428900  0.904800  1.0  -0.544
  O  O69  1  0.896200  0.915000  0.825000  1.0  -0.5835
  O  O70  1  0.016700  0.008800  0.908900  1.0  -0.8885
  O  O71  1  0.780100  0.069700  0.969300  1.0  -0.7072
  O  O72  1  0.685300  0.215500  0.924800  1.0  -0.7518
  O  O73  1  0.645500  0.883800  0.939600  1.0  -0.7619
  O  O74  1  0.465700  0.928900  0.904800  1.0  -0.5473
  O  O75  1  0.603800  0.585000  0.325000  1.0  -0.5889
  O  O76  1  0.483300  0.491200  0.408900  1.0  -0.8872
  O  O77  1  0.719900  0.430300  0.469300  1.0  -0.706
  O  O78  1  0.814700  0.284500  0.424800  1.0  -0.7504
  O  O79  1  0.854500  0.616200  0.439600  1.0  -0.7641
  O  O80  1  0.034300  0.571100  0.404800  1.0  -0.5439
  O  O81  1  0.103800  0.915000  0.675000  1.0  -0.5866
  O  O82  1  0.983300  0.008800  0.591100  1.0  -0.8864
  O  O83  1  0.219900  0.069700  0.530700  1.0  -0.7067
  O  O84  1  0.314700  0.215500  0.575200  1.0  -0.7518
  O  O85  1  0.354500  0.883800  0.560400  1.0  -0.7623
  O  O86  1  0.534300  0.928900  0.595200  1.0  -0.5445
  O  O87  1  0.396200  0.585000  0.175000  1.0  -0.5855
  O  O88  1  0.516700  0.491200  0.091100  1.0  -0.8885
  O  O89  1  0.280100  0.430300  0.030700  1.0  -0.7075
  O  O90  1  0.185300  0.284500  0.075200  1.0  -0.7502
  O  O91  1  0.145500  0.616200  0.060400  1.0  -0.7653
  O  O92  1  0.965700  0.571100  0.095200  1.0  -0.5473
