# generated using pymatgen
data_FeCu6H72C36N13O15
_symmetry_space_group_name_H-M   'P 1'
_cell_length_a   14.36340000
_cell_length_b   15.91650000
_cell_length_c   17.45980000
_cell_angle_alpha   68.16200000
_cell_angle_beta   66.27200000
_cell_angle_gamma   64.60000000
_symmetry_Int_Tables_number   1
_chemical_formula_structural   FeCu6H72C36N13O15
_chemical_formula_sum   'Fe2 Cu12 H144 C72 N26 O30'
_cell_volume   3203.54715029
_cell_formula_units_Z   2
loop_
 _symmetry_equiv_pos_site_id
 _symmetry_equiv_pos_as_xyz
  1  'x, y, z'
loop_
 _atom_site_type_symbol
 _atom_site_label
 _atom_site_symmetry_multiplicity
 _atom_site_fract_x
 _atom_site_fract_y
 _atom_site_fract_z
 _atom_site_occupancy
 _atom_site_charge
  Fe  Fe1  1  0.500000  0.000000  0.500000  1.0  -0.4859
  Fe  Fe2  1  0.000000  0.500000  0.000000  1.0  -0.5426
  Cu  Cu3  1  0.736430  0.201260  0.377590  1.0  0.8296
  Cu  Cu4  1  0.834630  0.794950  0.107090  1.0  0.8324
  Cu  Cu5  1  0.192910  0.246190  0.388410  1.0  0.8375
  Cu  Cu6  1  0.649390  0.848570  0.250710  1.0  0.8019
  Cu  Cu7  1  0.734880  0.362930  0.241260  1.0  0.8487
  Cu  Cu8  1  0.188830  0.299280  0.217650  1.0  0.8384
  Cu  Cu9  1  0.263570  0.798740  0.622410  1.0  0.8294
  Cu  Cu10  1  0.165370  0.205050  0.892910  1.0  0.8343
  Cu  Cu11  1  0.807090  0.753810  0.611590  1.0  0.838
  Cu  Cu12  1  0.350610  0.151430  0.749290  1.0  0.8026
  Cu  Cu13  1  0.265120  0.637070  0.758740  1.0  0.8489
  Cu  Cu14  1  0.811170  0.700720  0.782350  1.0  0.839
  H  H15  1  0.995900  0.204500  0.282000  1.0  0.0907
  H  H16  1  0.955800  0.234800  0.199700  1.0  0.0941
  H  H17  1  0.922300  0.960500  0.319500  1.0  0.1036
  H  H18  1  0.795100  0.993500  0.364700  1.0  0.0773
  H  H19  1  0.843700  0.049700  0.269100  1.0  0.1124
  H  H20  1  0.871900  0.807500  0.264600  1.0  0.0963
  H  H21  1  0.842000  0.922200  0.241500  1.0  0.0771
  H  H22  1  0.127500  0.683300  0.116400  1.0  0.1001
  H  H23  1  0.069500  0.651800  0.075500  1.0  0.1199
  H  H24  1  0.027800  0.646100  0.176600  1.0  0.1152
  H  H25  1  0.021700  0.435200  0.448500  1.0  0.0679
  H  H26  1  0.104300  0.493500  0.412600  1.0  0.0741
  H  H27  1  0.039500  0.496500  0.303500  1.0  0.0844
  H  H28  1  0.168700  0.458900  0.279900  1.0  0.058
  H  H29  1  0.129700  0.364500  0.562200  1.0  0.0861
  H  H30  1  0.206900  0.258500  0.553100  1.0  0.0715
  H  H31  1  0.042800  0.243000  0.631100  1.0  0.0733
  H  H32  1  0.982900  0.337100  0.569800  1.0  0.0716
  H  H33  1  0.302500  0.388200  0.350000  1.0  0.1056
  H  H34  1  0.336100  0.304300  0.429800  1.0  0.1056
  H  H35  1  0.273100  0.412200  0.439800  1.0  0.0997
  H  H36  1  0.469300  0.860000  0.187600  1.0  0.0848
  H  H37  1  0.478200  0.749100  0.221400  1.0  0.0722
  H  H38  1  0.663600  0.701000  0.160000  1.0  0.0757
  H  H39  1  0.613000  0.783700  0.086500  1.0  0.0703
  H  H40  1  0.505800  0.667500  0.380600  1.0  0.0743
  H  H41  1  0.609400  0.645700  0.299500  1.0  0.0812
  H  H42  1  0.598300  0.717500  0.431100  1.0  0.0733
  H  H43  1  0.661000  0.608600  0.423300  1.0  0.0811
  H  H44  1  0.437600  0.838200  0.398400  1.0  0.0747
  H  H45  1  0.374900  0.809500  0.359400  1.0  0.1043
  H  H46  1  0.402200  0.907300  0.313900  1.0  0.0832
  H  H47  1  0.512300  0.511700  0.303400  1.0  0.0876
  H  H48  1  0.440100  0.477600  0.278600  1.0  0.0656
  H  H49  1  0.521100  0.316300  0.342400  1.0  0.0715
  H  H50  1  0.482300  0.376100  0.412400  1.0  0.0855
  H  H51  1  0.530100  0.353500  0.204600  1.0  0.0765
  H  H52  1  0.539400  0.436600  0.117700  1.0  0.0869
  H  H53  1  0.729200  0.358600  0.072100  1.0  0.0893
  H  H54  1  0.666200  0.288600  0.087900  1.0  0.0898
  H  H55  1  0.661600  0.526800  0.090300  1.0  0.1013
  H  H56  1  0.535300  0.575200  0.131200  1.0  0.1021
  H  H57  1  0.620100  0.572000  0.170800  1.0  0.1055
  H  H58  1  0.404600  0.146900  0.218400  1.0  0.0962
  H  H59  1  0.400900  0.074000  0.177200  1.0  0.0793
  H  H60  1  0.239200  0.064800  0.275100  1.0  0.0758
  H  H61  1  0.308000  0.057900  0.331700  1.0  0.0732
  H  H62  1  0.439800  0.216800  0.041300  1.0  0.0797
  H  H63  1  0.341300  0.315100  0.034200  1.0  0.0894
  H  H64  1  0.479900  0.249300  0.137900  1.0  0.0839
  H  H65  1  0.456600  0.348800  0.067300  1.0  0.0844
  H  H66  1  0.206500  0.147200  0.145500  1.0  0.0958
  H  H67  1  0.314200  0.136200  0.066300  1.0  0.1075
  H  H68  1  0.217600  0.236100  0.064100  1.0  0.1075
  H  H69  1  0.756900  0.192500  0.542400  1.0  0.1925
  H  H70  1  0.837200  0.928700  0.936200  1.0  0.1247
  H  H71  1  0.019400  0.182400  0.536100  1.0  0.1569
  H  H72  1  0.805800  0.667300  0.328400  1.0  0.1828
  H  H73  1  0.761500  0.186000  0.192400  1.0  0.1946
  H  H74  1  0.343900  0.390100  0.203100  1.0  0.1716
  H  H75  1  0.018400  0.849500  0.165700  1.0  0.0836
  H  H76  1  0.946700  0.923600  0.102800  1.0  0.0728
  H  H77  1  0.104600  0.822800  0.000200  1.0  0.0751
  H  H78  1  0.062000  0.757700  0.980900  1.0  0.0894
  H  H79  1  0.791000  0.007200  0.517200  1.0  0.0844
  H  H80  1  0.879400  0.011300  0.548700  1.0  0.067
  H  H81  1  0.931800  0.121200  0.224600  1.0  0.0504
  H  H82  1  0.019900  0.084200  0.273500  1.0  0.0928
  H  H83  1  0.953900  0.967200  0.421400  1.0  0.0908
  H  H84  1  0.968900  0.064800  0.412500  1.0  0.0687
  H  H85  1  0.022500  0.891300  0.895500  1.0  0.103
  H  H86  1  0.980400  0.948700  0.967800  1.0  0.0599
  H  H87  1  0.004100  0.795500  0.718000  1.0  0.0929
  H  H88  1  0.044200  0.765200  0.800300  1.0  0.0938
  H  H89  1  0.077700  0.039500  0.680500  1.0  0.1027
  H  H90  1  0.204900  0.006500  0.635300  1.0  0.0803
  H  H91  1  0.156300  0.950300  0.730900  1.0  0.1096
  H  H92  1  0.128100  0.192500  0.735400  1.0  0.0944
  H  H93  1  0.158000  0.077800  0.758500  1.0  0.0769
  H  H94  1  0.872500  0.316700  0.883600  1.0  0.0988
  H  H95  1  0.930500  0.348200  0.924500  1.0  0.1204
  H  H96  1  0.972200  0.353900  0.823400  1.0  0.1144
  H  H97  1  0.978300  0.564800  0.551500  1.0  0.0692
  H  H98  1  0.895700  0.506500  0.587400  1.0  0.0752
  H  H99  1  0.960500  0.503500  0.696500  1.0  0.084
  H  H100  1  0.831300  0.541100  0.720100  1.0  0.0573
  H  H101  1  0.870300  0.635500  0.437800  1.0  0.0856
  H  H102  1  0.793100  0.741500  0.446900  1.0  0.0719
  H  H103  1  0.957200  0.757000  0.368900  1.0  0.0733
  H  H104  1  0.017100  0.662900  0.430200  1.0  0.0714
  H  H105  1  0.697500  0.611800  0.650000  1.0  0.1042
  H  H106  1  0.663900  0.695700  0.570200  1.0  0.106
  H  H107  1  0.726900  0.587800  0.560200  1.0  0.0996
  H  H108  1  0.530700  0.140000  0.812400  1.0  0.0835
  H  H109  1  0.521800  0.250900  0.778600  1.0  0.0725
  H  H110  1  0.336400  0.299000  0.840000  1.0  0.0764
  H  H111  1  0.387000  0.216300  0.913500  1.0  0.0692
  H  H112  1  0.494200  0.332500  0.619400  1.0  0.0752
  H  H113  1  0.390600  0.354300  0.700500  1.0  0.0821
  H  H114  1  0.401700  0.282500  0.568900  1.0  0.074
  H  H115  1  0.339000  0.391400  0.576700  1.0  0.0826
  H  H116  1  0.562400  0.161800  0.601600  1.0  0.0765
  H  H117  1  0.625100  0.190500  0.640600  1.0  0.1079
  H  H118  1  0.597800  0.092700  0.686100  1.0  0.0816
  H  H119  1  0.487700  0.488300  0.696600  1.0  0.0874
  H  H120  1  0.559900  0.522400  0.721400  1.0  0.0649
  H  H121  1  0.478900  0.683700  0.657600  1.0  0.0711
  H  H122  1  0.517700  0.623900  0.587600  1.0  0.0851
  H  H123  1  0.469900  0.646500  0.795400  1.0  0.0767
  H  H124  1  0.460600  0.563400  0.882300  1.0  0.0859
  H  H125  1  0.270800  0.641400  0.927900  1.0  0.0866
  H  H126  1  0.333800  0.711400  0.912100  1.0  0.0889
  H  H127  1  0.338400  0.473200  0.909700  1.0  0.1005
  H  H128  1  0.464700  0.424800  0.868800  1.0  0.1025
  H  H129  1  0.379900  0.428000  0.829200  1.0  0.1051
  H  H130  1  0.595400  0.853100  0.781600  1.0  0.0952
  H  H131  1  0.599100  0.926000  0.822800  1.0  0.0771
  H  H132  1  0.760800  0.935200  0.724900  1.0  0.0737
  H  H133  1  0.692000  0.942100  0.668300  1.0  0.0727
  H  H134  1  0.560200  0.783200  0.958700  1.0  0.0782
  H  H135  1  0.658700  0.684900  0.965800  1.0  0.0867
  H  H136  1  0.520100  0.750700  0.862100  1.0  0.0847
  H  H137  1  0.543400  0.651200  0.932700  1.0  0.084
  H  H138  1  0.793500  0.852800  0.854500  1.0  0.0975
  H  H139  1  0.685800  0.863800  0.933700  1.0  0.1069
  H  H140  1  0.782400  0.763900  0.935900  1.0  0.1078
  H  H141  1  0.243100  0.807500  0.457600  1.0  0.1895
  H  H142  1  0.162800  0.071300  0.063800  1.0  0.1274
  H  H143  1  0.980600  0.817600  0.463900  1.0  0.1563
  H  H144  1  0.194200  0.332700  0.671600  1.0  0.1818
  H  H145  1  0.238500  0.814000  0.807600  1.0  0.1951
  H  H146  1  0.656100  0.609900  0.796900  1.0  0.1722
  H  H147  1  0.981600  0.150500  0.834300  1.0  0.0823
  H  H148  1  0.053300  0.076400  0.897200  1.0  0.073
  H  H149  1  0.895400  0.177200  0.999800  1.0  0.0754
  H  H150  1  0.938000  0.242300  0.019100  1.0  0.0899
  H  H151  1  0.209000  0.992800  0.482800  1.0  0.0845
  H  H152  1  0.120600  0.988700  0.451300  1.0  0.0655
  H  H153  1  0.068200  0.878800  0.775400  1.0  0.0502
  H  H154  1  0.980100  0.915800  0.726500  1.0  0.0922
  H  H155  1  0.046100  0.032800  0.578600  1.0  0.0894
  H  H156  1  0.031100  0.935200  0.587500  1.0  0.0666
  H  H157  1  0.977500  0.108700  0.104500  1.0  0.1019
  H  H158  1  0.019600  0.051300  0.032200  1.0  0.0624
  C  C159  1  0.578000  0.087900  0.450800  1.0  0.1922
  C  C160  1  0.925200  0.613800  0.040600  1.0  0.2098
  C  C161  1  0.383400  0.091700  0.455800  1.0  0.2152
  C  C162  1  0.564700  0.948500  0.399900  1.0  0.2347
  C  C163  1  0.895800  0.444700  0.085100  1.0  0.239
  C  C164  1  0.080500  0.444000  0.080500  1.0  0.1821
  C  C165  1  0.938900  0.206200  0.262600  1.0  0.0058
  C  C166  1  0.856000  0.015700  0.325600  1.0  -0.2035
  C  C167  1  0.861700  0.867000  0.218100  1.0  0.0612
  C  C168  1  0.058400  0.682300  0.119400  1.0  -0.117
  C  C169  1  0.094200  0.436800  0.410400  1.0  -0.0052
  C  C170  1  0.102500  0.444500  0.320300  1.0  0.0736
  C  C171  1  0.145600  0.312800  0.535800  1.0  -0.0125
  C  C172  1  0.049100  0.280600  0.570700  1.0  0.0455
  C  C173  1  0.281000  0.364500  0.412800  1.0  -0.188
  C  C174  1  0.515000  0.794700  0.209800  1.0  -0.0124
  C  C175  1  0.622700  0.769900  0.143400  1.0  0.087
  C  C176  1  0.568700  0.687500  0.340400  1.0  0.0079
  C  C177  1  0.638800  0.675900  0.390000  1.0  0.078
  C  C178  1  0.427900  0.840400  0.345200  1.0  -0.1785
  C  C179  1  0.511500  0.459500  0.286200  1.0  -0.0113
  C  C180  1  0.532600  0.365900  0.355400  1.0  0.0679
  C  C181  1  0.577300  0.390400  0.160800  1.0  -0.0291
  C  C182  1  0.681900  0.322100  0.116600  1.0  0.0604
  C  C183  1  0.604400  0.537300  0.143900  1.0  -0.1967
  C  C184  1  0.356500  0.129000  0.204200  1.0  -0.0237
  C  C185  1  0.273300  0.100300  0.285600  1.0  0.0408
  C  C186  1  0.379500  0.262200  0.074500  1.0  0.003
  C  C187  1  0.423300  0.301800  0.113000  1.0  0.0435
  C  C188  1  0.256400  0.180100  0.101200  1.0  -0.1531
  C  C189  1  0.957000  0.861400  0.146100  1.0  -0.0178
  C  C190  1  0.038600  0.812400  0.006200  1.0  0.0103
  C  C191  1  0.841400  0.041300  0.504000  1.0  -0.0935
  C  C192  1  0.944900  0.125400  0.274300  1.0  -0.012
  C  C193  1  0.915200  0.035400  0.423000  1.0  0.062
  C  C194  1  0.983600  0.890500  0.957100  1.0  0.0463
  C  C195  1  0.422000  0.912100  0.549200  1.0  0.2028
  C  C196  1  0.074800  0.386200  0.959400  1.0  0.2114
  C  C197  1  0.616600  0.908300  0.544200  1.0  0.2164
  C  C198  1  0.435300  0.051500  0.600100  1.0  0.2366
  C  C199  1  0.104200  0.555300  0.914900  1.0  0.2394
  C  C200  1  0.919500  0.556000  0.919500  1.0  0.1816
  C  C201  1  0.061100  0.793800  0.737400  1.0  0.0059
  C  C202  1  0.144000  0.984300  0.674400  1.0  -0.2019
  C  C203  1  0.138300  0.133000  0.781900  1.0  0.0603
  C  C204  1  0.941600  0.317700  0.880600  1.0  -0.1165
  C  C205  1  0.905800  0.563200  0.589600  1.0  -0.007
  C  C206  1  0.897500  0.555500  0.679700  1.0  0.0742
  C  C207  1  0.854400  0.687200  0.464200  1.0  -0.0107
  C  C208  1  0.950900  0.719400  0.429300  1.0  0.0427
  C  C209  1  0.719000  0.635500  0.587200  1.0  -0.1881
  C  C210  1  0.485000  0.205300  0.790200  1.0  -0.012
  C  C211  1  0.377300  0.230100  0.856600  1.0  0.087
  C  C212  1  0.431300  0.312500  0.659600  1.0  0.0061
  C  C213  1  0.361200  0.324100  0.610000  1.0  0.0788
  C  C214  1  0.572100  0.159600  0.654800  1.0  -0.1784
  C  C215  1  0.488500  0.540500  0.713800  1.0  -0.0109
  C  C216  1  0.467400  0.634100  0.644600  1.0  0.0679
  C  C217  1  0.422700  0.609600  0.839200  1.0  -0.028
  C  C218  1  0.318100  0.677900  0.883400  1.0  0.061
  C  C219  1  0.395600  0.462700  0.856100  1.0  -0.1968
  C  C220  1  0.643500  0.871000  0.795800  1.0  -0.023
  C  C221  1  0.726700  0.899700  0.714400  1.0  0.0428
  C  C222  1  0.620500  0.737800  0.925500  1.0  0.0041
  C  C223  1  0.576700  0.698200  0.887000  1.0  0.0428
  C  C224  1  0.743600  0.819900  0.898800  1.0  -0.1506
  C  C225  1  0.043000  0.138600  0.853900  1.0  -0.0193
  C  C226  1  0.961400  0.187600  0.993800  1.0  0.0111
  C  C227  1  0.158600  0.958700  0.496000  1.0  -0.0932
  C  C228  1  0.055100  0.874600  0.725700  1.0  -0.015
  C  C229  1  0.084800  0.964600  0.577000  1.0  0.0609
  C  C230  1  0.016400  0.109500  0.042900  1.0  0.0439
  N  N231  1  0.628700  0.139400  0.422800  1.0  -0.4635
  N  N232  1  0.880700  0.682400  0.065300  1.0  -0.4327
  N  N233  1  0.310400  0.146300  0.431200  1.0  -0.374
  N  N234  1  0.599400  0.914200  0.341800  1.0  -0.4086
  N  N235  1  0.835100  0.409900  0.141200  1.0  -0.434
  N  N236  1  0.128600  0.402900  0.130400  1.0  -0.4474
  N  N237  1  0.866300  0.080100  0.360800  1.0  -0.2398
  N  N238  1  0.984000  0.780800  0.103700  1.0  -0.1913
  N  N239  1  0.177600  0.348000  0.441100  1.0  -0.2099
  N  N240  1  0.530200  0.790100  0.291500  1.0  -0.1552
  N  N241  1  0.598500  0.443900  0.203500  1.0  -0.2136
  N  N242  1  0.303100  0.211300  0.142800  1.0  -0.1271
  N  N243  1  0.371300  0.860600  0.577200  1.0  -0.4623
  N  N244  1  0.119300  0.317600  0.934700  1.0  -0.4313
  N  N245  1  0.689600  0.853700  0.568800  1.0  -0.3737
  N  N246  1  0.400600  0.085800  0.658200  1.0  -0.4064
  N  N247  1  0.164900  0.590100  0.858800  1.0  -0.4355
  N  N248  1  0.871400  0.597100  0.869600  1.0  -0.4471
  N  N249  1  0.133700  0.919900  0.639200  1.0  -0.2363
  N  N250  1  0.016000  0.219200  0.896300  1.0  -0.1909
  N  N251  1  0.822400  0.652000  0.558900  1.0  -0.2084
  N  N252  1  0.469800  0.209900  0.708500  1.0  -0.157
  N  N253  1  0.401500  0.556100  0.796500  1.0  -0.2149
  N  N254  1  0.696900  0.788700  0.857200  1.0  -0.1273
  N  N255  1  0.340200  0.579600  0.110600  1.0  0.679
  N  N256  1  0.659800  0.420400  0.889400  1.0  0.6774
  O  O257  1  0.839500  0.269000  0.303200  1.0  -0.6466
  O  O258  1  0.774000  0.156700  0.502700  1.0  -0.6657
  O  O259  1  0.782700  0.878800  0.183300  1.0  -0.6411
  O  O260  1  0.881400  0.892700  0.973700  1.0  -0.5624
  O  O261  1  0.105900  0.353700  0.318000  1.0  -0.6611
  O  O262  1  0.060000  0.223600  0.519600  1.0  -0.5978
  O  O263  1  0.678700  0.826300  0.139500  1.0  -0.6295
  O  O264  1  0.731800  0.701000  0.332300  1.0  -0.5792
  O  O265  1  0.640500  0.335400  0.356800  1.0  -0.6321
  O  O266  1  0.734700  0.254000  0.179400  1.0  -0.5913
  O  O267  1  0.193900  0.184500  0.311800  1.0  -0.6378
  O  O268  1  0.339500  0.347700  0.179100  1.0  -0.5227
  O  O269  1  0.160500  0.731000  0.696800  1.0  -0.6436
  O  O270  1  0.226000  0.843300  0.497300  1.0  -0.6628
  O  O271  1  0.217300  0.121200  0.816700  1.0  -0.6409
  O  O272  1  0.118600  0.107300  0.026300  1.0  -0.5597
  O  O273  1  0.894100  0.646300  0.682000  1.0  -0.6597
  O  O274  1  0.940000  0.776400  0.480400  1.0  -0.5987
  O  O275  1  0.321300  0.173700  0.860500  1.0  -0.6292
  O  O276  1  0.268200  0.299000  0.667700  1.0  -0.5813
  O  O277  1  0.359500  0.664600  0.643200  1.0  -0.6325
  O  O278  1  0.265300  0.746000  0.820600  1.0  -0.5906
  O  O279  1  0.806100  0.815500  0.688200  1.0  -0.6339
  O  O280  1  0.660500  0.652300  0.820900  1.0  -0.5241
  O  O281  1  0.306600  0.540700  0.187900  1.0  -0.5277
  O  O282  1  0.355600  0.655300  0.090200  1.0  -0.4489
  O  O283  1  0.360900  0.537900  0.057600  1.0  -0.4875
  O  O284  1  0.693400  0.459300  0.812100  1.0  -0.5261
  O  O285  1  0.644400  0.344700  0.909800  1.0  -0.4491
  O  O286  1  0.639100  0.462100  0.942400  1.0  -0.4877
