# generated using pymatgen
data_CdH20C24(N2Cl)2
_symmetry_space_group_name_H-M   'P 1'
_cell_length_a   9.13510000
_cell_length_b   17.41900000
_cell_length_c   15.58300000
_cell_angle_alpha   90.00000000
_cell_angle_beta   90.00000000
_cell_angle_gamma   90.00000000
_symmetry_Int_Tables_number   1
_chemical_formula_structural   CdH20C24(N2Cl)2
_chemical_formula_sum   'Cd4 H80 C96 N16 Cl8'
_cell_volume   2479.63407442
_cell_formula_units_Z   4
loop_
 _symmetry_equiv_pos_site_id
 _symmetry_equiv_pos_as_xyz
  1  'x, y, z'
loop_
 _atom_site_type_symbol
 _atom_site_label
 _atom_site_symmetry_multiplicity
 _atom_site_fract_x
 _atom_site_fract_y
 _atom_site_fract_z
 _atom_site_occupancy
 _atom_site_charge
  Cd  Cd1  1  0.000000  0.250000  0.039180  1.0  0.7897
  Cd  Cd2  1  0.000000  0.750000  0.460820  1.0  0.7898
  Cd  Cd3  1  0.000000  0.750000  0.960820  1.0  0.7898
  Cd  Cd4  1  0.000000  0.250000  0.539180  1.0  0.7897
  H  H5  1  0.960700  0.421000  0.964000  1.0  0.073
  H  H6  1  0.831900  0.496700  0.869100  1.0  0.1228
  H  H7  1  0.664200  0.304100  0.768000  1.0  0.115
  H  H8  1  0.795100  0.234400  0.866800  1.0  0.0663
  H  H9  1  0.653300  0.438500  0.688000  1.0  0.1004
  H  H10  1  0.451900  0.456200  0.829500  1.0  0.1079
  H  H11  1  0.502200  0.360000  0.633000  1.0  0.1206
  H  H12  1  0.329600  0.287600  0.562400  1.0  0.0755
  H  H13  1  0.021700  0.355300  0.720000  1.0  0.0685
  H  H14  1  0.187500  0.425900  0.798100  1.0  0.1263
  H  H15  1  0.039300  0.079000  0.964000  1.0  0.0732
  H  H16  1  0.168100  0.003300  0.869100  1.0  0.1235
  H  H17  1  0.335800  0.195900  0.768000  1.0  0.1151
  H  H18  1  0.204900  0.265600  0.866800  1.0  0.0665
  H  H19  1  0.346700  0.061500  0.688000  1.0  0.1014
  H  H20  1  0.548100  0.043800  0.829500  1.0  0.1075
  H  H21  1  0.497800  0.140000  0.633000  1.0  0.1208
  H  H22  1  0.670400  0.212400  0.562400  1.0  0.0754
  H  H23  1  0.978300  0.144700  0.720000  1.0  0.0684
  H  H24  1  0.812500  0.074100  0.798100  1.0  0.1263
  H  H25  1  0.960700  0.579000  0.536000  1.0  0.073
  H  H26  1  0.831900  0.503300  0.630900  1.0  0.1229
  H  H27  1  0.664200  0.695900  0.732000  1.0  0.1151
  H  H28  1  0.795100  0.765600  0.633200  1.0  0.0654
  H  H29  1  0.653300  0.561500  0.812000  1.0  0.0997
  H  H30  1  0.451900  0.543800  0.670500  1.0  0.1099
  H  H31  1  0.502200  0.640000  0.867000  1.0  0.1211
  H  H32  1  0.329600  0.712400  0.937600  1.0  0.0758
  H  H33  1  0.021700  0.644700  0.780000  1.0  0.0685
  H  H34  1  0.187500  0.574100  0.701900  1.0  0.1274
  H  H35  1  0.039300  0.921000  0.536000  1.0  0.0727
  H  H36  1  0.168100  0.996700  0.630900  1.0  0.1231
  H  H37  1  0.335800  0.804100  0.732000  1.0  0.1154
  H  H38  1  0.204900  0.734400  0.633200  1.0  0.0684
  H  H39  1  0.346700  0.938500  0.812000  1.0  0.0997
  H  H40  1  0.548100  0.956200  0.670500  1.0  0.1097
  H  H41  1  0.497800  0.860000  0.867000  1.0  0.1201
  H  H42  1  0.670400  0.787600  0.937600  1.0  0.0761
  H  H43  1  0.978300  0.855300  0.780000  1.0  0.0684
  H  H44  1  0.812500  0.925900  0.701900  1.0  0.1274
  H  H45  1  0.039300  0.579000  0.036000  1.0  0.0728
  H  H46  1  0.168100  0.503300  0.130900  1.0  0.123
  H  H47  1  0.335800  0.695900  0.232000  1.0  0.1152
  H  H48  1  0.204900  0.765600  0.133200  1.0  0.0653
  H  H49  1  0.346700  0.561500  0.312000  1.0  0.0995
  H  H50  1  0.548100  0.543800  0.170500  1.0  0.1098
  H  H51  1  0.497800  0.640000  0.367000  1.0  0.1203
  H  H52  1  0.670400  0.712400  0.437600  1.0  0.0759
  H  H53  1  0.978300  0.644700  0.280000  1.0  0.0683
  H  H54  1  0.812500  0.574100  0.201900  1.0  0.1275
  H  H55  1  0.960700  0.921000  0.036000  1.0  0.0728
  H  H56  1  0.831900  0.996700  0.130900  1.0  0.1229
  H  H57  1  0.664200  0.804100  0.232000  1.0  0.1152
  H  H58  1  0.795100  0.734400  0.133200  1.0  0.0682
  H  H59  1  0.653300  0.938500  0.312000  1.0  0.0998
  H  H60  1  0.451900  0.956200  0.170500  1.0  0.1097
  H  H61  1  0.502200  0.860000  0.367000  1.0  0.1211
  H  H62  1  0.329600  0.787600  0.437600  1.0  0.076
  H  H63  1  0.021700  0.855300  0.280000  1.0  0.0685
  H  H64  1  0.187500  0.925900  0.201900  1.0  0.1274
  H  H65  1  0.039300  0.421000  0.464000  1.0  0.0729
  H  H66  1  0.168100  0.496700  0.369100  1.0  0.123
  H  H67  1  0.335800  0.304100  0.268000  1.0  0.1151
  H  H68  1  0.204900  0.234400  0.366800  1.0  0.0663
  H  H69  1  0.346700  0.438500  0.188000  1.0  0.1007
  H  H70  1  0.548100  0.456200  0.329500  1.0  0.1079
  H  H71  1  0.497800  0.360000  0.133000  1.0  0.1206
  H  H72  1  0.670400  0.287600  0.062400  1.0  0.0753
  H  H73  1  0.978300  0.355300  0.220000  1.0  0.0684
  H  H74  1  0.812500  0.425900  0.298100  1.0  0.1263
  H  H75  1  0.960700  0.079000  0.464000  1.0  0.0733
  H  H76  1  0.831900  0.003300  0.369100  1.0  0.1234
  H  H77  1  0.664200  0.195900  0.268000  1.0  0.1152
  H  H78  1  0.795100  0.265600  0.366800  1.0  0.0667
  H  H79  1  0.653300  0.061500  0.188000  1.0  0.101
  H  H80  1  0.451900  0.043800  0.329500  1.0  0.1076
  H  H81  1  0.502200  0.140000  0.133000  1.0  0.1205
  H  H82  1  0.329600  0.212400  0.062400  1.0  0.0755
  H  H83  1  0.021700  0.144700  0.220000  1.0  0.0685
  H  H84  1  0.187500  0.074100  0.298100  1.0  0.1262
  C  C85  1  0.897600  0.397120  0.924600  1.0  0.1727
  C  C86  1  0.821300  0.443040  0.867500  1.0  -0.2112
  C  C87  1  0.729300  0.409220  0.808130  1.0  0.135
  C  C88  1  0.722700  0.329780  0.808500  1.0  -0.2075
  C  C89  1  0.801600  0.288290  0.867900  1.0  0.1639
  C  C90  1  0.636200  0.455490  0.747810  1.0  -0.0843
  C  C91  1  0.469100  0.457190  0.766800  1.0  -0.0754
  C  C92  1  0.364800  0.403600  0.722480  1.0  0.1242
  C  C93  1  0.404600  0.360270  0.652000  1.0  -0.2068
  C  C94  1  0.300200  0.317400  0.609600  1.0  0.1716
  C  C95  1  0.120000  0.356500  0.702200  1.0  0.172
  C  C96  1  0.218400  0.399420  0.748800  1.0  -0.2165
  C  C97  1  0.102400  0.102880  0.924600  1.0  0.1731
  C  C98  1  0.178700  0.056960  0.867500  1.0  -0.21
  C  C99  1  0.270700  0.090780  0.808130  1.0  0.1354
  C  C100  1  0.277300  0.170220  0.808500  1.0  -0.2081
  C  C101  1  0.198400  0.211710  0.867900  1.0  0.1631
  C  C102  1  0.363800  0.044510  0.747810  1.0  -0.0843
  C  C103  1  0.530900  0.042810  0.766800  1.0  -0.0756
  C  C104  1  0.635200  0.096400  0.722480  1.0  0.1246
  C  C105  1  0.595400  0.139730  0.652000  1.0  -0.2054
  C  C106  1  0.699800  0.182600  0.609600  1.0  0.1717
  C  C107  1  0.880000  0.143500  0.702200  1.0  0.1731
  C  C108  1  0.781600  0.100580  0.748800  1.0  -0.2177
  C  C109  1  0.897600  0.602880  0.575400  1.0  0.1727
  C  C110  1  0.821300  0.556960  0.632500  1.0  -0.2112
  C  C111  1  0.729300  0.590780  0.691870  1.0  0.1349
  C  C112  1  0.722700  0.670220  0.691500  1.0  -0.2082
  C  C113  1  0.801600  0.711710  0.632100  1.0  0.164
  C  C114  1  0.636200  0.544510  0.752190  1.0  -0.0852
  C  C115  1  0.469100  0.542810  0.733200  1.0  -0.0743
  C  C116  1  0.364800  0.596400  0.777520  1.0  0.1245
  C  C117  1  0.404600  0.639730  0.848000  1.0  -0.2046
  C  C118  1  0.300200  0.682600  0.890400  1.0  0.1716
  C  C119  1  0.120000  0.643500  0.797800  1.0  0.1724
  C  C120  1  0.218400  0.600580  0.751200  1.0  -0.2176
  C  C121  1  0.102400  0.897120  0.575400  1.0  0.1731
  C  C122  1  0.178700  0.943040  0.632500  1.0  -0.2115
  C  C123  1  0.270700  0.909220  0.691870  1.0  0.1354
  C  C124  1  0.277300  0.829780  0.691500  1.0  -0.2088
  C  C125  1  0.198400  0.788290  0.632100  1.0  0.1624
  C  C126  1  0.363800  0.955490  0.752190  1.0  -0.0855
  C  C127  1  0.530900  0.957190  0.733200  1.0  -0.0747
  C  C128  1  0.635200  0.903600  0.777520  1.0  0.1243
  C  C129  1  0.595400  0.860270  0.848000  1.0  -0.2044
  C  C130  1  0.699800  0.817400  0.890400  1.0  0.1711
  C  C131  1  0.880000  0.856500  0.797800  1.0  0.1733
  C  C132  1  0.781600  0.899420  0.751200  1.0  -0.2195
  C  C133  1  0.102400  0.602880  0.075400  1.0  0.1735
  C  C134  1  0.178700  0.556960  0.132500  1.0  -0.2106
  C  C135  1  0.270700  0.590780  0.191870  1.0  0.1354
  C  C136  1  0.277300  0.670220  0.191500  1.0  -0.2087
  C  C137  1  0.198400  0.711710  0.132100  1.0  0.1633
  C  C138  1  0.363800  0.544510  0.252190  1.0  -0.0849
  C  C139  1  0.530900  0.542810  0.233200  1.0  -0.0745
  C  C140  1  0.635200  0.596400  0.277520  1.0  0.1247
  C  C141  1  0.595400  0.639730  0.348000  1.0  -0.2041
  C  C142  1  0.699800  0.682600  0.390400  1.0  0.1711
  C  C143  1  0.880000  0.643500  0.297800  1.0  0.1735
  C  C144  1  0.781600  0.600580  0.251200  1.0  -0.2193
  C  C145  1  0.897600  0.897120  0.075400  1.0  0.1725
  C  C146  1  0.821300  0.943040  0.132500  1.0  -0.2121
  C  C147  1  0.729300  0.909220  0.191870  1.0  0.135
  C  C148  1  0.722700  0.829780  0.191500  1.0  -0.2076
  C  C149  1  0.801600  0.788290  0.132100  1.0  0.1632
  C  C150  1  0.636200  0.955490  0.252190  1.0  -0.0852
  C  C151  1  0.469100  0.957190  0.233200  1.0  -0.0752
  C  C152  1  0.364800  0.903600  0.277520  1.0  0.1243
  C  C153  1  0.404600  0.860270  0.348000  1.0  -0.2051
  C  C154  1  0.300200  0.817400  0.390400  1.0  0.1714
  C  C155  1  0.120000  0.856500  0.297800  1.0  0.1725
  C  C156  1  0.218400  0.899420  0.251200  1.0  -0.2179
  C  C157  1  0.102400  0.397120  0.424600  1.0  0.1724
  C  C158  1  0.178700  0.443040  0.367500  1.0  -0.2116
  C  C159  1  0.270700  0.409220  0.308130  1.0  0.1353
  C  C160  1  0.277300  0.329780  0.308500  1.0  -0.2085
  C  C161  1  0.198400  0.288290  0.367900  1.0  0.1635
  C  C162  1  0.363800  0.455490  0.247810  1.0  -0.0847
  C  C163  1  0.530900  0.457190  0.266800  1.0  -0.0752
  C  C164  1  0.635200  0.403600  0.222480  1.0  0.1242
  C  C165  1  0.595400  0.360270  0.152000  1.0  -0.2055
  C  C166  1  0.699800  0.317400  0.109600  1.0  0.1717
  C  C167  1  0.880000  0.356500  0.202200  1.0  0.1728
  C  C168  1  0.781600  0.399420  0.248800  1.0  -0.2177
  C  C169  1  0.897600  0.102880  0.424600  1.0  0.1732
  C  C170  1  0.821300  0.056960  0.367500  1.0  -0.2099
  C  C171  1  0.729300  0.090780  0.308130  1.0  0.1351
  C  C172  1  0.722700  0.170220  0.308500  1.0  -0.2075
  C  C173  1  0.801600  0.211710  0.367900  1.0  0.1635
  C  C174  1  0.636200  0.044510  0.247810  1.0  -0.0844
  C  C175  1  0.469100  0.042810  0.266800  1.0  -0.0755
  C  C176  1  0.364800  0.096400  0.222480  1.0  0.1243
  C  C177  1  0.404600  0.139730  0.152000  1.0  -0.2067
  C  C178  1  0.300200  0.182600  0.109600  1.0  0.1716
  C  C179  1  0.120000  0.143500  0.202200  1.0  0.1719
  C  C180  1  0.218400  0.100580  0.248800  1.0  -0.2165
  N  N181  1  0.886500  0.321070  0.926610  1.0  -0.3384
  N  N182  1  0.158800  0.316260  0.632770  1.0  -0.3437
  N  N183  1  0.113500  0.178930  0.926610  1.0  -0.3397
  N  N184  1  0.841200  0.183740  0.632770  1.0  -0.3425
  N  N185  1  0.886500  0.678930  0.573390  1.0  -0.3388
  N  N186  1  0.158800  0.683740  0.867230  1.0  -0.3432
  N  N187  1  0.113500  0.821070  0.573390  1.0  -0.3397
  N  N188  1  0.841200  0.816260  0.867230  1.0  -0.3421
  N  N189  1  0.113500  0.678930  0.073390  1.0  -0.3391
  N  N190  1  0.841200  0.683740  0.367230  1.0  -0.3425
  N  N191  1  0.886500  0.821070  0.073390  1.0  -0.3394
  N  N192  1  0.158800  0.816260  0.367230  1.0  -0.3428
  N  N193  1  0.113500  0.321070  0.426610  1.0  -0.3392
  N  N194  1  0.841200  0.316260  0.132770  1.0  -0.3432
  N  N195  1  0.886500  0.178930  0.426610  1.0  -0.3383
  N  N196  1  0.158800  0.183740  0.132770  1.0  -0.3428
  Cl  Cl197  1  0.195190  0.359980  0.048940  1.0  -0.6292
  Cl  Cl198  1  0.804810  0.140020  0.048940  1.0  -0.6299
  Cl  Cl199  1  0.195190  0.640020  0.451060  1.0  -0.6291
  Cl  Cl200  1  0.804810  0.859980  0.451060  1.0  -0.6287
  Cl  Cl201  1  0.804810  0.640020  0.951060  1.0  -0.6289
  Cl  Cl202  1  0.195190  0.859980  0.951060  1.0  -0.629
  Cl  Cl203  1  0.804810  0.359980  0.548940  1.0  -0.6293
  Cl  Cl204  1  0.195190  0.140020  0.548940  1.0  -0.6298
