# generated using pymatgen
data_ZnH12C15(NO2)2
_symmetry_space_group_name_H-M   'P 1'
_cell_length_a   12.32740000
_cell_length_b   24.74720000
_cell_length_c   30.54130000
_cell_angle_alpha   90.00000000
_cell_angle_beta   90.00000000
_cell_angle_gamma   98.23200000
_symmetry_Int_Tables_number   1
_chemical_formula_structural   ZnH12C15(NO2)2
_chemical_formula_sum   'Zn16 H192 C240 N32 O64'
_cell_volume   9221.19218663
_cell_formula_units_Z   16
loop_
 _symmetry_equiv_pos_site_id
 _symmetry_equiv_pos_as_xyz
  1  'x, y, z'
loop_
 _atom_site_type_symbol
 _atom_site_label
 _atom_site_symmetry_multiplicity
 _atom_site_fract_x
 _atom_site_fract_y
 _atom_site_fract_z
 _atom_site_occupancy
 _atom_site_charge
  Zn  Zn1  1  0.424130  0.798670  0.734260  1.0  0.9014
  Zn  Zn2  1  0.627600  0.751610  0.725610  1.0  0.8942
  Zn  Zn3  1  0.217080  0.937880  0.852660  1.0  0.8917
  Zn  Zn4  1  0.692850  0.918630  0.130370  1.0  0.8671
  Zn  Zn5  1  0.075870  0.701330  0.234260  1.0  0.9016
  Zn  Zn6  1  0.872400  0.748390  0.225610  1.0  0.8933
  Zn  Zn7  1  0.282920  0.562120  0.352660  1.0  0.8922
  Zn  Zn8  1  0.807150  0.581370  0.630370  1.0  0.8682
  Zn  Zn9  1  0.575870  0.201330  0.265740  1.0  0.9021
  Zn  Zn10  1  0.372400  0.248390  0.274390  1.0  0.8936
  Zn  Zn11  1  0.782920  0.062120  0.147340  1.0  0.8929
  Zn  Zn12  1  0.307150  0.081370  0.869630  1.0  0.8662
  Zn  Zn13  1  0.924130  0.298670  0.765740  1.0  0.9019
  Zn  Zn14  1  0.127600  0.251610  0.774390  1.0  0.8944
  Zn  Zn15  1  0.717080  0.437880  0.647340  1.0  0.8927
  Zn  Zn16  1  0.192850  0.418630  0.369630  1.0  0.8652
  H  H17  1  0.290100  0.838300  0.807700  1.0  0.0977
  H  H18  1  0.367700  0.890200  0.788200  1.0  0.0874
  H  H19  1  0.176300  0.787500  0.706800  1.0  0.0902
  H  H20  1  0.173500  0.776400  0.758500  1.0  0.0938
  H  H21  1  0.370400  0.908600  0.709400  1.0  0.0828
  H  H22  1  0.295400  0.868400  0.677000  1.0  0.0916
  H  H23  1  0.092700  0.835700  0.806800  1.0  0.0979
  H  H24  1  0.039900  0.886500  0.788000  1.0  0.0903
  H  H25  1  0.157900  0.965300  0.757700  1.0  0.0803
  H  H26  1  0.288100  0.966600  0.757800  1.0  0.0841
  H  H27  1  0.104400  0.865700  0.677700  1.0  0.0711
  H  H28  1  0.048300  0.905100  0.709400  1.0  0.0796
  H  H29  1  0.672700  0.646600  0.690200  1.0  0.09
  H  H30  1  0.741800  0.690500  0.658700  1.0  0.0922
  H  H31  1  0.779500  0.705700  0.789300  1.0  0.0736
  H  H32  1  0.695100  0.656300  0.770000  1.0  0.0831
  H  H33  1  0.868900  0.764900  0.689200  1.0  0.0827
  H  H34  1  0.883400  0.771000  0.741200  1.0  0.0977
  H  H35  1  0.760500  0.582100  0.732100  1.0  0.0882
  H  H36  1  0.890100  0.581200  0.727500  1.0  0.0885
  H  H37  1  0.999000  0.649700  0.678300  1.0  0.0808
  H  H38  1  0.938700  0.692700  0.651800  1.0  0.0854
  H  H39  1  0.015900  0.656700  0.756900  1.0  0.0855
  H  H40  1  0.970500  0.705700  0.781800  1.0  0.0849
  H  H41  1  0.474000  0.583500  0.752000  1.0  0.1135
  H  H42  1  0.463100  0.484400  0.766400  1.0  0.1017
  H  H43  1  0.360700  0.400000  0.774000  1.0  0.1195
  H  H44  1  0.078400  0.464400  0.760500  1.0  0.1203
  H  H45  1  0.091600  0.565400  0.747000  1.0  0.1059
  H  H46  1  0.194300  0.649300  0.734300  1.0  0.11
  H  H47  1  0.720500  0.760000  0.860700  1.0  0.1046
  H  H48  1  0.764000  0.775100  0.932700  1.0  0.1211
  H  H49  1  0.718200  0.811000  0.005500  1.0  0.1103
  H  H50  1  0.441100  0.873100  0.021900  1.0  0.0859
  H  H51  1  0.384100  0.851400  0.950300  1.0  0.1269
  H  H52  1  0.431100  0.815600  0.877000  1.0  0.1086
  H  H53  1  0.572300  0.698400  0.591800  1.0  0.1094
  H  H54  1  0.579600  0.638300  0.525600  1.0  0.1053
  H  H55  1  0.516600  0.612200  0.457000  1.0  0.1079
  H  H56  1  0.285600  0.711300  0.462400  1.0  0.1246
  H  H57  1  0.273500  0.767500  0.529600  1.0  0.1079
  H  H58  1  0.334900  0.795800  0.598400  1.0  0.1177
  H  H59  1  0.925600  0.949900  0.846500  1.0  0.1032
  H  H60  1  0.736400  0.903000  0.843500  1.0  0.1185
  H  H61  1  0.548500  0.905100  0.846000  1.0  0.0928
  H  H62  1  0.596200  0.068200  0.864300  1.0  0.087
  H  H63  1  0.789000  0.116200  0.871000  1.0  0.13
  H  H64  1  0.974900  0.113500  0.870700  1.0  0.1019
  H  H65  1  0.209900  0.661700  0.307700  1.0  0.0953
  H  H66  1  0.132300  0.609800  0.288200  1.0  0.0862
  H  H67  1  0.323700  0.712500  0.206800  1.0  0.0898
  H  H68  1  0.326500  0.723600  0.258500  1.0  0.0925
  H  H69  1  0.129600  0.591400  0.209400  1.0  0.0814
  H  H70  1  0.204600  0.631600  0.177000  1.0  0.0916
  H  H71  1  0.407300  0.664300  0.306800  1.0  0.0953
  H  H72  1  0.460100  0.613500  0.288000  1.0  0.0915
  H  H73  1  0.342100  0.534700  0.257700  1.0  0.0801
  H  H74  1  0.211900  0.533400  0.257800  1.0  0.0844
  H  H75  1  0.395600  0.634300  0.177700  1.0  0.0731
  H  H76  1  0.451700  0.594900  0.209400  1.0  0.0783
  H  H77  1  0.827300  0.853400  0.190200  1.0  0.0913
  H  H78  1  0.758200  0.809500  0.158700  1.0  0.0898
  H  H79  1  0.720500  0.794300  0.289300  1.0  0.0739
  H  H80  1  0.804900  0.843700  0.270000  1.0  0.0843
  H  H81  1  0.631100  0.735100  0.189200  1.0  0.0814
  H  H82  1  0.616600  0.729000  0.241200  1.0  0.0999
  H  H83  1  0.739500  0.917900  0.232100  1.0  0.0868
  H  H84  1  0.609900  0.918800  0.227500  1.0  0.0868
  H  H85  1  0.501000  0.850300  0.178300  1.0  0.0803
  H  H86  1  0.561300  0.807300  0.151800  1.0  0.0849
  H  H87  1  0.484100  0.843300  0.256900  1.0  0.0846
  H  H88  1  0.529500  0.794300  0.281800  1.0  0.0854
  H  H89  1  0.026000  0.916500  0.252000  1.0  0.113
  H  H90  1  0.036900  0.015600  0.266400  1.0  0.1022
  H  H91  1  0.139300  0.100000  0.274000  1.0  0.1193
  H  H92  1  0.421600  0.035600  0.260500  1.0  0.12
  H  H93  1  0.408400  0.934600  0.247000  1.0  0.1061
  H  H94  1  0.305700  0.850700  0.234300  1.0  0.11
  H  H95  1  0.779500  0.740000  0.360700  1.0  0.1043
  H  H96  1  0.736000  0.724900  0.432700  1.0  0.1219
  H  H97  1  0.781800  0.689000  0.505500  1.0  0.109
  H  H98  1  0.058900  0.626900  0.521900  1.0  0.086
  H  H99  1  0.115900  0.648600  0.450300  1.0  0.1266
  H  H100  1  0.068900  0.684400  0.377000  1.0  0.1091
  H  H101  1  0.927700  0.801600  0.091800  1.0  0.1098
  H  H102  1  0.920400  0.861700  0.025600  1.0  0.1053
  H  H103  1  0.983400  0.887800  0.957000  1.0  0.1087
  H  H104  1  0.214400  0.788700  0.962400  1.0  0.124
  H  H105  1  0.226500  0.732500  0.029600  1.0  0.107
  H  H106  1  0.165100  0.704200  0.098400  1.0  0.1176
  H  H107  1  0.574400  0.550100  0.346500  1.0  0.103
  H  H108  1  0.763600  0.597000  0.343500  1.0  0.1186
  H  H109  1  0.951500  0.594900  0.346000  1.0  0.0933
  H  H110  1  0.903800  0.431800  0.364300  1.0  0.0878
  H  H111  1  0.711000  0.383800  0.371000  1.0  0.1304
  H  H112  1  0.525100  0.386500  0.370700  1.0  0.1022
  H  H113  1  0.709900  0.161700  0.192300  1.0  0.0982
  H  H114  1  0.632300  0.109800  0.211800  1.0  0.0861
  H  H115  1  0.823700  0.212500  0.293200  1.0  0.0905
  H  H116  1  0.826500  0.223600  0.241500  1.0  0.0933
  H  H117  1  0.629600  0.091400  0.290600  1.0  0.0826
  H  H118  1  0.704600  0.131600  0.323000  1.0  0.0905
  H  H119  1  0.907300  0.164300  0.193200  1.0  0.0953
  H  H120  1  0.960100  0.113500  0.212000  1.0  0.0915
  H  H121  1  0.842100  0.034700  0.242300  1.0  0.0801
  H  H122  1  0.711900  0.033400  0.242200  1.0  0.0848
  H  H123  1  0.895600  0.134300  0.322300  1.0  0.0707
  H  H124  1  0.951700  0.094900  0.290600  1.0  0.0772
  H  H125  1  0.327300  0.353400  0.309800  1.0  0.091
  H  H126  1  0.258200  0.309500  0.341300  1.0  0.0907
  H  H127  1  0.220500  0.294300  0.210700  1.0  0.0727
  H  H128  1  0.304900  0.343700  0.230000  1.0  0.0851
  H  H129  1  0.131100  0.235100  0.310800  1.0  0.0831
  H  H130  1  0.116600  0.229000  0.258800  1.0  0.0984
  H  H131  1  0.239500  0.417900  0.267900  1.0  0.0877
  H  H132  1  0.109900  0.418800  0.272500  1.0  0.088
  H  H133  1  0.001000  0.350300  0.321700  1.0  0.0804
  H  H134  1  0.061300  0.307300  0.348200  1.0  0.0851
  H  H135  1  0.984100  0.343300  0.243100  1.0  0.0852
  H  H136  1  0.029500  0.294300  0.218200  1.0  0.0849
  H  H137  1  0.526000  0.416500  0.248000  1.0  0.1123
  H  H138  1  0.536900  0.515600  0.233600  1.0  0.1017
  H  H139  1  0.639300  0.600000  0.226000  1.0  0.1194
  H  H140  1  0.921600  0.535600  0.239500  1.0  0.1201
  H  H141  1  0.908400  0.434600  0.253000  1.0  0.1063
  H  H142  1  0.805700  0.350700  0.265700  1.0  0.1094
  H  H143  1  0.279500  0.240000  0.139300  1.0  0.1032
  H  H144  1  0.236000  0.224900  0.067300  1.0  0.1212
  H  H145  1  0.281800  0.189000  0.994500  1.0  0.111
  H  H146  1  0.558900  0.126900  0.978100  1.0  0.0858
  H  H147  1  0.615900  0.148600  0.049700  1.0  0.1262
  H  H148  1  0.568900  0.184400  0.123000  1.0  0.1081
  H  H149  1  0.427700  0.301600  0.408200  1.0  0.1098
  H  H150  1  0.420400  0.361700  0.474400  1.0  0.1054
  H  H151  1  0.483400  0.387800  0.543000  1.0  0.1084
  H  H152  1  0.714400  0.288700  0.537600  1.0  0.1237
  H  H153  1  0.726500  0.232500  0.470400  1.0  0.1076
  H  H154  1  0.665100  0.204200  0.401600  1.0  0.1177
  H  H155  1  0.074400  0.050100  0.153500  1.0  0.1029
  H  H156  1  0.263600  0.097000  0.156500  1.0  0.1193
  H  H157  1  0.451500  0.094900  0.154000  1.0  0.0932
  H  H158  1  0.403800  0.931800  0.135700  1.0  0.0877
  H  H159  1  0.211000  0.883800  0.129000  1.0  0.1304
  H  H160  1  0.025100  0.886500  0.129300  1.0  0.1022
  H  H161  1  0.790100  0.338300  0.692300  1.0  0.0968
  H  H162  1  0.867700  0.390200  0.711800  1.0  0.0876
  H  H163  1  0.676300  0.287500  0.793200  1.0  0.0918
  H  H164  1  0.673500  0.276400  0.741500  1.0  0.0923
  H  H165  1  0.870400  0.408600  0.790600  1.0  0.0818
  H  H166  1  0.795400  0.368400  0.823000  1.0  0.0919
  H  H167  1  0.592700  0.335700  0.693200  1.0  0.0953
  H  H168  1  0.539900  0.386500  0.712000  1.0  0.0905
  H  H169  1  0.657900  0.465300  0.742300  1.0  0.0802
  H  H170  1  0.788100  0.466600  0.742200  1.0  0.0836
  H  H171  1  0.604400  0.365700  0.822300  1.0  0.0746
  H  H172  1  0.548300  0.405100  0.790600  1.0  0.0776
  H  H173  1  0.172700  0.146600  0.809800  1.0  0.0901
  H  H174  1  0.241800  0.190500  0.841300  1.0  0.0904
  H  H175  1  0.279500  0.205700  0.710700  1.0  0.0731
  H  H176  1  0.195100  0.156300  0.730000  1.0  0.0809
  H  H177  1  0.368900  0.264900  0.810800  1.0  0.0814
  H  H178  1  0.383400  0.271000  0.758800  1.0  0.0982
  H  H179  1  0.260500  0.082100  0.767900  1.0  0.0875
  H  H180  1  0.390100  0.081200  0.772500  1.0  0.0884
  H  H181  1  0.499000  0.149700  0.821700  1.0  0.0804
  H  H182  1  0.438700  0.192700  0.848200  1.0  0.0834
  H  H183  1  0.515900  0.156700  0.743100  1.0  0.0857
  H  H184  1  0.470500  0.205700  0.718200  1.0  0.0849
  H  H185  1  0.974000  0.083500  0.748000  1.0  0.1138
  H  H186  1  0.963100  0.984400  0.733600  1.0  0.1026
  H  H187  1  0.860700  0.900000  0.726000  1.0  0.1193
  H  H188  1  0.578400  0.964400  0.739500  1.0  0.1193
  H  H189  1  0.591600  0.065400  0.753000  1.0  0.1057
  H  H190  1  0.694300  0.149300  0.765700  1.0  0.1095
  H  H191  1  0.220500  0.260000  0.639300  1.0  0.1043
  H  H192  1  0.264000  0.275100  0.567300  1.0  0.1215
  H  H193  1  0.218200  0.311000  0.494500  1.0  0.109
  H  H194  1  0.941100  0.373100  0.478100  1.0  0.0861
  H  H195  1  0.884100  0.351400  0.549700  1.0  0.1266
  H  H196  1  0.931100  0.315600  0.623000  1.0  0.1082
  H  H197  1  0.072300  0.198400  0.908200  1.0  0.1098
  H  H198  1  0.079600  0.138300  0.974400  1.0  0.105
  H  H199  1  0.016600  0.112200  0.043000  1.0  0.108
  H  H200  1  0.785600  0.211300  0.037600  1.0  0.1238
  H  H201  1  0.773500  0.267500  0.970400  1.0  0.1078
  H  H202  1  0.834900  0.295800  0.901600  1.0  0.1181
  H  H203  1  0.425600  0.449900  0.653500  1.0  0.1024
  H  H204  1  0.236400  0.403000  0.656500  1.0  0.1185
  H  H205  1  0.048500  0.405100  0.654000  1.0  0.093
  H  H206  1  0.096200  0.568200  0.635700  1.0  0.0874
  H  H207  1  0.289000  0.616200  0.629000  1.0  0.1298
  H  H208  1  0.474900  0.613500  0.629300  1.0  0.1019
  C  C209  1  0.296000  0.866800  0.784700  1.0  0.074
  C  C210  1  0.181400  0.805300  0.735900  1.0  0.0897
  C  C211  1  0.298900  0.884900  0.706500  1.0  0.1246
  C  C212  1  0.100600  0.864600  0.784200  1.0  0.1162
  C  C213  1  0.217200  0.942500  0.754700  1.0  0.1376
  C  C214  1  0.108600  0.882700  0.707100  1.0  0.1423
  C  C215  1  0.743900  0.670300  0.686600  1.0  0.0944
  C  C216  1  0.766300  0.679500  0.764800  1.0  0.1294
  C  C217  1  0.869800  0.744300  0.717000  1.0  0.1239
  C  C218  1  0.832200  0.605200  0.727900  1.0  0.0739
  C  C219  1  0.938900  0.672300  0.679600  1.0  0.1183
  C  C220  1  0.956500  0.679700  0.757200  1.0  0.1308
  C  C221  1  0.410500  0.680200  0.737800  1.0  0.6745
  C  C222  1  0.344400  0.624800  0.744200  1.0  -0.1224
  C  C223  1  0.396200  0.579400  0.751400  1.0  -0.0787
  C  C224  1  0.336700  0.528400  0.757600  1.0  0.0384
  C  C225  1  0.385500  0.481200  0.764800  1.0  -0.1344
  C  C226  1  0.325100  0.431200  0.769700  1.0  -0.0446
  C  C227  1  0.210000  0.425500  0.768300  1.0  -0.1189
  C  C228  1  0.156200  0.469000  0.761700  1.0  -0.1196
  C  C229  1  0.220000  0.522900  0.756200  1.0  0.021
  C  C230  1  0.169300  0.568900  0.747900  1.0  -0.0998
  C  C231  1  0.229700  0.618700  0.741100  1.0  -0.0416
  C  C232  1  0.143400  0.369300  0.772800  1.0  0.6865
  C  C233  1  0.551300  0.781100  0.813600  1.0  0.6742
  C  C234  1  0.571100  0.787200  0.861700  1.0  -0.1309
  C  C235  1  0.670600  0.774900  0.879300  1.0  -0.0367
  C  C236  1  0.696600  0.784000  0.921800  1.0  -0.1414
  C  C237  1  0.624500  0.806700  0.950300  1.0  0.0286
  C  C238  1  0.651100  0.819500  0.993900  1.0  -0.1076
  C  C239  1  0.582500  0.843900  0.020300  1.0  -0.1455
  C  C240  1  0.487600  0.855700  0.003400  1.0  -0.0547
  C  C241  1  0.453400  0.843900  0.960300  1.0  -0.1769
  C  C242  1  0.525000  0.820400  0.932000  1.0  0.0308
  C  C243  1  0.499500  0.808600  0.888300  1.0  -0.1434
  C  C244  1  0.621200  0.861100  0.065900  1.0  0.6988
  C  C245  1  0.492700  0.765000  0.648200  1.0  0.7004
  C  C246  1  0.458700  0.748500  0.601700  1.0  -0.137
  C  C247  1  0.511600  0.712200  0.578900  1.0  -0.068
  C  C248  1  0.476900  0.695300  0.537000  1.0  0.0442
  C  C249  1  0.521700  0.654700  0.513100  1.0  -0.127
  C  C250  1  0.483300  0.638700  0.472600  1.0  -0.0753
  C  C251  1  0.397000  0.660200  0.453900  1.0  -0.1166
  C  C252  1  0.346300  0.697600  0.475200  1.0  -0.0879
  C  C253  1  0.386100  0.716000  0.517700  1.0  0.0395
  C  C254  1  0.334400  0.753400  0.541900  1.0  -0.1019
  C  C255  1  0.370000  0.770000  0.582800  1.0  -0.0552
  C  C256  1  0.342700  0.639400  0.409400  1.0  0.6903
  C  C257  1  0.088200  0.031700  0.852700  1.0  0.6817
  C  C258  1  0.966800  0.030200  0.856700  1.0  -0.1462
  C  C259  1  0.897400  0.983000  0.851800  1.0  -0.0919
  C  C260  1  0.777300  0.983100  0.854600  1.0  -0.0371
  C  C261  1  0.708700  0.936400  0.848400  1.0  -0.1155
  C  C262  1  0.598000  0.938000  0.849200  1.0  -0.0574
  C  C263  1  0.555700  0.989300  0.854900  1.0  -0.072
  C  C264  1  0.624300  0.034700  0.860700  1.0  -0.096
  C  C265  1  0.746200  0.034500  0.861600  1.0  -0.0292
  C  C266  1  0.816600  0.082600  0.866700  1.0  -0.0988
  C  C267  1  0.925100  0.081100  0.865600  1.0  -0.0638
  C  C268  1  0.436400  0.988900  0.851700  1.0  0.6928
  C  C269  1  0.204000  0.633200  0.284700  1.0  0.0748
  C  C270  1  0.318600  0.694700  0.235900  1.0  0.0896
  C  C271  1  0.201100  0.615100  0.206500  1.0  0.1222
  C  C272  1  0.399400  0.635400  0.284200  1.0  0.1167
  C  C273  1  0.282800  0.557500  0.254700  1.0  0.1376
  C  C274  1  0.391400  0.617300  0.207100  1.0  0.142
  C  C275  1  0.756100  0.829700  0.186600  1.0  0.0931
  C  C276  1  0.733700  0.820500  0.264800  1.0  0.1265
  C  C277  1  0.630200  0.755700  0.217000  1.0  0.1238
  C  C278  1  0.667800  0.894800  0.227900  1.0  0.0724
  C  C279  1  0.561100  0.827700  0.179600  1.0  0.1188
  C  C280  1  0.543500  0.820300  0.257200  1.0  0.1304
  C  C281  1  0.089500  0.819800  0.237800  1.0  0.675
  C  C282  1  0.155600  0.875200  0.244200  1.0  -0.1202
  C  C283  1  0.103800  0.920600  0.251400  1.0  -0.0823
  C  C284  1  0.163300  0.971600  0.257600  1.0  0.0384
  C  C285  1  0.114500  0.018800  0.264800  1.0  -0.1237
  C  C286  1  0.174900  0.068800  0.269700  1.0  -0.0441
  C  C287  1  0.290000  0.074500  0.268300  1.0  -0.1182
  C  C288  1  0.343800  0.031000  0.261700  1.0  -0.1143
  C  C289  1  0.280000  0.977100  0.256200  1.0  0.0211
  C  C290  1  0.330700  0.931100  0.247900  1.0  -0.0963
  C  C291  1  0.270300  0.881300  0.241100  1.0  -0.0425
  C  C292  1  0.356600  0.130700  0.272800  1.0  0.6856
  C  C293  1  0.948700  0.718900  0.313600  1.0  0.675
  C  C294  1  0.928900  0.712800  0.361700  1.0  -0.1303
  C  C295  1  0.829400  0.725100  0.379300  1.0  -0.0376
  C  C296  1  0.803400  0.716000  0.421800  1.0  -0.1405
  C  C297  1  0.875500  0.693300  0.450300  1.0  0.0296
  C  C298  1  0.848900  0.680500  0.493900  1.0  -0.1076
  C  C299  1  0.917500  0.656100  0.520300  1.0  -0.1456
  C  C300  1  0.012400  0.644300  0.503400  1.0  -0.0542
  C  C301  1  0.046600  0.656100  0.460300  1.0  -0.1785
  C  C302  1  0.975000  0.679600  0.432000  1.0  0.0311
  C  C303  1  0.000500  0.691400  0.388300  1.0  -0.1411
  C  C304  1  0.878800  0.638900  0.565900  1.0  0.6998
  C  C305  1  0.007300  0.735000  0.148200  1.0  0.6991
  C  C306  1  0.041300  0.751500  0.101700  1.0  -0.1367
  C  C307  1  0.988400  0.787800  0.078900  1.0  -0.0688
  C  C308  1  0.023100  0.804700  0.037000  1.0  0.0443
  C  C309  1  0.978300  0.845300  0.013100  1.0  -0.127
  C  C310  1  0.016700  0.861300  0.972600  1.0  -0.075
  C  C311  1  0.103000  0.839800  0.953900  1.0  -0.1161
  C  C312  1  0.153700  0.802400  0.975200  1.0  -0.0878
  C  C313  1  0.113900  0.784000  0.017700  1.0  0.0388
  C  C314  1  0.165600  0.746600  0.041900  1.0  -0.1054
  C  C315  1  0.130000  0.730000  0.082800  1.0  -0.0534
  C  C316  1  0.157300  0.860600  0.909400  1.0  0.6914
  C  C317  1  0.411800  0.468300  0.352700  1.0  0.6801
  C  C318  1  0.533200  0.469800  0.356700  1.0  -0.1448
  C  C319  1  0.602600  0.517000  0.351800  1.0  -0.0934
  C  C320  1  0.722700  0.516900  0.354600  1.0  -0.0379
  C  C321  1  0.791300  0.563600  0.348400  1.0  -0.1167
  C  C322  1  0.902000  0.562000  0.349200  1.0  -0.0586
  C  C323  1  0.944300  0.510700  0.354900  1.0  -0.073
  C  C324  1  0.875700  0.465300  0.360700  1.0  -0.0955
  C  C325  1  0.753800  0.465500  0.361600  1.0  -0.03
  C  C326  1  0.683400  0.417400  0.366700  1.0  -0.0972
  C  C327  1  0.574900  0.418900  0.365600  1.0  -0.0624
  C  C328  1  0.063600  0.511100  0.351700  1.0  0.6957
  C  C329  1  0.704000  0.133200  0.215300  1.0  0.0738
  C  C330  1  0.818600  0.194700  0.264100  1.0  0.0902
  C  C331  1  0.701100  0.115100  0.293500  1.0  0.1228
  C  C332  1  0.899400  0.135400  0.215800  1.0  0.1172
  C  C333  1  0.782800  0.057500  0.245300  1.0  0.1374
  C  C334  1  0.891400  0.117300  0.292900  1.0  0.1397
  C  C335  1  0.256100  0.329700  0.313400  1.0  0.0927
  C  C336  1  0.233700  0.320500  0.235200  1.0  0.1269
  C  C337  1  0.130200  0.255700  0.283000  1.0  0.1236
  C  C338  1  0.167800  0.394800  0.272100  1.0  0.0726
  C  C339  1  0.061100  0.327700  0.320400  1.0  0.1184
  C  C340  1  0.043500  0.320300  0.242800  1.0  0.1306
  C  C341  1  0.589500  0.319800  0.262200  1.0  0.6749
  C  C342  1  0.655600  0.375200  0.255800  1.0  -0.1238
  C  C343  1  0.603800  0.420600  0.248600  1.0  -0.083
  C  C344  1  0.663300  0.471600  0.242400  1.0  0.037
  C  C345  1  0.614500  0.518800  0.235200  1.0  -0.1364
  C  C346  1  0.674900  0.568800  0.230300  1.0  -0.0458
  C  C347  1  0.790000  0.574500  0.231700  1.0  -0.1221
  C  C348  1  0.843800  0.531000  0.238300  1.0  -0.1178
  C  C349  1  0.780000  0.477100  0.243800  1.0  0.0215
  C  C350  1  0.830700  0.431100  0.252100  1.0  -0.096
  C  C351  1  0.770300  0.381300  0.258900  1.0  -0.0413
  C  C352  1  0.856600  0.630700  0.227200  1.0  0.6863
  C  C353  1  0.448700  0.218900  0.186400  1.0  0.6738
  C  C354  1  0.428900  0.212800  0.138300  1.0  -0.1295
  C  C355  1  0.329400  0.225100  0.120700  1.0  -0.0369
  C  C356  1  0.303400  0.216000  0.078200  1.0  -0.141
  C  C357  1  0.375500  0.193300  0.049700  1.0  0.029
  C  C358  1  0.348900  0.180500  0.006100  1.0  -0.1071
  C  C359  1  0.417500  0.156100  0.979700  1.0  -0.1454
  C  C360  1  0.512400  0.144300  0.996600  1.0  -0.0551
  C  C361  1  0.546600  0.156100  0.039700  1.0  -0.1787
  C  C362  1  0.475000  0.179600  0.068000  1.0  0.0307
  C  C363  1  0.500500  0.191400  0.111700  1.0  -0.1423
  C  C364  1  0.378800  0.138900  0.934100  1.0  0.6989
  C  C365  1  0.507300  0.235000  0.351800  1.0  0.6991
  C  C366  1  0.541300  0.251500  0.398300  1.0  -0.1362
  C  C367  1  0.488400  0.287800  0.421100  1.0  -0.0687
  C  C368  1  0.523100  0.304700  0.463000  1.0  0.0445
  C  C369  1  0.478300  0.345300  0.486900  1.0  -0.1265
  C  C370  1  0.516700  0.361300  0.527400  1.0  -0.0757
  C  C371  1  0.603000  0.339800  0.546100  1.0  -0.1168
  C  C372  1  0.653700  0.302400  0.524800  1.0  -0.0879
  C  C373  1  0.613900  0.284000  0.482300  1.0  0.039
  C  C374  1  0.665600  0.246600  0.458100  1.0  -0.1055
  C  C375  1  0.630000  0.230000  0.417200  1.0  -0.0536
  C  C376  1  0.657300  0.360600  0.590600  1.0  0.692
  C  C377  1  0.911800  0.968300  0.147300  1.0  0.6816
  C  C378  1  0.033200  0.969800  0.143300  1.0  -0.1476
  C  C379  1  0.102600  0.017000  0.148200  1.0  -0.0928
  C  C380  1  0.222700  0.016900  0.145400  1.0  -0.0412
  C  C381  1  0.291300  0.063600  0.151600  1.0  -0.1155
  C  C382  1  0.402000  0.062000  0.150800  1.0  -0.0597
  C  C383  1  0.444300  0.010700  0.145100  1.0  -0.0734
  C  C384  1  0.375700  0.965300  0.139300  1.0  -0.0963
  C  C385  1  0.253800  0.965500  0.138400  1.0  -0.0318
  C  C386  1  0.183400  0.917400  0.133300  1.0  -0.0984
  C  C387  1  0.074900  0.918900  0.134400  1.0  -0.0622
  C  C388  1  0.563600  0.011100  0.148300  1.0  0.6936
  C  C389  1  0.796000  0.366800  0.715300  1.0  0.0732
  C  C390  1  0.681400  0.305300  0.764100  1.0  0.0909
  C  C391  1  0.798900  0.384900  0.793500  1.0  0.121
  C  C392  1  0.600600  0.364600  0.715800  1.0  0.1163
  C  C393  1  0.717200  0.442500  0.745300  1.0  0.1359
  C  C394  1  0.608600  0.382700  0.792900  1.0  0.1395
  C  C395  1  0.243900  0.170300  0.813400  1.0  0.0942
  C  C396  1  0.266300  0.179500  0.735200  1.0  0.1273
  C  C397  1  0.369800  0.244300  0.783000  1.0  0.124
  C  C398  1  0.332200  0.105200  0.772100  1.0  0.0724
  C  C399  1  0.438900  0.172300  0.820400  1.0  0.118
  C  C400  1  0.456500  0.179700  0.742800  1.0  0.1317
  C  C401  1  0.910500  0.180200  0.762200  1.0  0.6742
  C  C402  1  0.844400  0.124800  0.755800  1.0  -0.1217
  C  C403  1  0.896200  0.079400  0.748600  1.0  -0.0818
  C  C404  1  0.836700  0.028400  0.742400  1.0  0.0379
  C  C405  1  0.885500  0.981200  0.735200  1.0  -0.1238
  C  C406  1  0.825100  0.931200  0.730300  1.0  -0.0461
  C  C407  1  0.710000  0.925500  0.731700  1.0  -0.1245
  C  C408  1  0.656200  0.969000  0.738300  1.0  -0.1171
  C  C409  1  0.720000  0.022900  0.743800  1.0  0.0219
  C  C410  1  0.669300  0.068900  0.752100  1.0  -0.0969
  C  C411  1  0.729700  0.118700  0.758900  1.0  -0.0398
  C  C412  1  0.643400  0.869300  0.727200  1.0  0.6875
  C  C413  1  0.051300  0.281100  0.686400  1.0  0.6732
  C  C414  1  0.071100  0.287200  0.638300  1.0  -0.1304
  C  C415  1  0.170600  0.274900  0.620700  1.0  -0.0357
  C  C416  1  0.196600  0.284000  0.578200  1.0  -0.1417
  C  C417  1  0.124500  0.306700  0.549700  1.0  0.0283
  C  C418  1  0.151100  0.319500  0.506100  1.0  -0.1079
  C  C419  1  0.082500  0.343900  0.479700  1.0  -0.1451
  C  C420  1  0.987600  0.355700  0.496600  1.0  -0.0553
  C  C421  1  0.953400  0.343900  0.539700  1.0  -0.177
  C  C422  1  0.025000  0.320400  0.568000  1.0  0.0304
  C  C423  1  0.999500  0.308600  0.611700  1.0  -0.144
  C  C424  1  0.121200  0.361100  0.434100  1.0  0.6983
  C  C425  1  0.992700  0.265000  0.851800  1.0  0.7006
  C  C426  1  0.958700  0.248500  0.898300  1.0  -0.1358
  C  C427  1  0.011600  0.212200  0.921100  1.0  -0.0675
  C  C428  1  0.976900  0.195300  0.963000  1.0  0.0442
  C  C429  1  0.021700  0.154700  0.986900  1.0  -0.1269
  C  C430  1  0.983300  0.138700  0.027400  1.0  -0.0752
  C  C431  1  0.897000  0.160200  0.046100  1.0  -0.1168
  C  C432  1  0.846300  0.197600  0.024800  1.0  -0.0892
  C  C433  1  0.886100  0.216000  0.982300  1.0  0.0397
  C  C434  1  0.834400  0.253400  0.958100  1.0  -0.1015
  C  C435  1  0.870000  0.270000  0.917200  1.0  -0.0556
  C  C436  1  0.842700  0.139400  0.090600  1.0  0.6905
  C  C437  1  0.588200  0.531700  0.647300  1.0  0.681
  C  C438  1  0.466800  0.530200  0.643300  1.0  -0.1489
  C  C439  1  0.397400  0.483000  0.648200  1.0  -0.0921
  C  C440  1  0.277300  0.483100  0.645400  1.0  -0.0409
  C  C441  1  0.208700  0.436400  0.651600  1.0  -0.1156
  C  C442  1  0.098000  0.438000  0.650800  1.0  -0.0582
  C  C443  1  0.055700  0.489300  0.645100  1.0  -0.0735
  C  C444  1  0.124300  0.534700  0.639300  1.0  -0.0952
  C  C445  1  0.246200  0.534500  0.638400  1.0  -0.0323
  C  C446  1  0.316600  0.582600  0.633300  1.0  -0.0975
  C  C447  1  0.425100  0.581100  0.634400  1.0  -0.0627
  C  C448  1  0.936400  0.488900  0.648300  1.0  0.6931
  N  N449  1  0.291100  0.840300  0.740600  1.0  -0.2698
  N  N450  1  0.206600  0.900500  0.790400  1.0  -0.2767
  N  N451  1  0.092200  0.839200  0.740700  1.0  -0.347
  N  N452  1  0.211300  0.917800  0.711200  1.0  -0.4055
  N  N453  1  0.760700  0.709600  0.723500  1.0  -0.2833
  N  N454  1  0.832700  0.636300  0.684900  1.0  -0.2645
  N  N455  1  0.852600  0.645500  0.763900  1.0  -0.4062
  N  N456  1  0.958500  0.710500  0.715600  1.0  -0.3516
  N  N457  1  0.208900  0.659700  0.240600  1.0  -0.2737
  N  N458  1  0.293400  0.599500  0.290400  1.0  -0.2756
  N  N459  1  0.407800  0.660800  0.240700  1.0  -0.3474
  N  N460  1  0.288700  0.582200  0.211200  1.0  -0.4048
  N  N461  1  0.739300  0.790400  0.223500  1.0  -0.2804
  N  N462  1  0.667300  0.863700  0.184900  1.0  -0.2649
  N  N463  1  0.647400  0.854500  0.263900  1.0  -0.4075
  N  N464  1  0.541500  0.789500  0.215600  1.0  -0.3518
  N  N465  1  0.708900  0.159700  0.259400  1.0  -0.2724
  N  N466  1  0.793400  0.099500  0.209600  1.0  -0.2758
  N  N467  1  0.907800  0.160800  0.259300  1.0  -0.347
  N  N468  1  0.788700  0.082200  0.288800  1.0  -0.406
  N  N469  1  0.239300  0.290400  0.276500  1.0  -0.2805
  N  N470  1  0.167300  0.363700  0.315100  1.0  -0.2648
  N  N471  1  0.147400  0.354500  0.236100  1.0  -0.4077
  N  N472  1  0.041500  0.289500  0.284400  1.0  -0.3519
  N  N473  1  0.791100  0.340300  0.759400  1.0  -0.2696
  N  N474  1  0.706600  0.400500  0.709600  1.0  -0.2752
  N  N475  1  0.592200  0.339200  0.759300  1.0  -0.3466
  N  N476  1  0.711300  0.417800  0.788800  1.0  -0.4086
  N  N477  1  0.260700  0.209600  0.776500  1.0  -0.2833
  N  N478  1  0.332700  0.136300  0.815100  1.0  -0.2646
  N  N479  1  0.352600  0.145500  0.736100  1.0  -0.4086
  N  N480  1  0.458500  0.210500  0.784400  1.0  -0.3522
  O  O481  1  0.513500  0.683700  0.738400  1.0  -0.6078
  O  O482  1  0.357000  0.719900  0.732400  1.0  -0.5774
  O  O483  1  0.041400  0.364900  0.765000  1.0  -0.6029
  O  O484  1  0.193000  0.331100  0.784000  1.0  -0.5965
  O  O485  1  0.628600  0.768000  0.790200  1.0  -0.5933
  O  O486  1  0.459200  0.788900  0.799250  1.0  -0.5771
  O  O487  1  0.559400  0.887100  0.087400  1.0  -0.5829
  O  O488  1  0.705100  0.846400  0.080600  1.0  -0.5995
  O  O489  1  0.574300  0.745800  0.663000  1.0  -0.5945
  O  O490  1  0.437100  0.795500  0.667700  1.0  -0.5979
  O  O491  1  0.278900  0.663200  0.391200  1.0  -0.4993
  O  O492  1  0.377500  0.596000  0.396900  1.0  -0.6011
  O  O493  1  0.145000  0.073500  0.867000  1.0  -0.5707
  O  O494  1  0.124700  0.992600  0.834000  1.0  -0.6185
  O  O495  1  0.376800  0.943700  0.858800  1.0  -0.604
  O  O496  1  0.398400  0.031200  0.840800  1.0  -0.6069
  O  O497  1  0.986500  0.816300  0.238400  1.0  -0.6066
  O  O498  1  0.143000  0.780100  0.232400  1.0  -0.5769
  O  O499  1  0.458600  0.135100  0.265000  1.0  -0.6047
  O  O500  1  0.307000  0.168900  0.284000  1.0  -0.5969
  O  O501  1  0.871400  0.732000  0.290200  1.0  -0.593
  O  O502  1  0.040800  0.711100  0.299250  1.0  -0.5759
  O  O503  1  0.940600  0.612900  0.587400  1.0  -0.5839
  O  O504  1  0.794900  0.653600  0.580600  1.0  -0.5991
  O  O505  1  0.925700  0.754200  0.163000  1.0  -0.5953
  O  O506  1  0.062900  0.704500  0.167700  1.0  -0.5982
  O  O507  1  0.221100  0.836800  0.891200  1.0  -0.4999
  O  O508  1  0.122500  0.904000  0.896900  1.0  -0.6032
  O  O509  1  0.355000  0.426500  0.367000  1.0  -0.5697
  O  O510  1  0.375300  0.507400  0.334000  1.0  -0.6185
  O  O511  1  0.123200  0.556300  0.358800  1.0  -0.6046
  O  O512  1  0.101600  0.468800  0.340800  1.0  -0.6074
  O  O513  1  0.486500  0.316300  0.261600  1.0  -0.6068
  O  O514  1  0.643000  0.280100  0.267600  1.0  -0.5773
  O  O515  1  0.958600  0.635100  0.235000  1.0  -0.6042
  O  O516  1  0.807000  0.668900  0.216000  1.0  -0.5964
  O  O517  1  0.371400  0.232000  0.209800  1.0  -0.5933
  O  O518  1  0.540800  0.211100  0.200750  1.0  -0.5759
  O  O519  1  0.440600  0.112900  0.912600  1.0  -0.5843
  O  O520  1  0.294900  0.153600  0.919400  1.0  -0.5995
  O  O521  1  0.425700  0.254200  0.337000  1.0  -0.5946
  O  O522  1  0.562900  0.204500  0.332300  1.0  -0.5979
  O  O523  1  0.721100  0.336800  0.608800  1.0  -0.4993
  O  O524  1  0.622500  0.404000  0.603100  1.0  -0.6023
  O  O525  1  0.855000  0.926500  0.133000  1.0  -0.5689
  O  O526  1  0.875300  0.007400  0.166000  1.0  -0.6177
  O  O527  1  0.623200  0.056300  0.141200  1.0  -0.6041
  O  O528  1  0.601600  0.968800  0.159200  1.0  -0.6071
  O  O529  1  0.013500  0.183700  0.761600  1.0  -0.6077
  O  O530  1  0.857000  0.219900  0.767600  1.0  -0.5779
  O  O531  1  0.541400  0.864900  0.735000  1.0  -0.6026
  O  O532  1  0.693000  0.831100  0.716000  1.0  -0.5966
  O  O533  1  0.128600  0.268000  0.709800  1.0  -0.5932
  O  O534  1  0.959200  0.288900  0.700750  1.0  -0.5776
  O  O535  1  0.059400  0.387100  0.412600  1.0  -0.5832
  O  O536  1  0.205100  0.346400  0.419400  1.0  -0.6004
  O  O537  1  0.074300  0.245800  0.837000  1.0  -0.5946
  O  O538  1  0.937100  0.295500  0.832300  1.0  -0.5979
  O  O539  1  0.778900  0.163200  0.108800  1.0  -0.4985
  O  O540  1  0.877500  0.096000  0.103100  1.0  -0.6007
  O  O541  1  0.645000  0.573500  0.633000  1.0  -0.5688
  O  O542  1  0.624700  0.492600  0.666000  1.0  -0.6174
  O  O543  1  0.876800  0.443700  0.641200  1.0  -0.6041
  O  O544  1  0.898400  0.531200  0.659200  1.0  -0.6072
