# generated using pymatgen
data_ZnH12C15(NO2)2
_symmetry_space_group_name_H-M   'P 1'
_cell_length_a   12.34000000
_cell_length_b   19.90290000
_cell_length_c   19.90290000
_cell_angle_alpha   102.77300000
_cell_angle_beta   94.55930000
_cell_angle_gamma   94.55930000
_symmetry_Int_Tables_number   1
_chemical_formula_structural   ZnH12C15(NO2)2
_chemical_formula_sum   'Zn8 H96 C120 N16 O32'
_cell_volume   4728.39146999
_cell_formula_units_Z   8
loop_
 _symmetry_equiv_pos_site_id
 _symmetry_equiv_pos_as_xyz
  1  'x, y, z'
loop_
 _atom_site_type_symbol
 _atom_site_label
 _atom_site_symmetry_multiplicity
 _atom_site_fract_x
 _atom_site_fract_y
 _atom_site_fract_z
 _atom_site_occupancy
 _atom_site_charge
  Zn  Zn1  1  0.611900  0.076390  0.565100  1.0  0.8843
  Zn  Zn2  1  0.808800  0.016870  0.526320  1.0  0.8858
  Zn  Zn3  1  0.410500  0.339780  0.608170  1.0  0.8972
  Zn  Zn4  1  0.500060  0.487280  0.748760  1.0  0.911
  Zn  Zn5  1  0.111900  0.565100  0.076390  1.0  0.8839
  Zn  Zn6  1  0.308800  0.526320  0.016870  1.0  0.8861
  Zn  Zn7  1  0.910500  0.608170  0.339780  1.0  0.8996
  Zn  Zn8  1  0.000060  0.748760  0.487280  1.0  0.9062
  H  H9  1  0.493800  0.200200  0.541800  1.0  0.0987
  H  H10  1  0.553300  0.220800  0.619000  1.0  0.0871
  H  H11  1  0.526900  0.143300  0.697500  1.0  0.0851
  H  H12  1  0.451600  0.071400  0.671000  1.0  0.0865
  H  H13  1  0.362200  0.040200  0.552000  1.0  0.0787
  H  H14  1  0.378200  0.092500  0.501900  1.0  0.0791
  H  H15  1  0.319900  0.251800  0.705800  1.0  0.0838
  H  H16  1  0.449600  0.250100  0.717300  1.0  0.0825
  H  H17  1  0.203800  0.142200  0.662800  1.0  0.0645
  H  H18  1  0.258600  0.070900  0.648300  1.0  0.0661
  H  H19  1  0.296500  0.199200  0.522400  1.0  0.085
  H  H20  1  0.227000  0.220500  0.587100  1.0  0.0868
  H  H21  1  0.864900  0.872700  0.472100  1.0  0.0891
  H  H22  1  0.917000  0.890800  0.551000  1.0  0.0915
  H  H23  1  0.984800  0.022900  0.429100  1.0  0.0856
  H  H24  1  0.906900  0.952900  0.397900  1.0  0.0871
  H  H25  1  0.035000  0.998400  0.598000  1.0  0.0822
  H  H26  1  0.062100  0.050300  0.549100  1.0  0.0731
  H  H27  1  0.982800  0.844000  0.378600  1.0  0.0748
  H  H28  1  0.111000  0.842000  0.397000  1.0  0.0809
  H  H29  1  0.176700  0.019700  0.459300  1.0  0.0715
  H  H30  1  0.226900  0.946700  0.447300  1.0  0.071
  H  H31  1  0.188100  0.869200  0.519800  1.0  0.0904
  H  H32  1  0.108600  0.888900  0.579500  1.0  0.0811
  H  H33  1  0.658700  0.859900  0.343900  1.0  0.0981
  H  H34  1  0.278800  0.862600  0.323000  1.0  0.1156
  H  H35  1  0.389500  0.946800  0.404600  1.0  0.1071
  H  H36  1  0.640400  0.755100  0.246300  1.0  0.1042
  H  H37  1  0.533600  0.673700  0.162300  1.0  0.0875
  H  H38  1  0.260900  0.755000  0.229000  1.0  0.1054
  H  H39  1  0.925600  0.159800  0.406000  1.0  0.1098
  H  H40  1  0.971400  0.250600  0.354400  1.0  0.1069
  H  H41  1  0.650800  0.244500  0.464100  1.0  0.109
  H  H42  1  0.932700  0.360600  0.324800  1.0  0.1155
  H  H43  1  0.672200  0.453900  0.396100  1.0  0.1106
  H  H44  1  0.618500  0.360800  0.441600  1.0  0.1057
  H  H45  1  0.118900  0.341000  0.632600  1.0  0.1037
  H  H46  1  0.977600  0.509000  0.799800  1.0  0.1169
  H  H47  1  0.164200  0.503900  0.798700  1.0  0.0884
  H  H48  1  0.928000  0.294000  0.582200  1.0  0.101
  H  H49  1  0.741700  0.297600  0.582600  1.0  0.1091
  H  H50  1  0.788500  0.458400  0.751200  1.0  0.1064
  H  H51  1  0.776800  0.850600  0.629200  1.0  0.1078
  H  H52  1  0.441400  0.829200  0.721400  1.0  0.1162
  H  H53  1  0.487300  0.923500  0.675700  1.0  0.1026
  H  H54  1  0.818300  0.737500  0.651300  1.0  0.1057
  H  H55  1  0.770200  0.641800  0.694600  1.0  0.1074
  H  H56  1  0.484300  0.714000  0.743400  1.0  0.0945
  H  H57  1  0.993800  0.541800  0.200200  1.0  0.0968
  H  H58  1  0.053300  0.619000  0.220800  1.0  0.0862
  H  H59  1  0.026900  0.697500  0.143300  1.0  0.0866
  H  H60  1  0.951600  0.671000  0.071400  1.0  0.0888
  H  H61  1  0.862200  0.552000  0.040200  1.0  0.081
  H  H62  1  0.878200  0.501900  0.092500  1.0  0.0852
  H  H63  1  0.819900  0.705800  0.251800  1.0  0.0831
  H  H64  1  0.949600  0.717300  0.250100  1.0  0.0843
  H  H65  1  0.703800  0.662800  0.142200  1.0  0.0663
  H  H66  1  0.758600  0.648300  0.070900  1.0  0.0706
  H  H67  1  0.796500  0.522400  0.199200  1.0  0.0874
  H  H68  1  0.727000  0.587100  0.220500  1.0  0.0875
  H  H69  1  0.364900  0.472100  0.872700  1.0  0.0877
  H  H70  1  0.417000  0.551000  0.890800  1.0  0.0912
  H  H71  1  0.484800  0.429100  0.022900  1.0  0.0851
  H  H72  1  0.406900  0.397900  0.952900  1.0  0.0868
  H  H73  1  0.535000  0.598000  0.998400  1.0  0.086
  H  H74  1  0.562100  0.549100  0.050300  1.0  0.0734
  H  H75  1  0.482800  0.378600  0.844000  1.0  0.0778
  H  H76  1  0.611000  0.397000  0.842000  1.0  0.0804
  H  H77  1  0.676700  0.459300  0.019700  1.0  0.0731
  H  H78  1  0.726900  0.447300  0.946700  1.0  0.0712
  H  H79  1  0.688100  0.519800  0.869200  1.0  0.0932
  H  H80  1  0.608600  0.579500  0.888900  1.0  0.086
  H  H81  1  0.158700  0.343900  0.859900  1.0  0.0971
  H  H82  1  0.778800  0.323000  0.862600  1.0  0.1159
  H  H83  1  0.889500  0.404600  0.946800  1.0  0.105
  H  H84  1  0.140400  0.246300  0.755100  1.0  0.1036
  H  H85  1  0.033600  0.162300  0.673700  1.0  0.0883
  H  H86  1  0.760900  0.229000  0.755000  1.0  0.1063
  H  H87  1  0.425600  0.406000  0.159800  1.0  0.1101
  H  H88  1  0.471400  0.354400  0.250600  1.0  0.1084
  H  H89  1  0.150800  0.464100  0.244500  1.0  0.1089
  H  H90  1  0.432700  0.324800  0.360600  1.0  0.1139
  H  H91  1  0.172200  0.396100  0.453900  1.0  0.1106
  H  H92  1  0.118500  0.441600  0.360800  1.0  0.1065
  H  H93  1  0.618900  0.632600  0.341000  1.0  0.1047
  H  H94  1  0.477600  0.799800  0.509000  1.0  0.1182
  H  H95  1  0.664200  0.798700  0.503900  1.0  0.0889
  H  H96  1  0.428000  0.582200  0.294000  1.0  0.1008
  H  H97  1  0.241700  0.582600  0.297600  1.0  0.109
  H  H98  1  0.288500  0.751200  0.458400  1.0  0.1068
  H  H99  1  0.276800  0.629200  0.850600  1.0  0.1075
  H  H100  1  0.941400  0.721400  0.829200  1.0  0.1184
  H  H101  1  0.987300  0.675700  0.923500  1.0  0.1027
  H  H102  1  0.318300  0.651300  0.737500  1.0  0.1065
  H  H103  1  0.270200  0.694600  0.641800  1.0  0.1079
  H  H104  1  0.984300  0.743400  0.714000  1.0  0.093
  C  C105  1  0.486000  0.197370  0.590190  1.0  0.0898
  C  C106  1  0.460300  0.120380  0.667540  1.0  0.1252
  C  C107  1  0.372000  0.089750  0.550530  1.0  0.1045
  C  C108  1  0.382300  0.227520  0.687960  1.0  0.1182
  C  C109  1  0.268700  0.120120  0.646080  1.0  0.1519
  C  C110  1  0.291100  0.196920  0.571180  1.0  0.1239
  C  C111  1  0.930500  0.894680  0.503620  1.0  0.0874
  C  C112  1  0.971500  0.973620  0.430760  1.0  0.1249
  C  C113  1  0.048200  0.000850  0.550090  1.0  0.1156
  C  C114  1  0.046600  0.865960  0.411660  1.0  0.1325
  C  C115  1  0.161600  0.970500  0.460700  1.0  0.1474
  C  C116  1  0.122300  0.892810  0.532130  1.0  0.1248
  C  C117  1  0.603700  0.960150  0.440090  1.0  0.6752
  C  C118  1  0.535400  0.907960  0.382700  1.0  -0.131
  C  C119  1  0.581500  0.859840  0.339660  1.0  -0.0882
  C  C120  1  0.517100  0.808010  0.287230  1.0  0.0424
  C  C121  1  0.403000  0.808420  0.281420  1.0  0.0447
  C  C122  1  0.355800  0.861310  0.326610  1.0  -0.0925
  C  C123  1  0.421200  0.910700  0.375500  1.0  -0.0505
  C  C124  1  0.563400  0.756320  0.242320  1.0  -0.1111
  C  C125  1  0.499900  0.707680  0.192880  1.0  -0.0439
  C  C126  1  0.385000  0.706610  0.186030  1.0  -0.1278
  C  C127  1  0.338200  0.756120  0.231400  1.0  -0.0822
  C  C128  1  0.317900  0.650120  0.133700  1.0  0.6863
  C  C129  1  0.753800  0.136290  0.474810  1.0  0.6775
  C  C130  1  0.782300  0.194800  0.439860  1.0  -0.1392
  C  C131  1  0.879400  0.196020  0.407180  1.0  -0.0636
  C  C132  1  0.906600  0.250060  0.377140  1.0  -0.1245
  C  C133  1  0.840400  0.304880  0.379520  1.0  0.0463
  C  C134  1  0.744100  0.303220  0.412300  1.0  0.0443
  C  C135  1  0.716300  0.246320  0.442260  1.0  -0.0756
  C  C136  1  0.870600  0.361170  0.350030  1.0  -0.1016
  C  C137  1  0.810200  0.416490  0.358110  1.0  -0.1242
  C  C138  1  0.714900  0.415770  0.391810  1.0  -0.0794
  C  C139  1  0.683000  0.360510  0.418490  1.0  -0.1063
  C  C140  1  0.852100  0.479910  0.333090  1.0  0.6727
  C  C141  1  0.279300  0.418560  0.715160  1.0  0.699
  C  C142  1  0.157700  0.420860  0.714620  1.0  -0.1413
  C  C143  1  0.089500  0.374580  0.666040  1.0  -0.0806
  C  C144  1  0.974000  0.376110  0.664950  1.0  0.0444
  C  C145  1  0.931300  0.425860  0.716880  1.0  0.0411
  C  C146  1  0.005000  0.474550  0.766270  1.0  -0.1227
  C  C147  1  0.115400  0.471660  0.765300  1.0  -0.0427
  C  C148  1  0.900200  0.327960  0.616180  1.0  -0.1064
  C  C149  1  0.789900  0.329110  0.616910  1.0  -0.0445
  C  C150  1  0.747600  0.377770  0.669210  1.0  -0.1421
  C  C151  1  0.817700  0.425280  0.717200  1.0  -0.0667
  C  C152  1  0.627600  0.377970  0.670510  1.0  0.6862
  C  C153  1  0.664800  0.955690  0.615430  1.0  0.6828
  C  C154  1  0.637000  0.895830  0.646470  1.0  -0.1378
  C  C155  1  0.708000  0.845620  0.646860  1.0  -0.084
  C  C156  1  0.679800  0.787110  0.673090  1.0  0.0417
  C  C157  1  0.579200  0.780150  0.700250  1.0  0.0379
  C  C158  1  0.508700  0.832720  0.701680  1.0  -0.1266
  C  C159  1  0.536300  0.888840  0.674960  1.0  -0.0443
  C  C160  1  0.750700  0.733710  0.670630  1.0  -0.1285
  C  C161  1  0.722000  0.676910  0.696090  1.0  -0.0512
  C  C162  1  0.622400  0.670000  0.724480  1.0  -0.1308
  C  C163  1  0.552600  0.719610  0.725390  1.0  -0.0782
  C  C164  1  0.586900  0.605100  0.745300  1.0  0.7045
  C  C165  1  0.986000  0.590190  0.197370  1.0  0.0886
  C  C166  1  0.960300  0.667540  0.120380  1.0  0.1253
  C  C167  1  0.872000  0.550530  0.089750  1.0  0.1048
  C  C168  1  0.882300  0.687960  0.227520  1.0  0.1169
  C  C169  1  0.768700  0.646080  0.120120  1.0  0.1524
  C  C170  1  0.791100  0.571180  0.196920  1.0  0.1235
  C  C171  1  0.430500  0.503620  0.894680  1.0  0.087
  C  C172  1  0.471500  0.430760  0.973620  1.0  0.1241
  C  C173  1  0.548200  0.550090  0.000850  1.0  0.1145
  C  C174  1  0.546600  0.411660  0.865960  1.0  0.1309
  C  C175  1  0.661600  0.460700  0.970500  1.0  0.1458
  C  C176  1  0.622300  0.532130  0.892810  1.0  0.1237
  C  C177  1  0.103700  0.440090  0.960150  1.0  0.6759
  C  C178  1  0.035400  0.382700  0.907960  1.0  -0.1303
  C  C179  1  0.081500  0.339660  0.859840  1.0  -0.0872
  C  C180  1  0.017100  0.287230  0.808010  1.0  0.0423
  C  C181  1  0.903000  0.281420  0.808420  1.0  0.0482
  C  C182  1  0.855800  0.326610  0.861310  1.0  -0.0911
  C  C183  1  0.921200  0.375500  0.910700  1.0  -0.0519
  C  C184  1  0.063400  0.242320  0.756320  1.0  -0.1102
  C  C185  1  0.999900  0.192880  0.707680  1.0  -0.0411
  C  C186  1  0.885000  0.186030  0.706610  1.0  -0.1297
  C  C187  1  0.838200  0.231400  0.756120  1.0  -0.0823
  C  C188  1  0.817900  0.133700  0.650120  1.0  0.6849
  C  C189  1  0.253800  0.474810  0.136290  1.0  0.6795
  C  C190  1  0.282300  0.439860  0.194800  1.0  -0.1406
  C  C191  1  0.379400  0.407180  0.196020  1.0  -0.0652
  C  C192  1  0.406600  0.377140  0.250060  1.0  -0.1275
  C  C193  1  0.340400  0.379520  0.304880  1.0  0.0463
  C  C194  1  0.244100  0.412300  0.303220  1.0  0.0435
  C  C195  1  0.216300  0.442260  0.246320  1.0  -0.0777
  C  C196  1  0.370600  0.350030  0.361170  1.0  -0.1038
  C  C197  1  0.310200  0.358110  0.416490  1.0  -0.1243
  C  C198  1  0.214900  0.391810  0.415770  1.0  -0.0767
  C  C199  1  0.183000  0.418490  0.360510  1.0  -0.107
  C  C200  1  0.352100  0.333090  0.479910  1.0  0.6737
  C  C201  1  0.779300  0.715160  0.418560  1.0  0.6991
  C  C202  1  0.657700  0.714620  0.420860  1.0  -0.1423
  C  C203  1  0.589500  0.666040  0.374580  1.0  -0.0825
  C  C204  1  0.474000  0.664950  0.376110  1.0  0.0408
  C  C205  1  0.431300  0.716880  0.425860  1.0  0.0413
  C  C206  1  0.505000  0.766270  0.474550  1.0  -0.1224
  C  C207  1  0.615400  0.765300  0.471660  1.0  -0.0444
  C  C208  1  0.400200  0.616180  0.327960  1.0  -0.1083
  C  C209  1  0.289900  0.616910  0.329110  1.0  -0.0442
  C  C210  1  0.247600  0.669210  0.377770  1.0  -0.1441
  C  C211  1  0.317700  0.717200  0.425280  1.0  -0.068
  C  C212  1  0.127600  0.670510  0.377970  1.0  0.6834
  C  C213  1  0.164800  0.615430  0.955690  1.0  0.6848
  C  C214  1  0.137000  0.646470  0.895830  1.0  -0.1404
  C  C215  1  0.208000  0.646860  0.845620  1.0  -0.0881
  C  C216  1  0.179800  0.673090  0.787110  1.0  0.0415
  C  C217  1  0.079200  0.700250  0.780150  1.0  0.0378
  C  C218  1  0.008700  0.701680  0.832720  1.0  -0.1271
  C  C219  1  0.036300  0.674960  0.888840  1.0  -0.0418
  C  C220  1  0.250700  0.670630  0.733710  1.0  -0.1285
  C  C221  1  0.222000  0.696090  0.676910  1.0  -0.052
  C  C222  1  0.122400  0.724480  0.670000  1.0  -0.1302
  C  C223  1  0.052600  0.725390  0.719610  1.0  -0.0781
  C  C224  1  0.086900  0.745300  0.605100  1.0  0.7048
  N  N225  1  0.473600  0.123470  0.594130  1.0  -0.2823
  N  N226  1  0.391500  0.233040  0.614260  1.0  -0.3097
  N  N227  1  0.366200  0.154050  0.691750  1.0  -0.4254
  N  N228  1  0.276000  0.124160  0.575660  1.0  -0.3825
  N  N229  1  0.948000  0.969290  0.501910  1.0  -0.288
  N  N230  1  0.026200  0.857350  0.482470  1.0  -0.3208
  N  N231  1  0.065600  0.938260  0.409420  1.0  -0.4136
  N  N232  1  0.143000  0.966170  0.531350  1.0  -0.3712
  N  N233  1  0.973600  0.594130  0.123470  1.0  -0.2814
  N  N234  1  0.891500  0.614260  0.233040  1.0  -0.311
  N  N235  1  0.866200  0.691750  0.154050  1.0  -0.4215
  N  N236  1  0.776000  0.575660  0.124160  1.0  -0.3816
  N  N237  1  0.448000  0.501910  0.969290  1.0  -0.2877
  N  N238  1  0.526200  0.482470  0.857350  1.0  -0.3192
  N  N239  1  0.565600  0.409420  0.938260  1.0  -0.4152
  N  N240  1  0.643000  0.531350  0.966170  1.0  -0.3719
  O  O241  1  0.552800  0.005290  0.477190  1.0  -0.6035
  O  O242  1  0.704700  0.954900  0.448460  1.0  -0.5892
  O  O243  1  0.368100  0.610520  0.093320  1.0  -0.5932
  O  O244  1  0.215600  0.646570  0.135010  1.0  -0.5976
  O  O245  1  0.670400  0.139260  0.506520  1.0  -0.5917
  O  O246  1  0.817700  0.088940  0.469760  1.0  -0.588
  O  O247  1  0.924900  0.474470  0.291930  1.0  -0.6049
  O  O248  1  0.813100  0.533930  0.356550  1.0  -0.579
  O  O249  1  0.595900  0.998250  0.615250  1.0  -0.5889
  O  O250  1  0.338530  0.470980  0.748300  1.0  -0.5695
  O  O251  1  0.314330  0.363960  0.683260  1.0  -0.6329
  O  O252  1  0.569590  0.345470  0.615810  1.0  -0.5627
  O  O253  1  0.589900  0.407430  0.725510  1.0  -0.6276
  O  O254  1  0.754100  0.957290  0.589590  1.0  -0.594
  O  O255  1  0.649100  0.556800  0.739100  1.0  -0.5849
  O  O256  1  0.494400  0.595630  0.763690  1.0  -0.582
  O  O257  1  0.052800  0.477190  0.005290  1.0  -0.6031
  O  O258  1  0.204700  0.448460  0.954900  1.0  -0.5887
  O  O259  1  0.868100  0.093320  0.610520  1.0  -0.593
  O  O260  1  0.715600  0.135010  0.646570  1.0  -0.5956
  O  O261  1  0.170400  0.506520  0.139260  1.0  -0.5943
  O  O262  1  0.317700  0.469760  0.088940  1.0  -0.5882
  O  O263  1  0.424900  0.291930  0.474470  1.0  -0.6048
  O  O264  1  0.313100  0.356550  0.533930  1.0  -0.5819
  O  O265  1  0.095900  0.615250  0.998250  1.0  -0.5894
  O  O266  1  0.838530  0.748300  0.470980  1.0  -0.5674
  O  O267  1  0.814330  0.683260  0.363960  1.0  -0.6329
  O  O268  1  0.069590  0.615810  0.345470  1.0  -0.5638
  O  O269  1  0.089900  0.725510  0.407430  1.0  -0.6272
  O  O270  1  0.254100  0.589590  0.957290  1.0  -0.5942
  O  O271  1  0.149100  0.739100  0.556800  1.0  -0.5873
  O  O272  1  0.994400  0.763690  0.595630  1.0  -0.5804
