# generated using pymatgen
data_ZnH12C15(NO2)2
_symmetry_space_group_name_H-M   'P 1'
_cell_length_a   12.27510000
_cell_length_b   19.92880000
_cell_length_c   19.92880000
_cell_angle_alpha   103.53600000
_cell_angle_beta   93.89760000
_cell_angle_gamma   93.89760000
_symmetry_Int_Tables_number   1
_chemical_formula_structural   ZnH12C15(NO2)2
_chemical_formula_sum   'Zn8 H96 C120 N16 O32'
_cell_volume   4711.04797388
_cell_formula_units_Z   8
loop_
 _symmetry_equiv_pos_site_id
 _symmetry_equiv_pos_as_xyz
  1  'x, y, z'
loop_
 _atom_site_type_symbol
 _atom_site_label
 _atom_site_symmetry_multiplicity
 _atom_site_fract_x
 _atom_site_fract_y
 _atom_site_fract_z
 _atom_site_occupancy
 _atom_site_charge
  Zn  Zn1  1  0.813240  0.606090  0.116380  1.0  0.8854
  Zn  Zn2  1  0.613800  0.667220  0.155660  1.0  0.8968
  Zn  Zn3  1  0.929310  0.198620  0.936060  1.0  0.8933
  Zn  Zn4  1  0.018090  0.340340  0.085450  1.0  0.9158
  Zn  Zn5  1  0.313240  0.116380  0.606090  1.0  0.8856
  Zn  Zn6  1  0.113800  0.155660  0.667220  1.0  0.8964
  Zn  Zn7  1  0.429310  0.936060  0.198620  1.0  0.8858
  Zn  Zn8  1  0.518090  0.085450  0.340340  1.0  0.9185
  H  H9  1  0.505300  0.731300  0.282900  1.0  0.0928
  H  H10  1  0.428600  0.661900  0.248100  1.0  0.0909
  H  H11  1  0.301700  0.845000  0.280400  1.0  0.09
  H  H12  1  0.428500  0.841700  0.303100  1.0  0.085
  H  H13  1  0.322700  0.801000  0.099800  1.0  0.0854
  H  H14  1  0.237900  0.821600  0.157200  1.0  0.0856
  H  H15  1  0.188300  0.741700  0.226900  1.0  0.073
  H  H16  1  0.238300  0.668100  0.213900  1.0  0.0727
  H  H17  1  0.361100  0.637800  0.125800  1.0  0.0782
  H  H18  1  0.394300  0.691000  0.080200  1.0  0.0885
  H  H19  1  0.512500  0.796600  0.132600  1.0  0.1
  H  H20  1  0.557500  0.812600  0.212600  1.0  0.0947
  H  H21  1  0.057000  0.594400  0.173600  1.0  0.0806
  H  H22  1  0.066300  0.640100  0.117700  1.0  0.0849
  H  H23  1  0.871000  0.460800  0.071400  1.0  0.0892
  H  H24  1  0.938900  0.486400  0.145600  1.0  0.0962
  H  H25  1  0.963100  0.600800  0.003600  1.0  0.0901
  H  H26  1  0.886500  0.529600  0.985200  1.0  0.0862
  H  H27  1  0.200000  0.458500  0.087500  1.0  0.0916
  H  H28  1  0.137900  0.485300  0.155500  1.0  0.0866
  H  H29  1  0.158600  0.599000  0.015400  1.0  0.0807
  H  H30  1  0.211300  0.526200  0.003400  1.0  0.072
  H  H31  1  0.964400  0.421900  0.967500  1.0  0.0867
  H  H32  1  0.094800  0.419700  0.973300  1.0  0.0823
  H  H33  1  0.658300  0.836000  0.055600  1.0  0.1135
  H  H34  1  0.633800  0.954800  0.038600  1.0  0.1141
  H  H35  1  0.700600  0.050300  0.003300  1.0  0.1069
  H  H36  1  0.955600  0.950400  0.924400  1.0  0.1049
  H  H37  1  0.979900  0.830200  0.941000  1.0  0.1143
  H  H38  1  0.923500  0.739700  0.987700  1.0  0.1005
  H  H39  1  0.792400  0.451400  0.227400  1.0  0.1061
  H  H40  1  0.453300  0.420500  0.314900  1.0  0.1116
  H  H41  1  0.493200  0.515200  0.271400  1.0  0.106
  H  H42  1  0.847300  0.342900  0.253100  1.0  0.1082
  H  H43  1  0.807600  0.246500  0.295300  1.0  0.1073
  H  H44  1  0.508600  0.307600  0.340800  1.0  0.109
  H  H45  1  0.764600  0.833200  0.331800  1.0  0.1081
  H  H46  1  0.781900  0.939400  0.429600  1.0  0.1019
  H  H47  1  0.163000  0.927700  0.452500  1.0  0.1079
  H  H48  1  0.143700  0.816700  0.360300  1.0  0.1163
  H  H49  1  0.034400  0.735700  0.275900  1.0  0.0971
  H  H50  1  0.890400  0.018300  0.514700  1.0  0.0945
  H  H51  1  0.678200  0.386300  0.106500  1.0  0.1016
  H  H52  1  0.490700  0.388000  0.107600  1.0  0.1141
  H  H53  1  0.303300  0.339500  0.055900  1.0  0.106
  H  H54  1  0.642000  0.225400  0.937200  1.0  0.1079
  H  H55  1  0.453300  0.172800  0.888400  1.0  0.1133
  H  H56  1  0.266500  0.174200  0.890200  1.0  0.0978
  H  H57  1  0.005300  0.282900  0.731300  1.0  0.0944
  H  H58  1  0.928600  0.248100  0.661900  1.0  0.0924
  H  H59  1  0.801700  0.280400  0.845000  1.0  0.0904
  H  H60  1  0.928500  0.303100  0.841700  1.0  0.0856
  H  H61  1  0.822700  0.099800  0.801000  1.0  0.0891
  H  H62  1  0.737900  0.157200  0.821600  1.0  0.0867
  H  H63  1  0.688300  0.226900  0.741700  1.0  0.0771
  H  H64  1  0.738300  0.213900  0.668100  1.0  0.0729
  H  H65  1  0.861100  0.125800  0.637800  1.0  0.0785
  H  H66  1  0.894300  0.080200  0.691000  1.0  0.0936
  H  H67  1  0.012500  0.132600  0.796600  1.0  0.0978
  H  H68  1  0.057500  0.212600  0.812600  1.0  0.0935
  H  H69  1  0.557000  0.173600  0.594400  1.0  0.0849
  H  H70  1  0.566300  0.117700  0.640100  1.0  0.0848
  H  H71  1  0.371000  0.071400  0.460800  1.0  0.0887
  H  H72  1  0.438900  0.145600  0.486400  1.0  0.0959
  H  H73  1  0.463100  0.003600  0.600800  1.0  0.0897
  H  H74  1  0.386500  0.985200  0.529600  1.0  0.0845
  H  H75  1  0.700000  0.087500  0.458500  1.0  0.0907
  H  H76  1  0.637900  0.155500  0.485300  1.0  0.0898
  H  H77  1  0.658600  0.015400  0.599000  1.0  0.0826
  H  H78  1  0.711300  0.003400  0.526200  1.0  0.0722
  H  H79  1  0.464400  0.967500  0.421900  1.0  0.0892
  H  H80  1  0.594800  0.973300  0.419700  1.0  0.0817
  H  H81  1  0.158300  0.055600  0.836000  1.0  0.1137
  H  H82  1  0.133800  0.038600  0.954800  1.0  0.1152
  H  H83  1  0.200600  0.003300  0.050300  1.0  0.1063
  H  H84  1  0.455600  0.924400  0.950400  1.0  0.1048
  H  H85  1  0.479900  0.941000  0.830200  1.0  0.1161
  H  H86  1  0.423500  0.987700  0.739700  1.0  0.1008
  H  H87  1  0.292400  0.227400  0.451400  1.0  0.1056
  H  H88  1  0.953300  0.314900  0.420500  1.0  0.112
  H  H89  1  0.993200  0.271400  0.515200  1.0  0.106
  H  H90  1  0.347300  0.253100  0.342900  1.0  0.1074
  H  H91  1  0.307600  0.295300  0.246500  1.0  0.1081
  H  H92  1  0.008600  0.340800  0.307600  1.0  0.1089
  H  H93  1  0.264600  0.331800  0.833200  1.0  0.1068
  H  H94  1  0.281900  0.429600  0.939400  1.0  0.1013
  H  H95  1  0.663000  0.452500  0.927700  1.0  0.1086
  H  H96  1  0.643700  0.360300  0.816700  1.0  0.1168
  H  H97  1  0.534400  0.275900  0.735700  1.0  0.0963
  H  H98  1  0.390400  0.514700  0.018300  1.0  0.0946
  H  H99  1  0.178200  0.106500  0.386300  1.0  0.1021
  H  H100  1  0.990700  0.107600  0.388000  1.0  0.1135
  H  H101  1  0.803300  0.055900  0.339500  1.0  0.1062
  H  H102  1  0.142000  0.937200  0.225400  1.0  0.1068
  H  H103  1  0.953300  0.888400  0.172800  1.0  0.1138
  H  H104  1  0.766500  0.890200  0.174200  1.0  0.0978
  C  C105  1  0.443100  0.711350  0.248070  1.0  0.1243
  C  C106  1  0.367600  0.820550  0.267670  1.0  0.132
  C  C107  1  0.304000  0.796730  0.146210  1.0  0.128
  C  C108  1  0.254600  0.717550  0.214410  1.0  0.1439
  C  C109  1  0.376500  0.687430  0.126990  1.0  0.1269
  C  C110  1  0.494100  0.791870  0.178970  1.0  0.0859
  C  C111  1  0.057500  0.592110  0.123450  1.0  0.1145
  C  C112  1  0.940900  0.484930  0.095690  1.0  0.0906
  C  C113  1  0.955900  0.553260  0.010740  1.0  0.1281
  C  C114  1  0.137300  0.483710  0.105470  1.0  0.1115
  C  C115  1  0.148800  0.551250  0.022070  1.0  0.1453
  C  C116  1  0.033700  0.445690  0.992870  1.0  0.132
  C  C117  1  0.753800  0.722530  0.060230  1.0  0.6874
  C  C118  1  0.785600  0.779880  0.026540  1.0  -0.1348
  C  C119  1  0.724300  0.835860  0.033300  1.0  -0.0946
  C  C120  1  0.758800  0.893700  0.007160  1.0  0.0442
  C  C121  1  0.700300  0.953740  0.016720  1.0  -0.1261
  C  C122  1  0.739000  0.009760  0.994840  1.0  -0.0525
  C  C123  1  0.891500  0.951070  0.948590  1.0  -0.0942
  C  C124  1  0.915600  0.832570  0.965050  1.0  -0.1316
  C  C125  1  0.881600  0.778610  0.992210  1.0  -0.0428
  C  C126  1  0.835200  0.008650  0.959850  1.0  -0.1336
  C  C127  1  0.878500  0.071630  0.937490  1.0  0.6621
  C  C128  1  0.856100  0.891900  0.972320  1.0  0.0492
  C  C129  1  0.670200  0.551960  0.211800  1.0  0.6893
  C  C130  1  0.647600  0.492820  0.244840  1.0  -0.1429
  C  C131  1  0.723800  0.444760  0.245420  1.0  -0.1036
  C  C132  1  0.701700  0.386310  0.272070  1.0  0.0448
  C  C133  1  0.599700  0.376380  0.298980  1.0  0.05
  C  C134  1  0.522500  0.426370  0.297430  1.0  -0.1292
  C  C135  1  0.546000  0.482470  0.271590  1.0  -0.0537
  C  C136  1  0.778600  0.336500  0.271020  1.0  -0.1162
  C  C137  1  0.754900  0.279260  0.295580  1.0  -0.0545
  C  C138  1  0.577100  0.315570  0.323190  1.0  -0.0863
  C  C139  1  0.653400  0.268530  0.321270  1.0  -0.1145
  C  C140  1  0.625400  0.201780  0.343040  1.0  0.6521
  C  C141  1  0.820600  0.726090  0.237450  1.0  0.6838
  C  C142  1  0.888600  0.777650  0.295330  1.0  -0.1282
  C  C143  1  0.841500  0.830390  0.337590  1.0  -0.0847
  C  C144  1  0.906100  0.880520  0.389640  1.0  0.0527
  C  C145  1  0.858600  0.935790  0.434470  1.0  -0.1428
  C  C146  1  0.085700  0.929050  0.447990  1.0  -0.0832
  C  C147  1  0.020700  0.876900  0.397100  1.0  0.0508
  C  C148  1  0.067200  0.821020  0.354460  1.0  -0.1433
  C  C149  1  0.002200  0.772790  0.304530  1.0  -0.0435
  C  C150  1  0.038300  0.981000  0.490560  1.0  -0.1309
  C  C151  1  0.106500  0.034790  0.543950  1.0  0.6805
  C  C152  1  0.923200  0.983070  0.483950  1.0  -0.0584
  C  C153  1  0.677100  0.305810  0.020070  1.0  -0.1372
  C  C154  1  0.798400  0.306050  0.020150  1.0  0.6906
  C  C155  1  0.631400  0.354150  0.072090  1.0  -0.0308
  C  C156  1  0.520800  0.354680  0.073060  1.0  -0.105
  C  C157  1  0.334800  0.306060  0.022300  1.0  -0.0662
  C  C158  1  0.146500  0.260490  0.973090  1.0  0.6877
  C  C159  1  0.450700  0.306350  0.023510  1.0  0.0369
  C  C160  1  0.495700  0.256350  0.971710  1.0  0.0453
  C  C161  1  0.610400  0.257960  0.971540  1.0  -0.076
  C  C162  1  0.423800  0.206820  0.922340  1.0  -0.1291
  C  C163  1  0.267100  0.258270  0.973290  1.0  -0.1574
  C  C164  1  0.313300  0.207800  0.923340  1.0  -0.0355
  C  C165  1  0.943100  0.248070  0.711350  1.0  0.1241
  C  C166  1  0.867600  0.267670  0.820550  1.0  0.129
  C  C167  1  0.804000  0.146210  0.796730  1.0  0.1264
  C  C168  1  0.754600  0.214410  0.717550  1.0  0.1452
  C  C169  1  0.876500  0.126990  0.687430  1.0  0.1269
  C  C170  1  0.994100  0.178970  0.791870  1.0  0.0852
  C  C171  1  0.557500  0.123450  0.592110  1.0  0.1154
  C  C172  1  0.440900  0.095690  0.484930  1.0  0.0908
  C  C173  1  0.455900  0.010740  0.553260  1.0  0.1271
  C  C174  1  0.637300  0.105470  0.483710  1.0  0.1102
  C  C175  1  0.648800  0.022070  0.551250  1.0  0.1443
  C  C176  1  0.533700  0.992870  0.445690  1.0  0.1317
  C  C177  1  0.253800  0.060230  0.722530  1.0  0.6892
  C  C178  1  0.285600  0.026540  0.779880  1.0  -0.1336
  C  C179  1  0.224300  0.033300  0.835860  1.0  -0.1022
  C  C180  1  0.258800  0.007160  0.893700  1.0  0.0423
  C  C181  1  0.200300  0.016720  0.953740  1.0  -0.1264
  C  C182  1  0.239000  0.994840  0.009760  1.0  -0.0521
  C  C183  1  0.391500  0.948590  0.951070  1.0  -0.0948
  C  C184  1  0.415600  0.965050  0.832570  1.0  -0.1307
  C  C185  1  0.381600  0.992210  0.778610  1.0  -0.0469
  C  C186  1  0.335200  0.959850  0.008650  1.0  -0.134
  C  C187  1  0.378500  0.937490  0.071630  1.0  0.6634
  C  C188  1  0.356100  0.972320  0.891900  1.0  0.0491
  C  C189  1  0.170200  0.211800  0.551960  1.0  0.6912
  C  C190  1  0.147600  0.244840  0.492820  1.0  -0.1464
  C  C191  1  0.223800  0.245420  0.444760  1.0  -0.1058
  C  C192  1  0.201700  0.272070  0.386310  1.0  0.0436
  C  C193  1  0.099700  0.298980  0.376380  1.0  0.0504
  C  C194  1  0.022500  0.297430  0.426370  1.0  -0.1277
  C  C195  1  0.046000  0.271590  0.482470  1.0  -0.0536
  C  C196  1  0.278600  0.271020  0.336500  1.0  -0.1166
  C  C197  1  0.254900  0.295580  0.279260  1.0  -0.0549
  C  C198  1  0.077100  0.323190  0.315570  1.0  -0.0858
  C  C199  1  0.153400  0.321270  0.268530  1.0  -0.1157
  C  C200  1  0.125400  0.343040  0.201780  1.0  0.6517
  C  C201  1  0.320600  0.237450  0.726090  1.0  0.6858
  C  C202  1  0.388600  0.295330  0.777650  1.0  -0.1295
  C  C203  1  0.341500  0.337590  0.830390  1.0  -0.085
  C  C204  1  0.406100  0.389640  0.880520  1.0  0.0504
  C  C205  1  0.358600  0.434470  0.935790  1.0  -0.1432
  C  C206  1  0.585700  0.447990  0.929050  1.0  -0.0804
  C  C207  1  0.520700  0.397100  0.876900  1.0  0.0524
  C  C208  1  0.567200  0.354460  0.821020  1.0  -0.141
  C  C209  1  0.502200  0.304530  0.772790  1.0  -0.0443
  C  C210  1  0.538300  0.490560  0.981000  1.0  -0.1322
  C  C211  1  0.606500  0.543950  0.034790  1.0  0.679
  C  C212  1  0.423200  0.483950  0.983070  1.0  -0.0547
  C  C213  1  0.177100  0.020070  0.305810  1.0  -0.1387
  C  C214  1  0.298400  0.020150  0.306050  1.0  0.6899
  C  C215  1  0.131400  0.072090  0.354150  1.0  -0.0289
  C  C216  1  0.020800  0.073060  0.354680  1.0  -0.1058
  C  C217  1  0.834800  0.022300  0.306060  1.0  -0.0694
  C  C218  1  0.646500  0.973090  0.260490  1.0  0.6903
  C  C219  1  0.950700  0.023510  0.306350  1.0  0.0361
  C  C220  1  0.995700  0.971710  0.256350  1.0  0.0461
  C  C221  1  0.110400  0.971540  0.257960  1.0  -0.0739
  C  C222  1  0.923800  0.922340  0.206820  1.0  -0.1291
  C  C223  1  0.767100  0.973290  0.258270  1.0  -0.1568
  C  C224  1  0.813300  0.923340  0.207800  1.0  -0.0352
  N  N225  1  0.473400  0.716880  0.177960  1.0  -0.2806
  N  N226  1  0.346100  0.747550  0.267470  1.0  -0.4056
  N  N227  1  0.279500  0.723310  0.144710  1.0  -0.3833
  N  N228  1  0.396800  0.829720  0.198420  1.0  -0.3078
  N  N229  1  0.951100  0.556940  0.086500  1.0  -0.2837
  N  N230  1  0.032400  0.445430  0.068610  1.0  -0.3243
  N  N231  1  0.150100  0.554550  0.096150  1.0  -0.3775
  N  N232  1  0.046900  0.516480  0.983120  1.0  -0.4075
  N  N233  1  0.973400  0.177960  0.716880  1.0  -0.2806
  N  N234  1  0.846100  0.267470  0.747550  1.0  -0.4081
  N  N235  1  0.779500  0.144710  0.723310  1.0  -0.3823
  N  N236  1  0.896800  0.198420  0.829720  1.0  -0.3051
  N  N237  1  0.451100  0.086500  0.556940  1.0  -0.2828
  N  N238  1  0.532400  0.068610  0.445430  1.0  -0.3238
  N  N239  1  0.650100  0.096150  0.554550  1.0  -0.3769
  N  N240  1  0.546900  0.983120  0.516480  1.0  -0.4078
  O  O241  1  0.816200  0.674780  0.056040  1.0  -0.5923
  O  O242  1  0.669300  0.726960  0.092820  1.0  -0.6012
  O  O243  1  0.835400  0.127400  0.962340  1.0  -0.6013
  O  O244  1  0.952900  0.068600  0.898320  1.0  -0.5932
  O  O245  1  0.760100  0.554360  0.185360  1.0  -0.6047
  O  O246  1  0.599200  0.594220  0.212260  1.0  -0.5859
  O  O247  1  0.694900  0.159600  0.342200  1.0  -0.6123
  O  O248  1  0.528500  0.190160  0.358000  1.0  -0.5881
  O  O249  1  0.873600  0.685090  0.197610  1.0  -0.5949
  O  O250  1  0.718800  0.728170  0.233990  1.0  -0.5922
  O  O251  1  0.056500  0.071980  0.591420  1.0  -0.6121
  O  O252  1  0.207500  0.042580  0.539380  1.0  -0.5866
  O  O253  1  0.109700  0.315230  0.006270  1.0  -0.6345
  O  O254  1  0.088500  0.207400  0.939180  1.0  -0.5604
  O  O255  1  0.854900  0.338010  0.074930  1.0  -0.5785
  O  O256  1  0.838200  0.276980  0.964800  1.0  -0.6258
  O  O257  1  0.316200  0.056040  0.674780  1.0  -0.5929
  O  O258  1  0.169300  0.092820  0.726960  1.0  -0.6022
  O  O259  1  0.335400  0.962340  0.127400  1.0  -0.6036
  O  O260  1  0.452900  0.898320  0.068600  1.0  -0.5922
  O  O261  1  0.260100  0.185360  0.554360  1.0  -0.6037
  O  O262  1  0.099200  0.212260  0.594220  1.0  -0.5865
  O  O263  1  0.194900  0.342200  0.159600  1.0  -0.6175
  O  O264  1  0.028500  0.358000  0.190160  1.0  -0.5877
  O  O265  1  0.373600  0.197610  0.685090  1.0  -0.5952
  O  O266  1  0.218800  0.233990  0.728170  1.0  -0.5908
  O  O267  1  0.556500  0.591420  0.071980  1.0  -0.6114
  O  O268  1  0.707500  0.539380  0.042580  1.0  -0.587
  O  O269  1  0.609700  0.006270  0.315230  1.0  -0.634
  O  O270  1  0.588500  0.939180  0.207400  1.0  -0.5589
  O  O271  1  0.354900  0.074930  0.338010  1.0  -0.5731
  O  O272  1  0.338200  0.964800  0.276980  1.0  -0.627
