# generated using pymatgen
data_ZnH12C15(NO2)2
_symmetry_space_group_name_H-M   'P 1'
_cell_length_a   12.25270000
_cell_length_b   24.71840000
_cell_length_c   31.25150000
_cell_angle_alpha   90.00000000
_cell_angle_beta   90.00000000
_cell_angle_gamma   97.02300000
_symmetry_Int_Tables_number   1
_chemical_formula_structural   ZnH12C15(NO2)2
_chemical_formula_sum   'Zn16 H192 C240 N32 O64'
_cell_volume   9394.03754891
_cell_formula_units_Z   16
loop_
 _symmetry_equiv_pos_site_id
 _symmetry_equiv_pos_as_xyz
  1  'x, y, z'
loop_
 _atom_site_type_symbol
 _atom_site_label
 _atom_site_symmetry_multiplicity
 _atom_site_fract_x
 _atom_site_fract_y
 _atom_site_fract_z
 _atom_site_occupancy
 _atom_site_charge
  Zn  Zn1  1  0.589610  0.206530  0.259070  1.0  0.8967
  Zn  Zn2  1  0.387900  0.253770  0.270890  1.0  0.9
  Zn  Zn3  1  0.701400  0.433850  0.638830  1.0  0.8855
  Zn  Zn4  1  0.296960  0.081040  0.876160  1.0  0.8836
  Zn  Zn5  1  0.910390  0.293470  0.759070  1.0  0.8953
  Zn  Zn6  1  0.112100  0.246230  0.770890  1.0  0.9018
  Zn  Zn7  1  0.798600  0.066150  0.138830  1.0  0.8847
  Zn  Zn8  1  0.203040  0.418960  0.376160  1.0  0.8834
  Zn  Zn9  1  0.410390  0.793470  0.740930  1.0  0.8937
  Zn  Zn10  1  0.612100  0.746230  0.729110  1.0  0.9017
  Zn  Zn11  1  0.298600  0.566150  0.361170  1.0  0.8862
  Zn  Zn12  1  0.703040  0.918960  0.123840  1.0  0.8828
  Zn  Zn13  1  0.089610  0.706530  0.240930  1.0  0.8954
  Zn  Zn14  1  0.887900  0.753770  0.229110  1.0  0.9001
  Zn  Zn15  1  0.201400  0.933850  0.861170  1.0  0.8846
  Zn  Zn16  1  0.796960  0.581040  0.623840  1.0  0.883
  H  H17  1  0.653300  0.110500  0.209300  1.0  0.0958
  H  H18  1  0.704900  0.162500  0.182200  1.0  0.0971
  H  H19  1  0.818400  0.237700  0.217600  1.0  0.0918
  H  H20  1  0.841600  0.235000  0.267900  1.0  0.0866
  H  H21  1  0.763400  0.155300  0.309500  1.0  0.0857
  H  H22  1  0.689900  0.105800  0.286300  1.0  0.0834
  H  H23  1  0.981100  0.137400  0.187900  1.0  0.0876
  H  H24  1  0.902000  0.178900  0.169600  1.0  0.0767
  H  H25  1  0.773400  0.047400  0.238600  1.0  0.0825
  H  H26  1  0.903000  0.057600  0.229800  1.0  0.095
  H  H27  1  0.957500  0.172100  0.295400  1.0  0.0715
  H  H28  1  0.013600  0.132900  0.263600  1.0  0.0777
  H  H29  1  0.273400  0.309300  0.343400  1.0  0.0887
  H  H30  1  0.337600  0.355400  0.313600  1.0  0.0895
  H  H31  1  0.309700  0.352500  0.236000  1.0  0.0737
  H  H32  1  0.229200  0.303700  0.215000  1.0  0.0816
  H  H33  1  0.132000  0.232500  0.261100  1.0  0.081
  H  H34  1  0.149100  0.235600  0.311900  1.0  0.0776
  H  H35  1  0.106300  0.418400  0.283300  1.0  0.0843
  H  H36  1  0.236400  0.420900  0.276700  1.0  0.0812
  H  H37  1  0.075100  0.304700  0.352600  1.0  0.077
  H  H38  1  0.008700  0.348100  0.329100  1.0  0.0912
  H  H39  1  0.034500  0.298500  0.225300  1.0  0.0801
  H  H40  1  0.984500  0.344500  0.252600  1.0  0.079
  H  H41  1  0.541700  0.422100  0.231900  1.0  0.11
  H  H42  1  0.562600  0.521100  0.211600  1.0  0.1229
  H  H43  1  0.669900  0.604900  0.208900  1.0  0.1013
  H  H44  1  0.934600  0.537700  0.252400  1.0  0.1043
  H  H45  1  0.915100  0.438800  0.270500  1.0  0.1056
  H  H46  1  0.807300  0.355500  0.275700  1.0  0.108
  H  H47  1  0.263000  0.233800  0.141200  1.0  0.107
  H  H48  1  0.214100  0.212100  0.071400  1.0  0.1161
  H  H49  1  0.263100  0.177800  0.999300  1.0  0.1031
  H  H50  1  0.568400  0.135300  0.979200  1.0  0.114
  H  H51  1  0.618500  0.158900  0.048800  1.0  0.1048
  H  H52  1  0.570900  0.194400  0.120200  1.0  0.1062
  H  H53  1  0.440600  0.298000  0.400000  1.0  0.1048
  H  H54  1  0.414000  0.353500  0.465000  1.0  0.1095
  H  H55  1  0.472900  0.383800  0.532200  1.0  0.1098
  H  H56  1  0.714600  0.285800  0.530700  1.0  0.1121
  H  H57  1  0.743300  0.230900  0.464800  1.0  0.1178
  H  H58  1  0.693100  0.205800  0.395800  1.0  0.1046
  H  H59  1  0.415700  0.449700  0.652600  1.0  0.1028
  H  H60  1  0.226000  0.399300  0.653500  1.0  0.1134
  H  H61  1  0.037500  0.400800  0.651200  1.0  0.0988
  H  H62  1  0.079900  0.564100  0.629300  1.0  0.1127
  H  H63  1  0.270300  0.613000  0.623200  1.0  0.1167
  H  H64  1  0.458400  0.612500  0.628800  1.0  0.11
  H  H65  1  0.846700  0.389500  0.709300  1.0  0.0957
  H  H66  1  0.795100  0.337500  0.682200  1.0  0.0954
  H  H67  1  0.681600  0.262300  0.717600  1.0  0.091
  H  H68  1  0.658400  0.265000  0.767900  1.0  0.088
  H  H69  1  0.736600  0.344700  0.809500  1.0  0.0859
  H  H70  1  0.810100  0.394200  0.786300  1.0  0.0832
  H  H71  1  0.518900  0.362600  0.687900  1.0  0.0884
  H  H72  1  0.598000  0.321100  0.669600  1.0  0.0762
  H  H73  1  0.726600  0.452600  0.738600  1.0  0.0801
  H  H74  1  0.597000  0.442400  0.729800  1.0  0.0949
  H  H75  1  0.542500  0.327900  0.795400  1.0  0.0721
  H  H76  1  0.486400  0.367100  0.763600  1.0  0.0764
  H  H77  1  0.226600  0.190700  0.843400  1.0  0.0882
  H  H78  1  0.162400  0.144600  0.813600  1.0  0.0891
  H  H79  1  0.190300  0.147500  0.736000  1.0  0.0734
  H  H80  1  0.270800  0.196300  0.715000  1.0  0.0811
  H  H81  1  0.368000  0.267500  0.761100  1.0  0.0815
  H  H82  1  0.350900  0.264400  0.811900  1.0  0.0758
  H  H83  1  0.393700  0.081600  0.783300  1.0  0.084
  H  H84  1  0.263600  0.079100  0.776700  1.0  0.0803
  H  H85  1  0.424900  0.195300  0.852600  1.0  0.0748
  H  H86  1  0.491300  0.151900  0.829100  1.0  0.0909
  H  H87  1  0.465500  0.201500  0.725300  1.0  0.0792
  H  H88  1  0.515500  0.155500  0.752600  1.0  0.0776
  H  H89  1  0.958300  0.077900  0.731900  1.0  0.1106
  H  H90  1  0.937400  0.978900  0.711600  1.0  0.1232
  H  H91  1  0.830100  0.895100  0.708900  1.0  0.1
  H  H92  1  0.565400  0.962300  0.752400  1.0  0.1033
  H  H93  1  0.584900  0.061200  0.770500  1.0  0.1051
  H  H94  1  0.692700  0.144500  0.775700  1.0  0.1078
  H  H95  1  0.237000  0.266200  0.641200  1.0  0.1072
  H  H96  1  0.285900  0.287900  0.571400  1.0  0.1147
  H  H97  1  0.236900  0.322200  0.499300  1.0  0.1028
  H  H98  1  0.931600  0.364700  0.479200  1.0  0.1143
  H  H99  1  0.881500  0.341100  0.548800  1.0  0.105
  H  H100  1  0.929100  0.305600  0.620200  1.0  0.1061
  H  H101  1  0.059400  0.202000  0.900000  1.0  0.104
  H  H102  1  0.086000  0.146500  0.965000  1.0  0.1085
  H  H103  1  0.027100  0.116200  0.032200  1.0  0.1089
  H  H104  1  0.785400  0.214200  0.030700  1.0  0.1129
  H  H105  1  0.756700  0.269100  0.964800  1.0  0.1174
  H  H106  1  0.806900  0.294200  0.895800  1.0  0.1047
  H  H107  1  0.084300  0.050300  0.152600  1.0  0.1033
  H  H108  1  0.274000  0.100700  0.153500  1.0  0.1137
  H  H109  1  0.462500  0.099200  0.151200  1.0  0.0988
  H  H110  1  0.420100  0.935900  0.129300  1.0  0.1123
  H  H111  1  0.229700  0.887000  0.123200  1.0  0.1168
  H  H112  1  0.041600  0.887500  0.128800  1.0  0.1104
  H  H113  1  0.346700  0.889500  0.790700  1.0  0.0958
  H  H114  1  0.295100  0.837500  0.817800  1.0  0.0957
  H  H115  1  0.181600  0.762300  0.782400  1.0  0.0935
  H  H116  1  0.158400  0.765000  0.732100  1.0  0.0881
  H  H117  1  0.236600  0.844700  0.690500  1.0  0.0849
  H  H118  1  0.310100  0.894200  0.713700  1.0  0.0832
  H  H119  1  0.018900  0.862600  0.812100  1.0  0.0893
  H  H120  1  0.098000  0.821100  0.830400  1.0  0.0789
  H  H121  1  0.226600  0.952600  0.761400  1.0  0.0803
  H  H122  1  0.097000  0.942400  0.770200  1.0  0.0955
  H  H123  1  0.042500  0.827900  0.704600  1.0  0.0718
  H  H124  1  0.986400  0.867100  0.736400  1.0  0.0766
  H  H125  1  0.726600  0.690700  0.656600  1.0  0.0897
  H  H126  1  0.662400  0.644600  0.686400  1.0  0.0892
  H  H127  1  0.690300  0.647500  0.764000  1.0  0.0747
  H  H128  1  0.770800  0.696300  0.785000  1.0  0.0823
  H  H129  1  0.868000  0.767500  0.738900  1.0  0.0805
  H  H130  1  0.850900  0.764400  0.688100  1.0  0.0763
  H  H131  1  0.893700  0.581600  0.716700  1.0  0.0841
  H  H132  1  0.763600  0.579100  0.723300  1.0  0.0817
  H  H133  1  0.924900  0.695300  0.647400  1.0  0.0762
  H  H134  1  0.991300  0.651900  0.670900  1.0  0.0921
  H  H135  1  0.965500  0.701500  0.774700  1.0  0.0804
  H  H136  1  0.015500  0.655500  0.747400  1.0  0.0777
  H  H137  1  0.458300  0.577900  0.768100  1.0  0.1102
  H  H138  1  0.437400  0.478900  0.788400  1.0  0.1224
  H  H139  1  0.330100  0.395100  0.791100  1.0  0.101
  H  H140  1  0.065400  0.462300  0.747600  1.0  0.1044
  H  H141  1  0.084900  0.561200  0.729500  1.0  0.1055
  H  H142  1  0.192700  0.644500  0.724300  1.0  0.108
  H  H143  1  0.737000  0.766200  0.858800  1.0  0.1078
  H  H144  1  0.785900  0.787900  0.928600  1.0  0.1156
  H  H145  1  0.736900  0.822200  0.000700  1.0  0.1027
  H  H146  1  0.431600  0.864700  0.020800  1.0  0.1134
  H  H147  1  0.381500  0.841100  0.951200  1.0  0.1051
  H  H148  1  0.429100  0.805600  0.879800  1.0  0.1068
  H  H149  1  0.559400  0.702000  0.600000  1.0  0.1037
  H  H150  1  0.586000  0.646500  0.535000  1.0  0.1086
  H  H151  1  0.527100  0.616200  0.467800  1.0  0.1088
  H  H152  1  0.285400  0.714200  0.469300  1.0  0.113
  H  H153  1  0.256700  0.769100  0.535200  1.0  0.118
  H  H154  1  0.306900  0.794200  0.604200  1.0  0.1043
  H  H155  1  0.584300  0.550300  0.347400  1.0  0.1041
  H  H156  1  0.774000  0.600700  0.346500  1.0  0.1135
  H  H157  1  0.962500  0.599200  0.348800  1.0  0.099
  H  H158  1  0.920100  0.435900  0.370700  1.0  0.112
  H  H159  1  0.729700  0.387000  0.376800  1.0  0.1167
  H  H160  1  0.541600  0.387500  0.371200  1.0  0.1104
  H  H161  1  0.153300  0.610500  0.290700  1.0  0.0958
  H  H162  1  0.204900  0.662500  0.317800  1.0  0.0959
  H  H163  1  0.318400  0.737700  0.282400  1.0  0.0918
  H  H164  1  0.341600  0.735000  0.232100  1.0  0.0884
  H  H165  1  0.263400  0.655300  0.190500  1.0  0.0841
  H  H166  1  0.189900  0.605800  0.213700  1.0  0.0821
  H  H167  1  0.481100  0.637400  0.312100  1.0  0.0874
  H  H168  1  0.402000  0.678900  0.330400  1.0  0.0772
  H  H169  1  0.273400  0.547400  0.261400  1.0  0.0818
  H  H170  1  0.403000  0.557600  0.270200  1.0  0.0946
  H  H171  1  0.457500  0.672100  0.204600  1.0  0.0702
  H  H172  1  0.513600  0.632900  0.236400  1.0  0.0785
  H  H173  1  0.773400  0.809300  0.156600  1.0  0.0885
  H  H174  1  0.837600  0.855400  0.186400  1.0  0.0899
  H  H175  1  0.809700  0.852500  0.264000  1.0  0.0723
  H  H176  1  0.729200  0.803700  0.285000  1.0  0.0821
  H  H177  1  0.632000  0.732500  0.238900  1.0  0.0817
  H  H178  1  0.649100  0.735600  0.188100  1.0  0.0755
  H  H179  1  0.606300  0.918400  0.216700  1.0  0.0828
  H  H180  1  0.736400  0.920900  0.223300  1.0  0.081
  H  H181  1  0.575100  0.804700  0.147400  1.0  0.0755
  H  H182  1  0.508700  0.848100  0.170900  1.0  0.0913
  H  H183  1  0.534500  0.798500  0.274700  1.0  0.0801
  H  H184  1  0.484500  0.844500  0.247400  1.0  0.0788
  H  H185  1  0.041700  0.922100  0.268100  1.0  0.1104
  H  H186  1  0.062600  0.021100  0.288400  1.0  0.1228
  H  H187  1  0.169900  0.104900  0.291100  1.0  0.0988
  H  H188  1  0.434600  0.037700  0.247600  1.0  0.1043
  H  H189  1  0.415100  0.938800  0.229500  1.0  0.1059
  H  H190  1  0.307300  0.855500  0.224300  1.0  0.1078
  H  H191  1  0.763000  0.733800  0.358800  1.0  0.1081
  H  H192  1  0.714100  0.712100  0.428600  1.0  0.1156
  H  H193  1  0.763100  0.677800  0.500700  1.0  0.1031
  H  H194  1  0.068400  0.635300  0.520800  1.0  0.1137
  H  H195  1  0.118500  0.658900  0.451200  1.0  0.1049
  H  H196  1  0.070900  0.694400  0.379800  1.0  0.1069
  H  H197  1  0.940600  0.798000  0.100000  1.0  0.1048
  H  H198  1  0.914000  0.853500  0.035000  1.0  0.1092
  H  H199  1  0.972900  0.883800  0.967800  1.0  0.11
  H  H200  1  0.214600  0.785800  0.969300  1.0  0.1126
  H  H201  1  0.243300  0.730900  0.035200  1.0  0.1171
  H  H202  1  0.193100  0.705800  0.104200  1.0  0.1043
  H  H203  1  0.915700  0.949700  0.847400  1.0  0.1039
  H  H204  1  0.726000  0.899300  0.846500  1.0  0.1133
  H  H205  1  0.537500  0.900800  0.848800  1.0  0.099
  H  H206  1  0.579900  0.064100  0.870700  1.0  0.1119
  H  H207  1  0.770300  0.113000  0.876800  1.0  0.1169
  H  H208  1  0.958400  0.112500  0.871200  1.0  0.1103
  C  C209  1  0.718180  0.138350  0.206500  1.0  0.0756
  C  C210  1  0.830790  0.212930  0.241480  1.0  0.1016
  C  C211  1  0.753850  0.134040  0.282680  1.0  0.1179
  C  C212  1  0.913840  0.154560  0.193870  1.0  0.1126
  C  C213  1  0.836900  0.075920  0.235160  1.0  0.1123
  C  C214  1  0.946250  0.150380  0.268790  1.0  0.1369
  C  C215  1  0.267780  0.331100  0.317080  1.0  0.0832
  C  C216  1  0.240580  0.327850  0.240300  1.0  0.1231
  C  C217  1  0.144650  0.257750  0.285670  1.0  0.0996
  C  C218  1  0.167650  0.395970  0.280900  1.0  0.1275
  C  C219  1  0.071360  0.326540  0.326230  1.0  0.1151
  C  C220  1  0.047270  0.322940  0.250390  1.0  0.1142
  C  C221  1  0.595500  0.326590  0.257690  1.0  0.668
  C  C222  1  0.663130  0.381200  0.253990  1.0  -0.1122
  C  C223  1  0.617350  0.425780  0.239470  1.0  -0.0865
  C  C224  1  0.682020  0.477550  0.235670  1.0  0.054
  C  C225  1  0.637200  0.524210  0.220520  1.0  -0.1328
  C  C226  1  0.701080  0.573750  0.218630  1.0  -0.0575
  C  C227  1  0.813410  0.579010  0.231130  1.0  -0.124
  C  C228  1  0.859090  0.534170  0.244700  1.0  -0.0785
  C  C229  1  0.794930  0.482280  0.247420  1.0  0.0488
  C  C230  1  0.839840  0.435810  0.262480  1.0  -0.1352
  C  C231  1  0.775910  0.386440  0.265660  1.0  -0.0414
  C  C232  1  0.880140  0.634500  0.230220  1.0  0.677
  C  C233  1  0.449960  0.225040  0.183880  1.0  0.6614
  C  C234  1  0.422470  0.215100  0.137450  1.0  -0.1387
  C  C235  1  0.315050  0.220950  0.122380  1.0  -0.0759
  C  C236  1  0.286200  0.208150  0.081060  1.0  -0.1141
  C  C237  1  0.362770  0.188930  0.052300  1.0  0.0463
  C  C238  1  0.334660  0.173940  0.009660  1.0  -0.0968
  C  C239  1  0.409300  0.153910  0.983080  1.0  -0.1282
  C  C240  1  0.516740  0.148670  0.997840  1.0  -0.0428
  C  C241  1  0.546510  0.162870  0.039060  1.0  -0.1065
  C  C242  1  0.470690  0.183420  0.067200  1.0  0.0568
  C  C243  1  0.498710  0.197370  0.110180  1.0  -0.1407
  C  C244  1  0.374810  0.134060  0.939170  1.0  0.6945
  C  C245  1  0.533300  0.237060  0.345180  1.0  0.6801
  C  C246  1  0.562090  0.250660  0.390980  1.0  -0.1153
  C  C247  1  0.502700  0.285370  0.413110  1.0  -0.1452
  C  C248  1  0.533060  0.302400  0.455130  1.0  0.0481
  C  C249  1  0.476170  0.340330  0.477660  1.0  -0.1155
  C  C250  1  0.510730  0.358030  0.517630  1.0  -0.0468
  C  C251  1  0.601960  0.338300  0.537330  1.0  -0.1216
  C  C252  1  0.655700  0.300230  0.516760  1.0  -0.0808
  C  C253  1  0.624560  0.282100  0.474920  1.0  0.0478
  C  C254  1  0.682930  0.245170  0.451760  1.0  -0.1523
  C  C255  1  0.652930  0.230150  0.410940  1.0  -0.0527
  C  C256  1  0.645440  0.361020  0.579710  1.0  0.6722
  C  C257  1  0.575460  0.530370  0.645640  1.0  0.6865
  C  C258  1  0.453920  0.530280  0.641950  1.0  -0.1256
  C  C259  1  0.385330  0.482540  0.646830  1.0  -0.121
  C  C260  1  0.269620  0.481470  0.643420  1.0  0.0445
  C  C261  1  0.197120  0.432730  0.648940  1.0  -0.0953
  C  C262  1  0.085670  0.433620  0.647770  1.0  -0.0301
  C  C263  1  0.041960  0.483580  0.641390  1.0  -0.1127
  C  C264  1  0.110310  0.531210  0.634450  1.0  -0.081
  C  C265  1  0.225990  0.531270  0.634990  1.0  0.0396
  C  C266  1  0.299060  0.579910  0.629360  1.0  -0.1005
  C  C267  1  0.410350  0.579720  0.632680  1.0  -0.0538
  C  C268  1  0.920480  0.484800  0.643590  1.0  0.6861
  C  C269  1  0.781820  0.361650  0.706500  1.0  0.0747
  C  C270  1  0.669210  0.287070  0.741480  1.0  0.102
  C  C271  1  0.746150  0.365960  0.782680  1.0  0.1164
  C  C272  1  0.586160  0.345440  0.693870  1.0  0.1118
  C  C273  1  0.663100  0.424080  0.735160  1.0  0.1122
  C  C274  1  0.553750  0.349620  0.768790  1.0  0.1382
  C  C275  1  0.232220  0.168900  0.817080  1.0  0.0834
  C  C276  1  0.259420  0.172150  0.740300  1.0  0.122
  C  C277  1  0.355350  0.242250  0.785670  1.0  0.0981
  C  C278  1  0.332350  0.104030  0.780900  1.0  0.1278
  C  C279  1  0.428640  0.173460  0.826230  1.0  0.1131
  C  C280  1  0.452730  0.177060  0.750390  1.0  0.1124
  C  C281  1  0.904500  0.173410  0.757690  1.0  0.6681
  C  C282  1  0.836870  0.118800  0.753990  1.0  -0.1119
  C  C283  1  0.882650  0.074220  0.739470  1.0  -0.0872
  C  C284  1  0.817980  0.022450  0.735670  1.0  0.0552
  C  C285  1  0.862800  0.975790  0.720520  1.0  -0.1377
  C  C286  1  0.798920  0.926250  0.718630  1.0  -0.0538
  C  C287  1  0.686590  0.920990  0.731130  1.0  -0.1252
  C  C288  1  0.640910  0.965830  0.744700  1.0  -0.0798
  C  C289  1  0.705070  0.017720  0.747420  1.0  0.0498
  C  C290  1  0.660160  0.064190  0.762480  1.0  -0.135
  C  C291  1  0.724090  0.113560  0.765660  1.0  -0.0417
  C  C292  1  0.619860  0.865500  0.730220  1.0  0.6777
  C  C293  1  0.050040  0.274960  0.683880  1.0  0.6619
  C  C294  1  0.077530  0.284900  0.637450  1.0  -0.1403
  C  C295  1  0.184950  0.279050  0.622380  1.0  -0.0747
  C  C296  1  0.213800  0.291850  0.581060  1.0  -0.1159
  C  C297  1  0.137230  0.311070  0.552300  1.0  0.0456
  C  C298  1  0.165340  0.326060  0.509660  1.0  -0.0972
  C  C299  1  0.090700  0.346090  0.483080  1.0  -0.1281
  C  C300  1  0.983260  0.351330  0.497840  1.0  -0.0415
  C  C301  1  0.953490  0.337130  0.539060  1.0  -0.1061
  C  C302  1  0.029310  0.316580  0.567200  1.0  0.0565
  C  C303  1  0.001290  0.302630  0.610180  1.0  -0.1442
  C  C304  1  0.125190  0.365940  0.439170  1.0  0.6943
  C  C305  1  0.966700  0.262940  0.845180  1.0  0.6803
  C  C306  1  0.937910  0.249340  0.890980  1.0  -0.1149
  C  C307  1  0.997300  0.214630  0.913110  1.0  -0.1399
  C  C308  1  0.966940  0.197600  0.955130  1.0  0.0481
  C  C309  1  0.023830  0.159670  0.977660  1.0  -0.115
  C  C310  1  0.989270  0.141970  0.017630  1.0  -0.0448
  C  C311  1  0.898040  0.161700  0.037330  1.0  -0.1227
  C  C312  1  0.844300  0.199770  0.016760  1.0  -0.0824
  C  C313  1  0.875440  0.217900  0.974920  1.0  0.0494
  C  C314  1  0.817070  0.254830  0.951760  1.0  -0.1544
  C  C315  1  0.847070  0.269850  0.910940  1.0  -0.0531
  C  C316  1  0.854560  0.138980  0.079710  1.0  0.6727
  C  C317  1  0.924540  0.969630  0.145640  1.0  0.6871
  C  C318  1  0.046080  0.969720  0.141950  1.0  -0.1255
  C  C319  1  0.114670  0.017460  0.146830  1.0  -0.1229
  C  C320  1  0.230380  0.018530  0.143420  1.0  0.0455
  C  C321  1  0.302880  0.067270  0.148940  1.0  -0.095
  C  C322  1  0.414330  0.066380  0.147770  1.0  -0.0319
  C  C323  1  0.458040  0.016420  0.141390  1.0  -0.1138
  C  C324  1  0.389690  0.968790  0.134450  1.0  -0.0809
  C  C325  1  0.274010  0.968730  0.134990  1.0  0.0398
  C  C326  1  0.200940  0.920090  0.129360  1.0  -0.1006
  C  C327  1  0.089650  0.920280  0.132680  1.0  -0.0534
  C  C328  1  0.579520  0.015200  0.143590  1.0  0.687
  C  C329  1  0.281820  0.861650  0.793500  1.0  0.075
  C  C330  1  0.169210  0.787070  0.758520  1.0  0.102
  C  C331  1  0.246150  0.865960  0.717320  1.0  0.1177
  C  C332  1  0.086160  0.845440  0.806130  1.0  0.113
  C  C333  1  0.163100  0.924080  0.764840  1.0  0.1141
  C  C334  1  0.053750  0.849620  0.731210  1.0  0.1408
  C  C335  1  0.732220  0.668900  0.682920  1.0  0.0832
  C  C336  1  0.759420  0.672150  0.759700  1.0  0.125
  C  C337  1  0.855350  0.742250  0.714330  1.0  0.0976
  C  C338  1  0.832350  0.604030  0.719100  1.0  0.1279
  C  C339  1  0.928640  0.673460  0.673770  1.0  0.1144
  C  C340  1  0.952730  0.677060  0.749610  1.0  0.1147
  C  C341  1  0.404500  0.673410  0.742310  1.0  0.6689
  C  C342  1  0.336870  0.618800  0.746010  1.0  -0.1098
  C  C343  1  0.382650  0.574220  0.760530  1.0  -0.0844
  C  C344  1  0.317980  0.522450  0.764330  1.0  0.0537
  C  C345  1  0.362800  0.475790  0.779480  1.0  -0.1299
  C  C346  1  0.298920  0.426250  0.781370  1.0  -0.0554
  C  C347  1  0.186590  0.420990  0.768870  1.0  -0.1226
  C  C348  1  0.140910  0.465830  0.755300  1.0  -0.0796
  C  C349  1  0.205070  0.517720  0.752580  1.0  0.0496
  C  C350  1  0.160160  0.564190  0.737520  1.0  -0.1358
  C  C351  1  0.224090  0.613560  0.734340  1.0  -0.0399
  C  C352  1  0.119860  0.365500  0.769780  1.0  0.6764
  C  C353  1  0.550040  0.774960  0.816120  1.0  0.6626
  C  C354  1  0.577530  0.784900  0.862550  1.0  -0.1405
  C  C355  1  0.684950  0.779050  0.877620  1.0  -0.0772
  C  C356  1  0.713800  0.791850  0.918940  1.0  -0.1152
  C  C357  1  0.637230  0.811070  0.947700  1.0  0.0459
  C  C358  1  0.665340  0.826060  0.990340  1.0  -0.0979
  C  C359  1  0.590700  0.846090  0.016920  1.0  -0.1286
  C  C360  1  0.483260  0.851330  0.002160  1.0  -0.0406
  C  C361  1  0.453490  0.837130  0.960940  1.0  -0.1056
  C  C362  1  0.529310  0.816580  0.932800  1.0  0.0559
  C  C363  1  0.501290  0.802630  0.889820  1.0  -0.1441
  C  C364  1  0.625190  0.865940  0.060830  1.0  0.6936
  C  C365  1  0.466700  0.762940  0.654820  1.0  0.6797
  C  C366  1  0.437910  0.749340  0.609020  1.0  -0.115
  C  C367  1  0.497300  0.714630  0.586890  1.0  -0.1412
  C  C368  1  0.466940  0.697600  0.544870  1.0  0.0486
  C  C369  1  0.523830  0.659670  0.522340  1.0  -0.1154
  C  C370  1  0.489270  0.641970  0.482370  1.0  -0.0454
  C  C371  1  0.398040  0.661700  0.462670  1.0  -0.1226
  C  C372  1  0.344300  0.699770  0.483240  1.0  -0.0814
  C  C373  1  0.375440  0.717900  0.525080  1.0  0.0489
  C  C374  1  0.317070  0.754830  0.548240  1.0  -0.1538
  C  C375  1  0.347070  0.769850  0.589060  1.0  -0.0529
  C  C376  1  0.354560  0.638980  0.420290  1.0  0.6724
  C  C377  1  0.424540  0.469630  0.354360  1.0  0.6857
  C  C378  1  0.546080  0.469720  0.358050  1.0  -0.1254
  C  C379  1  0.614670  0.517460  0.353170  1.0  -0.1237
  C  C380  1  0.730380  0.518530  0.356580  1.0  0.0467
  C  C381  1  0.802880  0.567270  0.351060  1.0  -0.0946
  C  C382  1  0.914330  0.566380  0.352230  1.0  -0.0308
  C  C383  1  0.958040  0.516420  0.358610  1.0  -0.1113
  C  C384  1  0.889690  0.468790  0.365550  1.0  -0.0789
  C  C385  1  0.774010  0.468730  0.365010  1.0  0.0407
  C  C386  1  0.700940  0.420090  0.370640  1.0  -0.1001
  C  C387  1  0.589650  0.420280  0.367320  1.0  -0.0538
  C  C388  1  0.079520  0.515200  0.356410  1.0  0.6861
  C  C389  1  0.218180  0.638350  0.293500  1.0  0.0762
  C  C390  1  0.330790  0.712930  0.258520  1.0  0.1013
  C  C391  1  0.253850  0.634040  0.217320  1.0  0.1157
  C  C392  1  0.413840  0.654560  0.306130  1.0  0.1129
  C  C393  1  0.336900  0.575920  0.264840  1.0  0.1123
  C  C394  1  0.446250  0.650380  0.231210  1.0  0.138
  C  C395  1  0.767780  0.831100  0.182920  1.0  0.0827
  C  C396  1  0.740580  0.827850  0.259700  1.0  0.1228
  C  C397  1  0.644650  0.757750  0.214330  1.0  0.0987
  C  C398  1  0.667650  0.895970  0.219100  1.0  0.1268
  C  C399  1  0.571360  0.826540  0.173770  1.0  0.1155
  C  C400  1  0.547270  0.822940  0.249610  1.0  0.1149
  C  C401  1  0.095500  0.826590  0.242310  1.0  0.6692
  C  C402  1  0.163130  0.881200  0.246010  1.0  -0.1087
  C  C403  1  0.117350  0.925780  0.260530  1.0  -0.0861
  C  C404  1  0.182020  0.977550  0.264330  1.0  0.0532
  C  C405  1  0.137200  0.024210  0.279480  1.0  -0.1348
  C  C406  1  0.201080  0.073750  0.281370  1.0  -0.0514
  C  C407  1  0.313410  0.079010  0.268870  1.0  -0.1216
  C  C408  1  0.359090  0.034170  0.255300  1.0  -0.0795
  C  C409  1  0.294930  0.982280  0.252580  1.0  0.0494
  C  C410  1  0.339840  0.935810  0.237520  1.0  -0.1362
  C  C411  1  0.275910  0.886440  0.234340  1.0  -0.0404
  C  C412  1  0.380140  0.134500  0.269780  1.0  0.6772
  C  C413  1  0.949960  0.725040  0.316120  1.0  0.6628
  C  C414  1  0.922470  0.715100  0.362550  1.0  -0.1387
  C  C415  1  0.815050  0.720950  0.377620  1.0  -0.0772
  C  C416  1  0.786200  0.708150  0.418940  1.0  -0.1141
  C  C417  1  0.862770  0.688930  0.447700  1.0  0.0468
  C  C418  1  0.834660  0.673940  0.490340  1.0  -0.0978
  C  C419  1  0.909300  0.653910  0.516920  1.0  -0.1287
  C  C420  1  0.016740  0.648670  0.502160  1.0  -0.0415
  C  C421  1  0.046510  0.662870  0.460940  1.0  -0.1066
  C  C422  1  0.970690  0.683420  0.432800  1.0  0.056
  C  C423  1  0.998710  0.697370  0.389820  1.0  -0.14
  C  C424  1  0.874810  0.634060  0.560830  1.0  0.6939
  C  C425  1  0.033300  0.737060  0.154820  1.0  0.6789
  C  C426  1  0.062090  0.750660  0.109020  1.0  -0.1147
  C  C427  1  0.002700  0.785370  0.086890  1.0  -0.1463
  C  C428  1  0.033060  0.802400  0.044870  1.0  0.0484
  C  C429  1  0.976170  0.840330  0.022340  1.0  -0.1162
  C  C430  1  0.010730  0.858030  0.982370  1.0  -0.0461
  C  C431  1  0.101960  0.838300  0.962670  1.0  -0.1213
  C  C432  1  0.155700  0.800230  0.983240  1.0  -0.0809
  C  C433  1  0.124560  0.782100  0.025080  1.0  0.0471
  C  C434  1  0.182930  0.745170  0.048240  1.0  -0.1549
  C  C435  1  0.152930  0.730150  0.089060  1.0  -0.0514
  C  C436  1  0.145440  0.861020  0.920290  1.0  0.6721
  C  C437  1  0.075460  0.030370  0.854360  1.0  0.6867
  C  C438  1  0.953920  0.030280  0.858050  1.0  -0.1257
  C  C439  1  0.885330  0.982540  0.853170  1.0  -0.1222
  C  C440  1  0.769620  0.981470  0.856580  1.0  0.0462
  C  C441  1  0.697120  0.932730  0.851060  1.0  -0.0951
  C  C442  1  0.585670  0.933620  0.852230  1.0  -0.03
  C  C443  1  0.541960  0.983580  0.858610  1.0  -0.1108
  C  C444  1  0.610310  0.031210  0.865550  1.0  -0.0797
  C  C445  1  0.725990  0.031270  0.865010  1.0  0.0407
  C  C446  1  0.799060  0.079910  0.870640  1.0  -0.1012
  C  C447  1  0.910350  0.079720  0.867320  1.0  -0.054
  C  C448  1  0.420480  0.984800  0.856410  1.0  0.6838
  N  N449  1  0.731640  0.171180  0.246570  1.0  -0.2855
  N  N450  1  0.817260  0.110980  0.197400  1.0  -0.2579
  N  N451  1  0.852310  0.107700  0.274690  1.0  -0.3924
  N  N452  1  0.929670  0.186870  0.232950  1.0  -0.3576
  N  N453  1  0.251270  0.293770  0.279530  1.0  -0.2755
  N  N454  1  0.175720  0.364620  0.321640  1.0  -0.2961
  N  N455  1  0.149360  0.360120  0.243850  1.0  -0.4151
  N  N456  1  0.052320  0.289760  0.289430  1.0  -0.3658
  N  N457  1  0.768360  0.328820  0.746570  1.0  -0.2847
  N  N458  1  0.682740  0.389020  0.697400  1.0  -0.2577
  N  N459  1  0.647690  0.392300  0.774690  1.0  -0.3957
  N  N460  1  0.570330  0.313130  0.732950  1.0  -0.3584
  N  N461  1  0.248730  0.206230  0.779530  1.0  -0.2801
  N  N462  1  0.324280  0.135380  0.821640  1.0  -0.2949
  N  N463  1  0.350640  0.139880  0.743850  1.0  -0.4156
  N  N464  1  0.447680  0.210240  0.789430  1.0  -0.3637
  N  N465  1  0.268360  0.828820  0.753430  1.0  -0.2856
  N  N466  1  0.182740  0.889020  0.802600  1.0  -0.2574
  N  N467  1  0.147690  0.892300  0.725310  1.0  -0.3931
  N  N468  1  0.070330  0.813130  0.767050  1.0  -0.3576
  N  N469  1  0.748730  0.706230  0.720470  1.0  -0.2797
  N  N470  1  0.824280  0.635380  0.678360  1.0  -0.296
  N  N471  1  0.850640  0.639880  0.756150  1.0  -0.4178
  N  N472  1  0.947680  0.710240  0.710570  1.0  -0.3627
  N  N473  1  0.231640  0.671180  0.253430  1.0  -0.2863
  N  N474  1  0.317260  0.610980  0.302600  1.0  -0.2572
  N  N475  1  0.352310  0.607700  0.225310  1.0  -0.394
  N  N476  1  0.429670  0.686870  0.267050  1.0  -0.3583
  N  N477  1  0.751270  0.793770  0.220470  1.0  -0.2754
  N  N478  1  0.675720  0.864620  0.178360  1.0  -0.2964
  N  N479  1  0.649360  0.860120  0.256150  1.0  -0.4182
  N  N480  1  0.552320  0.789760  0.210570  1.0  -0.3663
  O  O481  1  0.492040  0.324030  0.256220  1.0  -0.5826
  O  O482  1  0.649170  0.286320  0.262210  1.0  -0.5929
  O  O483  1  0.980400  0.637650  0.240660  1.0  -0.5968
  O  O484  1  0.830070  0.673810  0.219570  1.0  -0.5952
  O  O485  1  0.373790  0.238550  0.207220  1.0  -0.5811
  O  O486  1  0.544840  0.218080  0.196390  1.0  -0.5965
  O  O487  1  0.439990  0.111710  0.916190  1.0  -0.5624
  O  O488  1  0.277700  0.137560  0.926710  1.0  -0.5817
  O  O489  1  0.453300  0.258230  0.329830  1.0  -0.5936
  O  O490  1  0.591530  0.206850  0.324940  1.0  -0.5839
  O  O491  1  0.718500  0.340440  0.599090  1.0  -0.6076
  O  O492  1  0.605000  0.403290  0.593210  1.0  -0.6179
  O  O493  1  0.634250  0.572740  0.633480  1.0  -0.5917
  O  O494  1  0.611670  0.488670  0.660930  1.0  -0.6217
  O  O495  1  0.860950  0.440160  0.636760  1.0  -0.5947
  O  O496  1  0.885220  0.528650  0.653780  1.0  -0.6155
  O  O497  1  0.007960  0.175970  0.756220  1.0  -0.5845
  O  O498  1  0.850830  0.213680  0.762210  1.0  -0.5923
  O  O499  1  0.519600  0.862350  0.740660  1.0  -0.5943
  O  O500  1  0.669930  0.826190  0.719570  1.0  -0.5958
  O  O501  1  0.126210  0.261450  0.707220  1.0  -0.5804
  O  O502  1  0.955160  0.281920  0.696390  1.0  -0.5966
  O  O503  1  0.060010  0.388290  0.416190  1.0  -0.5611
  O  O504  1  0.222300  0.362440  0.426710  1.0  -0.5821
  O  O505  1  0.046700  0.241770  0.829830  1.0  -0.5941
  O  O506  1  0.908470  0.293150  0.824940  1.0  -0.5838
  O  O507  1  0.781500  0.159560  0.099090  1.0  -0.6059
  O  O508  1  0.895000  0.096710  0.093210  1.0  -0.6177
  O  O509  1  0.865750  0.927260  0.133480  1.0  -0.5915
  O  O510  1  0.888330  0.011330  0.160930  1.0  -0.6212
  O  O511  1  0.639050  0.059840  0.136760  1.0  -0.5944
  O  O512  1  0.614780  0.971350  0.153780  1.0  -0.6145
  O  O513  1  0.507960  0.675970  0.743780  1.0  -0.5844
  O  O514  1  0.350830  0.713680  0.737790  1.0  -0.5918
  O  O515  1  0.019600  0.362350  0.759340  1.0  -0.5947
  O  O516  1  0.169930  0.326190  0.780430  1.0  -0.5967
  O  O517  1  0.626210  0.761450  0.792780  1.0  -0.5794
  O  O518  1  0.455160  0.781920  0.803610  1.0  -0.5962
  O  O519  1  0.560010  0.888290  0.083810  1.0  -0.5611
  O  O520  1  0.722300  0.862440  0.073290  1.0  -0.582
  O  O521  1  0.546700  0.741770  0.670170  1.0  -0.5935
  O  O522  1  0.408470  0.793150  0.675060  1.0  -0.5838
  O  O523  1  0.281500  0.659560  0.400910  1.0  -0.6064
  O  O524  1  0.395000  0.596710  0.406790  1.0  -0.6181
  O  O525  1  0.365750  0.427260  0.366520  1.0  -0.5931
  O  O526  1  0.388330  0.511330  0.339070  1.0  -0.6206
  O  O527  1  0.139050  0.559840  0.363240  1.0  -0.596
  O  O528  1  0.114780  0.471350  0.346220  1.0  -0.6145
  O  O529  1  0.992040  0.824030  0.243780  1.0  -0.5828
  O  O530  1  0.149170  0.786320  0.237790  1.0  -0.5923
  O  O531  1  0.480400  0.137650  0.259340  1.0  -0.5971
  O  O532  1  0.330070  0.173810  0.280430  1.0  -0.5963
  O  O533  1  0.873790  0.738550  0.292780  1.0  -0.5801
  O  O534  1  0.044840  0.718080  0.303610  1.0  -0.5965
  O  O535  1  0.939990  0.611710  0.583810  1.0  -0.562
  O  O536  1  0.777700  0.637560  0.573290  1.0  -0.5813
  O  O537  1  0.953300  0.758230  0.170170  1.0  -0.5939
  O  O538  1  0.091530  0.706850  0.175060  1.0  -0.5849
  O  O539  1  0.218500  0.840440  0.900910  1.0  -0.6067
  O  O540  1  0.105000  0.903290  0.906790  1.0  -0.6185
  O  O541  1  0.134250  0.072740  0.866520  1.0  -0.5932
  O  O542  1  0.111670  0.988670  0.839070  1.0  -0.6218
  O  O543  1  0.360950  0.940160  0.863240  1.0  -0.5956
  O  O544  1  0.385220  0.028650  0.846220  1.0  -0.6146
