# generated using pymatgen
data_Eu2H3(C5O4)3
_symmetry_space_group_name_H-M   'P 1'
_cell_length_a   10.86000000
_cell_length_b   13.23200000
_cell_length_c   14.31200000
_cell_angle_alpha   90.00000000
_cell_angle_beta   90.00000000
_cell_angle_gamma   90.52100000
_symmetry_Int_Tables_number   1
_chemical_formula_structural   Eu2H3(C5O4)3
_chemical_formula_sum   'Eu8 H12 C60 O48'
_cell_volume   2056.54250403
_cell_formula_units_Z   4
loop_
 _symmetry_equiv_pos_site_id
 _symmetry_equiv_pos_as_xyz
  1  'x, y, z'
loop_
 _atom_site_type_symbol
 _atom_site_label
 _atom_site_symmetry_multiplicity
 _atom_site_fract_x
 _atom_site_fract_y
 _atom_site_fract_z
 _atom_site_occupancy
 _atom_site_charge
  Eu  Eu1  1  0.255850  0.714870  0.782230  1.0  2.1229
  Eu  Eu2  1  0.004130  0.867910  0.638420  1.0  2.1119
  Eu  Eu3  1  0.244150  0.785130  0.282230  1.0  2.1234
  Eu  Eu4  1  0.495870  0.632090  0.138420  1.0  2.1125
  Eu  Eu5  1  0.744150  0.285130  0.217770  1.0  2.1233
  Eu  Eu6  1  0.995870  0.132090  0.361580  1.0  2.1119
  Eu  Eu7  1  0.755850  0.214870  0.717770  1.0  2.1227
  Eu  Eu8  1  0.504130  0.367910  0.861580  1.0  2.1114
  H  H9  1  0.122000  0.867300  0.043900  1.0  0.1186
  H  H10  1  0.060800  0.416100  0.867000  1.0  0.1274
  H  H11  1  0.032700  0.435800  0.647200  1.0  0.1263
  H  H12  1  0.378000  0.632700  0.543900  1.0  0.1189
  H  H13  1  0.439200  0.083900  0.367000  1.0  0.1275
  H  H14  1  0.467300  0.064200  0.147200  1.0  0.1263
  H  H15  1  0.878000  0.132700  0.956100  1.0  0.1194
  H  H16  1  0.939200  0.583900  0.133000  1.0  0.1278
  H  H17  1  0.967300  0.564200  0.352800  1.0  0.1261
  H  H18  1  0.622000  0.367300  0.456100  1.0  0.1191
  H  H19  1  0.560800  0.916100  0.633000  1.0  0.1276
  H  H20  1  0.532700  0.935800  0.852800  1.0  0.126
  C  C21  1  0.073000  0.921200  0.025900  1.0  0.0143
  C  C22  1  0.035400  0.928200  0.933600  1.0  -0.049
  C  C23  1  0.039200  0.993200  0.093000  1.0  -0.0781
  C  C24  1  0.086300  0.847900  0.870000  1.0  0.6923
  C  C25  1  0.090400  0.979800  0.188200  1.0  0.7619
  C  C26  1  0.122100  0.502700  0.971600  1.0  -0.0541
  C  C27  1  0.036100  0.449600  0.920900  1.0  -0.0234
  C  C28  1  0.087300  0.555600  0.052100  1.0  -0.105
  C  C29  1  0.253600  0.507400  0.933200  1.0  0.7375
  C  C30  1  0.180700  0.611400  0.111300  1.0  0.766
  C  C31  1  0.020100  0.462100  0.587700  1.0  -0.0325
  C  C32  1  0.979200  0.397900  0.517800  1.0  -0.0826
  C  C33  1  0.042500  0.562200  0.573100  1.0  -0.1218
  C  C34  1  0.096300  0.621100  0.652600  1.0  0.6807
  C  C35  1  0.960000  0.290300  0.546800  1.0  0.7962
  C  C36  1  0.427000  0.578800  0.525900  1.0  0.0132
  C  C37  1  0.464600  0.571800  0.433600  1.0  -0.0494
  C  C38  1  0.460800  0.506800  0.593000  1.0  -0.0785
  C  C39  1  0.413700  0.652100  0.370000  1.0  0.692
  C  C40  1  0.409600  0.520200  0.688200  1.0  0.7626
  C  C41  1  0.377900  0.997300  0.471600  1.0  -0.0536
  C  C42  1  0.463900  0.050400  0.420900  1.0  -0.0249
  C  C43  1  0.412700  0.944400  0.552100  1.0  -0.1051
  C  C44  1  0.246400  0.992600  0.433200  1.0  0.7385
  C  C45  1  0.319300  0.888600  0.611300  1.0  0.763
  C  C46  1  0.479900  0.037900  0.087700  1.0  -0.0335
  C  C47  1  0.520800  0.102100  0.017800  1.0  -0.0824
  C  C48  1  0.457500  0.937800  0.073100  1.0  -0.1224
  C  C49  1  0.403700  0.878900  0.152600  1.0  0.6811
  C  C50  1  0.540000  0.209700  0.046800  1.0  0.7959
  C  C51  1  0.927000  0.078800  0.974100  1.0  0.0139
  C  C52  1  0.964600  0.071800  0.066400  1.0  -0.048
  C  C53  1  0.960800  0.006800  0.907000  1.0  -0.0795
  C  C54  1  0.913700  0.152100  0.130000  1.0  0.6914
  C  C55  1  0.909600  0.020200  0.811800  1.0  0.762
  C  C56  1  0.877900  0.497300  0.028400  1.0  -0.0537
  C  C57  1  0.963900  0.550400  0.079100  1.0  -0.0251
  C  C58  1  0.912700  0.444400  0.947900  1.0  -0.1056
  C  C59  1  0.746400  0.492600  0.066800  1.0  0.739
  C  C60  1  0.819300  0.388600  0.888700  1.0  0.7626
  C  C61  1  0.979900  0.537900  0.412300  1.0  -0.0328
  C  C62  1  0.020800  0.602100  0.482200  1.0  -0.082
  C  C63  1  0.957500  0.437800  0.426900  1.0  -0.1232
  C  C64  1  0.903700  0.378900  0.347400  1.0  0.6806
  C  C65  1  0.040000  0.709700  0.453200  1.0  0.7961
  C  C66  1  0.573000  0.421200  0.474100  1.0  0.0149
  C  C67  1  0.535400  0.428200  0.566400  1.0  -0.0473
  C  C68  1  0.539200  0.493200  0.407000  1.0  -0.0788
  C  C69  1  0.586300  0.347900  0.630000  1.0  0.692
  C  C70  1  0.590400  0.479800  0.311800  1.0  0.7615
  C  C71  1  0.622100  0.002700  0.528400  1.0  -0.0542
  C  C72  1  0.536100  0.949600  0.579100  1.0  -0.0226
  C  C73  1  0.587300  0.055600  0.447900  1.0  -0.105
  C  C74  1  0.753600  0.007400  0.566800  1.0  0.7382
  C  C75  1  0.680700  0.111400  0.388700  1.0  0.7627
  C  C76  1  0.520100  0.962100  0.912300  1.0  -0.0322
  C  C77  1  0.479200  0.897900  0.982200  1.0  -0.0821
  C  C78  1  0.542500  0.062200  0.926900  1.0  -0.1221
  C  C79  1  0.596300  0.121100  0.847400  1.0  0.6802
  C  C80  1  0.460000  0.790300  0.953200  1.0  0.795
  O  O81  1  0.106200  0.762000  0.902500  1.0  -0.6266
  O  O82  1  0.118900  0.867600  0.785900  1.0  -0.832
  O  O83  1  0.107700  0.889100  0.211300  1.0  -0.7123
  O  O84  1  0.108000  0.055200  0.239800  1.0  -0.7017
  O  O85  1  0.317800  0.427700  0.941100  1.0  -0.7585
  O  O86  1  0.285700  0.584000  0.891900  1.0  -0.6744
  O  O87  1  0.142200  0.668900  0.174400  1.0  -0.6834
  O  O88  1  0.292600  0.592900  0.094600  1.0  -0.7163
  O  O89  1  0.111400  0.580500  0.729300  1.0  -0.6221
  O  O90  1  0.131700  0.712000  0.638600  1.0  -0.7771
  O  O91  1  0.902000  0.278900  0.619500  1.0  -0.6957
  O  O92  1  0.012100  0.219900  0.502600  1.0  -0.7067
  O  O93  1  0.393800  0.738000  0.402500  1.0  -0.6276
  O  O94  1  0.381100  0.632400  0.285900  1.0  -0.8318
  O  O95  1  0.392300  0.610900  0.711300  1.0  -0.7131
  O  O96  1  0.392000  0.444800  0.739800  1.0  -0.7019
  O  O97  1  0.182200  0.072300  0.441100  1.0  -0.7578
  O  O98  1  0.214300  0.916000  0.391900  1.0  -0.6746
  O  O99  1  0.357800  0.831100  0.674400  1.0  -0.684
  O  O100  1  0.207400  0.907100  0.594600  1.0  -0.7156
  O  O101  1  0.388600  0.919500  0.229300  1.0  -0.6219
  O  O102  1  0.368300  0.788000  0.138600  1.0  -0.7762
  O  O103  1  0.598000  0.221100  0.119500  1.0  -0.6971
  O  O104  1  0.487900  0.280100  0.002600  1.0  -0.7063
  O  O105  1  0.893800  0.238000  0.097500  1.0  -0.6282
  O  O106  1  0.881100  0.132400  0.214100  1.0  -0.8315
  O  O107  1  0.892300  0.110900  0.788700  1.0  -0.7112
  O  O108  1  0.892000  0.944800  0.760200  1.0  -0.7022
  O  O109  1  0.682200  0.572300  0.058900  1.0  -0.7584
  O  O110  1  0.714300  0.416000  0.108100  1.0  -0.6739
  O  O111  1  0.857800  0.331100  0.825600  1.0  -0.6828
  O  O112  1  0.707400  0.407100  0.905400  1.0  -0.7156
  O  O113  1  0.888600  0.419500  0.270700  1.0  -0.6208
  O  O114  1  0.868300  0.288000  0.361400  1.0  -0.7764
  O  O115  1  0.098000  0.721100  0.380500  1.0  -0.6974
  O  O116  1  0.987900  0.780100  0.497400  1.0  -0.7063
  O  O117  1  0.606200  0.262000  0.597500  1.0  -0.6279
  O  O118  1  0.618900  0.367600  0.714100  1.0  -0.8319
  O  O119  1  0.607700  0.389100  0.288700  1.0  -0.7117
  O  O120  1  0.608000  0.555200  0.260200  1.0  -0.7008
  O  O121  1  0.817800  0.927700  0.558900  1.0  -0.7586
  O  O122  1  0.785700  0.084000  0.608100  1.0  -0.6741
  O  O123  1  0.642200  0.168900  0.325600  1.0  -0.6831
  O  O124  1  0.792600  0.092900  0.405400  1.0  -0.7161
  O  O125  1  0.611400  0.080500  0.770700  1.0  -0.6218
  O  O126  1  0.631700  0.212000  0.861400  1.0  -0.7765
  O  O127  1  0.402000  0.778900  0.880500  1.0  -0.697
  O  O128  1  0.512100  0.719900  0.997400  1.0  -0.7071
