# generated using pymatgen
data_Tb2H3(C5O4)3
_symmetry_space_group_name_H-M   'P 1'
_cell_length_a   10.83300000
_cell_length_b   13.24500000
_cell_length_c   14.29800000
_cell_angle_alpha   90.00000000
_cell_angle_beta   90.00000000
_cell_angle_gamma   90.19300000
_symmetry_Int_Tables_number   1
_chemical_formula_structural   Tb2H3(C5O4)3
_chemical_formula_sum   'Tb8 H12 C60 O48'
_cell_volume   2051.50951035
_cell_formula_units_Z   4
loop_
 _symmetry_equiv_pos_site_id
 _symmetry_equiv_pos_as_xyz
  1  'x, y, z'
loop_
 _atom_site_type_symbol
 _atom_site_label
 _atom_site_symmetry_multiplicity
 _atom_site_fract_x
 _atom_site_fract_y
 _atom_site_fract_z
 _atom_site_occupancy
 _atom_site_charge
  Tb  Tb1  1  0.244400  0.714390  0.782030  1.0  2.2603
  Tb  Tb2  1  0.494480  0.867680  0.638360  1.0  2.2644
  Tb  Tb3  1  0.255600  0.785610  0.282030  1.0  2.26
  Tb  Tb4  1  0.005520  0.632320  0.138360  1.0  2.2642
  Tb  Tb5  1  0.755600  0.285610  0.217970  1.0  2.254
  Tb  Tb6  1  0.505520  0.132320  0.361640  1.0  2.2641
  Tb  Tb7  1  0.744400  0.214390  0.717970  1.0  2.255
  Tb  Tb8  1  0.994480  0.367680  0.861640  1.0  2.2644
  H  H9  1  0.940700  0.917100  0.634700  1.0  0.1174
  H  H10  1  0.121900  0.633500  0.545700  1.0  0.1052
  H  H11  1  0.964000  0.933500  0.853700  1.0  0.1235
  H  H12  1  0.559300  0.582900  0.134700  1.0  0.1175
  H  H13  1  0.378100  0.866500  0.045700  1.0  0.1057
  H  H14  1  0.536000  0.566500  0.353700  1.0  0.1235
  H  H15  1  0.059300  0.082900  0.365300  1.0  0.1173
  H  H16  1  0.878100  0.366500  0.454300  1.0  0.1059
  H  H17  1  0.036000  0.066500  0.146300  1.0  0.1233
  H  H18  1  0.440700  0.417100  0.865300  1.0  0.1175
  H  H19  1  0.621900  0.133500  0.954300  1.0  0.1056
  H  H20  1  0.464000  0.433500  0.646300  1.0  0.1231
  C  C21  1  0.180800  0.885700  0.610800  1.0  0.6912
  C  C22  1  0.253800  0.995500  0.433600  1.0  0.7644
  C  C23  1  0.088300  0.945000  0.552900  1.0  -0.1266
  C  C24  1  0.965000  0.950400  0.580500  1.0  -0.0473
  C  C25  1  0.123400  0.996000  0.470400  1.0  -0.0357
  C  C26  1  0.088100  0.521100  0.689900  1.0  0.7678
  C  C27  1  0.913800  0.346000  0.629800  1.0  0.6912
  C  C28  1  0.041000  0.505600  0.592100  1.0  -0.0705
  C  C29  1  0.963300  0.426900  0.566700  1.0  -0.0651
  C  C30  1  0.073800  0.579000  0.526600  1.0  -0.025
  C  C31  1  0.042100  0.789400  0.953700  1.0  0.8094
  C  C32  1  0.093500  0.878800  0.153100  1.0  0.648
  C  C33  1  0.023100  0.897300  0.983300  1.0  -0.0846
  C  C34  1  0.045700  0.937500  0.072100  1.0  -0.1231
  C  C35  1  0.978300  0.960500  0.912700  1.0  -0.0389
  C  C36  1  0.319200  0.614300  0.110800  1.0  0.6918
  C  C37  1  0.246200  0.504500  0.933600  1.0  0.7645
  C  C38  1  0.411700  0.555000  0.052900  1.0  -0.126
  C  C39  1  0.535000  0.549600  0.080500  1.0  -0.0459
  C  C40  1  0.376600  0.504000  0.970400  1.0  -0.0367
  C  C41  1  0.411900  0.978900  0.189900  1.0  0.7664
  C  C42  1  0.586200  0.154000  0.129800  1.0  0.6909
  C  C43  1  0.459000  0.994400  0.092100  1.0  -0.0709
  C  C44  1  0.536700  0.073100  0.066700  1.0  -0.0653
  C  C45  1  0.426200  0.921000  0.026600  1.0  -0.0254
  C  C46  1  0.457900  0.710600  0.453700  1.0  0.8105
  C  C47  1  0.406500  0.621200  0.653100  1.0  0.6477
  C  C48  1  0.476900  0.602700  0.483300  1.0  -0.0849
  C  C49  1  0.454300  0.562500  0.572100  1.0  -0.1218
  C  C50  1  0.521700  0.539500  0.412700  1.0  -0.0386
  C  C51  1  0.819200  0.114300  0.389200  1.0  0.6908
  C  C52  1  0.746200  0.004500  0.566400  1.0  0.7649
  C  C53  1  0.911700  0.055000  0.447100  1.0  -0.1256
  C  C54  1  0.035000  0.049600  0.419500  1.0  -0.0467
  C  C55  1  0.876600  0.004000  0.529600  1.0  -0.0369
  C  C56  1  0.911900  0.478900  0.310100  1.0  0.7658
  C  C57  1  0.086200  0.654000  0.370200  1.0  0.6911
  C  C58  1  0.959000  0.494400  0.407900  1.0  -0.0682
  C  C59  1  0.036700  0.573100  0.433300  1.0  -0.0663
  C  C60  1  0.926200  0.421000  0.473400  1.0  -0.025
  C  C61  1  0.957900  0.210600  0.046300  1.0  0.81
  C  C62  1  0.906500  0.121200  0.846900  1.0  0.6464
  C  C63  1  0.976900  0.102700  0.016700  1.0  -0.0851
  C  C64  1  0.954300  0.062500  0.927900  1.0  -0.122
  C  C65  1  0.021700  0.039500  0.087300  1.0  -0.0365
  C  C66  1  0.680800  0.385700  0.889200  1.0  0.6896
  C  C67  1  0.753800  0.495500  0.066400  1.0  0.7648
  C  C68  1  0.588300  0.445000  0.947100  1.0  -0.1262
  C  C69  1  0.465000  0.450400  0.919500  1.0  -0.0485
  C  C70  1  0.623400  0.496000  0.029600  1.0  -0.036
  C  C71  1  0.588100  0.021100  0.810100  1.0  0.7671
  C  C72  1  0.413800  0.846000  0.870200  1.0  0.6912
  C  C73  1  0.541000  0.005600  0.907900  1.0  -0.0679
  C  C74  1  0.463300  0.926900  0.933300  1.0  -0.0662
  C  C75  1  0.573800  0.079000  0.973400  1.0  -0.0247
  C  C76  1  0.542100  0.289400  0.546300  1.0  0.8096
  C  C77  1  0.593500  0.378800  0.346900  1.0  0.6465
  C  C78  1  0.523100  0.397300  0.516700  1.0  -0.0851
  C  C79  1  0.545700  0.437500  0.427900  1.0  -0.1234
  C  C80  1  0.478300  0.460500  0.587300  1.0  -0.0367
  O  O81  1  0.292500  0.905600  0.593900  1.0  -0.7224
  O  O82  1  0.143000  0.829500  0.675300  1.0  -0.6759
  O  O83  1  0.286900  0.914800  0.391300  1.0  -0.716
  O  O84  1  0.320000  0.072200  0.440700  1.0  -0.6976
  O  O85  1  0.109100  0.611600  0.712000  1.0  -0.6621
  O  O86  1  0.108300  0.445000  0.739900  1.0  -0.7277
  O  O87  1  0.892500  0.260900  0.597800  1.0  -0.6561
  O  O88  1  0.880700  0.366700  0.714900  1.0  -0.8451
  O  O89  1  0.992000  0.718000  0.996400  1.0  -0.7338
  O  O90  1  0.101900  0.778800  0.879000  1.0  -0.7204
  O  O91  1  0.133400  0.787500  0.139500  1.0  -0.8096
  O  O92  1  0.112700  0.920300  0.229600  1.0  -0.6611
  O  O93  1  0.207500  0.594400  0.093900  1.0  -0.7227
  O  O94  1  0.357000  0.670500  0.175300  1.0  -0.6752
  O  O95  1  0.213100  0.585200  0.891300  1.0  -0.7165
  O  O96  1  0.180000  0.427800  0.940700  1.0  -0.6972
  O  O97  1  0.390900  0.888400  0.212000  1.0  -0.6606
  O  O98  1  0.391700  0.055000  0.239900  1.0  -0.7286
  O  O99  1  0.607500  0.239100  0.097800  1.0  -0.657
  O  O100  1  0.619300  0.133300  0.214900  1.0  -0.8444
  O  O101  1  0.508000  0.782000  0.496400  1.0  -0.7349
  O  O102  1  0.398100  0.721200  0.379000  1.0  -0.7179
  O  O103  1  0.366600  0.712500  0.639500  1.0  -0.8079
  O  O104  1  0.387300  0.579700  0.729600  1.0  -0.6594
  O  O105  1  0.707500  0.094400  0.406100  1.0  -0.7225
  O  O106  1  0.857000  0.170500  0.324700  1.0  -0.6742
  O  O107  1  0.713100  0.085200  0.608700  1.0  -0.7167
  O  O108  1  0.680000  0.927800  0.559300  1.0  -0.6985
  O  O109  1  0.890900  0.388400  0.288000  1.0  -0.6593
  O  O110  1  0.891700  0.555000  0.260100  1.0  -0.7275
  O  O111  1  0.107500  0.739100  0.402200  1.0  -0.6567
  O  O112  1  0.119300  0.633300  0.285100  1.0  -0.8465
  O  O113  1  0.008000  0.282000  0.003600  1.0  -0.7335
  O  O114  1  0.898100  0.221200  0.121000  1.0  -0.7172
  O  O115  1  0.866600  0.212500  0.860500  1.0  -0.8078
  O  O116  1  0.887300  0.079700  0.770400  1.0  -0.6606
  O  O117  1  0.792500  0.405600  0.906100  1.0  -0.7219
  O  O118  1  0.643000  0.329500  0.824700  1.0  -0.675
  O  O119  1  0.786900  0.414800  0.108700  1.0  -0.7164
  O  O120  1  0.820000  0.572200  0.059300  1.0  -0.698
  O  O121  1  0.609100  0.111600  0.788000  1.0  -0.66
  O  O122  1  0.608300  0.945000  0.760100  1.0  -0.7278
  O  O123  1  0.392500  0.760900  0.902200  1.0  -0.6563
  O  O124  1  0.380700  0.866700  0.785100  1.0  -0.846
  O  O125  1  0.492000  0.218000  0.503600  1.0  -0.7338
  O  O126  1  0.601900  0.278800  0.621000  1.0  -0.7178
  O  O127  1  0.633400  0.287500  0.360500  1.0  -0.8094
  O  O128  1  0.612700  0.420300  0.270400  1.0  -0.661
