# generated using pymatgen
data_Gd2H3(C5O4)3
_symmetry_space_group_name_H-M   'P 1'
_cell_length_a   10.85300000
_cell_length_b   13.29100000
_cell_length_c   14.33700000
_cell_angle_alpha   90.00000000
_cell_angle_beta   90.00000000
_cell_angle_gamma   90.03200000
_symmetry_Int_Tables_number   1
_chemical_formula_structural   Gd2H3(C5O4)3
_chemical_formula_sum   'Gd8 H12 C60 O48'
_cell_volume   2068.07211361
_cell_formula_units_Z   4
loop_
 _symmetry_equiv_pos_site_id
 _symmetry_equiv_pos_as_xyz
  1  'x, y, z'
loop_
 _atom_site_type_symbol
 _atom_site_label
 _atom_site_symmetry_multiplicity
 _atom_site_fract_x
 _atom_site_fract_y
 _atom_site_fract_z
 _atom_site_occupancy
 _atom_site_charge
  Gd  Gd1  1  0.755570  0.785290  0.782200  1.0  2.1593
  Gd  Gd2  1  0.004540  0.132250  0.861690  1.0  2.1411
  Gd  Gd3  1  0.744430  0.714710  0.282200  1.0  2.1557
  Gd  Gd4  1  0.495460  0.367750  0.361690  1.0  2.1406
  Gd  Gd5  1  0.244430  0.214710  0.217800  1.0  2.1559
  Gd  Gd6  1  0.995460  0.867750  0.138310  1.0  2.1408
  Gd  Gd7  1  0.255570  0.285290  0.717800  1.0  2.1551
  Gd  Gd8  1  0.504540  0.632250  0.638310  1.0  2.1415
  H  H9  1  0.560800  0.086900  0.867700  1.0  0.1228
  H  H10  1  0.876300  0.867400  0.544800  1.0  0.111
  H  H11  1  0.030900  0.564300  0.852800  1.0  0.1229
  H  H12  1  0.939200  0.413100  0.367700  1.0  0.123
  H  H13  1  0.623700  0.632600  0.044800  1.0  0.1106
  H  H14  1  0.469100  0.935700  0.352800  1.0  0.123
  H  H15  1  0.439200  0.913100  0.132300  1.0  0.1233
  H  H16  1  0.123700  0.132600  0.455200  1.0  0.1107
  H  H17  1  0.969100  0.435700  0.147200  1.0  0.123
  H  H18  1  0.060800  0.586900  0.632300  1.0  0.1231
  H  H19  1  0.376300  0.367400  0.955200  1.0  0.111
  H  H20  1  0.530900  0.064300  0.647200  1.0  0.1228
  C  C21  1  0.753900  0.993500  0.933400  1.0  0.7866
  C  C22  1  0.622900  0.997200  0.971600  1.0  -0.0449
  C  C23  1  0.587400  0.944700  0.052300  1.0  -0.1185
  C  C24  1  0.681200  0.888100  0.111400  1.0  0.7675
  C  C25  1  0.535900  0.052000  0.920700  1.0  -0.0222
  C  C26  1  0.910400  0.979300  0.688800  1.0  0.7671
  C  C27  1  0.960800  0.992800  0.592700  1.0  -0.1046
  C  C28  1  0.035500  0.072900  0.566100  1.0  -0.0625
  C  C29  1  0.086400  0.152600  0.630300  1.0  0.7099
  C  C30  1  0.926200  0.920900  0.526600  1.0  -0.0245
  C  C31  1  0.959900  0.710700  0.953200  1.0  0.8275
  C  C32  1  0.978000  0.603200  0.982800  1.0  -0.1074
  C  C33  1  0.957400  0.563000  0.072300  1.0  -0.0987
  C  C34  1  0.903300  0.622500  0.152700  1.0  0.6743
  C  C35  1  0.019000  0.538400  0.912300  1.0  -0.0158
  C  C36  1  0.746100  0.506500  0.433400  1.0  0.7874
  C  C37  1  0.877100  0.502800  0.471600  1.0  -0.0445
  C  C38  1  0.912600  0.555300  0.552300  1.0  -0.1179
  C  C39  1  0.818800  0.611900  0.611400  1.0  0.7673
  C  C40  1  0.964100  0.448000  0.420700  1.0  -0.0234
  C  C41  1  0.589600  0.520700  0.188800  1.0  0.7684
  C  C42  1  0.539200  0.507200  0.092700  1.0  -0.1038
  C  C43  1  0.464500  0.427100  0.066100  1.0  -0.0635
  C  C44  1  0.413600  0.347400  0.130300  1.0  0.7103
  C  C45  1  0.573800  0.579100  0.026600  1.0  -0.0221
  C  C46  1  0.540100  0.789300  0.453200  1.0  0.8275
  C  C47  1  0.522000  0.896800  0.482800  1.0  -0.1078
  C  C48  1  0.542600  0.937000  0.572300  1.0  -0.0992
  C  C49  1  0.596700  0.877500  0.652700  1.0  0.673
  C  C50  1  0.481000  0.961600  0.412300  1.0  -0.0155
  C  C51  1  0.246100  0.006500  0.066600  1.0  0.7879
  C  C52  1  0.377100  0.002800  0.028400  1.0  -0.0447
  C  C53  1  0.412600  0.055300  0.947700  1.0  -0.1179
  C  C54  1  0.318800  0.111900  0.888600  1.0  0.7645
  C  C55  1  0.464100  0.948000  0.079300  1.0  -0.0227
  C  C56  1  0.089600  0.020700  0.311200  1.0  0.7676
  C  C57  1  0.039200  0.007200  0.407300  1.0  -0.1026
  C  C58  1  0.964500  0.927100  0.433900  1.0  -0.0603
  C  C59  1  0.913600  0.847400  0.369700  1.0  0.7103
  C  C60  1  0.073800  0.079100  0.473400  1.0  -0.0223
  C  C61  1  0.040100  0.289300  0.046800  1.0  0.8275
  C  C62  1  0.022000  0.396800  0.017200  1.0  -0.1078
  C  C63  1  0.042600  0.437000  0.927700  1.0  -0.0995
  C  C64  1  0.096700  0.377500  0.847300  1.0  0.6715
  C  C65  1  0.981000  0.461600  0.087700  1.0  -0.0135
  C  C66  1  0.253900  0.493500  0.566600  1.0  0.7873
  C  C67  1  0.122900  0.497200  0.528400  1.0  -0.0452
  C  C68  1  0.087400  0.444700  0.447700  1.0  -0.1182
  C  C69  1  0.181200  0.388100  0.388600  1.0  0.7651
  C  C70  1  0.035900  0.552000  0.579300  1.0  -0.0217
  C  C71  1  0.410400  0.479300  0.811200  1.0  0.767
  C  C72  1  0.460800  0.492800  0.907300  1.0  -0.1037
  C  C73  1  0.535500  0.572900  0.933900  1.0  -0.0591
  C  C74  1  0.586400  0.652600  0.869700  1.0  0.7097
  C  C75  1  0.426200  0.420900  0.973400  1.0  -0.0247
  C  C76  1  0.459900  0.210700  0.546800  1.0  0.8275
  C  C77  1  0.478000  0.103200  0.517200  1.0  -0.1074
  C  C78  1  0.457400  0.063000  0.427700  1.0  -0.0988
  C  C79  1  0.403300  0.122500  0.347300  1.0  0.6728
  C  C80  1  0.519000  0.038400  0.587700  1.0  -0.0139
  O  O81  1  0.819100  0.072100  0.941400  1.0  -0.735
  O  O82  1  0.786600  0.915400  0.892000  1.0  -0.7123
  O  O83  1  0.792600  0.906700  0.094000  1.0  -0.7152
  O  O84  1  0.642800  0.830500  0.175300  1.0  -0.6765
  O  O85  1  0.891400  0.055000  0.739300  1.0  -0.7195
  O  O86  1  0.890900  0.888800  0.710700  1.0  -0.7035
  O  O87  1  0.106800  0.238500  0.597300  1.0  -0.64
  O  O88  1  0.117700  0.133000  0.714300  1.0  -0.8395
  O  O89  1  0.900100  0.720900  0.879200  1.0  -0.706
  O  O90  1  0.010200  0.781200  0.996200  1.0  -0.7239
  O  O91  1  0.887500  0.580800  0.229700  1.0  -0.6165
  O  O92  1  0.867400  0.712300  0.138900  1.0  -0.8021
  O  O93  1  0.680900  0.427900  0.441400  1.0  -0.7343
  O  O94  1  0.713400  0.584600  0.392000  1.0  -0.7137
  O  O95  1  0.707400  0.593300  0.594000  1.0  -0.7151
  O  O96  1  0.857200  0.669500  0.675300  1.0  -0.6766
  O  O97  1  0.608600  0.445000  0.239300  1.0  -0.7191
  O  O98  1  0.609100  0.611200  0.210700  1.0  -0.7049
  O  O99  1  0.393200  0.261500  0.097300  1.0  -0.6381
  O  O100  1  0.382300  0.367000  0.214300  1.0  -0.84
  O  O101  1  0.599900  0.779100  0.379200  1.0  -0.7076
  O  O102  1  0.489800  0.718800  0.496200  1.0  -0.7231
  O  O103  1  0.612500  0.919200  0.729700  1.0  -0.6164
  O  O104  1  0.632600  0.787700  0.638900  1.0  -0.8025
  O  O105  1  0.180900  0.927900  0.058600  1.0  -0.7351
  O  O106  1  0.213400  0.084600  0.108000  1.0  -0.7138
  O  O107  1  0.207400  0.093300  0.906000  1.0  -0.7149
  O  O108  1  0.357200  0.169500  0.824700  1.0  -0.6762
  O  O109  1  0.108600  0.945000  0.260700  1.0  -0.719
  O  O110  1  0.109100  0.111200  0.289300  1.0  -0.7032
  O  O111  1  0.893200  0.761500  0.402700  1.0  -0.6388
  O  O112  1  0.882300  0.867000  0.285700  1.0  -0.8389
  O  O113  1  0.099900  0.279100  0.120800  1.0  -0.7064
  O  O114  1  0.989800  0.218800  0.003800  1.0  -0.723
  O  O115  1  0.112500  0.419200  0.770300  1.0  -0.6178
  O  O116  1  0.132600  0.287700  0.861100  1.0  -0.8029
  O  O117  1  0.319100  0.572100  0.558600  1.0  -0.7354
  O  O118  1  0.286600  0.415400  0.608000  1.0  -0.7125
  O  O119  1  0.292600  0.406700  0.406000  1.0  -0.7148
  O  O120  1  0.142800  0.330500  0.324700  1.0  -0.6761
  O  O121  1  0.391400  0.555000  0.760700  1.0  -0.7189
  O  O122  1  0.390900  0.388800  0.789300  1.0  -0.7024
  O  O123  1  0.606800  0.738500  0.902700  1.0  -0.6395
  O  O124  1  0.617700  0.633000  0.785700  1.0  -0.8398
  O  O125  1  0.400100  0.220900  0.620800  1.0  -0.7064
  O  O126  1  0.510200  0.281200  0.503800  1.0  -0.7232
  O  O127  1  0.387500  0.080800  0.270300  1.0  -0.6188
  O  O128  1  0.367400  0.212300  0.361100  1.0  -0.8021
