# generated using pymatgen
data_Dy2H3(C5O4)3
_symmetry_space_group_name_H-M   'P 1'
_cell_length_a   10.80740000
_cell_length_b   13.20230000
_cell_length_c   14.25710000
_cell_angle_alpha   90.00000000
_cell_angle_beta   90.00000000
_cell_angle_gamma   90.40200000
_symmetry_Int_Tables_number   1
_chemical_formula_structural   Dy2H3(C5O4)3
_chemical_formula_sum   'Dy8 H12 C60 O48'
_cell_volume   2034.18912861
_cell_formula_units_Z   4
loop_
 _symmetry_equiv_pos_site_id
 _symmetry_equiv_pos_as_xyz
  1  'x, y, z'
loop_
 _atom_site_type_symbol
 _atom_site_label
 _atom_site_symmetry_multiplicity
 _atom_site_fract_x
 _atom_site_fract_y
 _atom_site_fract_z
 _atom_site_occupancy
 _atom_site_charge
  Dy  Dy1  1  0.755410  0.785860  0.782020  1.0  2.312
  Dy  Dy2  1  0.993730  0.867670  0.138220  1.0  2.356
  Dy  Dy3  1  0.744590  0.714140  0.282020  1.0  2.3153
  Dy  Dy4  1  0.506270  0.632330  0.638220  1.0  2.3548
  Dy  Dy5  1  0.244590  0.214140  0.217980  1.0  2.3117
  Dy  Dy6  1  0.006270  0.132330  0.861780  1.0  2.3548
  Dy  Dy7  1  0.255410  0.285860  0.717980  1.0  2.3136
  Dy  Dy8  1  0.493730  0.367670  0.361780  1.0  2.3561
  H  H9  1  0.561500  0.086500  0.866700  1.0  0.1142
  H  H10  1  0.530700  0.066100  0.647600  1.0  0.1196
  H  H11  1  0.623900  0.633900  0.045800  1.0  0.1063
  H  H12  1  0.938500  0.413500  0.366700  1.0  0.1144
  H  H13  1  0.969300  0.433900  0.147600  1.0  0.1198
  H  H14  1  0.876100  0.866100  0.545800  1.0  0.1069
  H  H15  1  0.438500  0.913500  0.133300  1.0  0.1143
  H  H16  1  0.469300  0.933900  0.352400  1.0  0.1197
  H  H17  1  0.376100  0.366100  0.954200  1.0  0.1067
  H  H18  1  0.061500  0.586500  0.633300  1.0  0.1144
  H  H19  1  0.030700  0.566100  0.852400  1.0  0.1195
  H  H20  1  0.123900  0.133900  0.454200  1.0  0.1062
  C  C21  1  0.543300  0.789100  0.453600  1.0  0.8378
  C  C22  1  0.753400  0.993800  0.932500  1.0  0.8067
  C  C23  1  0.623300  0.997500  0.971300  1.0  -0.0559
  C  C24  1  0.588000  0.943900  0.052000  1.0  -0.126
  C  C25  1  0.596900  0.879100  0.652900  1.0  0.6757
  C  C26  1  0.523100  0.897400  0.483200  1.0  -0.1118
  C  C27  1  0.680700  0.887600  0.111400  1.0  0.7865
  C  C28  1  0.543300  0.936900  0.573000  1.0  -0.118
  C  C29  1  0.536500  0.052000  0.920400  1.0  -0.0322
  C  C30  1  0.586700  0.654300  0.869900  1.0  0.7025
  C  C31  1  0.518700  0.039300  0.587900  1.0  -0.0204
  C  C32  1  0.410900  0.479200  0.809800  1.0  0.7942
  C  C33  1  0.574100  0.579900  0.027000  1.0  -0.0248
  C  C34  1  0.460500  0.492900  0.907400  1.0  -0.1123
  C  C35  1  0.535900  0.573700  0.933600  1.0  -0.0653
  C  C36  1  0.956700  0.710900  0.953600  1.0  0.8386
  C  C37  1  0.746600  0.506200  0.432500  1.0  0.8074
  C  C38  1  0.876700  0.502500  0.471300  1.0  -0.0554
  C  C39  1  0.912000  0.556100  0.552000  1.0  -0.1255
  C  C40  1  0.903100  0.620900  0.152900  1.0  0.6764
  C  C41  1  0.976900  0.602600  0.983200  1.0  -0.1124
  C  C42  1  0.819300  0.612400  0.611400  1.0  0.7851
  C  C43  1  0.956700  0.563100  0.073000  1.0  -0.1146
  C  C44  1  0.963500  0.448000  0.420400  1.0  -0.0333
  C  C45  1  0.913300  0.845700  0.369900  1.0  0.7028
  C  C46  1  0.981300  0.460700  0.087900  1.0  -0.0203
  C  C47  1  0.089100  0.020800  0.309800  1.0  0.7946
  C  C48  1  0.925900  0.920100  0.527000  1.0  -0.0268
  C  C49  1  0.039500  0.007100  0.407400  1.0  -0.1119
  C  C50  1  0.964100  0.926300  0.433600  1.0  -0.0663
  C  C51  1  0.456700  0.210900  0.546400  1.0  0.8384
  C  C52  1  0.246600  0.006200  0.067500  1.0  0.808
  C  C53  1  0.376700  0.002500  0.028700  1.0  -0.0557
  C  C54  1  0.412000  0.056100  0.948000  1.0  -0.1259
  C  C55  1  0.403100  0.120900  0.347100  1.0  0.6752
  C  C56  1  0.476900  0.102600  0.516800  1.0  -0.1125
  C  C57  1  0.319300  0.112400  0.888600  1.0  0.782
  C  C58  1  0.456700  0.063100  0.427000  1.0  -0.1144
  C  C59  1  0.463500  0.948000  0.079600  1.0  -0.033
  C  C60  1  0.413300  0.345700  0.130100  1.0  0.7031
  C  C61  1  0.481300  0.960700  0.412100  1.0  -0.0216
  C  C62  1  0.589100  0.520800  0.190200  1.0  0.7961
  C  C63  1  0.425900  0.420100  0.973000  1.0  -0.0252
  C  C64  1  0.539500  0.507100  0.092600  1.0  -0.1115
  C  C65  1  0.464100  0.426300  0.066400  1.0  -0.0658
  C  C66  1  0.043300  0.289100  0.046400  1.0  0.8381
  C  C67  1  0.253400  0.493800  0.567500  1.0  0.8076
  C  C68  1  0.123300  0.497500  0.528700  1.0  -0.0562
  C  C69  1  0.088000  0.443900  0.448000  1.0  -0.1261
  C  C70  1  0.096900  0.379100  0.847100  1.0  0.6744
  C  C71  1  0.023100  0.397400  0.016800  1.0  -0.1121
  C  C72  1  0.180700  0.387600  0.388600  1.0  0.7838
  C  C73  1  0.043300  0.436900  0.927000  1.0  -0.1181
  C  C74  1  0.036500  0.552000  0.579600  1.0  -0.0319
  C  C75  1  0.086700  0.154300  0.630100  1.0  0.7027
  C  C76  1  0.018700  0.539300  0.912100  1.0  -0.0216
  C  C77  1  0.910900  0.979200  0.690200  1.0  0.7957
  C  C78  1  0.074100  0.079900  0.473000  1.0  -0.0233
  C  C79  1  0.960500  0.992900  0.592600  1.0  -0.112
  C  C80  1  0.035900  0.073700  0.566400  1.0  -0.065
  O  O81  1  0.787100  0.915000  0.891300  1.0  -0.7482
  O  O82  1  0.793300  0.905700  0.093600  1.0  -0.7411
  O  O83  1  0.634000  0.787700  0.640100  1.0  -0.8704
  O  O84  1  0.493800  0.717200  0.496700  1.0  -0.7422
  O  O85  1  0.642600  0.829100  0.175900  1.0  -0.7008
  O  O86  1  0.820700  0.072900  0.941200  1.0  -0.7914
  O  O87  1  0.613700  0.920400  0.730400  1.0  -0.6145
  O  O88  1  0.607400  0.740100  0.901800  1.0  -0.6387
  O  O89  1  0.393300  0.554900  0.759500  1.0  -0.7469
  O  O90  1  0.602900  0.778900  0.379200  1.0  -0.7285
  O  O91  1  0.391500  0.388300  0.788000  1.0  -0.7276
  O  O92  1  0.619900  0.633500  0.784900  1.0  -0.8947
  O  O93  1  0.712900  0.585000  0.391300  1.0  -0.7517
  O  O94  1  0.706700  0.594300  0.593600  1.0  -0.7423
  O  O95  1  0.866000  0.712300  0.140100  1.0  -0.8701
  O  O96  1  0.006200  0.782800  0.996700  1.0  -0.7427
  O  O97  1  0.857400  0.670900  0.675900  1.0  -0.7009
  O  O98  1  0.679300  0.427100  0.441200  1.0  -0.7921
  O  O99  1  0.886300  0.579600  0.230400  1.0  -0.6142
  O  O100  1  0.892600  0.759900  0.401800  1.0  -0.6367
  O  O101  1  0.106700  0.945100  0.259500  1.0  -0.7478
  O  O102  1  0.897100  0.721100  0.879200  1.0  -0.7257
  O  O103  1  0.108500  0.111700  0.288000  1.0  -0.7295
  O  O104  1  0.880100  0.866500  0.284900  1.0  -0.8944
  O  O105  1  0.212900  0.085000  0.108700  1.0  -0.7517
  O  O106  1  0.206700  0.094300  0.906400  1.0  -0.7424
  O  O107  1  0.366000  0.212300  0.359900  1.0  -0.8691
  O  O108  1  0.506200  0.282800  0.503300  1.0  -0.742
  O  O109  1  0.357400  0.170900  0.824100  1.0  -0.7001
  O  O110  1  0.179300  0.927100  0.058800  1.0  -0.7926
  O  O111  1  0.386300  0.079600  0.269600  1.0  -0.6155
  O  O112  1  0.392600  0.259900  0.098200  1.0  -0.6368
  O  O113  1  0.606700  0.445100  0.240500  1.0  -0.7486
  O  O114  1  0.397100  0.221100  0.620800  1.0  -0.7248
  O  O115  1  0.608500  0.611700  0.212000  1.0  -0.7308
  O  O116  1  0.380100  0.366500  0.215100  1.0  -0.8934
  O  O117  1  0.287100  0.415000  0.608700  1.0  -0.7486
  O  O118  1  0.293300  0.405700  0.406400  1.0  -0.7412
  O  O119  1  0.134000  0.287700  0.859900  1.0  -0.871
  O  O120  1  0.993800  0.217200  0.003300  1.0  -0.7423
  O  O121  1  0.142600  0.329100  0.324100  1.0  -0.6999
  O  O122  1  0.320700  0.572900  0.558800  1.0  -0.7913
  O  O123  1  0.113700  0.420400  0.769600  1.0  -0.6151
  O  O124  1  0.107400  0.240100  0.598200  1.0  -0.6388
  O  O125  1  0.893300  0.054900  0.740500  1.0  -0.7487
  O  O126  1  0.102900  0.278900  0.120800  1.0  -0.7259
  O  O127  1  0.891500  0.888300  0.712000  1.0  -0.729
  O  O128  1  0.119900  0.133500  0.715100  1.0  -0.8923
