# generated using pymatgen
data_Ho2H3(C5O4)3
_symmetry_space_group_name_H-M   'P 1'
_cell_length_a   10.78800000
_cell_length_b   13.17000000
_cell_length_c   14.22300000
_cell_angle_alpha   90.00000000
_cell_angle_beta   90.00000000
_cell_angle_gamma   90.40200000
_symmetry_Int_Tables_number   1
_chemical_formula_structural   Ho2H3(C5O4)3
_chemical_formula_sum   'Ho8 H12 C60 O48'
_cell_volume   2020.72508655
_cell_formula_units_Z   4
loop_
 _symmetry_equiv_pos_site_id
 _symmetry_equiv_pos_as_xyz
  1  'x, y, z'
loop_
 _atom_site_type_symbol
 _atom_site_label
 _atom_site_symmetry_multiplicity
 _atom_site_fract_x
 _atom_site_fract_y
 _atom_site_fract_z
 _atom_site_occupancy
 _atom_site_charge
  Ho  Ho1  1  0.744700  0.714090  0.781910  1.0  2.2512
  Ho  Ho2  1  0.993270  0.867590  0.638070  1.0  2.2349
  Ho  Ho3  1  0.755300  0.785910  0.281910  1.0  2.2482
  Ho  Ho4  1  0.506730  0.632410  0.138070  1.0  2.231
  Ho  Ho5  1  0.255290  0.285910  0.218090  1.0  2.2436
  Ho  Ho6  1  0.006730  0.132410  0.361930  1.0  2.2309
  Ho  Ho7  1  0.244700  0.214090  0.718090  1.0  2.2482
  Ho  Ho8  1  0.493270  0.367590  0.861930  1.0  2.2353
  H  H9  1  0.876300  0.865700  0.045900  1.0  0.1088
  H  H10  1  0.469000  0.934000  0.852000  1.0  0.1225
  H  H11  1  0.438700  0.911500  0.632900  1.0  0.1174
  H  H12  1  0.623700  0.634300  0.545900  1.0  0.1084
  H  H13  1  0.031000  0.566000  0.352000  1.0  0.1221
  H  H14  1  0.061300  0.588500  0.132900  1.0  0.1174
  H  H15  1  0.123700  0.134300  0.954100  1.0  0.1084
  H  H16  1  0.531000  0.066000  0.148000  1.0  0.122
  H  H17  1  0.561300  0.088500  0.367100  1.0  0.1176
  H  H18  1  0.376300  0.365700  0.454100  1.0  0.1085
  H  H19  1  0.969000  0.434000  0.648000  1.0  0.1223
  H  H20  1  0.938700  0.411500  0.867100  1.0  0.1178
  C  C21  1  0.913200  0.845500  0.869200  1.0  0.7098
  C  C22  1  0.089100  0.020700  0.809600  1.0  0.7851
  C  C23  1  0.925900  0.920000  0.027100  1.0  -0.0267
  C  C24  1  0.963600  0.926000  0.933300  1.0  -0.071
  C  C25  1  0.039800  0.007300  0.906900  1.0  -0.109
  C  C26  1  0.544500  0.788900  0.952700  1.0  0.8222
  C  C27  1  0.597900  0.879300  0.152800  1.0  0.6677
  C  C28  1  0.481400  0.960700  0.911800  1.0  -0.0194
  C  C29  1  0.523800  0.896900  0.983000  1.0  -0.1091
  C  C30  1  0.542900  0.937300  0.072800  1.0  -0.0965
  C  C31  1  0.680700  0.887300  0.611600  1.0  0.7773
  C  C32  1  0.754300  0.993700  0.432400  1.0  0.7912
  C  C33  1  0.463800  0.947000  0.579600  1.0  -0.0228
  C  C34  1  0.623500  0.997500  0.471200  1.0  -0.0479
  C  C35  1  0.587600  0.943600  0.552100  1.0  -0.124
  C  C36  1  0.586800  0.654500  0.369200  1.0  0.7092
  C  C37  1  0.410900  0.479300  0.309600  1.0  0.7851
  C  C38  1  0.574100  0.580000  0.527100  1.0  -0.0254
  C  C39  1  0.536400  0.574000  0.433300  1.0  -0.0696
  C  C40  1  0.460200  0.492700  0.406900  1.0  -0.1097
  C  C41  1  0.955500  0.711100  0.452700  1.0  0.8222
  C  C42  1  0.902100  0.620700  0.652800  1.0  0.668
  C  C43  1  0.018600  0.539300  0.411800  1.0  -0.0196
  C  C44  1  0.976200  0.603100  0.483000  1.0  -0.109
  C  C45  1  0.957100  0.562700  0.572800  1.0  -0.0956
  C  C46  1  0.819300  0.612700  0.111600  1.0  0.7772
  C  C47  1  0.745700  0.506300  0.932400  1.0  0.7922
  C  C48  1  0.036200  0.553000  0.079600  1.0  -0.0221
  C  C49  1  0.876500  0.502500  0.971200  1.0  -0.0468
  C  C50  1  0.912400  0.556400  0.052100  1.0  -0.1237
  C  C51  1  0.086800  0.154500  0.130800  1.0  0.7096
  C  C52  1  0.910900  0.979300  0.190400  1.0  0.7855
  C  C53  1  0.074100  0.080000  0.972900  1.0  -0.0245
  C  C54  1  0.036400  0.074000  0.066700  1.0  -0.0688
  C  C55  1  0.960200  0.992700  0.093100  1.0  -0.109
  C  C56  1  0.455500  0.211100  0.047300  1.0  0.8227
  C  C57  1  0.402100  0.120700  0.847200  1.0  0.6672
  C  C58  1  0.518600  0.039300  0.088200  1.0  -0.0179
  C  C59  1  0.476200  0.103100  0.017000  1.0  -0.109
  C  C60  1  0.457100  0.062700  0.927200  1.0  -0.0951
  C  C61  1  0.319300  0.112700  0.388400  1.0  0.7741
  C  C62  1  0.245700  0.006300  0.567600  1.0  0.7925
  C  C63  1  0.536200  0.053000  0.420400  1.0  -0.0227
  C  C64  1  0.376500  0.002500  0.528800  1.0  -0.0471
  C  C65  1  0.412400  0.056400  0.447900  1.0  -0.1232
  C  C66  1  0.413200  0.345500  0.630800  1.0  0.71
  C  C67  1  0.589100  0.520700  0.690400  1.0  0.7856
  C  C68  1  0.425900  0.420000  0.472900  1.0  -0.0257
  C  C69  1  0.463600  0.426000  0.566700  1.0  -0.07
  C  C70  1  0.539800  0.507300  0.593100  1.0  -0.108
  C  C71  1  0.044500  0.288900  0.547300  1.0  0.8225
  C  C72  1  0.097900  0.379300  0.347200  1.0  0.6667
  C  C73  1  0.981400  0.460700  0.588200  1.0  -0.0173
  C  C74  1  0.023800  0.396900  0.517000  1.0  -0.1092
  C  C75  1  0.042900  0.437300  0.427200  1.0  -0.0963
  C  C76  1  0.180700  0.387300  0.888400  1.0  0.7744
  C  C77  1  0.254300  0.493700  0.067600  1.0  0.7918
  C  C78  1  0.963800  0.447000  0.920400  1.0  -0.0234
  C  C79  1  0.123500  0.497500  0.028800  1.0  -0.0482
  C  C80  1  0.087600  0.443600  0.947900  1.0  -0.1232
  O  O81  1  0.892600  0.759000  0.901400  1.0  -0.609
  O  O82  1  0.880200  0.866300  0.784200  1.0  -0.8722
  O  O83  1  0.109100  0.112200  0.787900  1.0  -0.7125
  O  O84  1  0.106700  0.944900  0.758900  1.0  -0.7339
  O  O85  1  0.604000  0.779400  0.878600  1.0  -0.7202
  O  O86  1  0.495600  0.716100  0.996400  1.0  -0.7321
  O  O87  1  0.614800  0.920800  0.231000  1.0  -0.624
  O  O88  1  0.634300  0.787500  0.140400  1.0  -0.8469
  O  O89  1  0.642500  0.829000  0.676200  1.0  -0.6882
  O  O90  1  0.793400  0.905300  0.593700  1.0  -0.7269
  O  O91  1  0.821500  0.073300  0.440900  1.0  -0.7728
  O  O92  1  0.787000  0.915300  0.390800  1.0  -0.7223
  O  O93  1  0.607400  0.741000  0.401400  1.0  -0.609
  O  O94  1  0.619800  0.633700  0.284200  1.0  -0.8713
  O  O95  1  0.390900  0.387800  0.287900  1.0  -0.7087
  O  O96  1  0.393300  0.555100  0.258900  1.0  -0.7334
  O  O97  1  0.896000  0.720600  0.378600  1.0  -0.718
  O  O98  1  0.004400  0.783900  0.496400  1.0  -0.7337
  O  O99  1  0.885200  0.579200  0.731000  1.0  -0.6229
  O  O100  1  0.865700  0.712500  0.640400  1.0  -0.8457
  O  O101  1  0.857500  0.671000  0.176200  1.0  -0.6872
  O  O102  1  0.706600  0.594700  0.093700  1.0  -0.7259
  O  O103  1  0.678500  0.426700  0.940900  1.0  -0.7747
  O  O104  1  0.713000  0.584700  0.890800  1.0  -0.7251
  O  O105  1  0.107400  0.241000  0.098600  1.0  -0.6088
  O  O106  1  0.119800  0.133700  0.215800  1.0  -0.869
  O  O107  1  0.890900  0.887800  0.212100  1.0  -0.7108
  O  O108  1  0.893300  0.055100  0.241100  1.0  -0.7349
  O  O109  1  0.396000  0.220600  0.121400  1.0  -0.717
  O  O110  1  0.504400  0.283900  0.003600  1.0  -0.7338
  O  O111  1  0.385200  0.079200  0.769000  1.0  -0.6259
  O  O112  1  0.365700  0.212500  0.859600  1.0  -0.8455
  O  O113  1  0.357500  0.171000  0.323800  1.0  -0.6868
  O  O114  1  0.206600  0.094700  0.406300  1.0  -0.7262
  O  O115  1  0.178500  0.926700  0.559100  1.0  -0.7751
  O  O116  1  0.213000  0.084700  0.609200  1.0  -0.7248
  O  O117  1  0.392600  0.259000  0.598600  1.0  -0.6095
  O  O118  1  0.380200  0.366300  0.715800  1.0  -0.8717
  O  O119  1  0.609100  0.612200  0.712100  1.0  -0.7142
  O  O120  1  0.606700  0.444900  0.741100  1.0  -0.7346
  O  O121  1  0.104000  0.279400  0.621400  1.0  -0.7178
  O  O122  1  0.995600  0.216100  0.503600  1.0  -0.7337
  O  O123  1  0.114800  0.420800  0.269000  1.0  -0.6267
  O  O124  1  0.134300  0.287500  0.359600  1.0  -0.847
  O  O125  1  0.142500  0.329000  0.823800  1.0  -0.6876
  O  O126  1  0.293400  0.405300  0.906300  1.0  -0.7271
  O  O127  1  0.321500  0.573300  0.059100  1.0  -0.7726
  O  O128  1  0.287000  0.415300  0.109200  1.0  -0.7223
