# generated using pymatgen
data_TbH15(C4O)6
_symmetry_space_group_name_H-M   'P 1'
_cell_length_a   16.22950000
_cell_length_b   16.22950000
_cell_length_c   28.03460000
_cell_angle_alpha   80.12190000
_cell_angle_beta   80.12190000
_cell_angle_gamma   62.93240000
_symmetry_Int_Tables_number   1
_chemical_formula_structural   TbH15(C4O)6
_chemical_formula_sum   'Tb4 H60 C96 O24'
_cell_volume   6441.05829354
_cell_formula_units_Z   4
loop_
 _symmetry_equiv_pos_site_id
 _symmetry_equiv_pos_as_xyz
  1  'x, y, z'
loop_
 _atom_site_type_symbol
 _atom_site_label
 _atom_site_symmetry_multiplicity
 _atom_site_fract_x
 _atom_site_fract_y
 _atom_site_fract_z
 _atom_site_occupancy
 _atom_site_charge
  Tb  Tb1  1  0.431250  0.970980  0.955560  1.0  2.2375
  Tb  Tb2  1  0.029020  0.568750  0.544440  1.0  2.2372
  Tb  Tb3  1  0.568740  0.029020  0.044440  1.0  2.2328
  Tb  Tb4  1  0.970980  0.431250  0.455560  1.0  2.2339
  H  H5  1  0.459200  0.876000  0.794300  1.0  0.0996
  H  H6  1  0.426800  0.814000  0.736300  1.0  0.1158
  H  H7  1  0.329400  0.668400  0.843200  1.0  0.1185
  H  H8  1  0.357600  0.739400  0.900200  1.0  0.0857
  H  H9  1  0.366200  0.717000  0.713500  1.0  0.1131
  H  H10  1  0.757900  0.824900  0.026500  1.0  0.1082
  H  H11  1  0.910400  0.705200  0.028700  1.0  0.1041
  H  H12  1  0.849300  0.553300  0.955700  1.0  0.1095
  H  H13  1  0.704100  0.671300  0.947800  1.0  0.1022
  H  H14  1  0.028000  0.558200  0.012700  1.0  0.0887
  H  H15  1  0.664600  0.176600  0.914500  1.0  0.1099
  H  H16  1  0.717500  0.248300  0.844400  1.0  0.116
  H  H17  1  0.630200  0.129800  0.760300  1.0  0.1089
  H  H18  1  0.576300  0.060300  0.830000  1.0  0.1053
  H  H19  1  0.705800  0.224600  0.719900  1.0  0.1248
  H  H20  1  0.124000  0.540800  0.705700  1.0  0.0995
  H  H21  1  0.186000  0.573200  0.763700  1.0  0.1151
  H  H22  1  0.331600  0.670600  0.656800  1.0  0.1189
  H  H23  1  0.260600  0.642400  0.599800  1.0  0.0873
  H  H24  1  0.283000  0.633800  0.786500  1.0  0.1159
  H  H25  1  0.175100  0.242100  0.473500  1.0  0.1093
  H  H26  1  0.294800  0.089600  0.471300  1.0  0.1036
  H  H27  1  0.446700  0.150700  0.544300  1.0  0.1104
  H  H28  1  0.328700  0.295900  0.552200  1.0  0.1021
  H  H29  1  0.441800  0.972000  0.487300  1.0  0.0877
  H  H30  1  0.823400  0.335400  0.585500  1.0  0.1107
  H  H31  1  0.751700  0.282500  0.655600  1.0  0.1166
  H  H32  1  0.870200  0.369800  0.739700  1.0  0.1087
  H  H33  1  0.939700  0.423700  0.670000  1.0  0.1055
  H  H34  1  0.775400  0.294200  0.780100  1.0  0.1243
  H  H35  1  0.540800  0.124000  0.205700  1.0  0.099
  H  H36  1  0.573200  0.186000  0.263700  1.0  0.1151
  H  H37  1  0.670600  0.331600  0.156800  1.0  0.1194
  H  H38  1  0.642400  0.260600  0.099800  1.0  0.0858
  H  H39  1  0.633800  0.283000  0.286500  1.0  0.1147
  H  H40  1  0.242100  0.175100  0.973500  1.0  0.1082
  H  H41  1  0.089600  0.294800  0.971300  1.0  0.1042
  H  H42  1  0.150700  0.446700  0.044300  1.0  0.1097
  H  H43  1  0.295900  0.328700  0.052200  1.0  0.1025
  H  H44  1  0.972000  0.441800  0.987300  1.0  0.0878
  H  H45  1  0.335400  0.823400  0.085500  1.0  0.1105
  H  H46  1  0.282500  0.751700  0.155600  1.0  0.116
  H  H47  1  0.369800  0.870200  0.239700  1.0  0.1086
  H  H48  1  0.423700  0.939700  0.170000  1.0  0.1056
  H  H49  1  0.294200  0.775400  0.280100  1.0  0.1243
  H  H50  1  0.876000  0.459200  0.294300  1.0  0.0995
  H  H51  1  0.814000  0.426800  0.236300  1.0  0.1158
  H  H52  1  0.668400  0.329400  0.343200  1.0  0.1179
  H  H53  1  0.739400  0.357600  0.400200  1.0  0.0868
  H  H54  1  0.717000  0.366200  0.213500  1.0  0.1147
  H  H55  1  0.824900  0.757900  0.526500  1.0  0.1089
  H  H56  1  0.705200  0.910400  0.528700  1.0  0.1037
  H  H57  1  0.553300  0.849300  0.455700  1.0  0.1104
  H  H58  1  0.671300  0.704100  0.447800  1.0  0.1015
  H  H59  1  0.558200  0.028000  0.512700  1.0  0.089
  H  H60  1  0.176600  0.664600  0.414500  1.0  0.1102
  H  H61  1  0.248300  0.717500  0.344400  1.0  0.1158
  H  H62  1  0.129800  0.630200  0.260300  1.0  0.109
  H  H63  1  0.060300  0.576300  0.330000  1.0  0.1058
  H  H64  1  0.224600  0.705800  0.219900  1.0  0.1243
  C  C65  1  0.421300  0.859300  0.892100  1.0  0.6874
  C  C66  1  0.408000  0.816000  0.853700  1.0  -0.1307
  C  C67  1  0.430600  0.835200  0.804300  1.0  -0.037
  C  C68  1  0.413000  0.797200  0.769800  1.0  -0.1074
  C  C69  1  0.375000  0.733800  0.783300  1.0  0.0641
  C  C70  1  0.354700  0.711900  0.832600  1.0  -0.2039
  C  C71  1  0.372000  0.754600  0.866500  1.0  -0.0681
  C  C72  1  0.347200  0.701400  0.746400  1.0  -0.0825
  C  C73  1  0.619640  0.836240  0.982400  1.0  0.7321
  C  C74  1  0.714800  0.761000  0.985700  1.0  -0.137
  C  C75  1  0.776500  0.770300  0.011200  1.0  -0.0963
  C  C76  1  0.866800  0.697400  0.013600  1.0  -0.1284
  C  C77  1  0.892900  0.616700  0.995100  1.0  0.0394
  C  C78  1  0.830900  0.608900  0.970000  1.0  -0.1532
  C  C79  1  0.744800  0.678800  0.965400  1.0  -0.0723
  C  C80  1  0.985400  0.541200  0.002600  1.0  -0.1495
  C  C81  1  0.579010  0.068810  0.922950  1.0  0.746
  C  C82  1  0.616880  0.110480  0.878200  1.0  -0.1203
  C  C83  1  0.658200  0.167000  0.883100  1.0  -0.0662
  C  C84  1  0.690000  0.209000  0.841500  1.0  -0.1203
  C  C85  1  0.682100  0.193700  0.795400  1.0  0.0829
  C  C86  1  0.638000  0.138800  0.791500  1.0  -0.105
  C  C87  1  0.606000  0.097600  0.832870  1.0  -0.038
  C  C88  1  0.717700  0.233700  0.750200  1.0  -0.1658
  C  C89  1  0.140700  0.578700  0.607900  1.0  0.687
  C  C90  1  0.184000  0.592000  0.646300  1.0  -0.1321
  C  C91  1  0.164800  0.569400  0.695700  1.0  -0.0373
  C  C92  1  0.202800  0.587000  0.730200  1.0  -0.1063
  C  C93  1  0.266200  0.625000  0.716700  1.0  0.0636
  C  C94  1  0.288100  0.645300  0.667400  1.0  -0.1979
  C  C95  1  0.245400  0.628000  0.633500  1.0  -0.0644
  C  C96  1  0.298600  0.652800  0.753600  1.0  -0.0811
  C  C97  1  0.163760  0.380360  0.517600  1.0  0.736
  C  C98  1  0.239000  0.285200  0.514300  1.0  -0.1382
  C  C99  1  0.229700  0.223500  0.488800  1.0  -0.1007
  C  C100  1  0.302600  0.133200  0.486400  1.0  -0.1304
  C  C101  1  0.383300  0.107100  0.504900  1.0  0.0394
  C  C102  1  0.391100  0.169100  0.530000  1.0  -0.1534
  C  C103  1  0.321200  0.255200  0.534600  1.0  -0.073
  C  C104  1  0.458800  0.014600  0.497400  1.0  -0.1523
  C  C105  1  0.931190  0.420990  0.577050  1.0  0.7453
  C  C106  1  0.889520  0.383120  0.621800  1.0  -0.1218
  C  C107  1  0.833000  0.341800  0.616900  1.0  -0.0658
  C  C108  1  0.791000  0.310000  0.658500  1.0  -0.1221
  C  C109  1  0.806300  0.317900  0.704600  1.0  0.0825
  C  C110  1  0.861200  0.362000  0.708500  1.0  -0.1077
  C  C111  1  0.902400  0.394000  0.667130  1.0  -0.0373
  C  C112  1  0.766300  0.282300  0.749800  1.0  -0.1655
  C  C113  1  0.578700  0.140700  0.107900  1.0  0.6875
  C  C114  1  0.592000  0.184000  0.146300  1.0  -0.1303
  C  C115  1  0.569400  0.164800  0.195700  1.0  -0.0376
  C  C116  1  0.587000  0.202800  0.230200  1.0  -0.1069
  C  C117  1  0.625000  0.266200  0.216700  1.0  0.0646
  C  C118  1  0.645300  0.288100  0.167400  1.0  -0.2025
  C  C119  1  0.628000  0.245400  0.133500  1.0  -0.0665
  C  C120  1  0.652800  0.298600  0.253600  1.0  -0.0809
  C  C121  1  0.380360  0.163760  0.017600  1.0  0.7313
  C  C122  1  0.285200  0.239000  0.014300  1.0  -0.138
  C  C123  1  0.223500  0.229700  0.988800  1.0  -0.0983
  C  C124  1  0.133200  0.302600  0.986400  1.0  -0.1314
  C  C125  1  0.107100  0.383300  0.004900  1.0  0.0397
  C  C126  1  0.169100  0.391100  0.030000  1.0  -0.1528
  C  C127  1  0.255200  0.321200  0.034600  1.0  -0.0735
  C  C128  1  0.014600  0.458800  0.997400  1.0  -0.1492
  C  C129  1  0.420990  0.931190  0.077050  1.0  0.7452
  C  C130  1  0.383120  0.889520  0.121800  1.0  -0.1215
  C  C131  1  0.341800  0.833000  0.116900  1.0  -0.0657
  C  C132  1  0.310000  0.791000  0.158500  1.0  -0.1206
  C  C133  1  0.317900  0.806300  0.204600  1.0  0.0822
  C  C134  1  0.362000  0.861200  0.208500  1.0  -0.1078
  C  C135  1  0.394000  0.902400  0.167130  1.0  -0.0362
  C  C136  1  0.282300  0.766300  0.249800  1.0  -0.1648
  C  C137  1  0.859300  0.421300  0.392100  1.0  0.6873
  C  C138  1  0.816000  0.408000  0.353700  1.0  -0.1316
  C  C139  1  0.835200  0.430600  0.304300  1.0  -0.0371
  C  C140  1  0.797200  0.413000  0.269800  1.0  -0.1073
  C  C141  1  0.733800  0.375000  0.283300  1.0  0.0643
  C  C142  1  0.711900  0.354700  0.332600  1.0  -0.2005
  C  C143  1  0.754600  0.372000  0.366500  1.0  -0.0665
  C  C144  1  0.701400  0.347200  0.246400  1.0  -0.0829
  C  C145  1  0.836240  0.619640  0.482400  1.0  0.7357
  C  C146  1  0.761000  0.714800  0.485700  1.0  -0.1393
  C  C147  1  0.770300  0.776500  0.511200  1.0  -0.0983
  C  C148  1  0.697400  0.866800  0.513600  1.0  -0.1288
  C  C149  1  0.616700  0.892900  0.495100  1.0  0.0395
  C  C150  1  0.608900  0.830900  0.470000  1.0  -0.1529
  C  C151  1  0.678800  0.744800  0.465400  1.0  -0.0738
  C  C152  1  0.541200  0.985400  0.502600  1.0  -0.1487
  C  C153  1  0.068810  0.579010  0.422950  1.0  0.7464
  C  C154  1  0.110480  0.616880  0.378200  1.0  -0.121
  C  C155  1  0.167000  0.658200  0.383100  1.0  -0.0662
  C  C156  1  0.209000  0.690000  0.341500  1.0  -0.1216
  C  C157  1  0.193700  0.682100  0.295400  1.0  0.0829
  C  C158  1  0.138800  0.638000  0.291500  1.0  -0.1047
  C  C159  1  0.097600  0.606000  0.332870  1.0  -0.0381
  C  C160  1  0.233700  0.717700  0.250200  1.0  -0.1658
  O  O161  1  0.459130  0.912930  0.876410  1.0  -0.661
  O  O162  1  0.393710  0.849110  0.936310  1.0  -0.6797
  O  O163  1  0.569350  0.826550  0.957580  1.0  -0.6783
  O  O164  1  0.593810  0.907010  0.003940  1.0  -0.8175
  O  O165  1  0.541260  0.019260  0.916160  1.0  -0.6685
  O  O166  1  0.589310  0.084310  0.963380  1.0  -0.7145
  O  O167  1  0.087070  0.540870  0.623590  1.0  -0.6621
  O  O168  1  0.150890  0.606290  0.563690  1.0  -0.6752
  O  O169  1  0.173450  0.430650  0.542420  1.0  -0.6813
  O  O170  1  0.092990  0.406190  0.496060  1.0  -0.8116
  O  O171  1  0.980740  0.458740  0.583840  1.0  -0.6691
  O  O172  1  0.915690  0.410690  0.536620  1.0  -0.7112
  O  O173  1  0.540870  0.087070  0.123590  1.0  -0.6627
  O  O174  1  0.606290  0.150890  0.063690  1.0  -0.6795
  O  O175  1  0.430650  0.173450  0.042420  1.0  -0.6775
  O  O176  1  0.406190  0.092990  0.996060  1.0  -0.8157
  O  O177  1  0.458740  0.980740  0.083840  1.0  -0.6709
  O  O178  1  0.410690  0.915690  0.036620  1.0  -0.7148
  O  O179  1  0.912930  0.459130  0.376410  1.0  -0.6617
  O  O180  1  0.849110  0.393710  0.436310  1.0  -0.6755
  O  O181  1  0.826550  0.569350  0.457580  1.0  -0.6816
  O  O182  1  0.907010  0.593810  0.503940  1.0  -0.8134
  O  O183  1  0.019260  0.541260  0.416160  1.0  -0.6705
  O  O184  1  0.084310  0.589310  0.463380  1.0  -0.7112
