# generated using pymatgen
data_EuH15(C4O)6
_symmetry_space_group_name_H-M   'P 1'
_cell_length_a   16.57360000
_cell_length_b   21.78970000
_cell_length_c   35.13200000
_cell_angle_alpha   90.00000000
_cell_angle_beta   90.00000000
_cell_angle_gamma   90.00000000
_symmetry_Int_Tables_number   1
_chemical_formula_structural   EuH15(C4O)6
_chemical_formula_sum   'Eu8 H120 C192 O48'
_cell_volume   12687.35167509
_cell_formula_units_Z   8
loop_
 _symmetry_equiv_pos_site_id
 _symmetry_equiv_pos_as_xyz
  1  'x, y, z'
loop_
 _atom_site_type_symbol
 _atom_site_label
 _atom_site_symmetry_multiplicity
 _atom_site_fract_x
 _atom_site_fract_y
 _atom_site_fract_z
 _atom_site_occupancy
 _atom_site_charge
  Eu  Eu1  1  0.242830  0.574320  0.885970  1.0  2.1438
  Eu  Eu2  1  0.175610  0.394800  0.879250  1.0  2.1254
  Eu  Eu3  1  0.257170  0.425680  0.385970  1.0  2.1446
  Eu  Eu4  1  0.324390  0.605200  0.379250  1.0  2.1238
  Eu  Eu5  1  0.757170  0.074320  0.614030  1.0  2.1437
  Eu  Eu6  1  0.824390  0.894800  0.620750  1.0  2.1248
  Eu  Eu7  1  0.742830  0.925680  0.114030  1.0  2.1454
  Eu  Eu8  1  0.675610  0.105200  0.120750  1.0  2.1239
  H  H9  1  0.274600  0.570700  0.757100  1.0  0.0984
  H  H10  1  0.286000  0.567500  0.690500  1.0  0.1194
  H  H11  1  0.256000  0.382300  0.694400  1.0  0.1226
  H  H12  1  0.242200  0.389000  0.760900  1.0  0.1024
  H  H13  1  0.268300  0.433100  0.631900  1.0  0.0922
  H  H14  1  0.464000  0.346900  0.890100  1.0  0.1045
  H  H15  1  0.601900  0.360200  0.878600  1.0  0.1148
  H  H16  1  0.573500  0.545100  0.891400  1.0  0.1219
  H  H17  1  0.434900  0.529500  0.903000  1.0  0.1028
  H  H18  1  0.718100  0.422000  0.879800  1.0  0.098
  H  H19  1  0.366800  0.601900  0.509200  1.0  0.1197
  H  H20  1  0.356500  0.598600  0.575600  1.0  0.109
  H  H21  1  0.272700  0.424200  0.570900  1.0  0.1223
  H  H22  1  0.280400  0.426500  0.504700  1.0  0.0975
  H  H23  1  0.318300  0.553100  0.633200  1.0  0.1151
  H  H24  1  0.958500  0.622700  0.874400  1.0  0.1194
  H  H25  1  0.819800  0.610100  0.877700  1.0  0.1044
  H  H26  1  0.841400  0.427600  0.860000  1.0  0.1159
  H  H27  1  0.983200  0.438000  0.857500  1.0  0.1124
  H  H28  1  0.699600  0.548200  0.880400  1.0  0.1115
  H  H29  1  0.206300  0.785100  0.833500  1.0  0.111
  H  H30  1  0.191800  0.892600  0.837500  1.0  0.1238
  H  H31  1  0.134800  0.876000  0.949000  1.0  0.1028
  H  H32  1  0.155200  0.770100  0.946000  1.0  0.1129
  H  H33  1  0.121500  0.978700  0.920300  1.0  0.1115
  H  H34  1  0.152900  0.185100  0.935200  1.0  0.113
  H  H35  1  0.141000  0.076700  0.930800  1.0  0.1139
  H  H36  1  0.210000  0.082800  0.821700  1.0  0.1047
  H  H37  1  0.221900  0.190900  0.824400  1.0  0.1211
  H  H38  1  0.197900  0.983900  0.849600  1.0  0.1613
  H  H39  1  0.225400  0.429300  0.257100  1.0  0.0984
  H  H40  1  0.214000  0.432500  0.190500  1.0  0.1194
  H  H41  1  0.244000  0.617700  0.194400  1.0  0.1228
  H  H42  1  0.257800  0.611000  0.260900  1.0  0.1025
  H  H43  1  0.231700  0.566900  0.131900  1.0  0.0925
  H  H44  1  0.036000  0.653100  0.390100  1.0  0.1051
  H  H45  1  0.898100  0.639800  0.378600  1.0  0.1151
  H  H46  1  0.926500  0.454900  0.391400  1.0  0.1221
  H  H47  1  0.065100  0.470500  0.403000  1.0  0.1029
  H  H48  1  0.781900  0.578000  0.379800  1.0  0.0985
  H  H49  1  0.133200  0.398100  0.009200  1.0  0.1191
  H  H50  1  0.143500  0.401400  0.075600  1.0  0.1094
  H  H51  1  0.227300  0.575800  0.070900  1.0  0.1224
  H  H52  1  0.219600  0.573500  0.004700  1.0  0.0985
  H  H53  1  0.181700  0.446900  0.133200  1.0  0.1143
  H  H54  1  0.541500  0.377300  0.374400  1.0  0.1197
  H  H55  1  0.680200  0.389900  0.377700  1.0  0.1048
  H  H56  1  0.658600  0.572400  0.360000  1.0  0.1158
  H  H57  1  0.516800  0.562000  0.357500  1.0  0.1131
  H  H58  1  0.800400  0.451800  0.380400  1.0  0.1113
  H  H59  1  0.293700  0.214900  0.333500  1.0  0.1111
  H  H60  1  0.308200  0.107400  0.337500  1.0  0.1232
  H  H61  1  0.365200  0.124000  0.449000  1.0  0.1029
  H  H62  1  0.344800  0.229900  0.446000  1.0  0.113
  H  H63  1  0.378500  0.021300  0.420300  1.0  0.1111
  H  H64  1  0.347100  0.814900  0.435200  1.0  0.1133
  H  H65  1  0.359000  0.923300  0.430800  1.0  0.1138
  H  H66  1  0.290000  0.917200  0.321700  1.0  0.104
  H  H67  1  0.278100  0.809100  0.324400  1.0  0.121
  H  H68  1  0.302100  0.016100  0.349600  1.0  0.1622
  H  H69  1  0.725400  0.070700  0.742900  1.0  0.0986
  H  H70  1  0.714000  0.067500  0.809500  1.0  0.1198
  H  H71  1  0.744000  0.882300  0.805600  1.0  0.122
  H  H72  1  0.757800  0.889000  0.739100  1.0  0.1024
  H  H73  1  0.731700  0.933100  0.868100  1.0  0.0919
  H  H74  1  0.536000  0.846900  0.609900  1.0  0.1048
  H  H75  1  0.398100  0.860200  0.621400  1.0  0.1143
  H  H76  1  0.426500  0.045100  0.608600  1.0  0.1223
  H  H77  1  0.565100  0.029500  0.597000  1.0  0.1026
  H  H78  1  0.281900  0.922000  0.620200  1.0  0.0976
  H  H79  1  0.633200  0.101900  0.990800  1.0  0.1201
  H  H80  1  0.643500  0.098600  0.924400  1.0  0.1094
  H  H81  1  0.727300  0.924200  0.929100  1.0  0.1226
  H  H82  1  0.719600  0.926500  0.995300  1.0  0.0976
  H  H83  1  0.681700  0.053100  0.866800  1.0  0.1149
  H  H84  1  0.041500  0.122700  0.625600  1.0  0.1197
  H  H85  1  0.180200  0.110100  0.622300  1.0  0.1044
  H  H86  1  0.158600  0.927600  0.640000  1.0  0.1168
  H  H87  1  0.016800  0.938000  0.642500  1.0  0.1124
  H  H88  1  0.300400  0.048200  0.619600  1.0  0.1117
  H  H89  1  0.793700  0.285100  0.666500  1.0  0.111
  H  H90  1  0.808200  0.392600  0.662500  1.0  0.1237
  H  H91  1  0.865200  0.376000  0.551000  1.0  0.1029
  H  H92  1  0.844800  0.270100  0.554000  1.0  0.1127
  H  H93  1  0.878500  0.478700  0.579700  1.0  0.1114
  H  H94  1  0.847100  0.685100  0.564800  1.0  0.1133
  H  H95  1  0.859000  0.576700  0.569200  1.0  0.1136
  H  H96  1  0.790000  0.582800  0.678300  1.0  0.1046
  H  H97  1  0.778100  0.690900  0.675600  1.0  0.1214
  H  H98  1  0.802100  0.483900  0.650400  1.0  0.1625
  H  H99  1  0.774600  0.929300  0.242900  1.0  0.0985
  H  H100  1  0.786000  0.932500  0.309500  1.0  0.12
  H  H101  1  0.756000  0.117700  0.305600  1.0  0.1223
  H  H102  1  0.742200  0.111000  0.239100  1.0  0.1026
  H  H103  1  0.768300  0.066900  0.368100  1.0  0.0924
  H  H104  1  0.964000  0.153100  0.109900  1.0  0.1053
  H  H105  1  0.101900  0.139800  0.121400  1.0  0.1147
  H  H106  1  0.073500  0.954900  0.108600  1.0  0.1219
  H  H107  1  0.934900  0.970500  0.097000  1.0  0.1017
  H  H108  1  0.218100  0.078000  0.120200  1.0  0.0979
  H  H109  1  0.866800  0.898100  0.490800  1.0  0.1195
  H  H110  1  0.856500  0.901400  0.424400  1.0  0.1095
  H  H111  1  0.772700  0.075800  0.429100  1.0  0.1226
  H  H112  1  0.780400  0.073500  0.495300  1.0  0.098
  H  H113  1  0.818300  0.946900  0.366800  1.0  0.1148
  H  H114  1  0.458500  0.877300  0.125600  1.0  0.1198
  H  H115  1  0.319800  0.889900  0.122300  1.0  0.1048
  H  H116  1  0.341400  0.072400  0.140000  1.0  0.1162
  H  H117  1  0.483200  0.062000  0.142500  1.0  0.1132
  H  H118  1  0.199600  0.951800  0.119600  1.0  0.1112
  H  H119  1  0.706300  0.714900  0.166500  1.0  0.111
  H  H120  1  0.691800  0.607400  0.162500  1.0  0.1239
  H  H121  1  0.634800  0.624000  0.051000  1.0  0.1033
  H  H122  1  0.655200  0.729900  0.054000  1.0  0.1122
  H  H123  1  0.621500  0.521300  0.079700  1.0  0.1114
  H  H124  1  0.652900  0.314900  0.064800  1.0  0.1132
  H  H125  1  0.641000  0.423300  0.069200  1.0  0.1139
  H  H126  1  0.710000  0.417200  0.178300  1.0  0.1046
  H  H127  1  0.721900  0.309100  0.175600  1.0  0.1215
  H  H128  1  0.697900  0.516100  0.150400  1.0  0.1623
  C  C129  1  0.249700  0.482600  0.807800  1.0  0.7803
  C  C130  1  0.258100  0.480800  0.765500  1.0  -0.1432
  C  C131  1  0.270700  0.532300  0.744500  1.0  -0.0328
  C  C132  1  0.278100  0.530700  0.704600  1.0  -0.1716
  C  C133  1  0.273500  0.474600  0.686400  1.0  0.0104
  C  C134  1  0.259900  0.420800  0.706900  1.0  -0.1194
  C  C135  1  0.252000  0.425200  0.746600  1.0  -0.0368
  C  C136  1  0.281700  0.471100  0.643600  1.0  -0.1106
  C  C137  1  0.344100  0.429100  0.894600  1.0  0.7213
  C  C138  1  0.434900  0.438500  0.892800  1.0  -0.1305
  C  C139  1  0.486200  0.387100  0.889100  1.0  -0.0356
  C  C140  1  0.568500  0.394500  0.884000  1.0  -0.1343
  C  C141  1  0.601700  0.453000  0.886800  1.0  0.0491
  C  C142  1  0.551500  0.504800  0.891600  1.0  -0.1464
  C  C143  1  0.468400  0.495600  0.896700  1.0  -0.0427
  C  C144  1  0.688000  0.459000  0.881300  1.0  -0.0923
  C  C145  1  0.325600  0.515900  0.458200  1.0  0.7677
  C  C146  1  0.325500  0.512100  0.500000  1.0  -0.1354
  C  C147  1  0.348000  0.565900  0.521700  1.0  -0.0629
  C  C148  1  0.341600  0.563700  0.561100  1.0  -0.081
  C  C149  1  0.314000  0.511700  0.579500  1.0  -0.0372
  C  C150  1  0.291500  0.460000  0.558300  1.0  -0.1399
  C  C151  1  0.296900  0.461400  0.518900  1.0  -0.0286
  C  C152  1  0.305300  0.515100  0.621500  1.0  -0.1067
  C  C153  1  0.073600  0.537700  0.867900  1.0  0.6887
  C  C154  1  0.984200  0.531800  0.865900  1.0  -0.1455
  C  C155  1  0.935400  0.583000  0.871900  1.0  -0.1003
  C  C156  1  0.853000  0.575000  0.874100  1.0  -0.0705
  C  C157  1  0.816000  0.517400  0.871200  1.0  0.0236
  C  C158  1  0.865300  0.466700  0.863700  1.0  -0.1018
  C  C159  1  0.949900  0.472900  0.861700  1.0  -0.086
  C  C160  1  0.729500  0.511200  0.878000  1.0  -0.0813
  C  C161  1  0.205700  0.700000  0.887400  1.0  0.6879
  C  C162  1  0.184700  0.768400  0.889100  1.0  -0.1216
  C  C163  1  0.193300  0.803700  0.857100  1.0  -0.0897
  C  C164  1  0.182600  0.867800  0.859400  1.0  -0.1281
  C  C165  1  0.158700  0.894900  0.893600  1.0  -0.0424
  C  C166  1  0.149800  0.857700  0.925500  1.0  -0.0817
  C  C167  1  0.162000  0.794800  0.923900  1.0  -0.0769
  C  C168  1  0.148200  0.963000  0.898400  1.0  -0.1557
  C  C169  1  0.195300  0.265100  0.882000  1.0  0.6505
  C  C170  1  0.186700  0.196100  0.880400  1.0  -0.1057
  C  C171  1  0.164100  0.164500  0.911900  1.0  -0.0877
  C  C172  1  0.157900  0.099700  0.909300  1.0  -0.1271
  C  C173  1  0.175900  0.069400  0.875800  1.0  0.0439
  C  C174  1  0.198500  0.103400  0.844900  1.0  -0.0617
  C  C175  1  0.205300  0.167900  0.846000  1.0  -0.094
  C  C176  1  0.176200  0.001100  0.872200  1.0  -0.1095
  C  C177  1  0.250300  0.517400  0.307800  1.0  0.7798
  C  C178  1  0.241900  0.519200  0.265500  1.0  -0.1431
  C  C179  1  0.229300  0.467700  0.244500  1.0  -0.0339
  C  C180  1  0.221900  0.469300  0.204600  1.0  -0.171
  C  C181  1  0.226500  0.525400  0.186400  1.0  0.0104
  C  C182  1  0.240100  0.579200  0.206900  1.0  -0.1181
  C  C183  1  0.248000  0.574800  0.246600  1.0  -0.0344
  C  C184  1  0.218300  0.528900  0.143600  1.0  -0.1089
  C  C185  1  0.155900  0.570900  0.394600  1.0  0.7227
  C  C186  1  0.065100  0.561500  0.392800  1.0  -0.1306
  C  C187  1  0.013800  0.612900  0.389100  1.0  -0.0369
  C  C188  1  0.931500  0.605500  0.384000  1.0  -0.1324
  C  C189  1  0.898300  0.547000  0.386800  1.0  0.0497
  C  C190  1  0.948500  0.495200  0.391600  1.0  -0.1482
  C  C191  1  0.031600  0.504400  0.396700  1.0  -0.0424
  C  C192  1  0.812000  0.541000  0.381300  1.0  -0.0928
  C  C193  1  0.174400  0.484100  0.958200  1.0  0.7521
  C  C194  1  0.174500  0.487900  0.000000  1.0  -0.1348
  C  C195  1  0.152000  0.434100  0.021700  1.0  -0.0623
  C  C196  1  0.158400  0.436300  0.061100  1.0  -0.0845
  C  C197  1  0.186000  0.488300  0.079500  1.0  -0.0366
  C  C198  1  0.208500  0.540000  0.058300  1.0  -0.1398
  C  C199  1  0.203100  0.538600  0.018900  1.0  -0.0278
  C  C200  1  0.194700  0.484900  0.121500  1.0  -0.1063
  C  C201  1  0.426400  0.462300  0.367900  1.0  0.6884
  C  C202  1  0.515800  0.468200  0.365900  1.0  -0.1461
  C  C203  1  0.564600  0.417000  0.371900  1.0  -0.1025
  C  C204  1  0.647000  0.425000  0.374100  1.0  -0.0725
  C  C205  1  0.684000  0.482600  0.371200  1.0  0.0233
  C  C206  1  0.634700  0.533300  0.363700  1.0  -0.0989
  C  C207  1  0.550100  0.527100  0.361700  1.0  -0.0872
  C  C208  1  0.770500  0.488800  0.378000  1.0  -0.0802
  C  C209  1  0.294300  0.300000  0.387400  1.0  0.6884
  C  C210  1  0.315300  0.231600  0.389100  1.0  -0.1213
  C  C211  1  0.306700  0.196300  0.357100  1.0  -0.0898
  C  C212  1  0.317400  0.132200  0.359400  1.0  -0.1271
  C  C213  1  0.341300  0.105100  0.393600  1.0  -0.043
  C  C214  1  0.350200  0.142300  0.425500  1.0  -0.0803
  C  C215  1  0.338000  0.205200  0.423900  1.0  -0.0762
  C  C216  1  0.351800  0.037000  0.398400  1.0  -0.1565
  C  C217  1  0.304700  0.734900  0.382000  1.0  0.6515
  C  C218  1  0.313300  0.803900  0.380400  1.0  -0.1049
  C  C219  1  0.335900  0.835500  0.411900  1.0  -0.085
  C  C220  1  0.342100  0.900300  0.409300  1.0  -0.1247
  C  C221  1  0.324100  0.930600  0.375800  1.0  0.0437
  C  C222  1  0.301500  0.896600  0.344900  1.0  -0.062
  C  C223  1  0.294700  0.832100  0.346000  1.0  -0.093
  C  C224  1  0.323800  0.998900  0.372200  1.0  -0.1114
  C  C225  1  0.750300  0.982600  0.692200  1.0  0.7782
  C  C226  1  0.741900  0.980800  0.734500  1.0  -0.1434
  C  C227  1  0.729300  0.032300  0.755500  1.0  -0.0332
  C  C228  1  0.721900  0.030700  0.795400  1.0  -0.1722
  C  C229  1  0.726500  0.974600  0.813600  1.0  0.0101
  C  C230  1  0.740100  0.920800  0.793100  1.0  -0.1203
  C  C231  1  0.748000  0.925200  0.753400  1.0  -0.0368
  C  C232  1  0.718300  0.971100  0.856400  1.0  -0.109
  C  C233  1  0.655900  0.929100  0.605400  1.0  0.7221
  C  C234  1  0.565100  0.938500  0.607200  1.0  -0.1304
  C  C235  1  0.513800  0.887100  0.610900  1.0  -0.0349
  C  C236  1  0.431500  0.894500  0.616000  1.0  -0.1339
  C  C237  1  0.398300  0.953000  0.613200  1.0  0.0499
  C  C238  1  0.448500  0.004800  0.608400  1.0  -0.1475
  C  C239  1  0.531600  0.995600  0.603300  1.0  -0.0428
  C  C240  1  0.312000  0.959000  0.618700  1.0  -0.0935
  C  C241  1  0.674400  0.015900  0.041800  1.0  0.7673
  C  C242  1  0.674500  0.012100  0.000000  1.0  -0.1348
  C  C243  1  0.652000  0.065900  0.978300  1.0  -0.062
  C  C244  1  0.658400  0.063700  0.938900  1.0  -0.0828
  C  C245  1  0.686000  0.011700  0.920500  1.0  -0.0365
  C  C246  1  0.708500  0.960000  0.941700  1.0  -0.139
  C  C247  1  0.703100  0.961400  0.981100  1.0  -0.0289
  C  C248  1  0.694700  0.015100  0.878500  1.0  -0.1064
  C  C249  1  0.926400  0.037700  0.632100  1.0  0.6877
  C  C250  1  0.015800  0.031800  0.634100  1.0  -0.1456
  C  C251  1  0.064600  0.083000  0.628100  1.0  -0.1013
  C  C252  1  0.147000  0.075000  0.625900  1.0  -0.0694
  C  C253  1  0.184000  0.017400  0.628800  1.0  0.0226
  C  C254  1  0.134700  0.966700  0.636300  1.0  -0.1006
  C  C255  1  0.050100  0.972900  0.638300  1.0  -0.0867
  C  C256  1  0.270500  0.011200  0.622000  1.0  -0.0792
  C  C257  1  0.794300  0.200000  0.612600  1.0  0.6882
  C  C258  1  0.815300  0.268400  0.610900  1.0  -0.1224
  C  C259  1  0.806700  0.303700  0.642900  1.0  -0.0906
  C  C260  1  0.817400  0.367800  0.640600  1.0  -0.1281
  C  C261  1  0.841300  0.394900  0.606400  1.0  -0.0428
  C  C262  1  0.850200  0.357700  0.574500  1.0  -0.0819
  C  C263  1  0.838000  0.294800  0.576100  1.0  -0.076
  C  C264  1  0.851800  0.463000  0.601600  1.0  -0.1553
  C  C265  1  0.804700  0.765100  0.618000  1.0  0.6507
  C  C266  1  0.813300  0.696100  0.619600  1.0  -0.1055
  C  C267  1  0.835900  0.664500  0.588100  1.0  -0.0869
  C  C268  1  0.842100  0.599700  0.590700  1.0  -0.1266
  C  C269  1  0.824100  0.569400  0.624200  1.0  0.0438
  C  C270  1  0.801500  0.603400  0.655100  1.0  -0.0612
  C  C271  1  0.794700  0.667900  0.654000  1.0  -0.0951
  C  C272  1  0.823800  0.501100  0.627800  1.0  -0.1116
  C  C273  1  0.749700  0.017400  0.192200  1.0  0.7784
  C  C274  1  0.758100  0.019200  0.234500  1.0  -0.1434
  C  C275  1  0.770700  0.967700  0.255500  1.0  -0.0345
  C  C276  1  0.778100  0.969300  0.295400  1.0  -0.1713
  C  C277  1  0.773500  0.025400  0.313600  1.0  0.0101
  C  C278  1  0.759900  0.079200  0.293100  1.0  -0.1181
  C  C279  1  0.752000  0.074800  0.253400  1.0  -0.0356
  C  C280  1  0.781700  0.028900  0.356400  1.0  -0.1102
  C  C281  1  0.844100  0.070900  0.105400  1.0  0.7217
  C  C282  1  0.934900  0.061500  0.107200  1.0  -0.1302
  C  C283  1  0.986200  0.112900  0.110900  1.0  -0.0358
  C  C284  1  0.068500  0.105500  0.116000  1.0  -0.1314
  C  C285  1  0.101700  0.047000  0.113200  1.0  0.0497
  C  C286  1  0.051500  0.995200  0.108400  1.0  -0.1473
  C  C287  1  0.968400  0.004400  0.103300  1.0  -0.0423
  C  C288  1  0.188000  0.041000  0.118700  1.0  -0.0915
  C  C289  1  0.825600  0.984100  0.541800  1.0  0.7537
  C  C290  1  0.825500  0.987900  0.500000  1.0  -0.1354
  C  C291  1  0.848000  0.934100  0.478300  1.0  -0.0626
  C  C292  1  0.841600  0.936300  0.438900  1.0  -0.0823
  C  C293  1  0.814000  0.988300  0.420500  1.0  -0.0374
  C  C294  1  0.791500  0.040000  0.441700  1.0  -0.141
  C  C295  1  0.796900  0.038600  0.481100  1.0  -0.0282
  C  C296  1  0.805300  0.984900  0.378500  1.0  -0.1066
  C  C297  1  0.573600  0.962300  0.132100  1.0  0.6893
  C  C298  1  0.484200  0.968200  0.134100  1.0  -0.145
  C  C299  1  0.435400  0.917000  0.128100  1.0  -0.1017
  C  C300  1  0.353000  0.925000  0.125900  1.0  -0.0711
  C  C301  1  0.316000  0.982600  0.128800  1.0  0.0237
  C  C302  1  0.365300  0.033300  0.136300  1.0  -0.0996
  C  C303  1  0.449900  0.027100  0.138300  1.0  -0.0854
  C  C304  1  0.229500  0.988800  0.122000  1.0  -0.0819
  C  C305  1  0.705700  0.800000  0.112600  1.0  0.6877
  C  C306  1  0.684700  0.731600  0.110900  1.0  -0.1211
  C  C307  1  0.693300  0.696300  0.142900  1.0  -0.0895
  C  C308  1  0.682600  0.632200  0.140600  1.0  -0.1273
  C  C309  1  0.658700  0.605100  0.106400  1.0  -0.0427
  C  C310  1  0.649800  0.642300  0.074500  1.0  -0.0813
  C  C311  1  0.662000  0.705200  0.076100  1.0  -0.0751
  C  C312  1  0.648200  0.537000  0.101600  1.0  -0.1558
  C  C313  1  0.695300  0.234900  0.118000  1.0  0.6516
  C  C314  1  0.686700  0.303900  0.119600  1.0  -0.1048
  C  C315  1  0.664100  0.335500  0.088100  1.0  -0.0868
  C  C316  1  0.657900  0.400300  0.090700  1.0  -0.1264
  C  C317  1  0.675900  0.430600  0.124200  1.0  0.0435
  C  C318  1  0.698500  0.396600  0.155100  1.0  -0.06
  C  C319  1  0.705300  0.332100  0.154000  1.0  -0.0931
  C  C320  1  0.676200  0.498900  0.127800  1.0  -0.1089
  O  O321  1  0.250000  0.535600  0.822830  1.0  -0.7265
  O  O322  1  0.241900  0.432500  0.824740  1.0  -0.6888
  O  O323  1  0.314500  0.376300  0.894440  1.0  -0.614
  O  O324  1  0.300200  0.478600  0.895330  1.0  -0.8
  O  O325  1  0.332100  0.567400  0.441890  1.0  -0.7385
  O  O326  1  0.319200  0.464900  0.440440  1.0  -0.716
  O  O327  1  0.118600  0.491800  0.868440  1.0  -0.8182
  O  O328  1  0.102600  0.592200  0.869920  1.0  -0.6135
  O  O329  1  0.200700  0.669500  0.917640  1.0  -0.6872
  O  O330  1  0.229500  0.677700  0.856300  1.0  -0.6989
  O  O331  1  0.180600  0.293500  0.913260  1.0  -0.6858
  O  O332  1  0.212400  0.295800  0.851860  1.0  -0.6309
  O  O333  1  0.250000  0.464400  0.322830  1.0  -0.7275
  O  O334  1  0.258100  0.567500  0.324740  1.0  -0.6881
  O  O335  1  0.185500  0.623700  0.394440  1.0  -0.6158
  O  O336  1  0.199800  0.521400  0.395330  1.0  -0.7994
  O  O337  1  0.167900  0.432600  0.941890  1.0  -0.7385
  O  O338  1  0.180800  0.535100  0.940440  1.0  -0.7174
  O  O339  1  0.381400  0.508200  0.368440  1.0  -0.8176
  O  O340  1  0.397400  0.407800  0.369920  1.0  -0.6121
  O  O341  1  0.299300  0.330500  0.417640  1.0  -0.6865
  O  O342  1  0.270500  0.322300  0.356300  1.0  -0.6974
  O  O343  1  0.319400  0.706500  0.413260  1.0  -0.6847
  O  O344  1  0.287600  0.704200  0.351860  1.0  -0.6312
  O  O345  1  0.750000  0.035600  0.677170  1.0  -0.7278
  O  O346  1  0.758100  0.932500  0.675260  1.0  -0.6887
  O  O347  1  0.685500  0.876300  0.605560  1.0  -0.6143
  O  O348  1  0.699800  0.978600  0.604670  1.0  -0.7998
  O  O349  1  0.667900  0.067400  0.058110  1.0  -0.7392
  O  O350  1  0.680800  0.964900  0.059560  1.0  -0.7166
  O  O351  1  0.881400  0.991800  0.631560  1.0  -0.8181
  O  O352  1  0.897400  0.092200  0.630080  1.0  -0.6116
  O  O353  1  0.799300  0.169500  0.582360  1.0  -0.6886
  O  O354  1  0.770500  0.177700  0.643700  1.0  -0.6963
  O  O355  1  0.819400  0.793500  0.586740  1.0  -0.6875
  O  O356  1  0.787600  0.795800  0.648140  1.0  -0.6285
  O  O357  1  0.750000  0.964400  0.177170  1.0  -0.7276
  O  O358  1  0.741900  0.067500  0.175260  1.0  -0.6877
  O  O359  1  0.814500  0.123700  0.105560  1.0  -0.6142
  O  O360  1  0.800200  0.021400  0.104670  1.0  -0.8012
  O  O361  1  0.832100  0.932600  0.558110  1.0  -0.7388
  O  O362  1  0.819200  0.035100  0.559560  1.0  -0.7157
  O  O363  1  0.618600  0.008200  0.131560  1.0  -0.8183
  O  O364  1  0.602600  0.907800  0.130080  1.0  -0.6119
  O  O365  1  0.700700  0.830500  0.082360  1.0  -0.688
  O  O366  1  0.729500  0.822300  0.143700  1.0  -0.6974
  O  O367  1  0.680600  0.206500  0.086740  1.0  -0.6885
  O  O368  1  0.712400  0.204200  0.148140  1.0  -0.6297
