# generated using pymatgen
data_ZnH24C30(NO2)2
_symmetry_space_group_name_H-M   'P 1'
_cell_length_a   5.86530000
_cell_length_b   12.85350000
_cell_length_c   20.98000000
_cell_angle_alpha   92.31720000
_cell_angle_beta   90.00000000
_cell_angle_gamma   103.18900000
_symmetry_Int_Tables_number   1
_chemical_formula_structural   ZnH24C30(NO2)2
_chemical_formula_sum   'Zn2 H48 C60 N4 O8'
_cell_volume   1538.62584889
_cell_formula_units_Z   2
loop_
 _symmetry_equiv_pos_site_id
 _symmetry_equiv_pos_as_xyz
  1  'x, y, z'
loop_
 _atom_site_type_symbol
 _atom_site_label
 _atom_site_symmetry_multiplicity
 _atom_site_fract_x
 _atom_site_fract_y
 _atom_site_fract_z
 _atom_site_occupancy
 _atom_site_charge
  Zn  Zn1  1  0.717550  0.000000  0.750000  1.0  0.8583
  Zn  Zn2  1  0.282450  0.000000  0.250000  1.0  0.8582
  H  H3  1  0.646000  0.898000  0.618600  1.0  0.0775
  H  H4  1  0.787500  0.780800  0.554100  1.0  0.1175
  H  H5  1  0.263400  0.769200  0.691100  1.0  0.1219
  H  H6  1  0.098200  0.882000  0.753700  1.0  0.0779
  H  H7  1  0.071600  0.676600  0.529300  1.0  0.0991
  H  H8  1  0.356400  0.644200  0.628200  1.0  0.1018
  H  H9  1  0.197500  0.570800  0.462100  1.0  0.1133
  H  H10  1  0.633000  0.536400  0.604600  1.0  0.1118
  H  H11  1  0.631300  0.237400  0.583800  1.0  0.1209
  H  H12  1  0.387900  0.178000  0.612700  1.0  0.1237
  H  H13  1  0.174800  0.013000  0.560700  1.0  0.1009
  H  H14  1  0.853700  0.122600  0.516600  1.0  0.1053
  H  H15  1  0.748000  0.102000  0.881400  1.0  0.0775
  H  H16  1  0.006700  0.219200  0.945900  1.0  0.1168
  H  H17  1  0.494200  0.230800  0.808900  1.0  0.1215
  H  H18  1  0.216200  0.118000  0.746300  1.0  0.0782
  H  H19  1  0.395000  0.323400  0.970700  1.0  0.0986
  H  H20  1  0.712200  0.355800  0.871800  1.0  0.1012
  H  H21  1  0.626700  0.429200  0.037900  1.0  0.1136
  H  H22  1  0.096600  0.463600  0.895400  1.0  0.1121
  H  H23  1  0.393900  0.762600  0.916200  1.0  0.1211
  H  H24  1  0.209900  0.822000  0.887300  1.0  0.1229
  H  H25  1  0.161800  0.987000  0.939300  1.0  0.1004
  H  H26  1  0.731100  0.877400  0.983400  1.0  0.1054
  H  H27  1  0.354000  0.102000  0.381400  1.0  0.0775
  H  H28  1  0.212500  0.219200  0.445900  1.0  0.1167
  H  H29  1  0.736600  0.230800  0.308900  1.0  0.1216
  H  H30  1  0.901800  0.118000  0.246300  1.0  0.0783
  H  H31  1  0.928400  0.323400  0.470700  1.0  0.0987
  H  H32  1  0.643600  0.355800  0.371800  1.0  0.101
  H  H33  1  0.802500  0.429200  0.537900  1.0  0.1137
  H  H34  1  0.367000  0.463600  0.395400  1.0  0.1121
  H  H35  1  0.368700  0.762600  0.416200  1.0  0.1214
  H  H36  1  0.612100  0.822000  0.387300  1.0  0.1224
  H  H37  1  0.825200  0.987000  0.439300  1.0  0.1007
  H  H38  1  0.146300  0.877400  0.483400  1.0  0.1055
  H  H39  1  0.252000  0.898000  0.118600  1.0  0.0776
  H  H40  1  0.993300  0.780800  0.054100  1.0  0.1174
  H  H41  1  0.505800  0.769200  0.191100  1.0  0.1216
  H  H42  1  0.783800  0.882000  0.253700  1.0  0.0778
  H  H43  1  0.605000  0.676600  0.029300  1.0  0.0994
  H  H44  1  0.287800  0.644200  0.128200  1.0  0.1016
  H  H45  1  0.373300  0.570800  0.962100  1.0  0.1128
  H  H46  1  0.903400  0.536400  0.104600  1.0  0.1118
  H  H47  1  0.606100  0.237400  0.083800  1.0  0.1214
  H  H48  1  0.790100  0.178000  0.112700  1.0  0.1222
  H  H49  1  0.838200  0.013000  0.060700  1.0  0.1005
  H  H50  1  0.268900  0.122600  0.016600  1.0  0.1054
  C  C51  1  0.770240  0.870280  0.633570  1.0  0.188
  C  C52  1  0.855430  0.800860  0.594700  1.0  -0.2189
  C  C53  1  0.041840  0.759480  0.614300  1.0  0.1302
  C  C54  1  0.134980  0.793360  0.675600  1.0  -0.1977
  C  C55  1  0.036720  0.861640  0.712500  1.0  0.1751
  C  C56  1  0.133450  0.687500  0.571000  1.0  -0.1122
  C  C57  1  0.298760  0.635720  0.586100  1.0  -0.1394
  C  C58  1  0.397180  0.565960  0.541100  1.0  0.0437
  C  C59  1  0.319870  0.542340  0.477600  1.0  -0.1287
  C  C60  1  0.578590  0.521980  0.562200  1.0  -0.1254
  C  C61  1  0.671340  0.135280  0.654900  1.0  0.7218
  C  C62  1  0.542610  0.169220  0.599200  1.0  -0.3244
  C  C63  1  0.306600  0.008000  0.536300  1.0  -0.1278
  C  C64  1  0.517950  0.082500  0.547080  1.0  0.0667
  C  C65  1  0.710180  0.072960  0.510000  1.0  -0.1295
  C  C66  1  0.899960  0.129720  0.866430  1.0  0.1873
  C  C67  1  0.054570  0.199140  0.905300  1.0  -0.2169
  C  C68  1  0.282360  0.240520  0.885700  1.0  0.1298
  C  C69  1  0.341620  0.206640  0.824400  1.0  -0.1983
  C  C70  1  0.175080  0.138360  0.787500  1.0  0.175
  C  C71  1  0.445950  0.312500  0.929000  1.0  -0.1107
  C  C72  1  0.663040  0.364280  0.913900  1.0  -0.1427
  C  C73  1  0.831220  0.434040  0.958900  1.0  0.0421
  C  C74  1  0.777530  0.457660  0.022400  1.0  -0.1283
  C  C75  1  0.056610  0.478020  0.937800  1.0  -0.1251
  C  C76  1  0.536060  0.864720  0.845100  1.0  0.721
  C  C77  1  0.373390  0.830780  0.900800  1.0  -0.3207
  C  C78  1  0.298600  0.992000  0.963700  1.0  -0.1276
  C  C79  1  0.435450  0.917500  0.952920  1.0  0.067
  C  C80  1  0.637220  0.927040  0.990000  1.0  -0.1301
  C  C81  1  0.229760  0.129720  0.366430  1.0  0.187
  C  C82  1  0.144570  0.199140  0.405300  1.0  -0.2173
  C  C83  1  0.958160  0.240520  0.385700  1.0  0.1304
  C  C84  1  0.865020  0.206640  0.324400  1.0  -0.1988
  C  C85  1  0.963280  0.138360  0.287500  1.0  0.1746
  C  C86  1  0.866550  0.312500  0.429000  1.0  -0.11
  C  C87  1  0.701240  0.364280  0.413900  1.0  -0.1434
  C  C88  1  0.602820  0.434040  0.458900  1.0  0.0422
  C  C89  1  0.680130  0.457660  0.522400  1.0  -0.129
  C  C90  1  0.421410  0.478020  0.437800  1.0  -0.1244
  C  C91  1  0.328660  0.864720  0.345100  1.0  0.7225
  C  C92  1  0.457390  0.830780  0.400800  1.0  -0.3197
  C  C93  1  0.693400  0.992000  0.463700  1.0  -0.1299
  C  C94  1  0.482050  0.917500  0.452920  1.0  0.0672
  C  C95  1  0.289820  0.927040  0.490000  1.0  -0.1248
  C  C96  1  0.100040  0.870280  0.133570  1.0  0.1884
  C  C97  1  0.945430  0.800860  0.094700  1.0  -0.2182
  C  C98  1  0.717640  0.759480  0.114300  1.0  0.1308
  C  C99  1  0.658380  0.793360  0.175600  1.0  -0.1985
  C  C100  1  0.824920  0.861640  0.212500  1.0  0.1751
  C  C101  1  0.554050  0.687500  0.071000  1.0  -0.1117
  C  C102  1  0.336960  0.635720  0.086100  1.0  -0.1404
  C  C103  1  0.168780  0.565960  0.041100  1.0  0.0438
  C  C104  1  0.222470  0.542340  0.977600  1.0  -0.1296
  C  C105  1  0.943390  0.521980  0.062200  1.0  -0.1251
  C  C106  1  0.463940  0.135280  0.154900  1.0  0.7221
  C  C107  1  0.626610  0.169220  0.099200  1.0  -0.3223
  C  C108  1  0.701400  0.008000  0.036300  1.0  -0.1301
  C  C109  1  0.564550  0.082500  0.047080  1.0  0.0668
  C  C110  1  0.362780  0.072960  0.010000  1.0  -0.124
  N  N111  1  0.856810  0.900820  0.692640  1.0  -0.3393
  N  N112  1  0.955990  0.099180  0.807360  1.0  -0.339
  N  N113  1  0.143190  0.099180  0.307360  1.0  -0.3381
  N  N114  1  0.044010  0.900820  0.192640  1.0  -0.3383
  O  O115  1  0.546550  0.068300  0.691410  1.0  -0.5979
  O  O116  1  0.886410  0.165820  0.660500  1.0  -0.5883
  O  O117  1  0.478250  0.931700  0.808590  1.0  -0.5969
  O  O118  1  0.720590  0.834180  0.839500  1.0  -0.5872
  O  O119  1  0.453450  0.931700  0.308590  1.0  -0.5964
  O  O120  1  0.113590  0.834180  0.339500  1.0  -0.5871
  O  O121  1  0.521750  0.068300  0.191410  1.0  -0.5974
  O  O122  1  0.279410  0.165820  0.160500  1.0  -0.5879
