# generated using pymatgen
data_KSmHC9NO8
_symmetry_space_group_name_H-M   'P 1'
_cell_length_a   6.75900000
_cell_length_b   13.97800000
_cell_length_c   14.26510000
_cell_angle_alpha   90.00000000
_cell_angle_beta   92.49630000
_cell_angle_gamma   90.00000000
_symmetry_Int_Tables_number   1
_chemical_formula_structural   KSmHC9NO8
_chemical_formula_sum   'K4 Sm4 H4 C36 N4 O32'
_cell_volume   1346.44921568
_cell_formula_units_Z   4
loop_
 _symmetry_equiv_pos_site_id
 _symmetry_equiv_pos_as_xyz
  1  'x, y, z'
loop_
 _atom_site_type_symbol
 _atom_site_label
 _atom_site_symmetry_multiplicity
 _atom_site_fract_x
 _atom_site_fract_y
 _atom_site_fract_z
 _atom_site_occupancy
 _atom_site_charge
  K  K1  1  0.706340  0.309450  0.258240  1.0  0.9588
  K  K2  1  0.793660  0.809450  0.241760  1.0  0.9628
  K  K3  1  0.293660  0.690550  0.741760  1.0  0.9617
  K  K4  1  0.206340  0.190550  0.758240  1.0  0.9591
  Sm  Sm5  1  0.760800  0.255910  0.934600  1.0  2.2466
  Sm  Sm6  1  0.739200  0.755910  0.565400  1.0  2.2463
  Sm  Sm7  1  0.239200  0.744090  0.065400  1.0  2.2461
  Sm  Sm8  1  0.260800  0.244090  0.434600  1.0  2.2458
  H  H9  1  0.754000  0.697100  0.871200  1.0  0.1025
  H  H10  1  0.746000  0.197100  0.628800  1.0  0.1025
  H  H11  1  0.246000  0.302900  0.128800  1.0  0.1037
  H  H12  1  0.254000  0.802900  0.371200  1.0  0.104
  C  C13  1  0.743200  0.441100  0.076000  1.0  0.6575
  C  C14  1  0.752200  0.494500  0.983200  1.0  0.1166
  C  C15  1  0.748500  0.593200  0.971600  1.0  -0.1391
  C  C16  1  0.757800  0.629800  0.880900  1.0  -0.0277
  C  C17  1  0.772600  0.568800  0.804900  1.0  -0.095
  C  C18  1  0.783500  0.469800  0.823000  1.0  0.148
  C  C19  1  0.821500  0.394900  0.749300  1.0  0.6437
  C  C20  1  0.735600  0.664300  0.052700  1.0  0.8222
  C  C21  1  0.778400  0.610100  0.707800  1.0  0.75
  C  C22  1  0.756800  0.941100  0.424000  1.0  0.6573
  C  C23  1  0.747800  0.994500  0.516800  1.0  0.116
  C  C24  1  0.751500  0.093200  0.528400  1.0  -0.1387
  C  C25  1  0.742200  0.129800  0.619100  1.0  -0.028
  C  C26  1  0.727400  0.068800  0.695100  1.0  -0.0937
  C  C27  1  0.716500  0.969800  0.677000  1.0  0.1487
  C  C28  1  0.678500  0.894900  0.750700  1.0  0.6434
  C  C29  1  0.764400  0.164300  0.447300  1.0  0.8221
  C  C30  1  0.721600  0.110100  0.792200  1.0  0.7518
  C  C31  1  0.256800  0.558900  0.924000  1.0  0.6577
  C  C32  1  0.247800  0.505500  0.016800  1.0  0.1157
  C  C33  1  0.251500  0.406800  0.028400  1.0  -0.1395
  C  C34  1  0.242200  0.370200  0.119100  1.0  -0.0278
  C  C35  1  0.227400  0.431200  0.195100  1.0  -0.0944
  C  C36  1  0.216500  0.530200  0.177000  1.0  0.1481
  C  C37  1  0.178500  0.605100  0.250700  1.0  0.6428
  C  C38  1  0.264400  0.335700  0.947300  1.0  0.8212
  C  C39  1  0.221600  0.389900  0.292200  1.0  0.7512
  C  C40  1  0.243200  0.058900  0.576000  1.0  0.6571
  C  C41  1  0.252200  0.005500  0.483200  1.0  0.1163
  C  C42  1  0.248500  0.906800  0.471600  1.0  -0.1396
  C  C43  1  0.257800  0.870200  0.380900  1.0  -0.0275
  C  C44  1  0.272600  0.931200  0.304900  1.0  -0.0946
  C  C45  1  0.283500  0.030200  0.323000  1.0  0.1477
  C  C46  1  0.321500  0.105100  0.249300  1.0  0.6439
  C  C47  1  0.235600  0.835700  0.552700  1.0  0.8232
  C  C48  1  0.278400  0.889900  0.207800  1.0  0.7491
  N  N49  1  0.772400  0.435200  0.910100  1.0  -0.432
  N  N50  1  0.727600  0.935200  0.589900  1.0  -0.432
  N  N51  1  0.227600  0.564800  0.089900  1.0  -0.4334
  N  N52  1  0.272400  0.064800  0.410100  1.0  -0.4335
  O  O53  1  0.747900  0.351100  0.073100  1.0  -0.8601
  O  O54  1  0.732600  0.488800  0.148900  1.0  -0.5593
  O  O55  1  0.570300  0.683900  0.083000  1.0  -0.7484
  O  O56  1  0.894100  0.700700  0.082700  1.0  -0.7827
  O  O57  1  0.930000  0.647200  0.680300  1.0  -0.7169
  O  O58  1  0.617000  0.613800  0.658700  1.0  -0.7777
  O  O59  1  0.873700  0.423100  0.671200  1.0  -0.5729
  O  O60  1  0.799700  0.308900  0.773700  1.0  -0.7321
  O  O61  1  0.752100  0.851100  0.426900  1.0  -0.8604
  O  O62  1  0.767400  0.988800  0.351100  1.0  -0.5606
  O  O63  1  0.929700  0.183900  0.417000  1.0  -0.7477
  O  O64  1  0.605900  0.200700  0.417300  1.0  -0.7813
  O  O65  1  0.570000  0.147200  0.819700  1.0  -0.7175
  O  O66  1  0.883000  0.113800  0.841300  1.0  -0.7775
  O  O67  1  0.626300  0.923100  0.828800  1.0  -0.575
  O  O68  1  0.700300  0.808900  0.726300  1.0  -0.7326
  O  O69  1  0.252100  0.648900  0.926900  1.0  -0.8606
  O  O70  1  0.267400  0.511200  0.851100  1.0  -0.5604
  O  O71  1  0.429700  0.316100  0.917000  1.0  -0.7496
  O  O72  1  0.105900  0.299300  0.917300  1.0  -0.7826
  O  O73  1  0.070000  0.352800  0.319700  1.0  -0.7196
  O  O74  1  0.383000  0.386200  0.341300  1.0  -0.7782
  O  O75  1  0.126300  0.576900  0.328800  1.0  -0.575
  O  O76  1  0.200300  0.691100  0.226300  1.0  -0.7333
  O  O77  1  0.247900  0.148900  0.573100  1.0  -0.8609
  O  O78  1  0.232600  0.011200  0.648900  1.0  -0.5591
  O  O79  1  0.070300  0.816100  0.583000  1.0  -0.7492
  O  O80  1  0.394100  0.799300  0.582700  1.0  -0.7819
  O  O81  1  0.430000  0.852800  0.180300  1.0  -0.7185
  O  O82  1  0.117000  0.886200  0.158700  1.0  -0.7781
  O  O83  1  0.373700  0.076900  0.171200  1.0  -0.5728
  O  O84  1  0.299700  0.191100  0.273700  1.0  -0.732
