# generated using pymatgen
data_Co2H12C17NO8
_symmetry_space_group_name_H-M   'P 1'
_cell_length_a   9.12910000
_cell_length_b   9.58840000
_cell_length_c   14.75540000
_cell_angle_alpha   100.38800000
_cell_angle_beta   99.27000000
_cell_angle_gamma   114.46700000
_symmetry_Int_Tables_number   1
_chemical_formula_structural   Co2H12C17NO8
_chemical_formula_sum   'Co4 H24 C34 N2 O16'
_cell_volume   1115.52074766
_cell_formula_units_Z   2
loop_
 _symmetry_equiv_pos_site_id
 _symmetry_equiv_pos_as_xyz
  1  'x, y, z'
loop_
 _atom_site_type_symbol
 _atom_site_label
 _atom_site_symmetry_multiplicity
 _atom_site_fract_x
 _atom_site_fract_y
 _atom_site_fract_z
 _atom_site_occupancy
 _atom_site_charge
  Co  Co1  1  0.355130  0.032260  0.170610  1.0  0.9452
  Co  Co2  1  0.644870  0.967740  0.829390  1.0  0.947
  Co  Co3  1  0.000000  0.000000  0.000000  1.0  1.1806
  Co  Co4  1  0.500000  0.500000  0.000000  1.0  0.7879
  H  H5  1  0.123600  0.490500  0.156200  1.0  0.1184
  H  H6  1  0.856600  0.387600  0.085900  1.0  0.1077
  H  H7  1  0.873200  0.386000  0.239900  1.0  0.0993
  H  H8  1  0.919100  0.110000  0.218200  1.0  0.0892
  H  H9  1  0.977000  0.247500  0.312900  1.0  0.0829
  H  H10  1  0.198300  0.411100  0.273800  1.0  0.1041
  H  H11  1  0.915600  0.657500  0.292300  1.0  0.117
  H  H12  1  0.025100  0.811600  0.195700  1.0  0.0864
  H  H13  1  0.830100  0.573600  0.409200  1.0  0.1115
  H  H14  1  0.475500  0.951500  0.347700  1.0  0.0803
  H  H15  1  0.378100  0.800900  0.448100  1.0  0.1157
  H  H16  1  0.275000  0.590200  0.497900  1.0  0.1136
  H  H17  1  0.876400  0.509500  0.843800  1.0  0.1179
  H  H18  1  0.143400  0.612400  0.914100  1.0  0.1074
  H  H19  1  0.126800  0.614000  0.760100  1.0  0.0989
  H  H20  1  0.080900  0.890000  0.781800  1.0  0.091
  H  H21  1  0.023000  0.752500  0.687100  1.0  0.0838
  H  H22  1  0.801700  0.588900  0.726200  1.0  0.1046
  H  H23  1  0.084400  0.342500  0.707700  1.0  0.1169
  H  H24  1  0.974900  0.188400  0.804300  1.0  0.0858
  H  H25  1  0.169900  0.426400  0.590800  1.0  0.1108
  H  H26  1  0.524500  0.048500  0.652300  1.0  0.0797
  H  H27  1  0.621900  0.199100  0.551900  1.0  0.1158
  H  H28  1  0.725000  0.409800  0.502100  1.0  0.1126
  C  C29  1  0.217100  0.214500  0.207930  1.0  0.6911
  C  C30  1  0.166500  0.352900  0.053060  1.0  0.7134
  C  C31  1  0.079900  0.375000  0.131420  1.0  -0.1522
  C  C32  1  0.795300  0.153600  0.023040  1.0  0.7052
  C  C33  1  0.886400  0.306900  0.103180  1.0  -0.1481
  C  C34  1  0.660800  0.177300  0.188020  1.0  0.6484
  C  C35  1  0.843600  0.280900  0.198470  1.0  -0.1357
  C  C36  1  0.961700  0.223900  0.244270  1.0  -0.1509
  C  C37  1  0.127500  0.316700  0.219830  1.0  -0.1328
  C  C38  1  0.065100  0.601700  0.442890  1.0  0.0427
  C  C39  1  0.132900  0.706300  0.381030  1.0  0.0873
  C  C40  1  0.030800  0.715500  0.304800  1.0  -0.1937
  C  C41  1  0.097400  0.809400  0.246960  1.0  0.1746
  C  C42  1  0.899700  0.544400  0.445900  1.0  -0.1067
  C  C43  1  0.360900  0.890900  0.336100  1.0  0.1772
  C  C44  1  0.303300  0.799800  0.396800  1.0  -0.202
  C  C45  1  0.163700  0.554400  0.498400  1.0  -0.1063
  C  C46  1  0.782900  0.785500  0.792070  1.0  0.6897
  C  C47  1  0.833500  0.647100  0.946940  1.0  0.7118
  C  C48  1  0.920100  0.625000  0.868580  1.0  -0.1511
  C  C49  1  0.204700  0.846400  0.976960  1.0  0.7018
  C  C50  1  0.113600  0.693100  0.896820  1.0  -0.1459
  C  C51  1  0.339200  0.822700  0.811980  1.0  0.6491
  C  C52  1  0.156400  0.719100  0.801530  1.0  -0.1357
  C  C53  1  0.038300  0.776100  0.755730  1.0  -0.1482
  C  C54  1  0.872500  0.683300  0.780170  1.0  -0.1347
  C  C55  1  0.934900  0.398300  0.557110  1.0  0.0414
  C  C56  1  0.867100  0.293700  0.618970  1.0  0.0872
  C  C57  1  0.969200  0.284500  0.695200  1.0  -0.1917
  C  C58  1  0.902600  0.190600  0.753040  1.0  0.1746
  C  C59  1  0.100300  0.455600  0.554100  1.0  -0.1073
  C  C60  1  0.639100  0.109100  0.663900  1.0  0.1775
  C  C61  1  0.696700  0.200200  0.603200  1.0  -0.2019
  C  C62  1  0.836300  0.445600  0.501600  1.0  -0.1065
  N  N63  1  0.261700  0.897500  0.261470  1.0  -0.3097
  N  N64  1  0.738300  0.102500  0.738530  1.0  -0.3099
  O  O65  1  0.347400  0.248200  0.268160  1.0  -0.5945
  O  O66  1  0.157000  0.089300  0.138450  1.0  -0.6673
  O  O67  1  0.306900  0.465200  0.064970  1.0  -0.621
  O  O68  1  0.099500  0.228970  0.984800  1.0  -0.587
  O  O69  1  0.712700  0.154000  0.946300  1.0  -0.5584
  O  O70  1  0.804130  0.030530  0.037630  1.0  -0.5919
  O  O71  1  0.612500  0.065000  0.224860  1.0  -0.5705
  O  O72  1  0.555100  0.208100  0.141660  1.0  -0.5665
  O  O73  1  0.652600  0.751800  0.731840  1.0  -0.5927
  O  O74  1  0.843000  0.910700  0.861550  1.0  -0.6694
  O  O75  1  0.693100  0.534800  0.935030  1.0  -0.6219
  O  O76  1  0.900500  0.771030  0.015200  1.0  -0.5877
  O  O77  1  0.287300  0.846000  0.053700  1.0  -0.5572
  O  O78  1  0.195870  0.969470  0.962370  1.0  -0.5927
  O  O79  1  0.387500  0.935000  0.775140  1.0  -0.5688
  O  O80  1  0.444900  0.791900  0.858340  1.0  -0.5666
