# generated using pymatgen
data_Co2H11C15NO8
_symmetry_space_group_name_H-M   'P 1'
_cell_length_a   9.14610000
_cell_length_b   9.65870000
_cell_length_c   12.76170000
_cell_angle_alpha   94.66400000
_cell_angle_beta   103.83700000
_cell_angle_gamma   114.83000000
_symmetry_Int_Tables_number   1
_chemical_formula_structural   Co2H11C15NO8
_chemical_formula_sum   'Co4 H22 C30 N2 O16'
_cell_volume   972.09619640
_cell_formula_units_Z   2
loop_
 _symmetry_equiv_pos_site_id
 _symmetry_equiv_pos_as_xyz
  1  'x, y, z'
loop_
 _atom_site_type_symbol
 _atom_site_label
 _atom_site_symmetry_multiplicity
 _atom_site_fract_x
 _atom_site_fract_y
 _atom_site_fract_z
 _atom_site_occupancy
 _atom_site_charge
  Co  Co1  1  0.634430  0.487810  0.301230  1.0  0.9903
  Co  Co2  1  0.365570  0.512190  0.698770  1.0  0.9916
  Co  Co3  1  0.000000  0.500000  0.500000  1.0  1.1886
  Co  Co4  1  0.500000  0.000000  0.500000  1.0  0.7917
  H  H5  1  0.109600  0.145100  0.225500  1.0  0.0921
  H  H6  1  0.136900  0.125000  0.402600  1.0  0.114
  H  H7  1  0.783300  0.123900  0.185100  1.0  0.108
  H  H8  1  0.002500  0.291400  0.140300  1.0  0.0855
  H  H9  1  0.067300  0.417300  0.249300  1.0  0.0958
  H  H10  1  0.839300  0.970700  0.944600  1.0  0.1079
  H  H11  1  0.865100  0.030100  0.320000  1.0  0.1204
  H  H12  1  0.079900  0.877900  0.168800  1.0  0.1261
  H  H13  1  0.511800  0.596900  0.098700  1.0  0.0805
  H  H14  1  0.610000  0.765100  0.987600  1.0  0.1278
  H  H15  1  0.969800  0.706800  0.275700  1.0  0.0976
  H  H16  1  0.890400  0.854900  0.774500  1.0  0.0909
  H  H17  1  0.863100  0.875000  0.597400  1.0  0.1147
  H  H18  1  0.216700  0.876100  0.814900  1.0  0.1072
  H  H19  1  0.997500  0.708600  0.859700  1.0  0.0849
  H  H20  1  0.932700  0.582700  0.750700  1.0  0.0947
  H  H21  1  0.160700  0.029300  0.055400  1.0  0.1081
  H  H22  1  0.134900  0.969900  0.680000  1.0  0.1202
  H  H23  1  0.920100  0.122100  0.831200  1.0  0.1263
  H  H24  1  0.488200  0.403100  0.901300  1.0  0.0824
  H  H25  1  0.390000  0.234900  0.012400  1.0  0.1284
  H  H26  1  0.030200  0.293200  0.724300  1.0  0.0992
  C  C27  1  0.768000  0.310100  0.260720  1.0  0.6561
  C  C28  1  0.327200  0.345300  0.284500  1.0  0.6603
  C  C29  1  0.143400  0.244900  0.273240  1.0  -0.1383
  C  C30  1  0.828600  0.152800  0.439050  1.0  0.7082
  C  C31  1  0.203000  0.350100  0.475670  1.0  0.7051
  C  C32  1  0.106200  0.207200  0.382470  1.0  -0.1444
  C  C33  1  0.857900  0.211300  0.247510  1.0  -0.1499
  C  C34  1  0.022500  0.307000  0.219500  1.0  -0.1456
  C  C35  1  0.920000  0.957500  0.997000  1.0  -0.1356
  C  C36  1  0.858000  0.844300  0.065500  1.0  0.1212
  C  C37  1  0.910600  0.141900  0.349120  1.0  -0.1469
  C  C38  1  0.963300  0.822500  0.153100  1.0  -0.1913
  C  C39  1  0.627900  0.654600  0.113500  1.0  0.1745
  C  C40  1  0.686300  0.756100  0.046100  1.0  -0.233
  C  C41  1  0.896300  0.719000  0.217100  1.0  0.1822
  C  C42  1  0.232000  0.689900  0.739280  1.0  0.6582
  C  C43  1  0.672800  0.654700  0.715500  1.0  0.6598
  C  C44  1  0.856600  0.755100  0.726760  1.0  -0.1391
  C  C45  1  0.171400  0.847200  0.560950  1.0  0.7093
  C  C46  1  0.797000  0.649900  0.524330  1.0  0.7084
  C  C47  1  0.893800  0.792800  0.617530  1.0  -0.1472
  C  C48  1  0.142100  0.788700  0.752490  1.0  -0.1472
  C  C49  1  0.977500  0.693000  0.780500  1.0  -0.1492
  C  C50  1  0.080000  0.042500  0.003000  1.0  -0.1334
  C  C51  1  0.142000  0.155700  0.934500  1.0  0.1204
  C  C52  1  0.089400  0.858100  0.650880  1.0  -0.1489
  C  C53  1  0.036700  0.177500  0.846900  1.0  -0.192
  C  C54  1  0.372100  0.345400  0.886500  1.0  0.1707
  C  C55  1  0.313700  0.243900  0.953900  1.0  -0.233
  C  C56  1  0.103700  0.281000  0.782900  1.0  0.1833
  N  N57  1  0.728800  0.634900  0.198360  1.0  -0.3198
  N  N58  1  0.271200  0.365100  0.801640  1.0  -0.3217
  O  O59  1  0.288900  0.339700  0.564980  1.0  -0.5547
  O  O60  1  0.436700  0.315500  0.343980  1.0  -0.557
  O  O61  1  0.372000  0.453000  0.234200  1.0  -0.5666
  O  O62  1  0.688100  0.039800  0.425750  1.0  -0.6126
  O  O63  1  0.898200  0.269940  0.516720  1.0  -0.5855
  O  O64  1  0.193810  0.474300  0.458220  1.0  -0.5894
  O  O65  1  0.836200  0.429100  0.339000  1.0  -0.6595
  O  O66  1  0.630000  0.279600  0.194090  1.0  -0.6098
  O  O67  1  0.711100  0.660300  0.435020  1.0  -0.5564
  O  O68  1  0.563300  0.684500  0.656020  1.0  -0.558
  O  O69  1  0.628000  0.547000  0.765800  1.0  -0.5674
  O  O70  1  0.311900  0.960200  0.574250  1.0  -0.6155
  O  O71  1  0.101800  0.730060  0.483280  1.0  -0.5855
  O  O72  1  0.806190  0.525700  0.541780  1.0  -0.588
  O  O73  1  0.163800  0.570900  0.661000  1.0  -0.6593
  O  O74  1  0.370000  0.720400  0.805910  1.0  -0.611
