# generated using pymatgen
data_Co2H11C15(NO4)2
_symmetry_space_group_name_H-M   'P 1'
_cell_length_a   9.10040000
_cell_length_b   9.39720000
_cell_length_c   14.92870000
_cell_angle_alpha   82.08800000
_cell_angle_beta   85.45800000
_cell_angle_gamma   65.33500000
_symmetry_Int_Tables_number   1
_chemical_formula_structural   Co2H11C15(NO4)2
_chemical_formula_sum   'Co4 H22 C30 N4 O16'
_cell_volume   1148.81719245
_cell_formula_units_Z   2
loop_
 _symmetry_equiv_pos_site_id
 _symmetry_equiv_pos_as_xyz
  1  'x, y, z'
loop_
 _atom_site_type_symbol
 _atom_site_label
 _atom_site_symmetry_multiplicity
 _atom_site_fract_x
 _atom_site_fract_y
 _atom_site_fract_z
 _atom_site_occupancy
 _atom_site_charge
  Co  Co1  1  0.765920  0.025570  0.161990  1.0  0.9445
  Co  Co2  1  0.234080  0.974430  0.838010  1.0  0.9482
  Co  Co3  1  0.500000  0.000000  0.000000  1.0  1.1117
  Co  Co4  1  0.000000  0.500000  0.000000  1.0  0.8329
  H  H5  1  0.250600  0.681100  0.231700  1.0  0.1006
  H  H6  1  0.320000  0.843800  0.298600  1.0  0.1052
  H  H7  1  0.309400  0.956000  0.208200  1.0  0.0939
  H  H8  1  0.563100  0.665100  0.262800  1.0  0.1097
  H  H9  1  0.547700  0.546200  0.153600  1.0  0.1175
  H  H10  1  0.314700  0.629400  0.087200  1.0  0.1127
  H  H11  1  0.386000  0.257800  0.188200  1.0  0.1125
  H  H12  1  0.274100  0.425900  0.309300  1.0  0.1331
  H  H13  1  0.750000  0.211300  0.330100  1.0  0.1046
  H  H14  1  0.738400  0.379100  0.424100  1.0  0.1153
  H  H15  1  0.270400  0.499300  0.449800  1.0  0.1161
  H  H16  1  0.749400  0.318900  0.768300  1.0  0.1008
  H  H17  1  0.680000  0.156200  0.701400  1.0  0.106
  H  H18  1  0.690600  0.044000  0.791800  1.0  0.0939
  H  H19  1  0.436900  0.334900  0.737200  1.0  0.1109
  H  H20  1  0.452300  0.453800  0.846400  1.0  0.1175
  H  H21  1  0.685300  0.370600  0.912800  1.0  0.1115
  H  H22  1  0.614000  0.742200  0.811800  1.0  0.1125
  H  H23  1  0.725900  0.574100  0.690700  1.0  0.1309
  H  H24  1  0.250000  0.788700  0.669900  1.0  0.1046
  H  H25  1  0.261600  0.620900  0.575900  1.0  0.1169
  H  H26  1  0.729600  0.500700  0.550200  1.0  0.1175
  C  C27  1  0.614800  0.844300  0.196500  1.0  0.6829
  C  C28  1  0.641500  0.657000  0.054340  1.0  0.7127
  C  C29  1  0.284500  0.848500  0.024490  1.0  0.7042
  C  C30  1  0.065800  0.878700  0.179750  1.0  0.6572
  C  C31  1  0.242900  0.775300  0.191230  1.0  -0.127
  C  C32  1  0.339100  0.847300  0.233660  1.0  -0.1609
  C  C33  1  0.518500  0.744700  0.210890  1.0  -0.1298
  C  C34  1  0.515500  0.656900  0.128980  1.0  -0.137
  C  C35  1  0.335500  0.717700  0.101950  1.0  -0.1538
  C  C36  1  0.445300  0.269300  0.232440  1.0  0.0202
  C  C37  1  0.382700  0.362800  0.298950  1.0  -0.1671
  C  C38  1  0.645700  0.243200  0.309870  1.0  0.1232
  C  C39  1  0.505500  0.425100  0.425700  1.0  0.1187
  C  C40  1  0.640400  0.427500  0.454700  1.0  -0.1224
  C  C41  1  0.365100  0.498200  0.469800  1.0  -0.1219
  C  C42  1  0.385200  0.155700  0.803500  1.0  0.682
  C  C43  1  0.358500  0.343000  0.945660  1.0  0.7097
  C  C44  1  0.715500  0.151500  0.975510  1.0  0.7038
  C  C45  1  0.934200  0.121300  0.820250  1.0  0.6563
  C  C46  1  0.757100  0.224700  0.808770  1.0  -0.1254
  C  C47  1  0.660900  0.152700  0.766340  1.0  -0.1592
  C  C48  1  0.481500  0.255300  0.789110  1.0  -0.1317
  C  C49  1  0.484500  0.343100  0.871020  1.0  -0.1372
  C  C50  1  0.664500  0.282300  0.898050  1.0  -0.1523
  C  C51  1  0.554700  0.730700  0.767560  1.0  0.0206
  C  C52  1  0.617300  0.637200  0.701050  1.0  -0.1662
  C  C53  1  0.354300  0.756800  0.690130  1.0  0.123
  C  C54  1  0.494500  0.574900  0.574300  1.0  0.1182
  C  C55  1  0.359600  0.572500  0.545300  1.0  -0.125
  C  C56  1  0.634900  0.501800  0.530200  1.0  -0.1202
  N  N57  1  0.610800  0.193300  0.240160  1.0  -0.3355
  N  N58  1  0.511700  0.346500  0.348890  1.0  0.0261
  N  N59  1  0.389200  0.806700  0.759840  1.0  -0.3362
  N  N60  1  0.488300  0.653500  0.651110  1.0  0.0278
  O  O61  1  0.583380  0.954540  0.131010  1.0  -0.6865
  O  O62  1  0.721480  0.825700  0.249740  1.0  -0.5712
  O  O63  1  0.779310  0.548000  0.067800  1.0  -0.6158
  O  O64  1  0.607030  0.760760  0.988050  1.0  -0.573
  O  O65  1  0.241200  0.824100  0.952380  1.0  -0.5576
  O  O66  1  0.285540  0.979340  0.036520  1.0  -0.5843
  O  O67  1  0.986500  0.840200  0.129340  1.0  -0.5689
  O  O68  1  0.993600  0.999200  0.219630  1.0  -0.5746
  O  O69  1  0.416620  0.045460  0.868990  1.0  -0.6844
  O  O70  1  0.278520  0.174300  0.750260  1.0  -0.5699
  O  O71  1  0.220690  0.452000  0.932200  1.0  -0.6147
  O  O72  1  0.392970  0.239240  0.011950  1.0  -0.5732
  O  O73  1  0.758800  0.175900  0.047620  1.0  -0.5578
  O  O74  1  0.714460  0.020660  0.963480  1.0  -0.583
  O  O75  1  0.013500  0.159800  0.870660  1.0  -0.5702
  O  O76  1  0.006400  0.000800  0.780370  1.0  -0.5743
