# generated using pymatgen
data_CoH5C7NO4
_symmetry_space_group_name_H-M   'P 1'
_cell_length_a   9.08380000
_cell_length_b   9.61570000
_cell_length_c   12.42520000
_cell_angle_alpha   93.48800000
_cell_angle_beta   104.35700000
_cell_angle_gamma   113.99300000
_symmetry_Int_Tables_number   1
_chemical_formula_structural   CoH5C7NO4
_chemical_formula_sum   'Co4 H20 C28 N4 O16'
_cell_volume   944.40281925
_cell_formula_units_Z   4
loop_
 _symmetry_equiv_pos_site_id
 _symmetry_equiv_pos_as_xyz
  1  'x, y, z'
loop_
 _atom_site_type_symbol
 _atom_site_label
 _atom_site_symmetry_multiplicity
 _atom_site_fract_x
 _atom_site_fract_y
 _atom_site_fract_z
 _atom_site_occupancy
 _atom_site_charge
  Co  Co1  1  0.866860  0.004990  0.204100  1.0  0.9469
  Co  Co2  1  0.133140  0.995010  0.795900  1.0  0.9487
  Co  Co3  1  0.500000  0.000000  0.000000  1.0  1.1944
  Co  Co4  1  0.000000  0.500000  0.000000  1.0  0.7955
  H  H5  1  0.719400  0.370100  0.321100  1.0  0.1118
  H  H6  1  0.631100  0.465500  0.181500  1.0  0.1222
  H  H7  1  0.358900  0.372800  0.098200  1.0  0.1192
  H  H8  1  0.385300  0.348600  0.281000  1.0  0.11
  H  H9  1  0.438500  0.079400  0.259400  1.0  0.1008
  H  H10  1  0.502500  0.203600  0.369800  1.0  0.0936
  H  H11  1  0.983100  0.884400  0.413900  1.0  0.0905
  H  H12  1  0.878700  0.721300  0.529200  1.0  0.1385
  H  H13  1  0.410700  0.616900  0.333700  1.0  0.1455
  H  H14  1  0.528300  0.790500  0.225200  1.0  0.1012
  H  H15  1  0.280600  0.629900  0.678900  1.0  0.1118
  H  H16  1  0.368900  0.534500  0.818500  1.0  0.1209
  H  H17  1  0.641100  0.627200  0.901800  1.0  0.1183
  H  H18  1  0.614700  0.651400  0.719000  1.0  0.1114
  H  H19  1  0.561500  0.920600  0.740600  1.0  0.1023
  H  H20  1  0.497500  0.796400  0.630200  1.0  0.094
  H  H21  1  0.016900  0.115600  0.586100  1.0  0.09
  H  H22  1  0.121300  0.278700  0.470800  1.0  0.1387
  H  H23  1  0.589300  0.383100  0.666300  1.0  0.1458
  H  H24  1  0.471700  0.209500  0.774800  1.0  0.1009
  C  C25  1  0.668500  0.346500  0.059700  1.0  0.7159
  C  C26  1  0.295800  0.149500  0.025100  1.0  0.7099
  C  C27  1  0.173900  0.148600  0.220800  1.0  0.6654
  C  C28  1  0.732600  0.184600  0.244200  1.0  0.6508
  C  C29  1  0.644400  0.284200  0.257900  1.0  -0.123
  C  C30  1  0.587500  0.354800  0.152500  1.0  -0.1218
  C  C31  1  0.391500  0.290600  0.119500  1.0  -0.1578
  C  C32  1  0.355000  0.250600  0.232800  1.0  -0.1365
  C  C33  1  0.481300  0.188800  0.288500  1.0  -0.1627
  C  C34  1  0.866600  0.830700  0.397900  1.0  0.1756
  C  C35  1  0.805400  0.732500  0.467000  1.0  -0.2324
  C  C36  1  0.633300  0.649800  0.443500  1.0  0.2494
  C  C37  1  0.527400  0.671200  0.351300  1.0  -0.165
  C  C38  1  0.599100  0.774800  0.286300  1.0  0.1908
  C  C39  1  0.331500  0.653500  0.940300  1.0  0.7129
  C  C40  1  0.704200  0.850500  0.974900  1.0  0.7075
  C  C41  1  0.826100  0.851400  0.779200  1.0  0.6637
  C  C42  1  0.267400  0.815400  0.755800  1.0  0.648
  C  C43  1  0.355600  0.715800  0.742100  1.0  -0.127
  C  C44  1  0.412500  0.645200  0.847500  1.0  -0.1199
  C  C45  1  0.608500  0.709400  0.880500  1.0  -0.1561
  C  C46  1  0.645000  0.749400  0.767200  1.0  -0.136
  C  C47  1  0.518700  0.811200  0.711500  1.0  -0.1588
  C  C48  1  0.133400  0.169300  0.602100  1.0  0.1763
  C  C49  1  0.194600  0.267500  0.533000  1.0  -0.2341
  C  C50  1  0.366700  0.350200  0.556500  1.0  0.2501
  C  C51  1  0.472600  0.328800  0.648700  1.0  -0.1647
  C  C52  1  0.400900  0.225200  0.713700  1.0  0.1913
  N  N53  1  0.576000  0.544900  0.517400  1.0  -0.2217
  N  N54  1  0.768300  0.854700  0.307500  1.0  -0.3323
  N  N55  1  0.424000  0.455100  0.482600  1.0  -0.2246
  N  N56  1  0.231700  0.145300  0.692500  1.0  -0.3317
  O  O57  1  0.602000  0.230300  0.982400  1.0  -0.5906
  O  O58  1  0.805800  0.460600  0.071500  1.0  -0.6058
  O  O59  1  0.306200  0.026400  0.043900  1.0  -0.5837
  O  O60  1  0.210400  0.164100  0.932300  1.0  -0.5934
  O  O61  1  0.060200  0.174500  0.155500  1.0  -0.5578
  O  O62  1  0.131700  0.041800  0.276500  1.0  -0.5696
  O  O63  1  0.662700  0.066200  0.164300  1.0  -0.6741
  O  O64  1  0.870900  0.211900  0.309300  1.0  -0.6024
  O  O65  1  0.398000  0.769700  0.017600  1.0  -0.5902
  O  O66  1  0.194200  0.539400  0.928500  1.0  -0.6072
  O  O67  1  0.693800  0.973600  0.956100  1.0  -0.5841
  O  O68  1  0.789600  0.835900  0.067700  1.0  -0.594
  O  O69  1  0.939800  0.825500  0.844500  1.0  -0.5575
  O  O70  1  0.868300  0.958200  0.723500  1.0  -0.5679
  O  O71  1  0.337300  0.933800  0.835700  1.0  -0.6754
  O  O72  1  0.129100  0.788100  0.690700  1.0  -0.6009
