# generated using pymatgen
data_Zn3H50C54(NO)12
_symmetry_space_group_name_H-M   'P 1'
_cell_length_a   25.80100000
_cell_length_b   16.78440000
_cell_length_c   18.95220000
_cell_angle_alpha   90.00000000
_cell_angle_beta   128.76400000
_cell_angle_gamma   90.00000000
_symmetry_Int_Tables_number   1
_chemical_formula_structural   Zn3H50C54(NO)12
_chemical_formula_sum   'Zn12 H200 C216 N48 O48'
_cell_volume   6399.51527249
_cell_formula_units_Z   4
loop_
 _symmetry_equiv_pos_site_id
 _symmetry_equiv_pos_as_xyz
  1  'x, y, z'
loop_
 _atom_site_type_symbol
 _atom_site_label
 _atom_site_symmetry_multiplicity
 _atom_site_fract_x
 _atom_site_fract_y
 _atom_site_fract_z
 _atom_site_occupancy
 _atom_site_charge
  Zn  Zn1  1  0.268110  0.990280  0.292530  1.0  0.8804
  Zn  Zn2  1  0.768110  0.490280  0.292530  1.0  0.8804
  Zn  Zn3  1  0.731890  0.990280  0.207470  1.0  0.8809
  Zn  Zn4  1  0.231890  0.490280  0.207470  1.0  0.8809
  Zn  Zn5  1  0.731890  0.009720  0.707470  1.0  0.8811
  Zn  Zn6  1  0.231890  0.509720  0.707470  1.0  0.8811
  Zn  Zn7  1  0.268110  0.009720  0.792530  1.0  0.8806
  Zn  Zn8  1  0.768110  0.509720  0.792530  1.0  0.8806
  Zn  Zn9  1  0.000000  0.960970  0.250000  1.0  0.899
  Zn  Zn10  1  0.500000  0.460970  0.250000  1.0  0.899
  Zn  Zn11  1  0.000000  0.039030  0.750000  1.0  0.8988
  Zn  Zn12  1  0.500000  0.539030  0.750000  1.0  0.8988
  H  H13  1  0.956200  0.876900  0.939600  1.0  0.0993
  H  H14  1  0.126800  0.729300  0.253900  1.0  0.0939
  H  H15  1  0.088000  0.985900  0.460200  1.0  0.0979
  H  H16  1  0.233400  0.739500  0.557500  1.0  0.0776
  H  H17  1  0.300600  0.776300  0.588800  1.0  0.0819
  H  H18  1  0.175800  0.849500  0.463500  1.0  0.0784
  H  H19  1  0.228400  0.876300  0.564800  1.0  0.0831
  H  H20  1  0.115800  0.085700  0.299900  1.0  0.1015
  H  H21  1  0.193900  0.895400  0.351800  1.0  0.0918
  H  H22  1  0.180300  0.246100  0.435100  1.0  0.0658
  H  H23  1  0.220200  0.218900  0.536000  1.0  0.0719
  H  H24  1  0.392100  0.966700  0.293900  1.0  0.0937
  H  H25  1  0.341600  0.945600  0.607500  1.0  0.1281
  H  H26  1  0.365700  0.004400  0.513300  1.0  0.1054
  H  H27  1  0.229900  0.144300  0.411100  1.0  0.0923
  H  H28  1  0.270500  0.117300  0.512300  1.0  0.0885
  H  H29  1  0.359900  0.733900  0.267800  1.0  0.1248
  H  H30  1  0.269500  0.801300  0.252300  1.0  0.0894
  H  H31  1  0.192400  0.058200  0.554900  1.0  0.127
  H  H32  1  0.082100  0.827600  0.994500  1.0  0.0925
  H  H33  1  0.133000  0.705600  0.050000  1.0  0.0916
  H  H34  1  0.440400  0.888800  0.199900  1.0  0.0695
  H  H35  1  0.439300  0.795300  0.196400  1.0  0.0657
  H  H36  1  0.493900  0.880300  0.352500  1.0  0.0832
  H  H37  1  0.483700  0.787900  0.341400  1.0  0.0849
  H  H38  1  0.456200  0.376900  0.939600  1.0  0.0993
  H  H39  1  0.626800  0.229300  0.253900  1.0  0.0939
  H  H40  1  0.588000  0.485900  0.460200  1.0  0.0979
  H  H41  1  0.733400  0.239500  0.557500  1.0  0.0776
  H  H42  1  0.800600  0.276300  0.588800  1.0  0.0819
  H  H43  1  0.675800  0.349500  0.463500  1.0  0.0784
  H  H44  1  0.728400  0.376300  0.564800  1.0  0.0831
  H  H45  1  0.615800  0.585700  0.299900  1.0  0.1015
  H  H46  1  0.693900  0.395400  0.351800  1.0  0.0918
  H  H47  1  0.680300  0.746100  0.435100  1.0  0.0658
  H  H48  1  0.720200  0.718900  0.536000  1.0  0.0719
  H  H49  1  0.892100  0.466700  0.293900  1.0  0.0937
  H  H50  1  0.841600  0.445600  0.607500  1.0  0.1281
  H  H51  1  0.865700  0.504400  0.513300  1.0  0.1054
  H  H52  1  0.729900  0.644300  0.411100  1.0  0.0923
  H  H53  1  0.770500  0.617300  0.512300  1.0  0.0885
  H  H54  1  0.859900  0.233900  0.267800  1.0  0.1248
  H  H55  1  0.769500  0.301300  0.252300  1.0  0.0894
  H  H56  1  0.692400  0.558200  0.554900  1.0  0.127
  H  H57  1  0.582100  0.327600  0.994500  1.0  0.0925
  H  H58  1  0.633000  0.205600  0.050000  1.0  0.0916
  H  H59  1  0.940400  0.388800  0.199900  1.0  0.0695
  H  H60  1  0.939300  0.295300  0.196400  1.0  0.0657
  H  H61  1  0.993900  0.380300  0.352500  1.0  0.0832
  H  H62  1  0.983700  0.287900  0.341400  1.0  0.0849
  H  H63  1  0.043800  0.876900  0.560400  1.0  0.0991
  H  H64  1  0.873200  0.729300  0.246100  1.0  0.0927
  H  H65  1  0.912000  0.985900  0.039800  1.0  0.0971
  H  H66  1  0.766600  0.739500  0.942500  1.0  0.0782
  H  H67  1  0.699400  0.776300  0.911200  1.0  0.0771
  H  H68  1  0.824200  0.849500  0.036500  1.0  0.078
  H  H69  1  0.771600  0.876300  0.935200  1.0  0.0826
  H  H70  1  0.884200  0.085700  0.200100  1.0  0.1018
  H  H71  1  0.806100  0.895400  0.148200  1.0  0.0929
  H  H72  1  0.819700  0.246100  0.064900  1.0  0.0671
  H  H73  1  0.779800  0.218900  0.964000  1.0  0.0726
  H  H74  1  0.607900  0.966700  0.206100  1.0  0.0947
  H  H75  1  0.658400  0.945600  0.892500  1.0  0.1277
  H  H76  1  0.634300  0.004400  0.986700  1.0  0.1053
  H  H77  1  0.770100  0.144300  0.088900  1.0  0.0912
  H  H78  1  0.729500  0.117300  0.987700  1.0  0.0889
  H  H79  1  0.640100  0.733900  0.232200  1.0  0.125
  H  H80  1  0.730500  0.801300  0.247700  1.0  0.0884
  H  H81  1  0.807600  0.058200  0.945100  1.0  0.1272
  H  H82  1  0.917900  0.827600  0.505500  1.0  0.0925
  H  H83  1  0.867000  0.705600  0.450000  1.0  0.092
  H  H84  1  0.559600  0.888800  0.300100  1.0  0.0683
  H  H85  1  0.560700  0.795300  0.303600  1.0  0.0661
  H  H86  1  0.506100  0.880300  0.147500  1.0  0.0836
  H  H87  1  0.516300  0.787900  0.158600  1.0  0.0841
  H  H88  1  0.543800  0.376900  0.560400  1.0  0.0991
  H  H89  1  0.373200  0.229300  0.246100  1.0  0.0927
  H  H90  1  0.412000  0.485900  0.039800  1.0  0.0971
  H  H91  1  0.266600  0.239500  0.942500  1.0  0.0782
  H  H92  1  0.199400  0.276300  0.911200  1.0  0.0771
  H  H93  1  0.324200  0.349500  0.036500  1.0  0.078
  H  H94  1  0.271600  0.376300  0.935200  1.0  0.0826
  H  H95  1  0.384200  0.585700  0.200100  1.0  0.1018
  H  H96  1  0.306100  0.395400  0.148200  1.0  0.0929
  H  H97  1  0.319700  0.746100  0.064900  1.0  0.0671
  H  H98  1  0.279800  0.718900  0.964000  1.0  0.0726
  H  H99  1  0.107900  0.466700  0.206100  1.0  0.0947
  H  H100  1  0.158400  0.445600  0.892500  1.0  0.1277
  H  H101  1  0.134300  0.504400  0.986700  1.0  0.1053
  H  H102  1  0.270100  0.644300  0.088900  1.0  0.0912
  H  H103  1  0.229500  0.617300  0.987700  1.0  0.0889
  H  H104  1  0.140100  0.233900  0.232200  1.0  0.125
  H  H105  1  0.230500  0.301300  0.247700  1.0  0.0884
  H  H106  1  0.307600  0.558200  0.945100  1.0  0.1272
  H  H107  1  0.417900  0.327600  0.505500  1.0  0.0925
  H  H108  1  0.367000  0.205600  0.450000  1.0  0.092
  H  H109  1  0.059600  0.388800  0.300100  1.0  0.0683
  H  H110  1  0.060700  0.295300  0.303600  1.0  0.0661
  H  H111  1  0.006100  0.380300  0.147500  1.0  0.0836
  H  H112  1  0.016300  0.287900  0.158600  1.0  0.0841
  H  H113  1  0.043800  0.123100  0.060400  1.0  0.0985
  H  H114  1  0.873200  0.270700  0.746100  1.0  0.0928
  H  H115  1  0.912000  0.014100  0.539800  1.0  0.0981
  H  H116  1  0.766600  0.260500  0.442500  1.0  0.0764
  H  H117  1  0.699400  0.223700  0.411200  1.0  0.0768
  H  H118  1  0.824200  0.150500  0.536500  1.0  0.0777
  H  H119  1  0.771600  0.123700  0.435200  1.0  0.083
  H  H120  1  0.884200  0.914300  0.700100  1.0  0.1016
  H  H121  1  0.806100  0.104600  0.648200  1.0  0.0925
  H  H122  1  0.819700  0.753900  0.564900  1.0  0.0674
  H  H123  1  0.779800  0.781100  0.464000  1.0  0.0727
  H  H124  1  0.607900  0.033300  0.706100  1.0  0.0941
  H  H125  1  0.658400  0.054400  0.392500  1.0  0.1279
  H  H126  1  0.634300  0.995600  0.486700  1.0  0.105
  H  H127  1  0.770100  0.855700  0.588900  1.0  0.091
  H  H128  1  0.729500  0.882700  0.487700  1.0  0.089
  H  H129  1  0.640100  0.266100  0.732200  1.0  0.1248
  H  H130  1  0.730500  0.198700  0.747700  1.0  0.0882
  H  H131  1  0.807600  0.941800  0.445100  1.0  0.1274
  H  H132  1  0.917900  0.172400  0.005500  1.0  0.0923
  H  H133  1  0.867000  0.294400  0.950000  1.0  0.0917
  H  H134  1  0.559600  0.111200  0.800100  1.0  0.0705
  H  H135  1  0.560700  0.204700  0.803600  1.0  0.0646
  H  H136  1  0.506100  0.119700  0.647500  1.0  0.0826
  H  H137  1  0.516300  0.212100  0.658600  1.0  0.0844
  H  H138  1  0.543800  0.623100  0.060400  1.0  0.0985
  H  H139  1  0.373200  0.770700  0.746100  1.0  0.0928
  H  H140  1  0.412000  0.514100  0.539800  1.0  0.0981
  H  H141  1  0.266600  0.760500  0.442500  1.0  0.0764
  H  H142  1  0.199400  0.723700  0.411200  1.0  0.0768
  H  H143  1  0.324200  0.650500  0.536500  1.0  0.0777
  H  H144  1  0.271600  0.623700  0.435200  1.0  0.083
  H  H145  1  0.384200  0.414300  0.700100  1.0  0.1016
  H  H146  1  0.306100  0.604600  0.648200  1.0  0.0925
  H  H147  1  0.319700  0.253900  0.564900  1.0  0.0674
  H  H148  1  0.279800  0.281100  0.464000  1.0  0.0727
  H  H149  1  0.107900  0.533300  0.706100  1.0  0.0941
  H  H150  1  0.158400  0.554400  0.392500  1.0  0.1279
  H  H151  1  0.134300  0.495600  0.486700  1.0  0.105
  H  H152  1  0.270100  0.355700  0.588900  1.0  0.091
  H  H153  1  0.229500  0.382700  0.487700  1.0  0.089
  H  H154  1  0.140100  0.766100  0.732200  1.0  0.1248
  H  H155  1  0.230500  0.698700  0.747700  1.0  0.0882
  H  H156  1  0.307600  0.441800  0.445100  1.0  0.1274
  H  H157  1  0.417900  0.672400  0.005500  1.0  0.0923
  H  H158  1  0.367000  0.794400  0.950000  1.0  0.0917
  H  H159  1  0.059600  0.611200  0.800100  1.0  0.0705
  H  H160  1  0.060700  0.704700  0.803600  1.0  0.0646
  H  H161  1  0.006100  0.619700  0.647500  1.0  0.0826
  H  H162  1  0.016300  0.712100  0.658600  1.0  0.0844
  H  H163  1  0.956200  0.123100  0.439600  1.0  0.0989
  H  H164  1  0.126800  0.270700  0.753900  1.0  0.0934
  H  H165  1  0.088000  0.014100  0.960200  1.0  0.0981
  H  H166  1  0.233400  0.260500  0.057500  1.0  0.0761
  H  H167  1  0.300600  0.223700  0.088800  1.0  0.0819
  H  H168  1  0.175800  0.150500  0.963500  1.0  0.0781
  H  H169  1  0.228400  0.123700  0.064800  1.0  0.0834
  H  H170  1  0.115800  0.914300  0.799900  1.0  0.1014
  H  H171  1  0.193900  0.104600  0.851800  1.0  0.0922
  H  H172  1  0.180300  0.753900  0.935100  1.0  0.0665
  H  H173  1  0.220200  0.781100  0.036000  1.0  0.0717
  H  H174  1  0.392100  0.033300  0.793900  1.0  0.0944
  H  H175  1  0.341600  0.054400  0.107500  1.0  0.1281
  H  H176  1  0.365700  0.995600  0.013300  1.0  0.1052
  H  H177  1  0.229900  0.855700  0.911100  1.0  0.0922
  H  H178  1  0.270500  0.882700  0.012300  1.0  0.0884
  H  H179  1  0.359900  0.266100  0.767800  1.0  0.1241
  H  H180  1  0.269500  0.198700  0.752300  1.0  0.0891
  H  H181  1  0.192400  0.941800  0.054900  1.0  0.1269
  H  H182  1  0.082100  0.172400  0.494500  1.0  0.0927
  H  H183  1  0.133000  0.294400  0.550000  1.0  0.0916
  H  H184  1  0.440400  0.111200  0.699900  1.0  0.0701
  H  H185  1  0.439300  0.204700  0.696400  1.0  0.0654
  H  H186  1  0.493900  0.119700  0.852500  1.0  0.0841
  H  H187  1  0.483700  0.212100  0.841400  1.0  0.0836
  H  H188  1  0.456200  0.623100  0.439600  1.0  0.0989
  H  H189  1  0.626800  0.770700  0.753900  1.0  0.0934
  H  H190  1  0.588000  0.514100  0.960200  1.0  0.0981
  H  H191  1  0.733400  0.760500  0.057500  1.0  0.0761
  H  H192  1  0.800600  0.723700  0.088800  1.0  0.0819
  H  H193  1  0.675800  0.650500  0.963500  1.0  0.0781
  H  H194  1  0.728400  0.623700  0.064800  1.0  0.0834
  H  H195  1  0.615800  0.414300  0.799900  1.0  0.1014
  H  H196  1  0.693900  0.604600  0.851800  1.0  0.0922
  H  H197  1  0.680300  0.253900  0.935100  1.0  0.0665
  H  H198  1  0.720200  0.281100  0.036000  1.0  0.0717
  H  H199  1  0.892100  0.533300  0.793900  1.0  0.0944
  H  H200  1  0.841600  0.554400  0.107500  1.0  0.1281
  H  H201  1  0.865700  0.495600  0.013300  1.0  0.1052
  H  H202  1  0.729900  0.355700  0.911100  1.0  0.0922
  H  H203  1  0.770500  0.382700  0.012300  1.0  0.0884
  H  H204  1  0.859900  0.766100  0.767800  1.0  0.1241
  H  H205  1  0.769500  0.698700  0.752300  1.0  0.0891
  H  H206  1  0.692400  0.441800  0.054900  1.0  0.1269
  H  H207  1  0.582100  0.672400  0.494500  1.0  0.0927
  H  H208  1  0.633000  0.794400  0.550000  1.0  0.0916
  H  H209  1  0.940400  0.611200  0.699900  1.0  0.0701
  H  H210  1  0.939300  0.704700  0.696400  1.0  0.0654
  H  H211  1  0.993900  0.619700  0.852500  1.0  0.0841
  H  H212  1  0.983700  0.712100  0.841400  1.0  0.0836
  C  C213  1  0.085620  0.822080  0.168030  1.0  -0.1748
  C  C214  1  0.037660  0.930650  0.046260  1.0  0.0226
  C  C215  1  0.064540  0.006290  0.082350  1.0  -0.1016
  C  C216  1  0.073010  0.853400  0.089680  1.0  0.0352
  C  C217  1  0.063680  0.861060  0.217060  1.0  0.6726
  C  C218  1  0.974050  0.926830  0.964500  1.0  -0.0958
  C  C219  1  0.134580  0.020470  0.167410  1.0  0.6941
  C  C220  1  0.117710  0.749100  0.201340  1.0  -0.0765
  C  C221  1  0.106700  0.015200  0.439500  1.0  0.0208
  C  C222  1  0.253670  0.771600  0.538000  1.0  -0.1627
  C  C223  1  0.223000  0.853400  0.513600  1.0  -0.0109
  C  C224  1  0.121810  0.069500  0.351500  1.0  0.1328
  C  C225  1  0.233760  0.915380  0.403400  1.0  0.1224
  C  C226  1  0.221880  0.223000  0.486300  1.0  -0.1364
  C  C227  1  0.372910  0.917400  0.286800  1.0  0.1323
  C  C228  1  0.314910  0.942900  0.544700  1.0  -0.156
  C  C229  1  0.328070  0.974900  0.492500  1.0  0.0185
  C  C230  1  0.228800  0.140500  0.461300  1.0  0.015
  C  C231  1  0.355700  0.788400  0.272000  1.0  -0.1389
  C  C232  1  0.306200  0.826500  0.263700  1.0  0.078
  C  C233  1  0.164400  0.054600  0.492100  1.0  -0.1419
  C  C234  1  0.136650  0.704960  0.159530  1.0  -0.1883
  C  C235  1  0.091020  0.808240  0.047060  1.0  -0.1217
  C  C236  1  0.122010  0.734870  0.080600  1.0  -0.0483
  C  C237  1  0.170550  0.625410  0.198400  1.0  0.6616
  C  C238  1  0.463500  0.841100  0.234900  1.0  -0.1041
  C  C239  1  0.464800  0.838400  0.310700  1.0  0.0193
  C  C240  1  0.585620  0.322080  0.168030  1.0  -0.1748
  C  C241  1  0.537660  0.430650  0.046260  1.0  0.0226
  C  C242  1  0.564540  0.506290  0.082350  1.0  -0.1016
  C  C243  1  0.573010  0.353400  0.089680  1.0  0.0352
  C  C244  1  0.563680  0.361060  0.217060  1.0  0.6726
  C  C245  1  0.474050  0.426830  0.964500  1.0  -0.0958
  C  C246  1  0.634580  0.520470  0.167410  1.0  0.6941
  C  C247  1  0.617710  0.249100  0.201340  1.0  -0.0765
  C  C248  1  0.606700  0.515200  0.439500  1.0  0.0208
  C  C249  1  0.753670  0.271600  0.538000  1.0  -0.1627
  C  C250  1  0.723000  0.353400  0.513600  1.0  -0.0109
  C  C251  1  0.621810  0.569500  0.351500  1.0  0.1328
  C  C252  1  0.733760  0.415380  0.403400  1.0  0.1224
  C  C253  1  0.721880  0.723000  0.486300  1.0  -0.1364
  C  C254  1  0.872910  0.417400  0.286800  1.0  0.1323
  C  C255  1  0.814910  0.442900  0.544700  1.0  -0.156
  C  C256  1  0.828070  0.474900  0.492500  1.0  0.0185
  C  C257  1  0.728800  0.640500  0.461300  1.0  0.015
  C  C258  1  0.855700  0.288400  0.272000  1.0  -0.1389
  C  C259  1  0.806200  0.326500  0.263700  1.0  0.078
  C  C260  1  0.664400  0.554600  0.492100  1.0  -0.1419
  C  C261  1  0.636650  0.204960  0.159530  1.0  -0.1883
  C  C262  1  0.591020  0.308240  0.047060  1.0  -0.1217
  C  C263  1  0.622010  0.234870  0.080600  1.0  -0.0483
  C  C264  1  0.670550  0.125410  0.198400  1.0  0.6616
  C  C265  1  0.963500  0.341100  0.234900  1.0  -0.1041
  C  C266  1  0.964800  0.338400  0.310700  1.0  0.0193
  C  C267  1  0.914380  0.822080  0.331970  1.0  -0.1726
  C  C268  1  0.962340  0.930650  0.453740  1.0  0.0231
  C  C269  1  0.935460  0.006290  0.417650  1.0  -0.102
  C  C270  1  0.926990  0.853400  0.410320  1.0  0.0351
  C  C271  1  0.936320  0.861060  0.282940  1.0  0.6732
  C  C272  1  0.025950  0.926830  0.535500  1.0  -0.0962
  C  C273  1  0.865420  0.020470  0.332590  1.0  0.6931
  C  C274  1  0.882290  0.749100  0.298660  1.0  -0.0757
  C  C275  1  0.893300  0.015200  0.060500  1.0  0.0198
  C  C276  1  0.746330  0.771600  0.962000  1.0  -0.1617
  C  C277  1  0.777000  0.853400  0.986400  1.0  -0.0128
  C  C278  1  0.878190  0.069500  0.148500  1.0  0.1338
  C  C279  1  0.766240  0.915380  0.096600  1.0  0.122
  C  C280  1  0.778120  0.223000  0.013700  1.0  -0.1355
  C  C281  1  0.627090  0.917400  0.213200  1.0  0.1329
  C  C282  1  0.685090  0.942900  0.955300  1.0  -0.1569
  C  C283  1  0.671930  0.974900  0.007500  1.0  0.0193
  C  C284  1  0.771200  0.140500  0.038700  1.0  0.0146
  C  C285  1  0.644300  0.788400  0.228000  1.0  -0.1404
  C  C286  1  0.693800  0.826500  0.236300  1.0  0.0778
  C  C287  1  0.835600  0.054600  0.007900  1.0  -0.1434
  C  C288  1  0.863350  0.704960  0.340470  1.0  -0.1887
  C  C289  1  0.908980  0.808240  0.452940  1.0  -0.1222
  C  C290  1  0.877990  0.734870  0.419400  1.0  -0.0493
  C  C291  1  0.829450  0.625410  0.301600  1.0  0.6629
  C  C292  1  0.536500  0.841100  0.265100  1.0  -0.0999
  C  C293  1  0.535200  0.838400  0.189300  1.0  0.0162
  C  C294  1  0.414380  0.322080  0.331970  1.0  -0.1726
  C  C295  1  0.462340  0.430650  0.453740  1.0  0.0231
  C  C296  1  0.435460  0.506290  0.417650  1.0  -0.102
  C  C297  1  0.426990  0.353400  0.410320  1.0  0.0351
  C  C298  1  0.436320  0.361060  0.282940  1.0  0.6732
  C  C299  1  0.525950  0.426830  0.535500  1.0  -0.0962
  C  C300  1  0.365420  0.520470  0.332590  1.0  0.6931
  C  C301  1  0.382290  0.249100  0.298660  1.0  -0.0757
  C  C302  1  0.393300  0.515200  0.060500  1.0  0.0198
  C  C303  1  0.246330  0.271600  0.962000  1.0  -0.1617
  C  C304  1  0.277000  0.353400  0.986400  1.0  -0.0128
  C  C305  1  0.378190  0.569500  0.148500  1.0  0.1338
  C  C306  1  0.266240  0.415380  0.096600  1.0  0.122
  C  C307  1  0.278120  0.723000  0.013700  1.0  -0.1355
  C  C308  1  0.127090  0.417400  0.213200  1.0  0.1329
  C  C309  1  0.185090  0.442900  0.955300  1.0  -0.1569
  C  C310  1  0.171930  0.474900  0.007500  1.0  0.0193
  C  C311  1  0.271200  0.640500  0.038700  1.0  0.0146
  C  C312  1  0.144300  0.288400  0.228000  1.0  -0.1404
  C  C313  1  0.193800  0.326500  0.236300  1.0  0.0778
  C  C314  1  0.335600  0.554600  0.007900  1.0  -0.1434
  C  C315  1  0.363350  0.204960  0.340470  1.0  -0.1887
  C  C316  1  0.408980  0.308240  0.452940  1.0  -0.1222
  C  C317  1  0.377990  0.234870  0.419400  1.0  -0.0493
  C  C318  1  0.329450  0.125410  0.301600  1.0  0.6629
  C  C319  1  0.036500  0.341100  0.265100  1.0  -0.0999
  C  C320  1  0.035200  0.338400  0.189300  1.0  0.0162
  C  C321  1  0.914380  0.177920  0.831970  1.0  -0.1719
  C  C322  1  0.962340  0.069350  0.953740  1.0  0.0235
  C  C323  1  0.935460  0.993710  0.917650  1.0  -0.1022
  C  C324  1  0.926990  0.146600  0.910320  1.0  0.0356
  C  C325  1  0.936320  0.138940  0.782940  1.0  0.6739
  C  C326  1  0.025950  0.073170  0.035500  1.0  -0.0975
  C  C327  1  0.865420  0.979530  0.832590  1.0  0.693
  C  C328  1  0.882290  0.250900  0.798660  1.0  -0.0759
  C  C329  1  0.893300  0.984800  0.560500  1.0  0.0196
  C  C330  1  0.746330  0.228400  0.462000  1.0  -0.1611
  C  C331  1  0.777000  0.146600  0.486400  1.0  -0.0134
  C  C332  1  0.878190  0.930500  0.648500  1.0  0.1334
  C  C333  1  0.766240  0.084620  0.596600  1.0  0.1218
  C  C334  1  0.778120  0.777000  0.513700  1.0  -0.1249
  C  C335  1  0.627090  0.082600  0.713200  1.0  0.1322
  C  C336  1  0.685090  0.057100  0.455300  1.0  -0.1567
  C  C337  1  0.671930  0.025100  0.507500  1.0  0.0195
  C  C338  1  0.771200  0.859500  0.538700  1.0  0.0151
  C  C339  1  0.644300  0.211600  0.728000  1.0  -0.1398
  C  C340  1  0.693800  0.173500  0.736300  1.0  0.0777
  C  C341  1  0.835600  0.945400  0.507900  1.0  -0.1434
  C  C342  1  0.863350  0.295040  0.840470  1.0  -0.1867
  C  C343  1  0.908980  0.191760  0.952940  1.0  -0.1219
  C  C344  1  0.877990  0.265130  0.919400  1.0  -0.049
  C  C345  1  0.829450  0.374590  0.801600  1.0  0.662
  C  C346  1  0.536500  0.158900  0.765100  1.0  -0.1014
  C  C347  1  0.535200  0.161600  0.689300  1.0  0.0162
  C  C348  1  0.414380  0.677920  0.831970  1.0  -0.1719
  C  C349  1  0.462340  0.569350  0.953740  1.0  0.0235
  C  C350  1  0.435460  0.493710  0.917650  1.0  -0.1022
  C  C351  1  0.426990  0.646600  0.910320  1.0  0.0356
  C  C352  1  0.436320  0.638940  0.782940  1.0  0.6739
  C  C353  1  0.525950  0.573170  0.035500  1.0  -0.0975
  C  C354  1  0.365420  0.479530  0.832590  1.0  0.693
  C  C355  1  0.382290  0.750900  0.798660  1.0  -0.0759
  C  C356  1  0.393300  0.484800  0.560500  1.0  0.0196
  C  C357  1  0.246330  0.728400  0.462000  1.0  -0.1611
  C  C358  1  0.277000  0.646600  0.486400  1.0  -0.0134
  C  C359  1  0.378190  0.430500  0.648500  1.0  0.1334
  C  C360  1  0.266240  0.584620  0.596600  1.0  0.1218
  C  C361  1  0.278120  0.277000  0.513700  1.0  -0.1249
  C  C362  1  0.127090  0.582600  0.713200  1.0  0.1322
  C  C363  1  0.185090  0.557100  0.455300  1.0  -0.1567
  C  C364  1  0.171930  0.525100  0.507500  1.0  0.0195
  C  C365  1  0.271200  0.359500  0.538700  1.0  0.0151
  C  C366  1  0.144300  0.711600  0.728000  1.0  -0.1398
  C  C367  1  0.193800  0.673500  0.736300  1.0  0.0777
  C  C368  1  0.335600  0.445400  0.507900  1.0  -0.1434
  C  C369  1  0.363350  0.795040  0.840470  1.0  -0.1867
  C  C370  1  0.408980  0.691760  0.952940  1.0  -0.1219
  C  C371  1  0.377990  0.765130  0.919400  1.0  -0.049
  C  C372  1  0.329450  0.874590  0.801600  1.0  0.662
  C  C373  1  0.036500  0.658900  0.765100  1.0  -0.1014
  C  C374  1  0.035200  0.661600  0.689300  1.0  0.0162
  C  C375  1  0.085620  0.177920  0.668030  1.0  -0.1734
  C  C376  1  0.037660  0.069350  0.546260  1.0  0.0228
  C  C377  1  0.064540  0.993710  0.582350  1.0  -0.1009
  C  C378  1  0.073010  0.146600  0.589680  1.0  0.0355
  C  C379  1  0.063680  0.138940  0.717060  1.0  0.6725
  C  C380  1  0.974050  0.073170  0.464500  1.0  -0.0974
  C  C381  1  0.134580  0.979530  0.667410  1.0  0.6934
  C  C382  1  0.117710  0.250900  0.701340  1.0  -0.076
  C  C383  1  0.106700  0.984800  0.939500  1.0  0.0207
  C  C384  1  0.253670  0.228400  0.038000  1.0  -0.1611
  C  C385  1  0.223000  0.146600  0.013600  1.0  -0.0101
  C  C386  1  0.121810  0.930500  0.851500  1.0  0.1327
  C  C387  1  0.233760  0.084620  0.903400  1.0  0.1221
  C  C388  1  0.221880  0.777000  0.986300  1.0  -0.1255
  C  C389  1  0.372910  0.082600  0.786800  1.0  0.1318
  C  C390  1  0.314910  0.057100  0.044700  1.0  -0.1559
  C  C391  1  0.328070  0.025100  0.992500  1.0  0.0176
  C  C392  1  0.228800  0.859500  0.961300  1.0  0.0163
  C  C393  1  0.355700  0.211600  0.772000  1.0  -0.1382
  C  C394  1  0.306200  0.173500  0.763700  1.0  0.0781
  C  C395  1  0.164400  0.945400  0.992100  1.0  -0.1421
  C  C396  1  0.136650  0.295040  0.659530  1.0  -0.1865
  C  C397  1  0.091020  0.191760  0.547060  1.0  -0.1212
  C  C398  1  0.122010  0.265130  0.580600  1.0  -0.0473
  C  C399  1  0.170550  0.374590  0.698400  1.0  0.661
  C  C400  1  0.463500  0.158900  0.734900  1.0  -0.1019
  C  C401  1  0.464800  0.161600  0.810700  1.0  0.0194
  C  C402  1  0.585620  0.677920  0.668030  1.0  -0.1734
  C  C403  1  0.537660  0.569350  0.546260  1.0  0.0228
  C  C404  1  0.564540  0.493710  0.582350  1.0  -0.1009
  C  C405  1  0.573010  0.646600  0.589680  1.0  0.0355
  C  C406  1  0.563680  0.638940  0.717060  1.0  0.6725
  C  C407  1  0.474050  0.573170  0.464500  1.0  -0.0974
  C  C408  1  0.634580  0.479530  0.667410  1.0  0.6934
  C  C409  1  0.617710  0.750900  0.701340  1.0  -0.076
  C  C410  1  0.606700  0.484800  0.939500  1.0  0.0207
  C  C411  1  0.753670  0.728400  0.038000  1.0  -0.1611
  C  C412  1  0.723000  0.646600  0.013600  1.0  -0.0101
  C  C413  1  0.621810  0.430500  0.851500  1.0  0.1327
  C  C414  1  0.733760  0.584620  0.903400  1.0  0.1221
  C  C415  1  0.721880  0.277000  0.986300  1.0  -0.1255
  C  C416  1  0.872910  0.582600  0.786800  1.0  0.1318
  C  C417  1  0.814910  0.557100  0.044700  1.0  -0.1559
  C  C418  1  0.828070  0.525100  0.992500  1.0  0.0176
  C  C419  1  0.728800  0.359500  0.961300  1.0  0.0163
  C  C420  1  0.855700  0.711600  0.772000  1.0  -0.1382
  C  C421  1  0.806200  0.673500  0.763700  1.0  0.0781
  C  C422  1  0.664400  0.445400  0.992100  1.0  -0.1421
  C  C423  1  0.636650  0.795040  0.659530  1.0  -0.1865
  C  C424  1  0.591020  0.691760  0.547060  1.0  -0.1212
  C  C425  1  0.622010  0.765130  0.580600  1.0  -0.0473
  C  C426  1  0.670550  0.874590  0.698400  1.0  0.661
  C  C427  1  0.963500  0.658900  0.734900  1.0  -0.1019
  C  C428  1  0.964800  0.661600  0.810700  1.0  0.0194
  N  N429  1  0.276640  0.956990  0.402690  1.0  -0.3752
  N  N430  1  0.079650  0.024460  0.351000  1.0  -0.4043
  N  N431  1  0.254860  0.905410  0.487970  1.0  0.0395
  N  N432  1  0.174170  0.088770  0.435800  1.0  0.0479
  N  N433  1  0.316990  0.907440  0.274420  1.0  -0.4129
  N  N434  1  0.398480  0.847800  0.287900  1.0  0.047
  N  N435  1  0.776640  0.456990  0.402690  1.0  -0.3752
  N  N436  1  0.579650  0.524460  0.351000  1.0  -0.4043
  N  N437  1  0.754860  0.405410  0.487970  1.0  0.0395
  N  N438  1  0.674170  0.588770  0.435800  1.0  0.0479
  N  N439  1  0.816990  0.407440  0.274420  1.0  -0.4129
  N  N440  1  0.898480  0.347800  0.287900  1.0  0.047
  N  N441  1  0.723360  0.956990  0.097310  1.0  -0.3764
  N  N442  1  0.920350  0.024460  0.149000  1.0  -0.4011
  N  N443  1  0.745140  0.905410  0.012030  1.0  0.0396
  N  N444  1  0.825830  0.088770  0.064200  1.0  0.0478
  N  N445  1  0.683010  0.907440  0.225580  1.0  -0.4153
  N  N446  1  0.601520  0.847800  0.212100  1.0  0.0446
  N  N447  1  0.223360  0.456990  0.097310  1.0  -0.3764
  N  N448  1  0.420350  0.524460  0.149000  1.0  -0.4011
  N  N449  1  0.245140  0.405410  0.012030  1.0  0.0396
  N  N450  1  0.325830  0.588770  0.064200  1.0  0.0478
  N  N451  1  0.183010  0.407440  0.225580  1.0  -0.4153
  N  N452  1  0.101520  0.347800  0.212100  1.0  0.0446
  N  N453  1  0.723360  0.043010  0.597310  1.0  -0.3765
  N  N454  1  0.920350  0.975540  0.649000  1.0  -0.4017
  N  N455  1  0.745140  0.094590  0.512030  1.0  0.0397
  N  N456  1  0.825830  0.911230  0.564200  1.0  0.0478
  N  N457  1  0.683010  0.092560  0.725580  1.0  -0.4157
  N  N458  1  0.601520  0.152200  0.712100  1.0  0.0451
  N  N459  1  0.223360  0.543010  0.597310  1.0  -0.3765
  N  N460  1  0.420350  0.475540  0.649000  1.0  -0.4017
  N  N461  1  0.245140  0.594590  0.512030  1.0  0.0397
  N  N462  1  0.325830  0.411230  0.564200  1.0  0.0478
  N  N463  1  0.183010  0.592560  0.725580  1.0  -0.4157
  N  N464  1  0.101520  0.652200  0.712100  1.0  0.0451
  N  N465  1  0.276640  0.043010  0.902690  1.0  -0.3763
  N  N466  1  0.079650  0.975540  0.851000  1.0  -0.4034
  N  N467  1  0.254860  0.094590  0.987970  1.0  0.0393
  N  N468  1  0.174170  0.911230  0.935800  1.0  0.0479
  N  N469  1  0.316990  0.092560  0.774420  1.0  -0.4135
  N  N470  1  0.398480  0.152200  0.787900  1.0  0.047
  N  N471  1  0.776640  0.543010  0.902690  1.0  -0.3763
  N  N472  1  0.579650  0.475540  0.851000  1.0  -0.4034
  N  N473  1  0.754860  0.594590  0.987970  1.0  0.0393
  N  N474  1  0.674170  0.411230  0.935800  1.0  0.0479
  N  N475  1  0.816990  0.592560  0.774420  1.0  -0.4135
  N  N476  1  0.898480  0.652200  0.787900  1.0  0.047
  O  O477  1  0.148020  0.081220  0.212640  1.0  -0.5768
  O  O478  1  0.177370  0.968450  0.186040  1.0  -0.6073
  O  O479  1  0.020940  0.915610  0.176150  1.0  -0.613
  O  O480  1  0.087210  0.838660  0.293250  1.0  -0.5806
  O  O481  1  0.186210  0.601990  0.269830  1.0  -0.5459
  O  O482  1  0.181150  0.586800  0.150880  1.0  -0.5964
  O  O483  1  0.648020  0.581220  0.212640  1.0  -0.5768
  O  O484  1  0.677370  0.468450  0.186040  1.0  -0.6073
  O  O485  1  0.520940  0.415610  0.176150  1.0  -0.613
  O  O486  1  0.587210  0.338660  0.293250  1.0  -0.5806
  O  O487  1  0.686210  0.101990  0.269830  1.0  -0.5459
  O  O488  1  0.681150  0.086800  0.150880  1.0  -0.5964
  O  O489  1  0.851980  0.081220  0.287360  1.0  -0.5775
  O  O490  1  0.822630  0.968450  0.313960  1.0  -0.6078
  O  O491  1  0.979060  0.915610  0.323850  1.0  -0.6125
  O  O492  1  0.912790  0.838660  0.206750  1.0  -0.58
  O  O493  1  0.813790  0.601990  0.230170  1.0  -0.5459
  O  O494  1  0.818850  0.586800  0.349120  1.0  -0.5971
  O  O495  1  0.351980  0.581220  0.287360  1.0  -0.5775
  O  O496  1  0.322630  0.468450  0.313960  1.0  -0.6078
  O  O497  1  0.479060  0.415610  0.323850  1.0  -0.6125
  O  O498  1  0.412790  0.338660  0.206750  1.0  -0.58
  O  O499  1  0.313790  0.101990  0.230170  1.0  -0.5459
  O  O500  1  0.318850  0.086800  0.349120  1.0  -0.5971
  O  O501  1  0.851980  0.918780  0.787360  1.0  -0.5779
  O  O502  1  0.822630  0.031550  0.813960  1.0  -0.6073
  O  O503  1  0.979060  0.084390  0.823850  1.0  -0.6131
  O  O504  1  0.912790  0.161340  0.706750  1.0  -0.5781
  O  O505  1  0.813790  0.398010  0.730170  1.0  -0.546
  O  O506  1  0.818850  0.413200  0.849120  1.0  -0.5973
  O  O507  1  0.351980  0.418780  0.787360  1.0  -0.5779
  O  O508  1  0.322630  0.531550  0.813960  1.0  -0.6073
  O  O509  1  0.479060  0.584390  0.823850  1.0  -0.6131
  O  O510  1  0.412790  0.661340  0.706750  1.0  -0.5781
  O  O511  1  0.313790  0.898010  0.730170  1.0  -0.546
  O  O512  1  0.318850  0.913200  0.849120  1.0  -0.5973
  O  O513  1  0.148020  0.918780  0.712640  1.0  -0.5772
  O  O514  1  0.177370  0.031550  0.686040  1.0  -0.6072
  O  O515  1  0.020940  0.084390  0.676150  1.0  -0.6139
  O  O516  1  0.087210  0.161340  0.793250  1.0  -0.5799
  O  O517  1  0.186210  0.398010  0.769830  1.0  -0.5461
  O  O518  1  0.181150  0.413200  0.650880  1.0  -0.5967
  O  O519  1  0.648020  0.418780  0.712640  1.0  -0.5772
  O  O520  1  0.677370  0.531550  0.686040  1.0  -0.6072
  O  O521  1  0.520940  0.584390  0.676150  1.0  -0.6139
  O  O522  1  0.587210  0.661340  0.793250  1.0  -0.5799
  O  O523  1  0.686210  0.898010  0.769830  1.0  -0.5461
  O  O524  1  0.681150  0.913200  0.650880  1.0  -0.5967
