# generated using pymatgen
data_Cu3H21C37(NO4)3
_symmetry_space_group_name_H-M   'P 1'
_cell_length_a   10.03580000
_cell_length_b   15.97280000
_cell_length_c   21.55900000
_cell_angle_alpha   98.33300000
_cell_angle_beta   93.78200000
_cell_angle_gamma   107.75900000
_symmetry_Int_Tables_number   1
_chemical_formula_structural   Cu3H21C37(NO4)3
_chemical_formula_sum   'Cu6 H42 C74 N6 O24'
_cell_volume   3234.14392939
_cell_formula_units_Z   2
loop_
 _symmetry_equiv_pos_site_id
 _symmetry_equiv_pos_as_xyz
  1  'x, y, z'
loop_
 _atom_site_type_symbol
 _atom_site_label
 _atom_site_symmetry_multiplicity
 _atom_site_fract_x
 _atom_site_fract_y
 _atom_site_fract_z
 _atom_site_occupancy
 _atom_site_charge
  Cu  Cu1  1  0.373530  0.299950  0.541860  1.0  0.8236
  Cu  Cu2  1  0.049940  0.407720  0.633070  1.0  0.8856
  Cu  Cu3  1  0.933440  0.586570  0.798640  1.0  0.5962
  Cu  Cu4  1  0.626470  0.700050  0.458140  1.0  0.8218
  Cu  Cu5  1  0.950060  0.592280  0.366930  1.0  0.8849
  Cu  Cu6  1  0.066560  0.413430  0.201360  1.0  0.5974
  H  H7  1  0.879600  0.572300  0.568500  1.0  0.1157
  H  H8  1  0.150200  0.205700  0.443000  1.0  0.1051
  H  H9  1  0.926900  0.106000  0.429000  1.0  0.1248
  H  H10  1  0.972100  0.083900  0.609000  1.0  0.1456
  H  H11  1  0.192300  0.185400  0.618100  1.0  0.0947
  H  H12  1  0.750400  0.991400  0.546300  1.0  0.0966
  H  H13  1  0.727700  0.014600  0.426100  1.0  0.1221
  H  H14  1  0.516400  0.939700  0.361000  1.0  0.1192
  H  H15  1  0.295900  0.833000  0.336400  1.0  0.1252
  H  H16  1  0.330200  0.766700  0.507000  1.0  0.1247
  H  H17  1  0.552300  0.875300  0.530900  1.0  0.1319
  H  H18  1  0.061500  0.360500  0.754900  1.0  0.0944
  H  H19  1  0.218800  0.375300  0.841400  1.0  0.1336
  H  H20  1  0.513600  0.531100  0.760100  1.0  0.1183
  H  H21  1  0.353000  0.508700  0.674600  1.0  0.0874
  H  H22  1  0.577700  0.513600  0.867100  1.0  0.1621
  H  H23  1  0.395300  0.379700  0.909800  1.0  0.0978
  H  H24  1  0.483600  0.331000  0.001200  1.0  0.1444
  H  H25  1  0.703900  0.351300  0.079800  1.0  0.1205
  H  H26  1  0.906200  0.583100  0.023600  1.0  0.1327
  H  H27  1  0.731400  0.539000  0.936800  1.0  0.162
  H  H28  1  0.120400  0.427700  0.431500  1.0  0.1146
  H  H29  1  0.849800  0.794300  0.557000  1.0  0.1035
  H  H30  1  0.073100  0.894000  0.571000  1.0  0.1262
  H  H31  1  0.027900  0.916100  0.391000  1.0  0.1461
  H  H32  1  0.807700  0.814600  0.381900  1.0  0.0958
  H  H33  1  0.249600  0.008600  0.453700  1.0  0.0978
  H  H34  1  0.272300  0.985400  0.573900  1.0  0.1208
  H  H35  1  0.483600  0.060300  0.639000  1.0  0.1187
  H  H36  1  0.704100  0.167000  0.663600  1.0  0.1256
  H  H37  1  0.669800  0.233300  0.493000  1.0  0.125
  H  H38  1  0.447700  0.124700  0.469100  1.0  0.1324
  H  H39  1  0.938500  0.639500  0.245100  1.0  0.0948
  H  H40  1  0.781200  0.624700  0.158600  1.0  0.1344
  H  H41  1  0.486400  0.468900  0.239900  1.0  0.1176
  H  H42  1  0.647000  0.491300  0.325400  1.0  0.0872
  H  H43  1  0.422300  0.486400  0.132900  1.0  0.1601
  H  H44  1  0.604700  0.620300  0.090200  1.0  0.0989
  H  H45  1  0.516400  0.669000  0.998800  1.0  0.1453
  H  H46  1  0.296100  0.648700  0.920200  1.0  0.1212
  H  H47  1  0.093800  0.416900  0.976400  1.0  0.1327
  H  H48  1  0.268600  0.461000  0.063200  1.0  0.1628
  C  C49  1  0.555100  0.361700  0.654800  1.0  0.6013
  C  C50  1  0.624500  0.416900  0.607700  1.0  0.1077
  C  C51  1  0.751800  0.487400  0.615300  1.0  -0.0802
  C  C52  1  0.843700  0.520400  0.678700  1.0  0.7275
  C  C53  1  0.796200  0.524800  0.563600  1.0  -0.031
  C  C54  1  0.720100  0.493500  0.504460  1.0  -0.0663
  C  C55  1  0.776400  0.536600  0.449400  1.0  0.6838
  C  C56  1  0.593100  0.423800  0.499100  1.0  0.1567
  C  C57  1  0.492000  0.377200  0.440800  1.0  0.6039
  C  C58  1  0.114300  0.180900  0.477300  1.0  0.199
  C  C59  1  0.979300  0.120500  0.468500  1.0  -0.2066
  C  C60  1  0.922500  0.081900  0.517300  1.0  0.1294
  C  C61  1  0.005300  0.107500  0.573900  1.0  -0.2377
  C  C62  1  0.138400  0.168700  0.578900  1.0  0.1824
  C  C63  1  0.780100  0.015100  0.510800  1.0  -0.1471
  C  C64  1  0.696000  0.988200  0.460300  1.0  -0.0618
  C  C65  1  0.553900  0.920500  0.448100  1.0  0.0335
  C  C66  1  0.478800  0.905700  0.391000  1.0  -0.1093
  C  C67  1  0.346600  0.841000  0.375700  1.0  -0.041
  C  C68  1  0.292100  0.789100  0.419400  1.0  -0.109
  C  C69  1  0.367200  0.801600  0.477400  1.0  -0.026
  C  C70  1  0.500300  0.867400  0.491900  1.0  -0.0946
  C  C71  1  0.153500  0.716000  0.401500  1.0  0.6295
  C  C72  1  0.155000  0.394700  0.755100  1.0  0.1771
  C  C73  1  0.248800  0.404200  0.808000  1.0  -0.1966
  C  C74  1  0.385700  0.456600  0.810300  1.0  0.1168
  C  C75  1  0.421500  0.494800  0.760200  1.0  -0.1773
  C  C76  1  0.323900  0.481300  0.708800  1.0  0.1818
  C  C77  1  0.492900  0.468000  0.865200  1.0  -0.1441
  C  C78  1  0.481400  0.422800  0.908900  1.0  -0.0913
  C  C79  1  0.597900  0.434600  0.959400  1.0  0.04
  C  C80  1  0.569800  0.374900  0.001900  1.0  -0.0812
  C  C81  1  0.705100  0.391400  0.052500  1.0  -0.0186
  C  C82  1  0.823500  0.465600  0.055100  1.0  -0.0722
  C  C83  1  0.833400  0.529100  0.017400  1.0  -0.0895
  C  C84  1  0.719900  0.503300  0.967800  1.0  -0.0827
  C  C85  1  0.954600  0.495300  0.108100  1.0  0.3597
  C  C86  1  0.444900  0.638300  0.345200  1.0  0.6007
  C  C87  1  0.375500  0.583100  0.392300  1.0  0.1069
  C  C88  1  0.248200  0.512600  0.384700  1.0  -0.08
  C  C89  1  0.156300  0.479600  0.321300  1.0  0.7272
  C  C90  1  0.203800  0.475200  0.436400  1.0  -0.0314
  C  C91  1  0.279900  0.506500  0.495540  1.0  -0.0677
  C  C92  1  0.223600  0.463400  0.550600  1.0  0.6846
  C  C93  1  0.406900  0.576200  0.500900  1.0  0.1568
  C  C94  1  0.508000  0.622800  0.559200  1.0  0.6023
  C  C95  1  0.885700  0.819100  0.522700  1.0  0.197
  C  C96  1  0.020700  0.879500  0.531500  1.0  -0.209
  C  C97  1  0.077500  0.918100  0.482700  1.0  0.1294
  C  C98  1  0.994700  0.892500  0.426100  1.0  -0.2348
  C  C99  1  0.861600  0.831300  0.421100  1.0  0.1838
  C  C100  1  0.219900  0.984900  0.489200  1.0  -0.1467
  C  C101  1  0.304000  0.011800  0.539700  1.0  -0.0627
  C  C102  1  0.446100  0.079500  0.551900  1.0  0.0323
  C  C103  1  0.521200  0.094300  0.609000  1.0  -0.1112
  C  C104  1  0.653400  0.159000  0.624300  1.0  -0.043
  C  C105  1  0.707900  0.210900  0.580600  1.0  -0.1101
  C  C106  1  0.632800  0.198400  0.522600  1.0  -0.0265
  C  C107  1  0.499700  0.132600  0.508100  1.0  -0.0941
  C  C108  1  0.846500  0.284000  0.598500  1.0  0.6289
  C  C109  1  0.845000  0.605300  0.244900  1.0  0.1769
  C  C110  1  0.751200  0.595800  0.192000  1.0  -0.1956
  C  C111  1  0.614300  0.543400  0.189700  1.0  0.1162
  C  C112  1  0.578500  0.505200  0.239800  1.0  -0.1748
  C  C113  1  0.676100  0.518700  0.291200  1.0  0.1825
  C  C114  1  0.507100  0.532000  0.134800  1.0  -0.149
  C  C115  1  0.518600  0.577200  0.091100  1.0  -0.0936
  C  C116  1  0.402100  0.565400  0.040600  1.0  0.0409
  C  C117  1  0.430200  0.625100  0.998100  1.0  -0.0801
  C  C118  1  0.294900  0.608600  0.947500  1.0  -0.0177
  C  C119  1  0.176500  0.534400  0.944900  1.0  -0.0726
  C  C120  1  0.166600  0.470900  0.982600  1.0  -0.0895
  C  C121  1  0.280100  0.496700  0.032200  1.0  -0.0827
  C  C122  1  0.045400  0.504700  0.891900  1.0  0.3589
  N  N123  1  0.552600  0.390200  0.550130  1.0  -0.311
  N  N124  1  0.193700  0.204700  0.531500  1.0  -0.3047
  N  N125  1  0.190900  0.431200  0.705580  1.0  -0.2897
  N  N126  1  0.447400  0.609800  0.449870  1.0  -0.3112
  N  N127  1  0.806300  0.795300  0.468500  1.0  -0.3047
  N  N128  1  0.809100  0.568800  0.294420  1.0  -0.2877
  O  O129  1  0.616200  0.371500  0.708050  1.0  -0.4997
  O  O130  1  0.434600  0.304000  0.633150  1.0  -0.5509
  O  O131  1  0.945400  0.492900  0.686270  1.0  -0.611
  O  O132  1  0.811600  0.572200  0.719060  1.0  -0.5634
  O  O133  1  0.754800  0.606400  0.441470  1.0  -0.6326
  O  O134  1  0.851700  0.502130  0.416960  1.0  -0.5813
  O  O135  1  0.513200  0.402600  0.390820  1.0  -0.5458
  O  O136  1  0.388500  0.311520  0.450250  1.0  -0.5515
  O  O137  1  0.083300  0.707900  0.348600  1.0  -0.5516
  O  O138  1  0.107600  0.660220  0.436700  1.0  -0.5407
  O  O139  1  0.047500  0.575500  0.121000  1.0  -0.4789
  O  O140  1  0.937100  0.415300  0.131850  1.0  -0.6133
  O  O141  1  0.383800  0.628500  0.291950  1.0  -0.4995
  O  O142  1  0.565400  0.696000  0.366850  1.0  -0.5488
  O  O143  1  0.054600  0.507100  0.313730  1.0  -0.6095
  O  O144  1  0.188400  0.427800  0.280940  1.0  -0.5644
  O  O145  1  0.245200  0.393600  0.558530  1.0  -0.6331
  O  O146  1  0.148300  0.497870  0.583040  1.0  -0.5814
  O  O147  1  0.486800  0.597400  0.609180  1.0  -0.5485
  O  O148  1  0.611500  0.688480  0.549750  1.0  -0.5499
  O  O149  1  0.916700  0.292100  0.651400  1.0  -0.5512
  O  O150  1  0.892400  0.339780  0.563300  1.0  -0.5384
  O  O151  1  0.952500  0.424500  0.879000  1.0  -0.4791
  O  O152  1  0.062900  0.584700  0.868150  1.0  -0.6143
