# generated using pymatgen
data_Cu4H64WC88S4IN8
_symmetry_space_group_name_H-M   'P 1'
_cell_length_a   20.93900000
_cell_length_b   25.43300000
_cell_length_c   31.14600000
_cell_angle_alpha   90.00000000
_cell_angle_beta   90.00000000
_cell_angle_gamma   90.00000000
_symmetry_Int_Tables_number   1
_chemical_formula_structural   Cu4H64WC88S4IN8
_chemical_formula_sum   'Cu16 H256 W4 C352 S16 I4 N32'
_cell_volume   16586.54026870
_cell_formula_units_Z   4
loop_
 _symmetry_equiv_pos_site_id
 _symmetry_equiv_pos_as_xyz
  1  'x, y, z'
loop_
 _atom_site_type_symbol
 _atom_site_label
 _atom_site_symmetry_multiplicity
 _atom_site_fract_x
 _atom_site_fract_y
 _atom_site_fract_z
 _atom_site_occupancy
 _atom_site_charge
  Cu  Cu1  1  0.172780  0.504150  0.086300  1.0  0.309
  Cu  Cu2  1  0.172780  0.495850  0.913700  1.0  0.3095
  Cu  Cu3  1  0.672780  0.004150  0.413700  1.0  0.3094
  Cu  Cu4  1  0.672780  0.995850  0.586300  1.0  0.3091
  Cu  Cu5  1  0.543230  0.000000  0.500000  1.0  0.3952
  Cu  Cu6  1  0.043230  0.500000  0.000000  1.0  0.3952
  Cu  Cu7  1  0.799540  0.000000  0.500000  1.0  0.3322
  Cu  Cu8  1  0.299540  0.500000  0.000000  1.0  0.3322
  Cu  Cu9  1  0.261620  0.006270  0.914100  1.0  0.3221
  Cu  Cu10  1  0.261620  0.993730  0.085900  1.0  0.3209
  Cu  Cu11  1  0.761620  0.506270  0.585900  1.0  0.321
  Cu  Cu12  1  0.761620  0.493730  0.414100  1.0  0.322
  Cu  Cu13  1  0.632430  0.500000  0.500000  1.0  0.3171
  Cu  Cu14  1  0.132430  0.000000  0.000000  1.0  0.3171
  Cu  Cu15  1  0.891330  0.500000  0.500000  1.0  0.2987
  Cu  Cu16  1  0.391330  0.000000  0.000000  1.0  0.2987
  H  H17  1  0.517000  0.117200  0.491000  1.0  0.0841
  H  H18  1  0.470800  0.172800  0.447300  1.0  0.1075
  H  H19  1  0.420500  0.053700  0.369700  1.0  0.1246
  H  H20  1  0.475200  0.000400  0.419200  1.0  0.0913
  H  H21  1  0.416300  0.220800  0.406200  1.0  0.107
  H  H22  1  0.372800  0.278300  0.356600  1.0  0.0922
  H  H23  1  0.366600  0.164400  0.271200  1.0  0.1084
  H  H24  1  0.413400  0.107500  0.319000  1.0  0.0997
  H  H25  1  0.296500  0.313500  0.318500  1.0  0.0822
  H  H26  1  0.257700  0.376800  0.272200  1.0  0.1217
  H  H27  1  0.326900  0.290600  0.174900  1.0  0.1097
  H  H28  1  0.370400  0.231100  0.224600  1.0  0.1052
  H  H29  1  0.230900  0.503300  0.176200  1.0  0.086
  H  H30  1  0.269700  0.446500  0.223100  1.0  0.0998
  H  H31  1  0.265800  0.333700  0.133200  1.0  0.115
  H  H32  1  0.211300  0.395900  0.090300  1.0  0.0855
  H  H33  1  0.857400  0.009200  0.409700  1.0  0.0795
  H  H34  1  0.901000  0.955200  0.359900  1.0  0.1104
  H  H35  1  0.921400  0.846000  0.448900  1.0  0.1128
  H  H36  1  0.876200  0.900300  0.496100  1.0  0.0779
  H  H37  1  0.963600  0.911700  0.318500  1.0  0.1072
  H  H38  1  0.008800  0.854300  0.268900  1.0  0.111
  H  H39  1  0.987400  0.737200  0.350900  1.0  0.1075
  H  H40  1  0.945600  0.792900  0.402100  1.0  0.1234
  H  H41  1  0.004800  0.793800  0.221300  1.0  0.113
  H  H42  1  0.036100  0.730300  0.171400  1.0  0.1064
  H  H43  1  0.089700  0.635300  0.267900  1.0  0.1042
  H  H44  1  0.057700  0.697600  0.316700  1.0  0.1081
  H  H45  1  0.113800  0.509500  0.176600  1.0  0.0777
  H  H46  1  0.079100  0.570300  0.223400  1.0  0.1189
  H  H47  1  0.094000  0.677100  0.129300  1.0  0.1099
  H  H48  1  0.129200  0.615200  0.087100  1.0  0.062
  H  H49  1  0.517000  0.882800  0.509000  1.0  0.0842
  H  H50  1  0.470800  0.827200  0.552700  1.0  0.1079
  H  H51  1  0.420500  0.946300  0.630300  1.0  0.1255
  H  H52  1  0.475200  0.999600  0.580800  1.0  0.0913
  H  H53  1  0.416300  0.779200  0.593800  1.0  0.1068
  H  H54  1  0.372800  0.721700  0.643400  1.0  0.0917
  H  H55  1  0.366600  0.835600  0.728800  1.0  0.1076
  H  H56  1  0.413400  0.892500  0.681000  1.0  0.1008
  H  H57  1  0.296500  0.686500  0.681500  1.0  0.0816
  H  H58  1  0.257700  0.623200  0.727800  1.0  0.1207
  H  H59  1  0.326900  0.709400  0.825100  1.0  0.1089
  H  H60  1  0.370400  0.768900  0.775400  1.0  0.1056
  H  H61  1  0.230900  0.496700  0.823800  1.0  0.0871
  H  H62  1  0.269700  0.553500  0.776900  1.0  0.0994
  H  H63  1  0.265800  0.666300  0.866800  1.0  0.116
  H  H64  1  0.211300  0.604100  0.909700  1.0  0.0853
  H  H65  1  0.857400  0.990800  0.590300  1.0  0.0793
  H  H66  1  0.901000  0.044800  0.640100  1.0  0.1095
  H  H67  1  0.921400  0.154000  0.551100  1.0  0.1125
  H  H68  1  0.876200  0.099700  0.503900  1.0  0.0781
  H  H69  1  0.963600  0.088300  0.681500  1.0  0.107
  H  H70  1  0.008800  0.145700  0.731100  1.0  0.1115
  H  H71  1  0.987400  0.262800  0.649100  1.0  0.1065
  H  H72  1  0.945600  0.207100  0.597900  1.0  0.1237
  H  H73  1  0.004800  0.206200  0.778700  1.0  0.1125
  H  H74  1  0.036100  0.269700  0.828600  1.0  0.1052
  H  H75  1  0.089700  0.364700  0.732100  1.0  0.1041
  H  H76  1  0.057700  0.302400  0.683300  1.0  0.1092
  H  H77  1  0.113800  0.490500  0.823400  1.0  0.0774
  H  H78  1  0.079100  0.429700  0.776600  1.0  0.1187
  H  H79  1  0.094000  0.322900  0.870700  1.0  0.1096
  H  H80  1  0.129200  0.384800  0.912900  1.0  0.0619
  H  H81  1  0.017000  0.617200  0.009000  1.0  0.0844
  H  H82  1  0.970800  0.672800  0.052700  1.0  0.1064
  H  H83  1  0.920500  0.553700  0.130300  1.0  0.1254
  H  H84  1  0.975200  0.500400  0.080800  1.0  0.0911
  H  H85  1  0.916300  0.720800  0.093800  1.0  0.1069
  H  H86  1  0.872800  0.778300  0.143400  1.0  0.0914
  H  H87  1  0.866600  0.664400  0.228800  1.0  0.108
  H  H88  1  0.913400  0.607500  0.181000  1.0  0.1001
  H  H89  1  0.796500  0.813500  0.181500  1.0  0.0822
  H  H90  1  0.757700  0.876800  0.227800  1.0  0.1212
  H  H91  1  0.826900  0.790600  0.325100  1.0  0.1089
  H  H92  1  0.870400  0.731100  0.275400  1.0  0.1058
  H  H93  1  0.730900  0.003300  0.323800  1.0  0.0859
  H  H94  1  0.769700  0.946500  0.276900  1.0  0.1001
  H  H95  1  0.765800  0.833700  0.366800  1.0  0.1153
  H  H96  1  0.711300  0.895900  0.409700  1.0  0.0859
  H  H97  1  0.357400  0.509200  0.090300  1.0  0.0788
  H  H98  1  0.401000  0.455200  0.140100  1.0  0.1103
  H  H99  1  0.421400  0.346000  0.051100  1.0  0.1132
  H  H100  1  0.376200  0.400300  0.003900  1.0  0.0767
  H  H101  1  0.463600  0.411700  0.181500  1.0  0.1056
  H  H102  1  0.508800  0.354300  0.231100  1.0  0.1109
  H  H103  1  0.487400  0.237200  0.149100  1.0  0.1072
  H  H104  1  0.445600  0.292900  0.097900  1.0  0.1208
  H  H105  1  0.504800  0.293800  0.278700  1.0  0.1132
  H  H106  1  0.536100  0.230300  0.328600  1.0  0.1071
  H  H107  1  0.589700  0.135300  0.232100  1.0  0.1049
  H  H108  1  0.557700  0.197600  0.183300  1.0  0.108
  H  H109  1  0.613800  0.009500  0.323400  1.0  0.0776
  H  H110  1  0.579100  0.070300  0.276600  1.0  0.1188
  H  H111  1  0.594000  0.177100  0.370700  1.0  0.1093
  H  H112  1  0.629200  0.115200  0.412900  1.0  0.0626
  H  H113  1  0.017000  0.382800  0.991000  1.0  0.0838
  H  H114  1  0.970800  0.327200  0.947300  1.0  0.1081
  H  H115  1  0.920500  0.446300  0.869700  1.0  0.1253
  H  H116  1  0.975200  0.499600  0.919200  1.0  0.0917
  H  H117  1  0.916300  0.279200  0.906200  1.0  0.1069
  H  H118  1  0.872800  0.221700  0.856600  1.0  0.0924
  H  H119  1  0.866600  0.335600  0.771200  1.0  0.1076
  H  H120  1  0.913400  0.392500  0.819000  1.0  0.0998
  H  H121  1  0.796500  0.186500  0.818500  1.0  0.0815
  H  H122  1  0.757700  0.123200  0.772200  1.0  0.1212
  H  H123  1  0.826900  0.209400  0.674900  1.0  0.1094
  H  H124  1  0.870400  0.268900  0.724600  1.0  0.1054
  H  H125  1  0.730900  0.996700  0.676200  1.0  0.0869
  H  H126  1  0.769700  0.053500  0.723100  1.0  0.1002
  H  H127  1  0.765800  0.166300  0.633200  1.0  0.1148
  H  H128  1  0.711300  0.104100  0.590300  1.0  0.085
  H  H129  1  0.357400  0.490800  0.909700  1.0  0.0794
  H  H130  1  0.401000  0.544800  0.859900  1.0  0.11
  H  H131  1  0.421400  0.654000  0.948900  1.0  0.1133
  H  H132  1  0.376200  0.599700  0.996100  1.0  0.0765
  H  H133  1  0.463600  0.588300  0.818500  1.0  0.106
  H  H134  1  0.508800  0.645700  0.768900  1.0  0.111
  H  H135  1  0.487400  0.762800  0.850900  1.0  0.1073
  H  H136  1  0.445600  0.707100  0.902100  1.0  0.1216
  H  H137  1  0.504800  0.706200  0.721300  1.0  0.1118
  H  H138  1  0.536100  0.769700  0.671400  1.0  0.108
  H  H139  1  0.589700  0.864700  0.767900  1.0  0.1053
  H  H140  1  0.557700  0.802400  0.816700  1.0  0.1092
  H  H141  1  0.613800  0.990500  0.676600  1.0  0.0775
  H  H142  1  0.579100  0.929700  0.723400  1.0  0.1186
  H  H143  1  0.594000  0.822900  0.629300  1.0  0.1104
  H  H144  1  0.629200  0.884800  0.587100  1.0  0.0619
  H  H145  1  0.555100  0.403600  0.509500  1.0  0.065
  H  H146  1  0.504900  0.355600  0.558800  1.0  0.0864
  H  H147  1  0.537800  0.468400  0.641800  1.0  0.1036
  H  H148  1  0.587500  0.512400  0.590500  1.0  0.0595
  H  H149  1  0.548000  0.303100  0.622300  1.0  0.1072
  H  H150  1  0.512400  0.244100  0.673400  1.0  0.1104
  H  H151  1  0.408500  0.358700  0.728700  1.0  0.1171
  H  H152  1  0.445800  0.417600  0.677300  1.0  0.0984
  H  H153  1  0.424100  0.306300  0.790400  1.0  0.0993
  H  H154  1  0.384300  0.244900  0.838300  1.0  0.1069
  H  H155  1  0.401500  0.131400  0.749300  1.0  0.112
  H  H156  1  0.439800  0.192600  0.701200  1.0  0.1048
  H  H157  1  0.290500  0.124100  0.915400  1.0  0.0804
  H  H158  1  0.315900  0.184900  0.869600  1.0  0.0923
  H  H159  1  0.401800  0.078100  0.797700  1.0  0.1166
  H  H160  1  0.356100  0.015900  0.842500  1.0  0.0645
  H  H161  1  0.984000  0.495400  0.577600  1.0  0.0927
  H  H162  1  0.040800  0.553600  0.618000  1.0  0.0858
  H  H163  1  0.953900  0.672400  0.564600  1.0  0.1077
  H  H164  1  0.909900  0.613300  0.518400  1.0  0.0701
  H  H165  1  0.034500  0.608200  0.677700  1.0  0.1095
  H  H166  1  0.075600  0.667400  0.727200  1.0  0.111
  H  H167  1  0.077200  0.780000  0.636700  1.0  0.1139
  H  H168  1  0.036000  0.720800  0.587200  1.0  0.1117
  H  H169  1  0.153800  0.721300  0.757400  1.0  0.0946
  H  H170  1  0.192100  0.784300  0.806900  1.0  0.1238
  H  H171  1  0.097800  0.893800  0.740900  1.0  0.1101
  H  H172  1  0.056400  0.831400  0.694400  1.0  0.1102
  H  H173  1  0.204600  0.895700  0.909300  1.0  0.0711
  H  H174  1  0.173900  0.835600  0.862400  1.0  0.1148
  H  H175  1  0.176700  0.947000  0.771400  1.0  0.1275
  H  H176  1  0.215000  0.004300  0.821700  1.0  0.0728
  H  H177  1  0.555100  0.596400  0.490500  1.0  0.0662
  H  H178  1  0.504900  0.644400  0.441200  1.0  0.088
  H  H179  1  0.537800  0.531600  0.358200  1.0  0.1031
  H  H180  1  0.587500  0.487600  0.409500  1.0  0.0625
  H  H181  1  0.548000  0.696900  0.377700  1.0  0.1072
  H  H182  1  0.512400  0.755900  0.326600  1.0  0.1092
  H  H183  1  0.408500  0.641300  0.271300  1.0  0.1163
  H  H184  1  0.445800  0.582400  0.322700  1.0  0.0984
  H  H185  1  0.424100  0.693700  0.209600  1.0  0.101
  H  H186  1  0.384300  0.755100  0.161700  1.0  0.1067
  H  H187  1  0.401500  0.868600  0.250700  1.0  0.1122
  H  H188  1  0.439800  0.807400  0.298800  1.0  0.1053
  H  H189  1  0.290500  0.875900  0.084600  1.0  0.0805
  H  H190  1  0.315900  0.815100  0.130400  1.0  0.0919
  H  H191  1  0.401800  0.921900  0.202300  1.0  0.1163
  H  H192  1  0.356100  0.984100  0.157500  1.0  0.0621
  H  H193  1  0.984000  0.504600  0.422400  1.0  0.0925
  H  H194  1  0.040800  0.446400  0.382000  1.0  0.086
  H  H195  1  0.953900  0.327600  0.435400  1.0  0.1078
  H  H196  1  0.909900  0.386700  0.481600  1.0  0.0705
  H  H197  1  0.034500  0.391800  0.322300  1.0  0.1099
  H  H198  1  0.075600  0.332600  0.272800  1.0  0.1117
  H  H199  1  0.077200  0.220000  0.363300  1.0  0.1146
  H  H200  1  0.036000  0.279200  0.412800  1.0  0.1118
  H  H201  1  0.153800  0.278700  0.242600  1.0  0.0943
  H  H202  1  0.192100  0.215700  0.193100  1.0  0.124
  H  H203  1  0.097800  0.106200  0.259100  1.0  0.1099
  H  H204  1  0.056400  0.168600  0.305600  1.0  0.1104
  H  H205  1  0.204600  0.104300  0.090700  1.0  0.0714
  H  H206  1  0.173900  0.164400  0.137600  1.0  0.1148
  H  H207  1  0.176700  0.053000  0.228600  1.0  0.1272
  H  H208  1  0.215000  0.995700  0.178300  1.0  0.0732
  H  H209  1  0.055100  0.903600  0.990500  1.0  0.0687
  H  H210  1  0.004900  0.855600  0.941200  1.0  0.088
  H  H211  1  0.037800  0.968400  0.858200  1.0  0.1034
  H  H212  1  0.087500  0.012400  0.909500  1.0  0.0601
  H  H213  1  0.048000  0.803100  0.877700  1.0  0.1076
  H  H214  1  0.012400  0.744100  0.826600  1.0  0.1094
  H  H215  1  0.908500  0.858700  0.771300  1.0  0.1167
  H  H216  1  0.945800  0.917600  0.822700  1.0  0.099
  H  H217  1  0.924100  0.806300  0.709600  1.0  0.1009
  H  H218  1  0.884300  0.744900  0.661700  1.0  0.1068
  H  H219  1  0.901500  0.631400  0.750700  1.0  0.113
  H  H220  1  0.939800  0.692600  0.798800  1.0  0.1054
  H  H221  1  0.790500  0.624100  0.584600  1.0  0.0797
  H  H222  1  0.815900  0.684900  0.630400  1.0  0.0921
  H  H223  1  0.901800  0.578100  0.702300  1.0  0.1167
  H  H224  1  0.856100  0.515900  0.657500  1.0  0.0635
  H  H225  1  0.484000  0.995400  0.922400  1.0  0.0934
  H  H226  1  0.540800  0.053600  0.882000  1.0  0.0858
  H  H227  1  0.453900  0.172400  0.935400  1.0  0.1082
  H  H228  1  0.409900  0.113300  0.981600  1.0  0.0703
  H  H229  1  0.534500  0.108200  0.822300  1.0  0.1093
  H  H230  1  0.575600  0.167400  0.772800  1.0  0.1115
  H  H231  1  0.577200  0.280000  0.863300  1.0  0.1137
  H  H232  1  0.536000  0.220800  0.912800  1.0  0.1119
  H  H233  1  0.653800  0.221300  0.742600  1.0  0.0943
  H  H234  1  0.692100  0.284300  0.693100  1.0  0.1239
  H  H235  1  0.597800  0.393800  0.759100  1.0  0.1104
  H  H236  1  0.556400  0.331400  0.805600  1.0  0.1106
  H  H237  1  0.704600  0.395700  0.590700  1.0  0.0718
  H  H238  1  0.673900  0.335600  0.637600  1.0  0.1153
  H  H239  1  0.676700  0.447000  0.728600  1.0  0.1274
  H  H240  1  0.715000  0.504300  0.678300  1.0  0.0732
  H  H241  1  0.055100  0.096400  0.009500  1.0  0.0679
  H  H242  1  0.004900  0.144400  0.058800  1.0  0.0883
  H  H243  1  0.037800  0.031600  0.141800  1.0  0.1036
  H  H244  1  0.087500  0.987600  0.090500  1.0  0.0625
  H  H245  1  0.048000  0.196900  0.122300  1.0  0.1074
  H  H246  1  0.012400  0.255900  0.173400  1.0  0.11
  H  H247  1  0.908500  0.141300  0.228700  1.0  0.1171
  H  H248  1  0.945800  0.082400  0.177300  1.0  0.098
  H  H249  1  0.924100  0.193700  0.290400  1.0  0.0993
  H  H250  1  0.884300  0.255100  0.338300  1.0  0.1065
  H  H251  1  0.901500  0.368600  0.249300  1.0  0.1125
  H  H252  1  0.939800  0.307400  0.201200  1.0  0.1051
  H  H253  1  0.790500  0.375900  0.415400  1.0  0.0811
  H  H254  1  0.815900  0.315100  0.369600  1.0  0.0921
  H  H255  1  0.901800  0.421900  0.297700  1.0  0.1163
  H  H256  1  0.856100  0.484100  0.342500  1.0  0.0625
  H  H257  1  0.484000  0.004600  0.077600  1.0  0.0939
  H  H258  1  0.540800  0.946400  0.118000  1.0  0.0858
  H  H259  1  0.453900  0.827600  0.064600  1.0  0.1078
  H  H260  1  0.409900  0.886700  0.018400  1.0  0.0705
  H  H261  1  0.534500  0.891800  0.177700  1.0  0.1097
  H  H262  1  0.575600  0.832600  0.227200  1.0  0.1112
  H  H263  1  0.577200  0.720000  0.136700  1.0  0.1143
  H  H264  1  0.536000  0.779200  0.087200  1.0  0.1108
  H  H265  1  0.653800  0.778700  0.257400  1.0  0.0941
  H  H266  1  0.692100  0.715700  0.306900  1.0  0.1234
  H  H267  1  0.597800  0.606200  0.240900  1.0  0.1095
  H  H268  1  0.556400  0.668600  0.194400  1.0  0.109
  H  H269  1  0.704600  0.604300  0.409300  1.0  0.071
  H  H270  1  0.673900  0.664400  0.362400  1.0  0.1144
  H  H271  1  0.676700  0.553000  0.271400  1.0  0.1272
  H  H272  1  0.715000  0.495700  0.321700  1.0  0.0732
  W  W273  1  0.672080  0.000000  0.500000  1.0  0.5692
  W  W274  1  0.172080  0.500000  0.000000  1.0  0.5693
  W  W275  1  0.761450  0.500000  0.500000  1.0  0.5721
  W  W276  1  0.261450  0.000000  0.000000  1.0  0.5721
  C  C277  1  0.495800  0.103600  0.467300  1.0  0.158
  C  C278  1  0.470700  0.137300  0.440300  1.0  -0.1524
  C  C279  1  0.444200  0.121600  0.401800  1.0  0.0299
  C  C280  1  0.440600  0.067700  0.393700  1.0  -0.1862
  C  C281  1  0.471000  0.035800  0.426100  1.0  0.1542
  C  C282  1  0.420200  0.157000  0.367900  1.0  0.0775
  C  C283  1  0.407500  0.208900  0.378600  1.0  -0.1945
  C  C284  1  0.381300  0.244000  0.348100  1.0  -0.1524
  C  C285  1  0.368400  0.230300  0.308100  1.0  0.0515
  C  C286  1  0.378400  0.176800  0.298200  1.0  -0.1561
  C  C287  1  0.405300  0.141900  0.327500  1.0  -0.1542
  C  C288  1  0.338700  0.268000  0.278500  1.0  0.0682
  C  C289  1  0.304800  0.309300  0.289400  1.0  -0.0839
  C  C290  1  0.279800  0.347800  0.261700  1.0  -0.2118
  C  C291  1  0.289500  0.340600  0.218900  1.0  0.0354
  C  C292  1  0.322000  0.296300  0.204200  1.0  -0.1547
  C  C293  1  0.347600  0.260200  0.234200  1.0  -0.151
  C  C294  1  0.236500  0.468500  0.167800  1.0  0.1402
  C  C295  1  0.259100  0.434700  0.195700  1.0  -0.1736
  C  C296  1  0.268200  0.379100  0.185200  1.0  0.0125
  C  C297  1  0.255800  0.366800  0.143900  1.0  -0.1546
  C  C298  1  0.226900  0.405800  0.117100  1.0  0.1454
  C  C299  1  0.867600  0.974900  0.417500  1.0  0.1468
  C  C300  1  0.895500  0.943300  0.387900  1.0  -0.2079
  C  C301  1  0.915900  0.893700  0.399100  1.0  -0.0129
  C  C302  1  0.907400  0.878900  0.439900  1.0  -0.1697
  C  C303  1  0.879100  0.911200  0.467600  1.0  0.1504
  C  C304  1  0.950200  0.860200  0.366700  1.0  0.1775
  C  C305  1  0.969100  0.876600  0.326000  1.0  -0.1202
  C  C306  1  0.996100  0.841800  0.295700  1.0  -0.1817
  C  C307  1  0.004000  0.787400  0.306000  1.0  0.2199
  C  C308  1  0.984000  0.772700  0.344100  1.0  -0.1485
  C  C309  1  0.957800  0.806300  0.375600  1.0  -0.1778
  C  C310  1  0.028300  0.752000  0.274000  1.0  0.1176
  C  C311  1  0.021600  0.762000  0.230600  1.0  -0.1929
  C  C312  1  0.040300  0.723600  0.200600  1.0  -0.1044
  C  C313  1  0.065200  0.675000  0.214400  1.0  0.04
  C  C314  1  0.072200  0.666667  0.258200  1.0  -0.1229
  C  C315  1  0.053500  0.704300  0.287400  1.0  -0.1478
  C  C316  1  0.109800  0.544100  0.167400  1.0  0.1523
  C  C317  1  0.090100  0.580100  0.195600  1.0  -0.2074
  C  C318  1  0.086100  0.633800  0.182500  1.0  0.0783
  C  C319  1  0.099100  0.643300  0.140200  1.0  -0.2144
  C  C320  1  0.118400  0.606100  0.115000  1.0  0.174
  C  C321  1  0.495800  0.896400  0.532700  1.0  0.1594
  C  C322  1  0.470700  0.862700  0.559700  1.0  -0.1553
  C  C323  1  0.444200  0.878400  0.598200  1.0  0.0305
  C  C324  1  0.440600  0.932300  0.606300  1.0  -0.1887
  C  C325  1  0.471000  0.964200  0.573900  1.0  0.1548
  C  C326  1  0.420200  0.843000  0.632100  1.0  0.0767
  C  C327  1  0.407500  0.791100  0.621400  1.0  -0.1941
  C  C328  1  0.381300  0.756000  0.651900  1.0  -0.1526
  C  C329  1  0.368400  0.769700  0.691900  1.0  0.0502
  C  C330  1  0.378400  0.823200  0.701800  1.0  -0.1579
  C  C331  1  0.405300  0.858100  0.672500  1.0  -0.1544
  C  C332  1  0.338700  0.732000  0.721500  1.0  0.0674
  C  C333  1  0.304800  0.690700  0.710600  1.0  -0.0838
  C  C334  1  0.279800  0.652200  0.738300  1.0  -0.208
  C  C335  1  0.289500  0.659400  0.781100  1.0  0.0353
  C  C336  1  0.322000  0.703700  0.795800  1.0  -0.1539
  C  C337  1  0.347600  0.739800  0.765800  1.0  -0.1521
  C  C338  1  0.236500  0.531500  0.832200  1.0  0.1379
  C  C339  1  0.259100  0.565300  0.804300  1.0  -0.173
  C  C340  1  0.268200  0.620900  0.814800  1.0  0.0126
  C  C341  1  0.255800  0.633200  0.856100  1.0  -0.1551
  C  C342  1  0.226900  0.594200  0.882900  1.0  0.1447
  C  C343  1  0.867600  0.025100  0.582500  1.0  0.1466
  C  C344  1  0.895500  0.056700  0.612100  1.0  -0.2052
  C  C345  1  0.915900  0.106300  0.600900  1.0  -0.0118
  C  C346  1  0.907400  0.121100  0.560100  1.0  -0.1695
  C  C347  1  0.879100  0.088800  0.532400  1.0  0.1498
  C  C348  1  0.950200  0.139800  0.633300  1.0  0.1794
  C  C349  1  0.969100  0.123400  0.674000  1.0  -0.1186
  C  C350  1  0.996100  0.158200  0.704300  1.0  -0.1787
  C  C351  1  0.004000  0.212600  0.694000  1.0  0.2208
  C  C352  1  0.984000  0.227300  0.655900  1.0  -0.1507
  C  C353  1  0.957800  0.193700  0.624400  1.0  -0.1793
  C  C354  1  0.028300  0.248000  0.726000  1.0  0.1187
  C  C355  1  0.021600  0.238000  0.769400  1.0  -0.1933
  C  C356  1  0.040300  0.276400  0.799400  1.0  -0.1049
  C  C357  1  0.065200  0.325000  0.785600  1.0  0.0385
  C  C358  1  0.072200  0.333333  0.741800  1.0  -0.125
  C  C359  1  0.053500  0.295700  0.712600  1.0  -0.1497
  C  C360  1  0.109800  0.455900  0.832600  1.0  0.1542
  C  C361  1  0.090100  0.419900  0.804400  1.0  -0.2064
  C  C362  1  0.086100  0.366200  0.817500  1.0  0.0786
  C  C363  1  0.099100  0.356700  0.859800  1.0  -0.2166
  C  C364  1  0.118400  0.393900  0.885000  1.0  0.1736
  C  C365  1  0.995800  0.603600  0.032700  1.0  0.1587
  C  C366  1  0.970700  0.637300  0.059700  1.0  -0.1544
  C  C367  1  0.944200  0.621600  0.098200  1.0  0.03
  C  C368  1  0.940600  0.567700  0.106300  1.0  -0.1866
  C  C369  1  0.971000  0.535800  0.073900  1.0  0.1532
  C  C370  1  0.920200  0.657000  0.132100  1.0  0.076
  C  C371  1  0.907500  0.708900  0.121400  1.0  -0.1952
  C  C372  1  0.881300  0.744000  0.151900  1.0  -0.151
  C  C373  1  0.868400  0.730300  0.191900  1.0  0.0502
  C  C374  1  0.878400  0.676800  0.201800  1.0  -0.1567
  C  C375  1  0.905300  0.641900  0.172500  1.0  -0.1546
  C  C376  1  0.838700  0.768000  0.221500  1.0  0.0675
  C  C377  1  0.804800  0.809300  0.210600  1.0  -0.0853
  C  C378  1  0.779800  0.847800  0.238300  1.0  -0.2089
  C  C379  1  0.789500  0.840600  0.281100  1.0  0.0355
  C  C380  1  0.822000  0.796300  0.295800  1.0  -0.1546
  C  C381  1  0.847600  0.760200  0.265800  1.0  -0.1509
  C  C382  1  0.736500  0.968500  0.332200  1.0  0.141
  C  C383  1  0.759100  0.934700  0.304300  1.0  -0.1729
  C  C384  1  0.768200  0.879100  0.314800  1.0  0.0123
  C  C385  1  0.755800  0.866800  0.356100  1.0  -0.1546
  C  C386  1  0.726900  0.905800  0.382900  1.0  0.1459
  C  C387  1  0.367600  0.474900  0.082500  1.0  0.147
  C  C388  1  0.395500  0.443300  0.112100  1.0  -0.2037
  C  C389  1  0.415900  0.393700  0.100900  1.0  -0.0074
  C  C390  1  0.407400  0.378900  0.060100  1.0  -0.1577
  C  C391  1  0.379100  0.411200  0.032400  1.0  0.1499
  C  C392  1  0.450200  0.360200  0.133300  1.0  0.1874
  C  C393  1  0.469100  0.376600  0.174000  1.0  -0.1177
  C  C394  1  0.496100  0.341800  0.204300  1.0  -0.1805
  C  C395  1  0.504000  0.287400  0.194000  1.0  0.2204
  C  C396  1  0.484000  0.272700  0.155900  1.0  -0.1471
  C  C397  1  0.457800  0.306300  0.124400  1.0  -0.1739
  C  C398  1  0.528300  0.252000  0.226000  1.0  0.1187
  C  C399  1  0.521600  0.262000  0.269400  1.0  -0.1911
  C  C400  1  0.540300  0.223600  0.299400  1.0  -0.1036
  C  C401  1  0.565200  0.175000  0.285600  1.0  0.0394
  C  C402  1  0.572200  0.166700  0.241800  1.0  -0.124
  C  C403  1  0.553500  0.204300  0.212600  1.0  -0.1414
  C  C404  1  0.609800  0.044100  0.332600  1.0  0.152
  C  C405  1  0.590100  0.080100  0.304400  1.0  -0.2053
  C  C406  1  0.586100  0.133800  0.317500  1.0  0.0786
  C  C407  1  0.599100  0.143300  0.359800  1.0  -0.2162
  C  C408  1  0.618400  0.106100  0.385000  1.0  0.1731
  C  C409  1  0.995800  0.396400  0.967300  1.0  0.1582
  C  C410  1  0.970700  0.362700  0.940300  1.0  -0.1552
  C  C411  1  0.944200  0.378400  0.901800  1.0  0.0307
  C  C412  1  0.940600  0.432300  0.893700  1.0  -0.1883
  C  C413  1  0.971000  0.464200  0.926100  1.0  0.1547
  C  C414  1  0.920200  0.343000  0.867900  1.0  0.0774
  C  C415  1  0.907500  0.291100  0.878600  1.0  -0.1955
  C  C416  1  0.881300  0.256000  0.848100  1.0  -0.1542
  C  C417  1  0.868400  0.269700  0.808100  1.0  0.0514
  C  C418  1  0.878400  0.323200  0.798200  1.0  -0.1581
  C  C419  1  0.905300  0.358100  0.827500  1.0  -0.1537
  C  C420  1  0.838700  0.232000  0.778500  1.0  0.0678
  C  C421  1  0.804800  0.190700  0.789400  1.0  -0.0855
  C  C422  1  0.779800  0.152200  0.761700  1.0  -0.2096
  C  C423  1  0.789500  0.159400  0.718900  1.0  0.0351
  C  C424  1  0.822000  0.203700  0.704200  1.0  -0.1556
  C  C425  1  0.847600  0.239800  0.734200  1.0  -0.1517
  C  C426  1  0.736500  0.031500  0.667800  1.0  0.1384
  C  C427  1  0.759100  0.065300  0.695700  1.0  -0.173
  C  C428  1  0.768200  0.120900  0.685200  1.0  0.0128
  C  C429  1  0.755800  0.133200  0.643900  1.0  -0.1542
  C  C430  1  0.726900  0.094200  0.617100  1.0  0.1457
  C  C431  1  0.367600  0.525100  0.917500  1.0  0.1468
  C  C432  1  0.395500  0.556700  0.887900  1.0  -0.2051
  C  C433  1  0.415900  0.606300  0.899100  1.0  -0.0071
  C  C434  1  0.407400  0.621100  0.939900  1.0  -0.1576
  C  C435  1  0.379100  0.588800  0.967600  1.0  0.1504
  C  C436  1  0.450200  0.639800  0.866700  1.0  0.185
  C  C437  1  0.469100  0.623400  0.826000  1.0  -0.1137
  C  C438  1  0.496100  0.658200  0.795700  1.0  -0.1783
  C  C439  1  0.504000  0.712600  0.806000  1.0  0.2203
  C  C440  1  0.484000  0.727300  0.844100  1.0  -0.1459
  C  C441  1  0.457800  0.693700  0.875600  1.0  -0.1747
  C  C442  1  0.528300  0.748000  0.774000  1.0  0.1175
  C  C443  1  0.521600  0.738000  0.730600  1.0  -0.1891
  C  C444  1  0.540300  0.776400  0.700600  1.0  -0.1009
  C  C445  1  0.565200  0.825000  0.714400  1.0  0.0402
  C  C446  1  0.572200  0.833300  0.758200  1.0  -0.1209
  C  C447  1  0.553500  0.795700  0.787400  1.0  -0.14
  C  C448  1  0.609800  0.955900  0.667400  1.0  0.154
  C  C449  1  0.590100  0.919900  0.695600  1.0  -0.2061
  C  C450  1  0.586100  0.866200  0.682500  1.0  0.0787
  C  C451  1  0.599100  0.856700  0.640200  1.0  -0.2162
  C  C452  1  0.618400  0.893900  0.615000  1.0  0.1741
  C  C453  1  0.552700  0.416500  0.537300  1.0  0.1591
  C  C454  1  0.523700  0.387000  0.567200  1.0  -0.0821
  C  C455  1  0.520800  0.400500  0.607900  1.0  0.0632
  C  C456  1  0.543100  0.452800  0.615000  1.0  -0.1893
  C  C457  1  0.571300  0.479300  0.584000  1.0  0.1736
  C  C458  1  0.498400  0.366500  0.644400  1.0  0.0316
  C  C459  1  0.519700  0.314100  0.643500  1.0  -0.2102
  C  C460  1  0.498600  0.278800  0.674200  1.0  -0.1231
  C  C461  1  0.456700  0.295300  0.706200  1.0  0.0411
  C  C462  1  0.436400  0.347400  0.707400  1.0  -0.1407
  C  C463  1  0.458600  0.382600  0.676200  1.0  -0.1163
  C  C464  1  0.438500  0.256000  0.740700  1.0  0.0232
  C  C465  1  0.420100  0.271300  0.782100  1.0  -0.1421
  C  C466  1  0.395900  0.234400  0.810800  1.0  -0.1081
  C  C467  1  0.389000  0.181900  0.798600  1.0  0.0164
  C  C468  1  0.406000  0.166400  0.757600  1.0  -0.2097
  C  C469  1  0.429600  0.203200  0.729000  1.0  -0.0837
  C  C470  1  0.308000  0.113900  0.889300  1.0  0.1691
  C  C471  1  0.327200  0.150300  0.863600  1.0  -0.1489
  C  C472  1  0.363000  0.140800  0.828400  1.0  0.0769
  C  C473  1  0.375800  0.088400  0.820400  1.0  -0.2392
  C  C474  1  0.347800  0.051200  0.848200  1.0  0.1681
  C  C475  1  0.980100  0.531300  0.572500  1.0  0.1012
  C  C476  1  0.011200  0.566600  0.598400  1.0  -0.1072
  C  C477  1  0.001400  0.619000  0.597300  1.0  0.1201
  C  C478  1  0.962900  0.636700  0.567200  1.0  -0.2404
  C  C479  1  0.936600  0.600500  0.539800  1.0  0.1497
  C  C480  1  0.031200  0.658660  0.627580  1.0  -0.0073
  C  C481  1  0.043000  0.642660  0.669500  1.0  -0.1153
  C  C482  1  0.067700  0.678100  0.699130  1.0  -0.0961
  C  C483  1  0.080500  0.729600  0.686840  1.0  0.0392
  C  C484  1  0.068600  0.745600  0.644920  1.0  -0.156
  C  C485  1  0.044000  0.710100  0.615290  1.0  -0.1573
  C  C486  1  0.102600  0.768200  0.720100  1.0  0.0319
  C  C487  1  0.141500  0.756200  0.753900  1.0  -0.129
  C  C488  1  0.164900  0.794300  0.784700  1.0  -0.1831
  C  C489  1  0.145800  0.844800  0.780200  1.0  0.0191
  C  C490  1  0.107800  0.858500  0.745100  1.0  -0.1474
  C  C491  1  0.084200  0.821200  0.716100  1.0  -0.1733
  C  C492  1  0.201100  0.905700  0.880700  1.0  0.1559
  C  C493  1  0.181100  0.870000  0.853500  1.0  -0.2236
  C  C494  1  0.171000  0.884000  0.812100  1.0  0.0627
  C  C495  1  0.183600  0.936000  0.799500  1.0  -0.2103
  C  C496  1  0.206500  0.969800  0.829900  1.0  0.1423
  C  C497  1  0.552700  0.583500  0.462700  1.0  0.1566
  C  C498  1  0.523700  0.613000  0.432800  1.0  -0.0806
  C  C499  1  0.520800  0.599500  0.392100  1.0  0.0642
  C  C500  1  0.543100  0.547200  0.385000  1.0  -0.188
  C  C501  1  0.571300  0.520700  0.416000  1.0  0.1733
  C  C502  1  0.498400  0.633500  0.355600  1.0  0.0315
  C  C503  1  0.519700  0.685900  0.356500  1.0  -0.2112
  C  C504  1  0.498600  0.721200  0.325800  1.0  -0.122
  C  C505  1  0.456700  0.704700  0.293800  1.0  0.0398
  C  C506  1  0.436400  0.652600  0.292600  1.0  -0.139
  C  C507  1  0.458600  0.617400  0.323800  1.0  -0.1167
  C  C508  1  0.438500  0.744000  0.259300  1.0  0.023
  C  C509  1  0.420100  0.728700  0.217900  1.0  -0.14
  C  C510  1  0.395900  0.765600  0.189200  1.0  -0.1078
  C  C511  1  0.389000  0.818100  0.201400  1.0  0.0163
  C  C512  1  0.406000  0.833600  0.242400  1.0  -0.2128
  C  C513  1  0.429600  0.796800  0.271000  1.0  -0.0837
  C  C514  1  0.308000  0.886100  0.110700  1.0  0.1695
  C  C515  1  0.327200  0.849700  0.136400  1.0  -0.1488
  C  C516  1  0.363000  0.859200  0.171600  1.0  0.0773
  C  C517  1  0.375800  0.911600  0.179600  1.0  -0.2383
  C  C518  1  0.347800  0.948800  0.151800  1.0  0.1695
  C  C519  1  0.980100  0.468700  0.427500  1.0  0.0996
  C  C520  1  0.011200  0.433400  0.401600  1.0  -0.1094
  C  C521  1  0.001400  0.381000  0.402700  1.0  0.1203
  C  C522  1  0.962900  0.363300  0.432800  1.0  -0.2387
  C  C523  1  0.936600  0.399500  0.460200  1.0  0.1476
  C  C524  1  0.031200  0.341340  0.372420  1.0  -0.0076
  C  C525  1  0.043000  0.357340  0.330500  1.0  -0.1182
  C  C526  1  0.067700  0.321900  0.300870  1.0  -0.0969
  C  C527  1  0.080500  0.270400  0.313160  1.0  0.0403
  C  C528  1  0.068600  0.254400  0.355080  1.0  -0.1562
  C  C529  1  0.044000  0.289900  0.384710  1.0  -0.1585
  C  C530  1  0.102600  0.231800  0.279900  1.0  0.0329
  C  C531  1  0.141500  0.243800  0.246100  1.0  -0.1299
  C  C532  1  0.164900  0.205700  0.215300  1.0  -0.1839
  C  C533  1  0.145800  0.155200  0.219800  1.0  0.0186
  C  C534  1  0.107800  0.141500  0.254900  1.0  -0.1478
  C  C535  1  0.084200  0.178800  0.283900  1.0  -0.1753
  C  C536  1  0.201100  0.094300  0.119300  1.0  0.156
  C  C537  1  0.181100  0.130000  0.146500  1.0  -0.2257
  C  C538  1  0.171000  0.116000  0.187900  1.0  0.0636
  C  C539  1  0.183600  0.064000  0.200500  1.0  -0.2121
  C  C540  1  0.206500  0.030200  0.170100  1.0  0.1421
  C  C541  1  0.052700  0.916500  0.962700  1.0  0.1569
  C  C542  1  0.023700  0.887000  0.932800  1.0  -0.0799
  C  C543  1  0.020800  0.900500  0.892100  1.0  0.0643
  C  C544  1  0.043100  0.952800  0.885000  1.0  -0.1893
  C  C545  1  0.071300  0.979300  0.916000  1.0  0.1735
  C  C546  1  0.998400  0.866500  0.855600  1.0  0.0311
  C  C547  1  0.019700  0.814100  0.856500  1.0  -0.2103
  C  C548  1  0.998600  0.778800  0.825800  1.0  -0.1229
  C  C549  1  0.956700  0.795300  0.793800  1.0  0.0403
  C  C550  1  0.936400  0.847400  0.792600  1.0  -0.1404
  C  C551  1  0.958600  0.882600  0.823800  1.0  -0.1162
  C  C552  1  0.938500  0.756000  0.759300  1.0  0.0227
  C  C553  1  0.920100  0.771300  0.717900  1.0  -0.1412
  C  C554  1  0.895900  0.734400  0.689200  1.0  -0.1089
  C  C555  1  0.889000  0.681900  0.701400  1.0  0.0161
  C  C556  1  0.906000  0.666400  0.742400  1.0  -0.2122
  C  C557  1  0.929600  0.703200  0.771000  1.0  -0.0853
  C  C558  1  0.808000  0.613900  0.610700  1.0  0.1699
  C  C559  1  0.827200  0.650300  0.636400  1.0  -0.1481
  C  C560  1  0.863000  0.640800  0.671600  1.0  0.0775
  C  C561  1  0.875800  0.588400  0.679600  1.0  -0.2373
  C  C562  1  0.847800  0.551200  0.651800  1.0  0.1694
  C  C563  1  0.480100  0.031300  0.927500  1.0  0.1006
  C  C564  1  0.511200  0.066600  0.901600  1.0  -0.1085
  C  C565  1  0.501400  0.119000  0.902700  1.0  0.1203
  C  C566  1  0.462900  0.136700  0.932800  1.0  -0.2387
  C  C567  1  0.436600  0.100500  0.960200  1.0  0.1471
  C  C568  1  0.531200  0.158660  0.872420  1.0  -0.0075
  C  C569  1  0.543000  0.142660  0.830500  1.0  -0.1154
  C  C570  1  0.567700  0.178100  0.800870  1.0  -0.0955
  C  C571  1  0.580500  0.229600  0.813160  1.0  0.0397
  C  C572  1  0.568600  0.245600  0.855080  1.0  -0.1559
  C  C573  1  0.544000  0.210100  0.884710  1.0  -0.1572
  C  C574  1  0.602600  0.268200  0.779900  1.0  0.0334
  C  C575  1  0.641500  0.256200  0.746100  1.0  -0.129
  C  C576  1  0.664900  0.294300  0.715300  1.0  -0.184
  C  C577  1  0.645800  0.344800  0.719800  1.0  0.019
  C  C578  1  0.607800  0.358500  0.754900  1.0  -0.1483
  C  C579  1  0.584200  0.321200  0.783900  1.0  -0.1754
  C  C580  1  0.701100  0.405700  0.619300  1.0  0.1567
  C  C581  1  0.681100  0.370000  0.646500  1.0  -0.2232
  C  C582  1  0.671000  0.384000  0.687900  1.0  0.0632
  C  C583  1  0.683600  0.436000  0.700500  1.0  -0.2133
  C  C584  1  0.706500  0.469800  0.670100  1.0  0.1418
  C  C585  1  0.052700  0.083500  0.037300  1.0  0.1587
  C  C586  1  0.023700  0.113000  0.067200  1.0  -0.0818
  C  C587  1  0.020800  0.099500  0.107900  1.0  0.0631
  C  C588  1  0.043100  0.047200  0.115000  1.0  -0.1889
  C  C589  1  0.071300  0.020700  0.084000  1.0  0.1731
  C  C590  1  0.998400  0.133500  0.144400  1.0  0.0317
  C  C591  1  0.019700  0.185900  0.143500  1.0  -0.2104
  C  C592  1  0.998600  0.221200  0.174200  1.0  -0.1216
  C  C593  1  0.956700  0.204700  0.206200  1.0  0.0411
  C  C594  1  0.936400  0.152600  0.207400  1.0  -0.139
  C  C595  1  0.958600  0.117400  0.176200  1.0  -0.1166
  C  C596  1  0.938500  0.244000  0.240700  1.0  0.023
  C  C597  1  0.920100  0.228700  0.282100  1.0  -0.1407
  C  C598  1  0.895900  0.265600  0.310800  1.0  -0.1085
  C  C599  1  0.889000  0.318100  0.298600  1.0  0.0164
  C  C600  1  0.906000  0.333600  0.257600  1.0  -0.2111
  C  C601  1  0.929600  0.296800  0.229000  1.0  -0.0875
  C  C602  1  0.808000  0.386100  0.389300  1.0  0.1688
  C  C603  1  0.827200  0.349700  0.363600  1.0  -0.1487
  C  C604  1  0.863000  0.359200  0.328400  1.0  0.0762
  C  C605  1  0.875800  0.411600  0.320400  1.0  -0.2394
  C  C606  1  0.847800  0.448800  0.348200  1.0  0.1697
  C  C607  1  0.480100  0.968700  0.072500  1.0  0.1005
  C  C608  1  0.511200  0.933400  0.098400  1.0  -0.1078
  C  C609  1  0.501400  0.881000  0.097300  1.0  0.12
  C  C610  1  0.462900  0.863300  0.067200  1.0  -0.2395
  C  C611  1  0.436600  0.899500  0.039800  1.0  0.1497
  C  C612  1  0.531200  0.841340  0.127580  1.0  -0.0067
  C  C613  1  0.543000  0.857340  0.169500  1.0  -0.1182
  C  C614  1  0.567700  0.821900  0.199130  1.0  -0.0965
  C  C615  1  0.580500  0.770400  0.186840  1.0  0.0397
  C  C616  1  0.568600  0.754400  0.144920  1.0  -0.1532
  C  C617  1  0.544000  0.789900  0.115290  1.0  -0.1557
  C  C618  1  0.602600  0.731800  0.220100  1.0  0.032
  C  C619  1  0.641500  0.743800  0.253900  1.0  -0.13
  C  C620  1  0.664900  0.705700  0.284700  1.0  -0.1831
  C  C621  1  0.645800  0.655200  0.280200  1.0  0.0186
  C  C622  1  0.607800  0.641500  0.245100  1.0  -0.1473
  C  C623  1  0.584200  0.678800  0.216100  1.0  -0.1731
  C  C624  1  0.701100  0.594300  0.380700  1.0  0.1554
  C  C625  1  0.681100  0.630000  0.353500  1.0  -0.2266
  C  C626  1  0.671000  0.616000  0.312100  1.0  0.0634
  C  C627  1  0.683600  0.564000  0.299500  1.0  -0.2091
  C  C628  1  0.706500  0.530200  0.329900  1.0  0.1418
  S  S629  1  0.610910  0.951970  0.457310  1.0  -0.4204
  S  S630  1  0.233740  0.553420  0.039100  1.0  -0.4544
  S  S631  1  0.610910  0.048030  0.542690  1.0  -0.4195
  S  S632  1  0.233740  0.446580  0.960900  1.0  -0.4531
  S  S633  1  0.110910  0.451970  0.042690  1.0  -0.4197
  S  S634  1  0.733740  0.053420  0.460900  1.0  -0.4545
  S  S635  1  0.110910  0.548030  0.957310  1.0  -0.4199
  S  S636  1  0.733740  0.946580  0.539100  1.0  -0.4533
  S  S637  1  0.323370  0.952460  0.956380  1.0  -0.428
  S  S638  1  0.699720  0.446310  0.461510  1.0  -0.4341
  S  S639  1  0.323370  0.047540  0.043620  1.0  -0.429
  S  S640  1  0.699720  0.553690  0.538490  1.0  -0.4356
  S  S641  1  0.823370  0.452460  0.543620  1.0  -0.4274
  S  S642  1  0.199720  0.946310  0.038490  1.0  -0.4339
  S  S643  1  0.823370  0.547540  0.456380  1.0  -0.4289
  S  S644  1  0.199720  0.053690  0.961510  1.0  -0.4359
  I  I645  1  0.676630  0.991750  0.197130  1.0  -0.2732
  I  I646  1  0.676630  0.008250  0.802870  1.0  -0.2752
  I  I647  1  0.176630  0.491750  0.302870  1.0  -0.2747
  I  I648  1  0.176630  0.508250  0.697130  1.0  -0.273
  N  N649  1  0.493200  0.049100  0.463300  1.0  -0.2428
  N  N650  1  0.221700  0.455400  0.129100  1.0  -0.3268
  N  N651  1  0.854000  0.958800  0.457300  1.0  -0.3298
  N  N652  1  0.124100  0.555200  0.126100  1.0  -0.3507
  N  N653  1  0.493200  0.950900  0.536700  1.0  -0.2425
  N  N654  1  0.221700  0.544600  0.870900  1.0  -0.3253
  N  N655  1  0.854000  0.041200  0.542700  1.0  -0.3292
  N  N656  1  0.124100  0.444800  0.873900  1.0  -0.3518
  N  N657  1  0.993200  0.549100  0.036700  1.0  -0.2422
  N  N658  1  0.721700  0.955400  0.370900  1.0  -0.3252
  N  N659  1  0.354000  0.458800  0.042700  1.0  -0.3283
  N  N660  1  0.624100  0.055200  0.373900  1.0  -0.3505
  N  N661  1  0.993200  0.450900  0.963300  1.0  -0.2437
  N  N662  1  0.721700  0.044600  0.629100  1.0  -0.3284
  N  N663  1  0.354000  0.541200  0.957300  1.0  -0.3294
  N  N664  1  0.624100  0.944800  0.626100  1.0  -0.3509
  N  N665  1  0.577700  0.462400  0.545300  1.0  -0.2693
  N  N666  1  0.311700  0.061700  0.880900  1.0  -0.313
  N  N667  1  0.217200  0.956300  0.870700  1.0  -0.3275
  N  N668  1  0.945600  0.547900  0.541100  1.0  -0.3271
  N  N669  1  0.577700  0.537600  0.454700  1.0  -0.2653
  N  N670  1  0.311700  0.938300  0.119100  1.0  -0.3137
  N  N671  1  0.217200  0.043700  0.129300  1.0  -0.3276
  N  N672  1  0.945600  0.452100  0.458900  1.0  -0.3275
  N  N673  1  0.077700  0.962400  0.954700  1.0  -0.2665
  N  N674  1  0.811700  0.561700  0.619100  1.0  -0.3138
  N  N675  1  0.717200  0.456300  0.629300  1.0  -0.327
  N  N676  1  0.445600  0.047900  0.958900  1.0  -0.3267
  N  N677  1  0.077700  0.037600  0.045300  1.0  -0.2703
  N  N678  1  0.811700  0.438300  0.380900  1.0  -0.3139
  N  N679  1  0.717200  0.543700  0.370700  1.0  -0.3266
  N  N680  1  0.445600  0.952100  0.041100  1.0  -0.3274
