# generated using pymatgen
data_Cu3H26C42(NO3)4
_symmetry_space_group_name_H-M   'P 1'
_cell_length_a   9.95060000
_cell_length_b   15.68230000
_cell_length_c   21.50000000
_cell_angle_alpha   100.07200000
_cell_angle_beta   93.06000000
_cell_angle_gamma   106.83400000
_symmetry_Int_Tables_number   1
_chemical_formula_structural   Cu3H26C42(NO3)4
_chemical_formula_sum   'Cu6 H52 C84 N8 O24'
_cell_volume   3142.45530609
_cell_formula_units_Z   2
loop_
 _symmetry_equiv_pos_site_id
 _symmetry_equiv_pos_as_xyz
  1  'x, y, z'
loop_
 _atom_site_type_symbol
 _atom_site_label
 _atom_site_symmetry_multiplicity
 _atom_site_fract_x
 _atom_site_fract_y
 _atom_site_fract_z
 _atom_site_occupancy
 _atom_site_charge
  Cu  Cu1  1  0.376350  0.799750  0.543980  1.0  0.8225
  Cu  Cu2  1  0.949380  0.086880  0.365900  1.0  0.9122
  Cu  Cu3  1  0.934540  0.099590  0.802760  1.0  0.6752
  Cu  Cu4  1  0.623650  0.200250  0.456020  1.0  0.8221
  Cu  Cu5  1  0.050620  0.913120  0.634100  1.0  0.9126
  Cu  Cu6  1  0.065460  0.900410  0.197240  1.0  0.6754
  H  H7  1  0.297500  0.327500  0.334200  1.0  0.129
  H  H8  1  0.513400  0.442500  0.364000  1.0  0.1081
  H  H9  1  0.547500  0.376000  0.532300  1.0  0.1277
  H  H10  1  0.330000  0.262400  0.504900  1.0  0.1005
  H  H11  1  0.751100  0.492400  0.550500  1.0  0.1053
  H  H12  1  0.722400  0.517100  0.428100  1.0  0.1028
  H  H13  1  0.197900  0.684000  0.620600  1.0  0.0938
  H  H14  1  0.979000  0.581600  0.612800  1.0  0.134
  H  H15  1  0.918300  0.603600  0.430500  1.0  0.1416
  H  H16  1  0.156500  0.709800  0.444700  1.0  0.112
  H  H17  1  0.294400  0.151600  0.931200  1.0  0.1174
  H  H18  1  0.493400  0.163500  0.013300  1.0  0.1193
  H  H19  1  0.260500  0.936200  0.058300  1.0  0.116
  H  H20  1  0.086300  0.921000  0.980400  1.0  0.0997
  H  H21  1  0.596100  0.108200  0.090200  1.0  0.0871
  H  H22  1  0.423300  0.975400  0.133800  1.0  0.099
  H  H23  1  0.932500  0.124400  0.241200  1.0  0.0642
  H  H24  1  0.783600  0.115300  0.156400  1.0  0.1323
  H  H25  1  0.483600  0.957200  0.239400  1.0  0.1256
  H  H26  1  0.646900  0.980300  0.323500  1.0  0.0796
  H  H27  1  0.879800  0.076600  0.572300  1.0  0.099
  H  H28  1  0.198000  0.111700  0.761200  1.0  0.0853
  H  H29  1  0.378500  0.209700  0.720700  1.0  0.1238
  H  H30  1  0.374900  0.356600  0.719000  1.0  0.1046
  H  H31  1  0.190900  0.405400  0.757700  1.0  0.1216
  H  H32  1  0.010500  0.307300  0.798200  1.0  0.1068
  H  H33  1  0.702500  0.672500  0.665800  1.0  0.1291
  H  H34  1  0.486600  0.557500  0.636000  1.0  0.1069
  H  H35  1  0.452500  0.624000  0.467700  1.0  0.1275
  H  H36  1  0.670000  0.737600  0.495100  1.0  0.1006
  H  H37  1  0.248900  0.507600  0.449500  1.0  0.1063
  H  H38  1  0.277600  0.482900  0.571900  1.0  0.1035
  H  H39  1  0.802100  0.316000  0.379400  1.0  0.0944
  H  H40  1  0.021000  0.418400  0.387200  1.0  0.1348
  H  H41  1  0.081700  0.396400  0.569500  1.0  0.1409
  H  H42  1  0.843500  0.290200  0.555300  1.0  0.1093
  H  H43  1  0.705600  0.848400  0.068800  1.0  0.1169
  H  H44  1  0.506600  0.836500  0.986700  1.0  0.1196
  H  H45  1  0.739500  0.063800  0.941700  1.0  0.1147
  H  H46  1  0.913700  0.079000  0.019600  1.0  0.1001
  H  H47  1  0.403900  0.891800  0.909800  1.0  0.0868
  H  H48  1  0.576700  0.024600  0.866200  1.0  0.1027
  H  H49  1  0.067500  0.875600  0.758800  1.0  0.065
  H  H50  1  0.216400  0.884700  0.843600  1.0  0.1328
  H  H51  1  0.516400  0.042800  0.760600  1.0  0.1255
  H  H52  1  0.353100  0.019700  0.676500  1.0  0.0814
  H  H53  1  0.120200  0.923400  0.427700  1.0  0.0972
  H  H54  1  0.802000  0.888300  0.238800  1.0  0.086
  H  H55  1  0.621500  0.790300  0.279300  1.0  0.1246
  H  H56  1  0.625100  0.643400  0.281000  1.0  0.1041
  H  H57  1  0.809100  0.594600  0.242300  1.0  0.1222
  H  H58  1  0.989500  0.692700  0.201800  1.0  0.1064
  C  C59  1  0.153600  0.214000  0.401800  1.0  0.5978
  C  C60  1  0.291700  0.286300  0.420500  1.0  -0.1146
  C  C61  1  0.346100  0.337900  0.374300  1.0  -0.0443
  C  C62  1  0.476900  0.405300  0.392300  1.0  -0.1144
  C  C63  1  0.552100  0.418100  0.449500  1.0  0.0671
  C  C64  1  0.497900  0.366600  0.492600  1.0  -0.1588
  C  C65  1  0.365700  0.298900  0.476200  1.0  -0.0567
  C  C66  1  0.781300  0.516700  0.515400  1.0  -0.1486
  C  C67  1  0.692700  0.488900  0.461700  1.0  -0.0757
  C  C68  1  0.141900  0.666667  0.581700  1.0  0.1771
  C  C69  1  0.009400  0.606300  0.577800  1.0  -0.1908
  C  C70  1  0.923100  0.582900  0.522800  1.0  0.1322
  C  C71  1  0.974000  0.619300  0.469300  1.0  -0.1838
  C  C72  1  0.118900  0.683100  0.477900  1.0  0.1499
  C  C73  1  0.057700  0.038000  0.893200  1.0  0.5615
  C  C74  1  0.174700  0.031100  0.946000  1.0  -0.1139
  C  C75  1  0.289000  0.106800  0.955100  1.0  -0.0837
  C  C76  1  0.410000  0.115000  0.007000  1.0  -0.1359
  C  C77  1  0.390000  0.051000  0.042500  1.0  0.0774
  C  C78  1  0.271500  0.979600  0.033000  1.0  -0.1336
  C  C79  1  0.167000  0.970800  0.985700  1.0  -0.0256
  C  C80  1  0.511500  0.064300  0.092400  1.0  -0.0697
  C  C81  1  0.507200  0.021800  0.135300  1.0  -0.1113
  C  C82  1  0.837800  0.092600  0.241400  1.0  0.1751
  C  C83  1  0.752500  0.086200  0.189400  1.0  -0.2066
  C  C84  1  0.612600  0.032100  0.188600  1.0  0.1428
  C  C85  1  0.575700  0.993600  0.239000  1.0  -0.2058
  C  C86  1  0.673900  0.008200  0.289500  1.0  0.1701
  C  C87  1  0.560300  0.869100  0.657300  1.0  0.581
  C  C88  1  0.623800  0.922000  0.609000  1.0  0.1105
  C  C89  1  0.752200  0.994600  0.617300  1.0  -0.0661
  C  C90  1  0.838600  0.029100  0.681400  1.0  0.6908
  C  C91  1  0.796000  0.029000  0.566800  1.0  -0.0281
  C  C92  1  0.778300  0.034800  0.449400  1.0  0.6703
  C  C93  1  0.721500  0.996900  0.505500  1.0  -0.0759
  C  C94  1  0.593500  0.922400  0.501200  1.0  0.0687
  C  C95  1  0.493900  0.873600  0.443500  1.0  0.5859
  C  C96  1  0.197000  0.170500  0.760500  1.0  0.1665
  C  C97  1  0.305000  0.229000  0.736200  1.0  -0.1387
  C  C98  1  0.303000  0.317000  0.735000  1.0  -0.0265
  C  C99  1  0.192000  0.346500  0.758000  1.0  -0.1489
  C  C100  1  0.084000  0.287700  0.782700  1.0  0.1337
  C  C101  1  0.846400  0.786000  0.598200  1.0  0.5975
  C  C102  1  0.708300  0.713700  0.579500  1.0  -0.1135
  C  C103  1  0.653900  0.662100  0.625700  1.0  -0.0493
  C  C104  1  0.523100  0.594700  0.607700  1.0  -0.1154
  C  C105  1  0.447900  0.581900  0.550500  1.0  0.0679
  C  C106  1  0.502100  0.633400  0.507400  1.0  -0.1576
  C  C107  1  0.634300  0.701100  0.523800  1.0  -0.0536
  C  C108  1  0.218700  0.483300  0.484600  1.0  -0.1475
  C  C109  1  0.307300  0.511100  0.538300  1.0  -0.077
  C  C110  1  0.858100  0.333333  0.418300  1.0  0.1787
  C  C111  1  0.990600  0.393700  0.422200  1.0  -0.1874
  C  C112  1  0.076900  0.417100  0.477200  1.0  0.1334
  C  C113  1  0.026000  0.380700  0.530700  1.0  -0.1858
  C  C114  1  0.881100  0.316900  0.522100  1.0  0.1501
  C  C115  1  0.942300  0.962000  0.106800  1.0  0.5603
  C  C116  1  0.825300  0.968900  0.054000  1.0  -0.1091
  C  C117  1  0.711000  0.893200  0.044900  1.0  -0.0839
  C  C118  1  0.590000  0.885000  0.993000  1.0  -0.137
  C  C119  1  0.610000  0.949000  0.957500  1.0  0.0774
  C  C120  1  0.728500  0.020400  0.967000  1.0  -0.1354
  C  C121  1  0.833000  0.029200  0.014300  1.0  -0.0272
  C  C122  1  0.488500  0.935700  0.907600  1.0  -0.0688
  C  C123  1  0.492800  0.978200  0.864700  1.0  -0.1128
  C  C124  1  0.162200  0.907400  0.758600  1.0  0.1773
  C  C125  1  0.247500  0.913800  0.810600  1.0  -0.2068
  C  C126  1  0.387400  0.967900  0.811400  1.0  0.1435
  C  C127  1  0.424300  0.006400  0.761000  1.0  -0.2044
  C  C128  1  0.326100  0.991800  0.710500  1.0  0.1668
  C  C129  1  0.439700  0.130900  0.342700  1.0  0.5802
  C  C130  1  0.376200  0.078000  0.391000  1.0  0.1092
  C  C131  1  0.247800  0.005400  0.382700  1.0  -0.0662
  C  C132  1  0.161400  0.970900  0.318600  1.0  0.6908
  C  C133  1  0.204000  0.971000  0.433200  1.0  -0.0239
  C  C134  1  0.221700  0.965200  0.550600  1.0  0.6734
  C  C135  1  0.278500  0.003100  0.494500  1.0  -0.0749
  C  C136  1  0.406500  0.077600  0.498800  1.0  0.0699
  C  C137  1  0.506100  0.126400  0.556500  1.0  0.5841
  C  C138  1  0.803000  0.829500  0.239500  1.0  0.1673
  C  C139  1  0.695000  0.771000  0.263800  1.0  -0.1397
  C  C140  1  0.697000  0.683000  0.265000  1.0  -0.0276
  C  C141  1  0.808000  0.653500  0.242000  1.0  -0.1633
  C  C142  1  0.916000  0.712300  0.217300  1.0  0.1346
  N  N143  1  0.193700  0.701300  0.534100  1.0  -0.3112
  N  N144  1  0.805200  0.060000  0.292300  1.0  -0.3273
  N  N145  1  0.555300  0.893500  0.552000  1.0  -0.2299
  N  N146  1  0.086400  0.199800  0.783700  1.0  -0.3125
  N  N147  1  0.806300  0.298700  0.465900  1.0  -0.3111
  N  N148  1  0.194800  0.940000  0.707700  1.0  -0.3372
  N  N149  1  0.444700  0.106500  0.448000  1.0  -0.2311
  N  N150  1  0.913600  0.800200  0.216300  1.0  -0.3126
  O  O151  1  0.107500  0.157600  0.436800  1.0  -0.5357
  O  O152  1  0.083700  0.205200  0.348300  1.0  -0.5472
  O  O153  1  0.967700  0.946400  0.881100  1.0  -0.552
  O  O154  1  0.063800  0.097000  0.869700  1.0  -0.4874
  O  O155  1  0.618500  0.880200  0.712300  1.0  -0.4815
  O  O156  1  0.436000  0.808400  0.634600  1.0  -0.5674
  O  O157  1  0.812900  0.086900  0.721800  1.0  -0.5453
  O  O158  1  0.945300  0.999900  0.687500  1.0  -0.642
  O  O159  1  0.848700  0.995200  0.416700  1.0  -0.5593
  O  O160  1  0.756400  0.105500  0.442700  1.0  -0.6436
  O  O161  1  0.515000  0.896400  0.391400  1.0  -0.5193
  O  O162  1  0.388400  0.806500  0.453200  1.0  -0.5816
  O  O163  1  0.892500  0.842400  0.563200  1.0  -0.5341
  O  O164  1  0.916300  0.794800  0.651700  1.0  -0.5479
  O  O165  1  0.032300  0.053600  0.118900  1.0  -0.5527
  O  O166  1  0.936200  0.903000  0.130300  1.0  -0.4865
  O  O167  1  0.381500  0.119800  0.287700  1.0  -0.4792
  O  O168  1  0.564000  0.191600  0.365400  1.0  -0.5664
  O  O169  1  0.187100  0.913100  0.278200  1.0  -0.5457
  O  O170  1  0.054700  0.000100  0.312500  1.0  -0.6419
  O  O171  1  0.151300  0.004800  0.583300  1.0  -0.5591
  O  O172  1  0.243600  0.894500  0.557300  1.0  -0.6435
  O  O173  1  0.485000  0.103600  0.608600  1.0  -0.518
  O  O174  1  0.611600  0.193500  0.546800  1.0  -0.5795
