# generated using pymatgen
data_InHC8O5F4
_symmetry_space_group_name_H-M   'P 1'
_cell_length_a   16.26400000
_cell_length_b   15.11000000
_cell_length_c   14.37600000
_cell_angle_alpha   90.00000000
_cell_angle_beta   115.14800000
_cell_angle_gamma   90.00000000
_symmetry_Int_Tables_number   1
_chemical_formula_structural   InHC8O5F4
_chemical_formula_sum   'In8 H8 C64 O40 F32'
_cell_volume   3198.01669554
_cell_formula_units_Z   8
loop_
 _symmetry_equiv_pos_site_id
 _symmetry_equiv_pos_as_xyz
  1  'x, y, z'
loop_
 _atom_site_type_symbol
 _atom_site_label
 _atom_site_symmetry_multiplicity
 _atom_site_fract_x
 _atom_site_fract_y
 _atom_site_fract_z
 _atom_site_occupancy
 _atom_site_charge
  In  In1  1  0.500000  0.500000  0.500000  1.0  1.6589
  In  In2  1  0.000000  0.000000  0.500000  1.0  1.6589
  In  In3  1  0.500000  0.500000  0.000000  1.0  1.6589
  In  In4  1  0.000000  0.000000  0.000000  1.0  1.6589
  In  In5  1  0.500000  0.435510  0.750000  1.0  1.4979
  In  In6  1  0.000000  0.935510  0.750000  1.0  1.4976
  In  In7  1  0.500000  0.564490  0.250000  1.0  1.5019
  In  In8  1  0.000000  0.064490  0.250000  1.0  1.5016
  H  H9  1  0.390000  0.469000  0.576000  1.0  0.4366
  H  H10  1  0.890000  0.969000  0.576000  1.0  0.437
  H  H11  1  0.610000  0.469000  0.924000  1.0  0.4358
  H  H12  1  0.110000  0.969000  0.924000  1.0  0.4357
  H  H13  1  0.610000  0.531000  0.424000  1.0  0.436
  H  H14  1  0.110000  0.031000  0.424000  1.0  0.436
  H  H15  1  0.390000  0.531000  0.076000  1.0  0.4364
  H  H16  1  0.890000  0.031000  0.076000  1.0  0.4368
  C  C17  1  0.686100  0.404300  0.567200  1.0  0.6519
  C  C18  1  0.743300  0.325700  0.623700  1.0  -0.2227
  C  C19  1  0.707300  0.241400  0.604600  1.0  0.1895
  C  C20  1  0.756900  0.169100  0.660400  1.0  0.1744
  C  C21  1  0.844500  0.179600  0.736500  1.0  -0.1988
  C  C22  1  0.880000  0.264100  0.755700  1.0  0.1829
  C  C23  1  0.830600  0.336000  0.699100  1.0  0.1909
  C  C24  1  0.898000  0.100300  0.793700  1.0  0.7358
  C  C25  1  0.186100  0.904300  0.567200  1.0  0.6519
  C  C26  1  0.243300  0.825700  0.623700  1.0  -0.2227
  C  C27  1  0.207300  0.741400  0.604600  1.0  0.1895
  C  C28  1  0.256900  0.669100  0.660400  1.0  0.1744
  C  C29  1  0.344500  0.679600  0.736500  1.0  -0.1988
  C  C30  1  0.380000  0.764100  0.755700  1.0  0.1829
  C  C31  1  0.330600  0.836000  0.699100  1.0  0.1909
  C  C32  1  0.398000  0.600300  0.793700  1.0  0.7358
  C  C33  1  0.313900  0.404300  0.932800  1.0  0.6529
  C  C34  1  0.256700  0.325700  0.876300  1.0  -0.2237
  C  C35  1  0.292700  0.241400  0.895400  1.0  0.1903
  C  C36  1  0.243100  0.169100  0.839600  1.0  0.1748
  C  C37  1  0.155500  0.179600  0.763500  1.0  -0.1989
  C  C38  1  0.120000  0.264100  0.744300  1.0  0.1822
  C  C39  1  0.169400  0.336000  0.800900  1.0  0.1899
  C  C40  1  0.102000  0.100300  0.706300  1.0  0.7358
  C  C41  1  0.813900  0.904300  0.932800  1.0  0.6529
  C  C42  1  0.756700  0.825700  0.876300  1.0  -0.2237
  C  C43  1  0.792700  0.741400  0.895400  1.0  0.1903
  C  C44  1  0.743100  0.669100  0.839600  1.0  0.1748
  C  C45  1  0.655500  0.679600  0.763500  1.0  -0.1989
  C  C46  1  0.620000  0.764100  0.744300  1.0  0.1822
  C  C47  1  0.669400  0.836000  0.800900  1.0  0.1899
  C  C48  1  0.602000  0.600300  0.706300  1.0  0.7358
  C  C49  1  0.313900  0.595700  0.432800  1.0  0.6521
  C  C50  1  0.256700  0.674300  0.376300  1.0  -0.2238
  C  C51  1  0.292700  0.758600  0.395400  1.0  0.1902
  C  C52  1  0.243100  0.830900  0.339600  1.0  0.1746
  C  C53  1  0.155500  0.820400  0.263500  1.0  -0.1987
  C  C54  1  0.120000  0.735900  0.244300  1.0  0.1821
  C  C55  1  0.169400  0.664000  0.300900  1.0  0.1908
  C  C56  1  0.102000  0.899700  0.206300  1.0  0.7359
  C  C57  1  0.813900  0.095700  0.432800  1.0  0.6521
  C  C58  1  0.756700  0.174300  0.376300  1.0  -0.2238
  C  C59  1  0.792700  0.258600  0.395400  1.0  0.1902
  C  C60  1  0.743100  0.330900  0.339600  1.0  0.1746
  C  C61  1  0.655500  0.320400  0.263500  1.0  -0.1987
  C  C62  1  0.620000  0.235900  0.244300  1.0  0.1821
  C  C63  1  0.669400  0.164000  0.300900  1.0  0.1908
  C  C64  1  0.602000  0.399700  0.206300  1.0  0.7359
  C  C65  1  0.686100  0.595700  0.067200  1.0  0.6511
  C  C66  1  0.743300  0.674300  0.123700  1.0  -0.2232
  C  C67  1  0.707300  0.758600  0.104600  1.0  0.1892
  C  C68  1  0.756900  0.830900  0.160400  1.0  0.1751
  C  C69  1  0.844500  0.820400  0.236500  1.0  -0.1991
  C  C70  1  0.880000  0.735900  0.255700  1.0  0.183
  C  C71  1  0.830600  0.664000  0.199100  1.0  0.1909
  C  C72  1  0.898000  0.899700  0.293700  1.0  0.7358
  C  C73  1  0.186100  0.095700  0.067200  1.0  0.6511
  C  C74  1  0.243300  0.174300  0.123700  1.0  -0.2232
  C  C75  1  0.207300  0.258600  0.104600  1.0  0.1892
  C  C76  1  0.256900  0.330900  0.160400  1.0  0.1751
  C  C77  1  0.344500  0.320400  0.236500  1.0  -0.1991
  C  C78  1  0.380000  0.235900  0.255700  1.0  0.183
  C  C79  1  0.330600  0.164000  0.199100  1.0  0.1909
  C  C80  1  0.398000  0.399700  0.293700  1.0  0.7358
  O  O81  1  0.611600  0.409800  0.577400  1.0  -0.6265
  O  O82  1  0.712600  0.453600  0.518100  1.0  -0.5347
  O  O83  1  0.933700  0.104700  0.889200  1.0  -0.6006
  O  O84  1  0.901400  0.037000  0.738300  1.0  -0.6331
  O  O85  1  0.440000  0.444200  0.589600  1.0  -0.8143
  O  O86  1  0.111600  0.909800  0.577400  1.0  -0.6265
  O  O87  1  0.212600  0.953600  0.518100  1.0  -0.5347
  O  O88  1  0.433700  0.604700  0.889200  1.0  -0.6006
  O  O89  1  0.401400  0.537000  0.738300  1.0  -0.6331
  O  O90  1  0.940000  0.944200  0.589600  1.0  -0.8143
  O  O91  1  0.388400  0.409800  0.922600  1.0  -0.6276
  O  O92  1  0.287400  0.453600  0.981900  1.0  -0.5365
  O  O93  1  0.066300  0.104700  0.610800  1.0  -0.6003
  O  O94  1  0.098600  0.037000  0.761700  1.0  -0.6336
  O  O95  1  0.560000  0.444200  0.910400  1.0  -0.8141
  O  O96  1  0.888400  0.909800  0.922600  1.0  -0.6276
  O  O97  1  0.787400  0.953600  0.981900  1.0  -0.5365
  O  O98  1  0.566300  0.604700  0.610800  1.0  -0.6003
  O  O99  1  0.598600  0.537000  0.761700  1.0  -0.6336
  O  O100  1  0.060000  0.944200  0.910400  1.0  -0.8141
  O  O101  1  0.388400  0.590200  0.422600  1.0  -0.6274
  O  O102  1  0.287400  0.546400  0.481900  1.0  -0.5361
  O  O103  1  0.066300  0.895300  0.110800  1.0  -0.6007
  O  O104  1  0.098600  0.963000  0.261700  1.0  -0.6341
  O  O105  1  0.560000  0.555800  0.410400  1.0  -0.8118
  O  O106  1  0.888400  0.090200  0.422600  1.0  -0.6274
  O  O107  1  0.787400  0.046400  0.481900  1.0  -0.5361
  O  O108  1  0.566300  0.395300  0.110800  1.0  -0.6007
  O  O109  1  0.598600  0.463000  0.261700  1.0  -0.6341
  O  O110  1  0.060000  0.055800  0.410400  1.0  -0.8118
  O  O111  1  0.611600  0.590200  0.077400  1.0  -0.6265
  O  O112  1  0.712600  0.546400  0.018100  1.0  -0.5347
  O  O113  1  0.933700  0.895300  0.389200  1.0  -0.6006
  O  O114  1  0.901400  0.963000  0.238300  1.0  -0.6332
  O  O115  1  0.440000  0.555800  0.089600  1.0  -0.8129
  O  O116  1  0.111600  0.090200  0.077400  1.0  -0.6265
  O  O117  1  0.212600  0.046400  0.018100  1.0  -0.5347
  O  O118  1  0.433700  0.395300  0.389200  1.0  -0.6006
  O  O119  1  0.401400  0.463000  0.238300  1.0  -0.6332
  O  O120  1  0.940000  0.055800  0.089600  1.0  -0.8129
  F  F121  1  0.623700  0.227000  0.531400  1.0  -0.1366
  F  F122  1  0.717100  0.089700  0.641000  1.0  -0.127
  F  F123  1  0.964300  0.277800  0.828300  1.0  -0.1158
  F  F124  1  0.868000  0.416400  0.723000  1.0  -0.1286
  F  F125  1  0.123700  0.727000  0.531400  1.0  -0.1366
  F  F126  1  0.217100  0.589700  0.641000  1.0  -0.127
  F  F127  1  0.464300  0.777800  0.828300  1.0  -0.1158
  F  F128  1  0.368000  0.916400  0.723000  1.0  -0.1286
  F  F129  1  0.376300  0.227000  0.968600  1.0  -0.1372
  F  F130  1  0.282900  0.089700  0.859000  1.0  -0.1289
  F  F131  1  0.035700  0.277800  0.671700  1.0  -0.1176
  F  F132  1  0.132000  0.416400  0.777000  1.0  -0.1288
  F  F133  1  0.876300  0.727000  0.968600  1.0  -0.1372
  F  F134  1  0.782900  0.589700  0.859000  1.0  -0.1289
  F  F135  1  0.535700  0.777800  0.671700  1.0  -0.1176
  F  F136  1  0.632000  0.916400  0.777000  1.0  -0.1288
  F  F137  1  0.376300  0.773000  0.468600  1.0  -0.137
  F  F138  1  0.282900  0.910300  0.359000  1.0  -0.1278
  F  F139  1  0.035700  0.722200  0.171700  1.0  -0.1179
  F  F140  1  0.132000  0.583600  0.277000  1.0  -0.1258
  F  F141  1  0.876300  0.273000  0.468600  1.0  -0.137
  F  F142  1  0.782900  0.410300  0.359000  1.0  -0.1278
  F  F143  1  0.535700  0.222200  0.171700  1.0  -0.1179
  F  F144  1  0.632000  0.083600  0.277000  1.0  -0.1258
  F  F145  1  0.623700  0.773000  0.031400  1.0  -0.1371
  F  F146  1  0.717100  0.910300  0.141000  1.0  -0.1287
  F  F147  1  0.964300  0.722200  0.328300  1.0  -0.1166
  F  F148  1  0.868000  0.583600  0.223000  1.0  -0.1251
  F  F149  1  0.123700  0.273000  0.031400  1.0  -0.1371
  F  F150  1  0.217100  0.410300  0.141000  1.0  -0.1287
  F  F151  1  0.464300  0.222200  0.328300  1.0  -0.1166
  F  F152  1  0.368000  0.083600  0.223000  1.0  -0.1251
