# generated using pymatgen
data_InHC8O5F4
_symmetry_space_group_name_H-M   'P 1'
_cell_length_a   16.97890000
_cell_length_b   21.61200000
_cell_length_c   13.89050000
_cell_angle_alpha   90.00000000
_cell_angle_beta   90.00000000
_cell_angle_gamma   90.00000000
_symmetry_Int_Tables_number   1
_chemical_formula_structural   InHC8O5F4
_chemical_formula_sum   'In12 H12 C96 O60 F48'
_cell_volume   5097.09101065
_cell_formula_units_Z   12
loop_
 _symmetry_equiv_pos_site_id
 _symmetry_equiv_pos_as_xyz
  1  'x, y, z'
loop_
 _atom_site_type_symbol
 _atom_site_label
 _atom_site_symmetry_multiplicity
 _atom_site_fract_x
 _atom_site_fract_y
 _atom_site_fract_z
 _atom_site_occupancy
 _atom_site_charge
  In  In1  1  0.250030  0.083270  0.750910  1.0  1.692
  In  In2  1  0.249970  0.916730  0.750910  1.0  1.6918
  In  In3  1  0.249970  0.583270  0.749090  1.0  1.6913
  In  In4  1  0.250030  0.416730  0.749090  1.0  1.6916
  In  In5  1  0.749970  0.916730  0.249090  1.0  1.6914
  In  In6  1  0.750030  0.083270  0.249090  1.0  1.6916
  In  In7  1  0.750030  0.416730  0.250910  1.0  1.6921
  In  In8  1  0.749970  0.583270  0.250910  1.0  1.6917
  In  In9  1  0.250440  0.250000  0.750000  1.0  1.6989
  In  In10  1  0.249560  0.750000  0.750000  1.0  1.6992
  In  In11  1  0.749560  0.750000  0.250000  1.0  1.7
  In  In12  1  0.750440  0.250000  0.250000  1.0  1.6996
  H  H13  1  0.278000  0.166900  0.880000  1.0  0.4781
  H  H14  1  0.222000  0.833100  0.880000  1.0  0.478
  H  H15  1  0.222000  0.666900  0.620000  1.0  0.477
  H  H16  1  0.278000  0.333100  0.620000  1.0  0.477
  H  H17  1  0.722000  0.833100  0.120000  1.0  0.4766
  H  H18  1  0.778000  0.166900  0.120000  1.0  0.4766
  H  H19  1  0.778000  0.333100  0.380000  1.0  0.478
  H  H20  1  0.722000  0.666900  0.380000  1.0  0.478
  H  H21  1  0.250000  0.000000  0.615700  1.0  0.4677
  H  H22  1  0.250000  0.500000  0.884300  1.0  0.4681
  H  H23  1  0.750000  0.000000  0.384300  1.0  0.4681
  H  H24  1  0.750000  0.500000  0.115700  1.0  0.4677
  C  C25  1  0.358000  0.168400  0.619300  1.0  0.6963
  C  C26  1  0.425600  0.166100  0.547800  1.0  -0.1869
  C  C27  1  0.439200  0.214300  0.484000  1.0  0.2231
  C  C28  1  0.503700  0.213000  0.421100  1.0  0.2128
  C  C29  1  0.555700  0.165200  0.421500  1.0  -0.1665
  C  C30  1  0.542600  0.116100  0.485000  1.0  0.2203
  C  C31  1  0.477700  0.117200  0.548300  1.0  0.2051
  C  C32  1  0.627100  0.164700  0.357500  1.0  0.697
  C  C33  1  0.135100  0.996700  0.871400  1.0  0.6969
  C  C34  1  0.065800  0.998100  0.938300  1.0  -0.1098
  C  C35  1  0.017600  0.049100  0.940600  1.0  0.2122
  C  C36  1  0.951200  0.050100  0.001600  1.0  0.1942
  C  C37  1  0.142000  0.831600  0.619300  1.0  0.6956
  C  C38  1  0.074400  0.833900  0.547800  1.0  -0.1872
  C  C39  1  0.060800  0.785700  0.484000  1.0  0.2243
  C  C40  1  0.996300  0.787000  0.421100  1.0  0.2115
  C  C41  1  0.944300  0.834800  0.421500  1.0  -0.1665
  C  C42  1  0.957400  0.883900  0.485000  1.0  0.2206
  C  C43  1  0.022300  0.882800  0.548300  1.0  0.2052
  C  C44  1  0.872900  0.835300  0.357500  1.0  0.6978
  C  C45  1  0.364900  0.003300  0.871400  1.0  0.6974
  C  C46  1  0.434200  0.001900  0.938300  1.0  -0.1093
  C  C47  1  0.482400  0.950900  0.940600  1.0  0.2115
  C  C48  1  0.548800  0.949900  0.001600  1.0  0.193
  C  C49  1  0.142000  0.668400  0.880700  1.0  0.6962
  C  C50  1  0.074400  0.666100  0.952200  1.0  -0.1869
  C  C51  1  0.060800  0.714300  0.016000  1.0  0.2238
  C  C52  1  0.996300  0.713000  0.078900  1.0  0.2121
  C  C53  1  0.944300  0.665200  0.078500  1.0  -0.1671
  C  C54  1  0.957400  0.616100  0.015000  1.0  0.2198
  C  C55  1  0.022300  0.617200  0.951700  1.0  0.2074
  C  C56  1  0.872900  0.664700  0.142500  1.0  0.6985
  C  C57  1  0.364900  0.496700  0.628600  1.0  0.6982
  C  C58  1  0.434200  0.498100  0.561700  1.0  -0.1092
  C  C59  1  0.482400  0.549100  0.559400  1.0  0.2123
  C  C60  1  0.548800  0.550100  0.498400  1.0  0.1941
  C  C61  1  0.358000  0.331600  0.880700  1.0  0.6969
  C  C62  1  0.425600  0.333900  0.952200  1.0  -0.1867
  C  C63  1  0.439200  0.285700  0.016000  1.0  0.224
  C  C64  1  0.503700  0.287000  0.078900  1.0  0.2108
  C  C65  1  0.555700  0.334800  0.078500  1.0  -0.1669
  C  C66  1  0.542600  0.383900  0.015000  1.0  0.2195
  C  C67  1  0.477700  0.382800  0.951700  1.0  0.2074
  C  C68  1  0.627100  0.335300  0.142500  1.0  0.6974
  C  C69  1  0.135100  0.503300  0.628600  1.0  0.6976
  C  C70  1  0.065800  0.501900  0.561700  1.0  -0.1099
  C  C71  1  0.017600  0.450900  0.559400  1.0  0.2128
  C  C72  1  0.951200  0.449900  0.498400  1.0  0.1937
  C  C73  1  0.642000  0.831600  0.380700  1.0  0.6961
  C  C74  1  0.574400  0.833900  0.452200  1.0  -0.1869
  C  C75  1  0.560800  0.785700  0.516000  1.0  0.2243
  C  C76  1  0.496300  0.787000  0.578900  1.0  0.2113
  C  C77  1  0.444300  0.834800  0.578500  1.0  -0.1671
  C  C78  1  0.457400  0.883900  0.515000  1.0  0.2203
  C  C79  1  0.522300  0.882800  0.451700  1.0  0.208
  C  C80  1  0.372900  0.835300  0.642500  1.0  0.6985
  C  C81  1  0.864900  0.003300  0.128600  1.0  0.6978
  C  C82  1  0.934200  0.001900  0.061700  1.0  -0.1093
  C  C83  1  0.982400  0.950900  0.059400  1.0  0.2125
  C  C84  1  0.048800  0.949900  0.998400  1.0  0.1934
  C  C85  1  0.858000  0.168400  0.380700  1.0  0.6969
  C  C86  1  0.925600  0.166100  0.452200  1.0  -0.1866
  C  C87  1  0.939200  0.214300  0.516000  1.0  0.2233
  C  C88  1  0.003700  0.213000  0.578900  1.0  0.2119
  C  C89  1  0.055700  0.165200  0.578500  1.0  -0.1669
  C  C90  1  0.042600  0.116100  0.515000  1.0  0.2192
  C  C91  1  0.977700  0.117200  0.451700  1.0  0.2069
  C  C92  1  0.127100  0.164700  0.642500  1.0  0.6974
  C  C93  1  0.635100  0.996700  0.128600  1.0  0.6971
  C  C94  1  0.565800  0.998100  0.061700  1.0  -0.1098
  C  C95  1  0.517600  0.049100  0.059400  1.0  0.2126
  C  C96  1  0.451200  0.050100  0.998400  1.0  0.1944
  C  C97  1  0.858000  0.331600  0.119300  1.0  0.6963
  C  C98  1  0.925600  0.333900  0.047800  1.0  -0.1869
  C  C99  1  0.939200  0.285700  0.984000  1.0  0.2238
  C  C100  1  0.003700  0.287000  0.921100  1.0  0.211
  C  C101  1  0.055700  0.334800  0.921500  1.0  -0.1665
  C  C102  1  0.042600  0.383900  0.985000  1.0  0.2197
  C  C103  1  0.977700  0.382800  0.048300  1.0  0.205
  C  C104  1  0.127100  0.335300  0.857500  1.0  0.697
  C  C105  1  0.635100  0.503300  0.371400  1.0  0.6965
  C  C106  1  0.565800  0.501900  0.438300  1.0  -0.1099
  C  C107  1  0.517600  0.450900  0.440600  1.0  0.212
  C  C108  1  0.451200  0.449900  0.501600  1.0  0.1934
  C  C109  1  0.642000  0.668400  0.119300  1.0  0.6956
  C  C110  1  0.574400  0.666100  0.047800  1.0  -0.1872
  C  C111  1  0.560800  0.714300  0.984000  1.0  0.2237
  C  C112  1  0.496300  0.713000  0.921100  1.0  0.2129
  C  C113  1  0.444300  0.665200  0.921500  1.0  -0.1665
  C  C114  1  0.457400  0.616100  0.985000  1.0  0.2209
  C  C115  1  0.522300  0.617200  0.048300  1.0  0.2052
  C  C116  1  0.372900  0.664700  0.857500  1.0  0.6978
  C  C117  1  0.864900  0.496700  0.371400  1.0  0.6969
  C  C118  1  0.934200  0.498100  0.438300  1.0  -0.1092
  C  C119  1  0.982400  0.549100  0.440600  1.0  0.2116
  C  C120  1  0.048800  0.550100  0.501600  1.0  0.1938
  O  O121  1  0.344500  0.220100  0.653700  1.0  -0.6015
  O  O122  1  0.324400  0.118100  0.637600  1.0  -0.6508
  O  O123  1  0.662700  0.215100  0.344700  1.0  -0.642
  O  O124  1  0.645600  0.112700  0.322900  1.0  -0.6239
  O  O125  1  0.173000  0.045300  0.861900  1.0  -0.6322
  O  O126  1  0.148300  0.945100  0.829600  1.0  -0.6114
  O  O127  1  0.254600  0.166700  0.826700  1.0  -1.0128
  O  O128  1  0.155500  0.779900  0.653700  1.0  -0.6018
  O  O129  1  0.175600  0.881900  0.637600  1.0  -0.6504
  O  O130  1  0.837300  0.784900  0.344700  1.0  -0.6417
  O  O131  1  0.854400  0.887300  0.322900  1.0  -0.6233
  O  O132  1  0.327000  0.954700  0.861900  1.0  -0.6321
  O  O133  1  0.351700  0.054900  0.829600  1.0  -0.6112
  O  O134  1  0.245400  0.833300  0.826700  1.0  -1.0135
  O  O135  1  0.155500  0.720100  0.846300  1.0  -0.6017
  O  O136  1  0.175600  0.618100  0.862400  1.0  -0.6515
  O  O137  1  0.837300  0.715100  0.155300  1.0  -0.6413
  O  O138  1  0.854400  0.612700  0.177100  1.0  -0.6237
  O  O139  1  0.327000  0.545300  0.638100  1.0  -0.6315
  O  O140  1  0.351700  0.445100  0.670400  1.0  -0.6114
  O  O141  1  0.245400  0.666667  0.673300  1.0  -1.0096
  O  O142  1  0.344500  0.279900  0.846300  1.0  -0.6021
  O  O143  1  0.324400  0.381900  0.862400  1.0  -0.65
  O  O144  1  0.662700  0.284900  0.155300  1.0  -0.6419
  O  O145  1  0.645600  0.387300  0.177100  1.0  -0.6235
  O  O146  1  0.173000  0.454700  0.638100  1.0  -0.6338
  O  O147  1  0.148300  0.554900  0.670400  1.0  -0.6106
  O  O148  1  0.254600  0.333333  0.673300  1.0  -1.0096
  O  O149  1  0.655500  0.779900  0.346300  1.0  -0.6018
  O  O150  1  0.675600  0.881900  0.362400  1.0  -0.6508
  O  O151  1  0.337300  0.784900  0.655300  1.0  -0.6417
  O  O152  1  0.354400  0.887300  0.677100  1.0  -0.6233
  O  O153  1  0.827000  0.954700  0.138100  1.0  -0.633
  O  O154  1  0.851700  0.054900  0.170400  1.0  -0.611
  O  O155  1  0.745400  0.833300  0.173300  1.0  -1.0138
  O  O156  1  0.844500  0.220100  0.346300  1.0  -0.6012
  O  O157  1  0.824400  0.118100  0.362400  1.0  -0.6505
  O  O158  1  0.162700  0.215100  0.655300  1.0  -0.6418
  O  O159  1  0.145600  0.112700  0.677100  1.0  -0.6237
  O  O160  1  0.673000  0.045300  0.138100  1.0  -0.6327
  O  O161  1  0.648300  0.945100  0.170400  1.0  -0.6104
  O  O162  1  0.754600  0.166700  0.173300  1.0  -1.0138
  O  O163  1  0.844500  0.279900  0.153700  1.0  -0.6024
  O  O164  1  0.824400  0.381900  0.137600  1.0  -0.6499
  O  O165  1  0.162700  0.284900  0.844700  1.0  -0.6418
  O  O166  1  0.145600  0.387300  0.822900  1.0  -0.6237
  O  O167  1  0.673000  0.454700  0.361900  1.0  -0.6333
  O  O168  1  0.648300  0.554900  0.329600  1.0  -0.611
  O  O169  1  0.754600  0.333333  0.326700  1.0  -1.0085
  O  O170  1  0.655500  0.720100  0.153700  1.0  -0.6018
  O  O171  1  0.675600  0.618100  0.137600  1.0  -0.6512
  O  O172  1  0.337300  0.715100  0.844700  1.0  -0.6418
  O  O173  1  0.354400  0.612700  0.822900  1.0  -0.6236
  O  O174  1  0.827000  0.545300  0.361900  1.0  -0.6308
  O  O175  1  0.851700  0.445100  0.329600  1.0  -0.612
  O  O176  1  0.745400  0.666667  0.326700  1.0  -1.0092
  O  O177  1  0.250000  0.000000  0.675200  1.0  -1.0827
  O  O178  1  0.250000  0.500000  0.824800  1.0  -1.0838
  O  O179  1  0.750000  0.000000  0.324800  1.0  -1.0838
  O  O180  1  0.750000  0.500000  0.175200  1.0  -1.0827
  F  F181  1  0.389600  0.262900  0.478700  1.0  -0.1325
  F  F182  1  0.511700  0.261400  0.361200  1.0  -0.1391
  F  F183  1  0.591500  0.067300  0.491700  1.0  -0.1296
  F  F184  1  0.469200  0.068300  0.608300  1.0  -0.1612
  F  F185  1  0.028400  0.096800  0.881000  1.0  -0.1431
  F  F186  1  0.904300  0.099900  0.996400  1.0  -0.1293
  F  F187  1  0.110400  0.737100  0.478700  1.0  -0.1298
  F  F188  1  0.988300  0.738600  0.361200  1.0  -0.1384
  F  F189  1  0.908500  0.932700  0.491700  1.0  -0.1304
  F  F190  1  0.030800  0.931700  0.608300  1.0  -0.1644
  F  F191  1  0.471600  0.903200  0.881000  1.0  -0.1411
  F  F192  1  0.595700  0.900100  0.996400  1.0  -0.1297
  F  F193  1  0.110400  0.762900  0.021300  1.0  -0.1307
  F  F194  1  0.988300  0.761400  0.138800  1.0  -0.1388
  F  F195  1  0.908500  0.567300  0.008300  1.0  -0.1307
  F  F196  1  0.030800  0.568300  0.891700  1.0  -0.1602
  F  F197  1  0.471600  0.596800  0.619000  1.0  -0.1428
  F  F198  1  0.595700  0.599900  0.503600  1.0  -0.1296
  F  F199  1  0.389600  0.237100  0.021300  1.0  -0.1314
  F  F200  1  0.511700  0.238600  0.138800  1.0  -0.1386
  F  F201  1  0.591500  0.432700  0.008300  1.0  -0.1302
  F  F202  1  0.469200  0.431700  0.891700  1.0  -0.1617
  F  F203  1  0.028400  0.403200  0.619000  1.0  -0.1409
  F  F204  1  0.904300  0.400100  0.503600  1.0  -0.1283
  F  F205  1  0.610400  0.737100  0.521300  1.0  -0.13
  F  F206  1  0.488300  0.738600  0.638800  1.0  -0.1389
  F  F207  1  0.408500  0.932700  0.508300  1.0  -0.131
  F  F208  1  0.530800  0.931700  0.391700  1.0  -0.1634
  F  F209  1  0.971600  0.903200  0.119000  1.0  -0.1427
  F  F210  1  0.095700  0.900100  0.003600  1.0  -0.1299
  F  F211  1  0.889600  0.262900  0.521300  1.0  -0.1321
  F  F212  1  0.011700  0.261400  0.638800  1.0  -0.1391
  F  F213  1  0.091500  0.067300  0.508300  1.0  -0.1297
  F  F214  1  0.969200  0.068300  0.391700  1.0  -0.1591
  F  F215  1  0.528400  0.096800  0.119000  1.0  -0.1444
  F  F216  1  0.404300  0.099900  0.003600  1.0  -0.1292
  F  F217  1  0.889600  0.237100  0.978700  1.0  -0.1318
  F  F218  1  0.011700  0.238600  0.861200  1.0  -0.1382
  F  F219  1  0.091500  0.432700  0.991700  1.0  -0.1302
  F  F220  1  0.969200  0.431700  0.108300  1.0  -0.1631
  F  F221  1  0.528400  0.403200  0.381000  1.0  -0.1424
  F  F222  1  0.404300  0.400100  0.496400  1.0  -0.1302
  F  F223  1  0.610400  0.762900  0.978700  1.0  -0.1305
  F  F224  1  0.488300  0.761400  0.861200  1.0  -0.1384
  F  F225  1  0.408500  0.567300  0.991700  1.0  -0.1303
  F  F226  1  0.530800  0.568300  0.108300  1.0  -0.1618
  F  F227  1  0.971600  0.596800  0.381000  1.0  -0.1446
  F  F228  1  0.095700  0.599900  0.496400  1.0  -0.1309
