# generated using pymatgen
data_Zn4H36C35(N3O2)5
_symmetry_space_group_name_H-M   'P 1'
_cell_length_a   14.92150000
_cell_length_b   15.32260000
_cell_length_c   15.98400000
_cell_angle_alpha   72.66900000
_cell_angle_beta   63.67600000
_cell_angle_gamma   63.78800000
_symmetry_Int_Tables_number   1
_chemical_formula_structural   Zn4H36C35(N3O2)5
_chemical_formula_sum   'Zn8 H72 C70 N30 O20'
_cell_volume   2914.96292003
_cell_formula_units_Z   2
loop_
 _symmetry_equiv_pos_site_id
 _symmetry_equiv_pos_as_xyz
  1  'x, y, z'
loop_
 _atom_site_type_symbol
 _atom_site_label
 _atom_site_symmetry_multiplicity
 _atom_site_fract_x
 _atom_site_fract_y
 _atom_site_fract_z
 _atom_site_occupancy
 _atom_site_charge
  Zn  Zn1  1  0.698150  0.106320  0.153990  1.0  0.7917
  Zn  Zn2  1  0.210810  0.996000  0.390220  1.0  0.9134
  Zn  Zn3  1  0.314020  0.097470  0.484420  1.0  0.7963
  Zn  Zn4  1  0.842510  0.340880  0.352600  1.0  0.9488
  Zn  Zn5  1  0.301850  0.893680  0.846010  1.0  0.7936
  Zn  Zn6  1  0.789190  0.004000  0.609780  1.0  0.9132
  Zn  Zn7  1  0.685980  0.902530  0.515580  1.0  0.7959
  Zn  Zn8  1  0.157490  0.659120  0.647400  1.0  0.95
  H  H9  1  0.295400  0.023400  0.679900  1.0  0.0731
  H  H10  1  0.192200  0.298100  0.531200  1.0  0.0285
  H  H11  1  0.014100  0.135700  0.360000  1.0  0.0779
  H  H12  1  0.320000  0.947100  0.205000  1.0  0.0344
  H  H13  1  0.511100  0.127800  0.345500  1.0  0.0909
  H  H14  1  0.019400  0.848600  0.381600  1.0  0.0746
  H  H15  1  0.976400  0.993500  0.293500  1.0  0.0715
  H  H16  1  0.951300  0.914600  0.273200  1.0  0.0779
  H  H17  1  0.029100  0.004100  0.127100  1.0  0.0799
  H  H18  1  0.133100  0.970600  0.149700  1.0  0.0715
  H  H19  1  0.059500  0.837500  0.128900  1.0  0.0719
  H  H20  1  0.246200  0.794300  0.161100  1.0  0.0719
  H  H21  1  0.217200  0.715700  0.144400  1.0  0.0832
  H  H22  1  0.065200  0.740800  0.285100  1.0  0.0601
  H  H23  1  0.167200  0.712900  0.308300  1.0  0.0726
  H  H24  1  0.537800  0.141900  0.568400  1.0  0.0821
  H  H25  1  0.431100  0.195000  0.716300  1.0  0.0802
  H  H26  1  0.522500  0.237500  0.657300  1.0  0.0715
  H  H27  1  0.368800  0.361700  0.727100  1.0  0.074
  H  H28  1  0.304600  0.341500  0.683800  1.0  0.0763
  H  H29  1  0.478400  0.407300  0.575600  1.0  0.0821
  H  H30  1  0.440500  0.421600  0.443900  1.0  0.0852
  H  H31  1  0.350600  0.377500  0.507300  1.0  0.0711
  H  H32  1  0.509300  0.250000  0.434300  1.0  0.0793
  H  H33  1  0.573700  0.272700  0.475300  1.0  0.0678
  H  H34  1  0.932500  0.555000  0.104300  1.0  0.0759
  H  H35  1  0.823300  0.519500  0.079500  1.0  0.088
  H  H36  1  0.912300  0.420700  0.043000  1.0  0.0712
  H  H37  1  0.097300  0.387200  0.052500  1.0  0.0723
  H  H38  1  0.093900  0.470800  0.092800  1.0  0.0809
  H  H39  1  0.244100  0.730400  0.826800  1.0  0.3404
  H  H40  1  0.136700  0.782400  0.833300  1.0  0.3557
  H  H41  1  0.907700  0.508200  0.482700  1.0  0.3334
  H  H42  1  0.872100  0.457800  0.443500  1.0  0.3353
  H  H43  1  0.593600  0.013900  0.988800  1.0  0.3291
  H  H44  1  0.636100  0.052800  0.032500  1.0  0.3298
  H  H45  1  0.704600  0.976600  0.320100  1.0  0.0731
  H  H46  1  0.807800  0.701900  0.468800  1.0  0.0286
  H  H47  1  0.985900  0.864300  0.640000  1.0  0.0778
  H  H48  1  0.680000  0.052900  0.795000  1.0  0.0337
  H  H49  1  0.488900  0.872200  0.654500  1.0  0.0912
  H  H50  1  0.980600  0.151400  0.618400  1.0  0.0748
  H  H51  1  0.023600  0.006500  0.706500  1.0  0.072
  H  H52  1  0.048700  0.085400  0.726800  1.0  0.0806
  H  H53  1  0.970900  0.995900  0.872900  1.0  0.082
  H  H54  1  0.866900  0.029400  0.850300  1.0  0.0719
  H  H55  1  0.940500  0.162500  0.871100  1.0  0.075
  H  H56  1  0.753800  0.205700  0.838900  1.0  0.074
  H  H57  1  0.782800  0.284300  0.855600  1.0  0.084
  H  H58  1  0.934800  0.259200  0.714900  1.0  0.06
  H  H59  1  0.832800  0.287100  0.691700  1.0  0.0726
  H  H60  1  0.462200  0.858100  0.431600  1.0  0.0815
  H  H61  1  0.568900  0.805000  0.283700  1.0  0.0794
  H  H62  1  0.477500  0.762500  0.342700  1.0  0.0744
  H  H63  1  0.631200  0.638300  0.272900  1.0  0.0734
  H  H64  1  0.695400  0.658500  0.316200  1.0  0.0762
  H  H65  1  0.521600  0.592700  0.424400  1.0  0.0807
  H  H66  1  0.559500  0.578400  0.556100  1.0  0.0859
  H  H67  1  0.649400  0.622500  0.492700  1.0  0.0708
  H  H68  1  0.490700  0.750000  0.565700  1.0  0.0792
  H  H69  1  0.426300  0.727300  0.524700  1.0  0.0738
  H  H70  1  0.067500  0.445000  0.895700  1.0  0.0744
  H  H71  1  0.176700  0.480500  0.920500  1.0  0.0892
  H  H72  1  0.087700  0.579300  0.957000  1.0  0.0686
  H  H73  1  0.902700  0.612800  0.947500  1.0  0.074
  H  H74  1  0.906100  0.529200  0.907200  1.0  0.0816
  H  H75  1  0.755900  0.269600  0.173200  1.0  0.3412
  H  H76  1  0.863300  0.217600  0.166700  1.0  0.3589
  H  H77  1  0.092300  0.491800  0.517300  1.0  0.332
  H  H78  1  0.127900  0.542200  0.556500  1.0  0.3369
  H  H79  1  0.406400  0.986100  0.011200  1.0  0.3297
  H  H80  1  0.363900  0.947200  0.967500  1.0  0.3287
  C  C81  1  0.278700  0.978100  0.667300  1.0  0.2461
  C  C82  1  0.247800  0.917500  0.577900  1.0  0.2279
  C  C83  1  0.227000  0.837600  0.642100  1.0  0.2373
  C  C84  1  0.231100  0.833000  0.727100  1.0  0.2905
  C  C85  1  0.209700  0.825400  0.525400  1.0  0.1057
  C  C86  1  0.147200  0.294500  0.507500  1.0  0.3365
  C  C87  1  0.110500  0.209400  0.445400  1.0  0.4284
  C  C88  1  0.019400  0.290400  0.438200  1.0  -0.042
  C  C89  1  0.995800  0.376100  0.471000  1.0  0.5248
  C  C90  1  0.028600  0.172100  0.386500  1.0  0.298
  C  C91  1  0.366600  0.971900  0.205300  1.0  0.3566
  C  C92  1  0.416900  0.032500  0.282700  1.0  0.4019
  C  C93  1  0.501600  0.040000  0.204400  1.0  0.0272
  C  C94  1  0.518300  0.016800  0.119400  1.0  0.5104
  C  C95  1  0.495700  0.098200  0.313200  1.0  0.2721
  C  C96  1  0.070100  0.859100  0.318000  1.0  -0.0957
  C  C97  1  0.008800  0.932900  0.266400  1.0  -0.1489
  C  C98  1  0.075000  0.951900  0.158500  1.0  -0.1597
  C  C99  1  0.119800  0.855100  0.118200  1.0  -0.1169
  C  C100  1  0.187300  0.776900  0.169900  1.0  -0.162
  C  C101  1  0.121000  0.762800  0.276000  1.0  -0.1221
  C  C102  1  0.151900  0.886400  0.328600  1.0  0.4212
  C  C103  1  0.179700  0.867200  0.016700  1.0  0.6786
  C  C104  1  0.474200  0.202300  0.575500  1.0  -0.1578
  C  C105  1  0.455200  0.239000  0.661100  1.0  -0.1333
  C  C106  1  0.374300  0.340600  0.672900  1.0  -0.1423
  C  C107  1  0.407600  0.410700  0.584800  1.0  -0.171
  C  C108  1  0.419000  0.377000  0.499700  1.0  -0.1602
  C  C109  1  0.504200  0.272100  0.487600  1.0  -0.1601
  C  C110  1  0.382600  0.172400  0.584700  1.0  0.6487
  C  C111  1  0.331200  0.513600  0.601100  1.0  0.6535
  C  C112  1  0.956200  0.485800  0.097800  1.0  -0.0268
  C  C113  1  0.899500  0.487500  0.046700  1.0  -0.1318
  C  C114  1  0.066300  0.457300  0.055300  1.0  -0.1404
  C  C115  1  0.925300  0.437300  0.197200  1.0  0.5944
  C  C116  1  0.721300  0.021900  0.332700  1.0  0.2473
  C  C117  1  0.752200  0.082500  0.422100  1.0  0.227
  C  C118  1  0.773000  0.162400  0.357900  1.0  0.2378
  C  C119  1  0.768900  0.167000  0.272900  1.0  0.2898
  C  C120  1  0.790300  0.174600  0.474600  1.0  0.1044
  C  C121  1  0.852800  0.705500  0.492500  1.0  0.335
  C  C122  1  0.889500  0.790600  0.554600  1.0  0.4269
  C  C123  1  0.980600  0.709600  0.561800  1.0  -0.0419
  C  C124  1  0.004200  0.623900  0.529000  1.0  0.5248
  C  C125  1  0.971400  0.827900  0.613500  1.0  0.299
  C  C126  1  0.633400  0.028100  0.794700  1.0  0.356
  C  C127  1  0.583100  0.967500  0.717300  1.0  0.4021
  C  C128  1  0.498400  0.960000  0.795600  1.0  0.0267
  C  C129  1  0.481700  0.983200  0.880600  1.0  0.5108
  C  C130  1  0.504300  0.901800  0.686800  1.0  0.2734
  C  C131  1  0.929900  0.140900  0.682000  1.0  -0.0934
  C  C132  1  0.991200  0.067100  0.733600  1.0  -0.1487
  C  C133  1  0.925000  0.048100  0.841500  1.0  -0.1556
  C  C134  1  0.880200  0.144900  0.881800  1.0  -0.1154
  C  C135  1  0.812700  0.223100  0.830100  1.0  -0.1652
  C  C136  1  0.879000  0.237200  0.724000  1.0  -0.1266
  C  C137  1  0.848100  0.113600  0.671400  1.0  0.423
  C  C138  1  0.820300  0.132800  0.983300  1.0  0.6764
  C  C139  1  0.525800  0.797700  0.424500  1.0  -0.1576
  C  C140  1  0.544800  0.761000  0.338900  1.0  -0.1336
  C  C141  1  0.625700  0.659400  0.327100  1.0  -0.1408
  C  C142  1  0.592400  0.589300  0.415200  1.0  -0.1733
  C  C143  1  0.581000  0.623000  0.500300  1.0  -0.1588
  C  C144  1  0.495800  0.727900  0.512400  1.0  -0.1605
  C  C145  1  0.617400  0.827600  0.415300  1.0  0.6493
  C  C146  1  0.668800  0.486400  0.398900  1.0  0.6549
  C  C147  1  0.043800  0.514200  0.902200  1.0  -0.0286
  C  C148  1  0.100500  0.512500  0.953300  1.0  -0.1268
  C  C149  1  0.933700  0.542700  0.944700  1.0  -0.1393
  C  C150  1  0.074700  0.562700  0.802800  1.0  0.5967
  N  N151  1  0.260300  0.905900  0.733000  1.0  -0.3772
  N  N152  1  0.274300  0.989000  0.581600  1.0  -0.3731
  N  N153  1  0.200900  0.778300  0.612900  1.0  -0.4727
  N  N154  1  0.234800  0.907400  0.501900  1.0  -0.3504
  N  N155  1  0.202000  0.757200  0.795000  1.0  -0.6524
  N  N156  1  0.068100  0.371700  0.505400  1.0  -0.3708
  N  N157  1  0.176900  0.207700  0.480900  1.0  -0.3473
  N  N158  1  0.967800  0.263600  0.401100  1.0  -0.4644
  N  N159  1  0.113800  0.135500  0.413100  1.0  -0.3979
  N  N160  1  0.916400  0.456300  0.465100  1.0  -0.6713
  N  N161  1  0.447800  0.978700  0.123500  1.0  -0.4481
  N  N162  1  0.346300  0.996800  0.286400  1.0  -0.382
  N  N163  1  0.556000  0.081500  0.225400  1.0  -0.4568
  N  N164  1  0.410300  0.069900  0.353700  1.0  -0.4845
  N  N165  1  0.590900  0.029200  0.037600  1.0  -0.6742
  N  N166  1  0.739700  0.094100  0.267000  1.0  -0.3796
  N  N167  1  0.725700  0.011000  0.418400  1.0  -0.373
  N  N168  1  0.799100  0.221700  0.387100  1.0  -0.4724
  N  N169  1  0.765200  0.092600  0.498100  1.0  -0.3482
  N  N170  1  0.798000  0.242800  0.205000  1.0  -0.6519
  N  N171  1  0.931900  0.628300  0.494600  1.0  -0.3698
  N  N172  1  0.823100  0.792300  0.519100  1.0  -0.345
  N  N173  1  0.032200  0.736400  0.598900  1.0  -0.4616
  N  N174  1  0.886200  0.864500  0.586900  1.0  -0.3972
  N  N175  1  0.083600  0.543700  0.534900  1.0  -0.671
  N  N176  1  0.552200  0.021300  0.876500  1.0  -0.4458
  N  N177  1  0.653700  0.003200  0.713600  1.0  -0.3822
  N  N178  1  0.444000  0.918500  0.774600  1.0  -0.4575
  N  N179  1  0.589700  0.930100  0.646300  1.0  -0.4856
  N  N180  1  0.409100  0.970800  0.962400  1.0  -0.6758
  O  O181  1  0.147700  0.861700  0.959200  1.0  -0.608
  O  O182  1  0.266600  0.885200  0.985300  1.0  -0.658
  O  O183  1  0.124400  0.959200  0.354800  1.0  -0.5616
  O  O184  1  0.248500  0.817600  0.319600  1.0  -0.5824
  O  O185  1  0.401200  0.141800  0.511500  1.0  -0.5916
  O  O186  1  0.302200  0.177900  0.657100  1.0  -0.5822
  O  O187  1  0.267600  0.558200  0.554700  1.0  -0.5898
  O  O188  1  0.317900  0.549400  0.667800  1.0  -0.6104
  O  O189  1  0.913800  0.351200  0.211900  1.0  -0.5647
  O  O190  1  0.903600  0.473800  0.267000  1.0  -0.6077
  O  O191  1  0.852300  0.138300  0.040800  1.0  -0.6071
  O  O192  1  0.733400  0.114800  0.014700  1.0  -0.6579
  O  O193  1  0.875600  0.040800  0.645200  1.0  -0.5606
  O  O194  1  0.751500  0.182400  0.680400  1.0  -0.5818
  O  O195  1  0.598800  0.858200  0.488500  1.0  -0.5924
  O  O196  1  0.697800  0.822100  0.342900  1.0  -0.5828
  O  O197  1  0.732400  0.441800  0.445300  1.0  -0.5882
  O  O198  1  0.682100  0.450600  0.332200  1.0  -0.6119
  O  O199  1  0.086200  0.648800  0.788100  1.0  -0.5646
  O  O200  1  0.096400  0.526200  0.733000  1.0  -0.6065
