# generated using pymatgen
data_LaH18(C3O)9
_symmetry_space_group_name_H-M   'P 1'
_cell_length_a   9.79900000
_cell_length_b   11.27200000
_cell_length_c   15.93500000
_cell_angle_alpha   70.51700000
_cell_angle_beta   84.66800000
_cell_angle_gamma   71.04600000
_symmetry_Int_Tables_number   1
_chemical_formula_structural   LaH18(C3O)9
_chemical_formula_sum   'La2 H36 C54 O18'
_cell_volume   1569.10532251
_cell_formula_units_Z   2
loop_
 _symmetry_equiv_pos_site_id
 _symmetry_equiv_pos_as_xyz
  1  'x, y, z'
loop_
 _atom_site_type_symbol
 _atom_site_label
 _atom_site_symmetry_multiplicity
 _atom_site_fract_x
 _atom_site_fract_y
 _atom_site_fract_z
 _atom_site_occupancy
 _atom_site_charge
  La  La1  1  0.780910  0.550680  0.989270  1.0  2.1929
  La  La2  1  0.219090  0.449320  0.010730  1.0  2.1922
  H  H3  1  0.899500  0.247700  0.654200  1.0  0.104
  H  H4  1  0.852900  0.317100  0.777700  1.0  0.113
  H  H5  1  0.252500  0.339100  0.768100  1.0  0.1087
  H  H6  1  0.301500  0.260400  0.649800  1.0  0.1093
  H  H7  1  0.023200  0.951300  0.583000  1.0  0.1022
  H  H8  1  0.892500  0.841200  0.690000  1.0  0.1084
  H  H9  1  0.152300  0.815500  0.877600  1.0  0.1052
  H  H10  1  0.271500  0.939700  0.771300  1.0  0.1164
  H  H11  1  0.000100  0.346800  0.396200  1.0  0.1094
  H  H12  1  0.975300  0.428700  0.461900  1.0  0.0882
  H  H13  1  0.089000  0.443800  0.386300  1.0  0.0996
  H  H14  1  0.424500  0.883300  0.585400  1.0  0.1036
  H  H15  1  0.340800  0.826400  0.537400  1.0  0.0869
  H  H16  1  0.430000  0.918300  0.481600  1.0  0.0992
  H  H17  1  0.725300  0.444300  0.369500  1.0  0.0994
  H  H18  1  0.725600  0.440500  0.225300  1.0  0.0917
  H  H19  1  0.318800  0.432500  0.251000  1.0  0.1081
  H  H20  1  0.318700  0.436700  0.394800  1.0  0.0936
  H  H21  1  0.100500  0.752300  0.345800  1.0  0.1039
  H  H22  1  0.147100  0.682900  0.222300  1.0  0.1134
  H  H23  1  0.747500  0.660900  0.231900  1.0  0.1084
  H  H24  1  0.698500  0.739600  0.350200  1.0  0.1082
  H  H25  1  0.976800  0.048700  0.417000  1.0  0.1009
  H  H26  1  0.107500  0.158800  0.310000  1.0  0.1079
  H  H27  1  0.847700  0.184500  0.122400  1.0  0.1051
  H  H28  1  0.728500  0.060300  0.228700  1.0  0.117
  H  H29  1  0.999900  0.653200  0.603800  1.0  0.1109
  H  H30  1  0.024700  0.571300  0.538100  1.0  0.086
  H  H31  1  0.911000  0.556200  0.613700  1.0  0.099
  H  H32  1  0.575500  0.116700  0.414600  1.0  0.1037
  H  H33  1  0.659200  0.173600  0.462600  1.0  0.0873
  H  H34  1  0.570000  0.081700  0.518400  1.0  0.0997
  H  H35  1  0.274700  0.555700  0.630500  1.0  0.0993
  H  H36  1  0.274400  0.559500  0.774700  1.0  0.0913
  H  H37  1  0.681200  0.567500  0.749000  1.0  0.1081
  H  H38  1  0.681300  0.563300  0.605200  1.0  0.0939
  C  C39  1  0.157000  0.184700  0.564700  1.0  0.242
  C  C40  1  0.105800  0.244300  0.639000  1.0  -0.0156
  C  C41  1  0.972100  0.264400  0.677800  1.0  -0.0973
  C  C42  1  0.942500  0.308600  0.751000  1.0  -0.071
  C  C43  1  0.045300  0.339700  0.783600  1.0  -0.1698
  C  C44  1  0.181000  0.320100  0.745400  1.0  -0.0432
  C  C45  1  0.210100  0.273100  0.674500  1.0  -0.1272
  C  C46  1  0.017200  0.393600  0.859600  1.0  0.7771
  C  C47  1  0.250600  0.040200  0.600200  1.0  -0.1578
  C  C48  1  0.159700  0.959700  0.665600  1.0  0.072
  C  C49  1  0.047700  0.926700  0.642800  1.0  -0.1075
  C  C50  1  0.971000  0.857900  0.706800  1.0  -0.0479
  C  C51  1  0.011000  0.813500  0.796100  1.0  -0.1325
  C  C52  1  0.123800  0.844500  0.818200  1.0  -0.0319
  C  C53  1  0.196800  0.918300  0.754100  1.0  -0.1215
  C  C54  1  0.937600  0.729400  0.865500  1.0  0.7191
  C  C55  1  0.046000  0.383000  0.428000  1.0  0.0142
  C  C56  1  0.371000  0.901000  0.533000  1.0  -0.011
  C  C57  1  0.537000  0.436100  0.491600  1.0  0.0984
  C  C58  1  0.521400  0.439400  0.397400  1.0  0.0025
  C  C59  1  0.643700  0.441000  0.346100  1.0  -0.1476
  C  C60  1  0.644000  0.437800  0.259800  1.0  -0.0057
  C  C61  1  0.525900  0.430900  0.225000  1.0  -0.1713
  C  C62  1  0.401300  0.433200  0.275200  1.0  -0.0142
  C  C63  1  0.401400  0.436500  0.361000  1.0  -0.1082
  C  C64  1  0.529600  0.418900  0.133600  1.0  0.7714
  C  C65  1  0.607000  0.227500  0.556300  1.0  -0.0673
  C  C66  1  0.843000  0.815300  0.435300  1.0  0.2402
  C  C67  1  0.894200  0.755700  0.361000  1.0  -0.0154
  C  C68  1  0.027900  0.735600  0.322200  1.0  -0.0987
  C  C69  1  0.057500  0.691400  0.249000  1.0  -0.071
  C  C70  1  0.954700  0.660300  0.216400  1.0  -0.171
  C  C71  1  0.819000  0.679900  0.254600  1.0  -0.0457
  C  C72  1  0.789900  0.726900  0.325500  1.0  -0.1248
  C  C73  1  0.982800  0.606400  0.140400  1.0  0.7797
  C  C74  1  0.749400  0.959800  0.399800  1.0  -0.1592
  C  C75  1  0.840300  0.040300  0.334400  1.0  0.068
  C  C76  1  0.952300  0.073300  0.357200  1.0  -0.1091
  C  C77  1  0.029000  0.142100  0.293200  1.0  -0.0485
  C  C78  1  0.989000  0.186500  0.203900  1.0  -0.1319
  C  C79  1  0.876200  0.155500  0.181800  1.0  -0.031
  C  C80  1  0.803200  0.081700  0.245900  1.0  -0.1117
  C  C81  1  0.062400  0.270600  0.134500  1.0  0.7195
  C  C82  1  0.954000  0.617000  0.572000  1.0  0.0125
  C  C83  1  0.629000  0.099000  0.467000  1.0  -0.0106
  C  C84  1  0.463000  0.563900  0.508400  1.0  0.1083
  C  C85  1  0.478600  0.560600  0.602600  1.0  0.0048
  C  C86  1  0.356300  0.559000  0.653900  1.0  -0.1473
  C  C87  1  0.356000  0.562200  0.740200  1.0  -0.005
  C  C88  1  0.474100  0.569100  0.775000  1.0  -0.1715
  C  C89  1  0.598700  0.566800  0.724800  1.0  -0.012
  C  C90  1  0.598600  0.563500  0.639000  1.0  -0.1101
  C  C91  1  0.470400  0.581100  0.866400  1.0  0.7709
  C  C92  1  0.393000  0.772500  0.443700  1.0  -0.0607
  O  O93  1  0.890400  0.426000  0.886600  1.0  -0.7036
  O  O94  1  0.122200  0.408100  0.889600  1.0  -0.7425
  O  O95  1  0.808700  0.743800  0.854400  1.0  -0.6781
  O  O96  1  0.006600  0.645200  0.934500  1.0  -0.8108
  O  O97  1  0.156000  0.276800  0.487400  1.0  -0.2579
  O  O98  1  0.244000  0.017000  0.523900  1.0  -0.31
  O  O99  1  0.639100  0.425300  0.088300  1.0  -0.7611
  O  O100  1  0.423900  0.399900  0.107700  1.0  -0.7143
  O  O101  1  0.641600  0.348600  0.541900  1.0  -0.1404
  O  O102  1  0.109600  0.574000  0.113400  1.0  -0.7038
  O  O103  1  0.877800  0.591900  0.110400  1.0  -0.7446
  O  O104  1  0.191300  0.256200  0.145600  1.0  -0.6772
  O  O105  1  0.993400  0.354800  0.065500  1.0  -0.8086
  O  O106  1  0.844000  0.723200  0.512600  1.0  -0.2593
  O  O107  1  0.756000  0.983000  0.476100  1.0  -0.2699
  O  O108  1  0.360900  0.574700  0.911700  1.0  -0.7603
  O  O109  1  0.576100  0.600100  0.892300  1.0  -0.7141
  O  O110  1  0.358400  0.651400  0.458100  1.0  -0.1358
