# generated using pymatgen
data_LaH24(C3O)9
_symmetry_space_group_name_H-M   'P 1'
_cell_length_a   9.77920000
_cell_length_b   11.33310000
_cell_length_c   15.92400000
_cell_angle_alpha   71.04200000
_cell_angle_beta   85.29000000
_cell_angle_gamma   70.90700000
_symmetry_Int_Tables_number   1
_chemical_formula_structural   LaH24(C3O)9
_chemical_formula_sum   'La2 H48 C54 O18'
_cell_volume   1576.70989732
_cell_formula_units_Z   2
loop_
 _symmetry_equiv_pos_site_id
 _symmetry_equiv_pos_as_xyz
  1  'x, y, z'
loop_
 _atom_site_type_symbol
 _atom_site_label
 _atom_site_symmetry_multiplicity
 _atom_site_fract_x
 _atom_site_fract_y
 _atom_site_fract_z
 _atom_site_occupancy
 _atom_site_charge
  La  La1  1  0.461040  0.094490  0.915940  1.0  2.1949
  La  La2  1  0.901130  0.993160  0.937220  1.0  2.1874
  H  H3  1  0.709000  0.728000  0.452000  1.0  0.0849
  H  H4  1  0.544500  0.816100  0.576000  1.0  0.1137
  H  H5  1  0.520500  0.889800  0.698900  1.0  0.078
  H  H6  1  0.933100  0.861000  0.697000  1.0  0.1243
  H  H7  1  0.961600  0.784400  0.575800  1.0  0.0836
  H  H8  1  0.662800  0.967100  0.398400  1.0  0.0647
  H  H9  1  0.767900  0.981300  0.318600  1.0  0.094
  H  H10  1  0.672400  0.889700  0.331300  1.0  0.074
  H  H11  1  0.974000  0.580000  0.535000  1.0  0.1406
  H  H12  1  0.663000  0.517700  0.508400  1.0  0.0938
  H  H13  1  0.552000  0.383600  0.621100  1.0  0.1077
  H  H14  1  0.840300  0.346700  0.801200  1.0  0.1093
  H  H15  1  0.946400  0.480100  0.690900  1.0  0.1202
  H  H16  1  0.995300  0.357500  0.478200  1.0  0.0916
  H  H17  1  0.075900  0.432700  0.401000  1.0  0.1022
  H  H18  1  0.089200  0.434600  0.498000  1.0  0.0828
  H  H19  1  0.394000  0.554000  0.366000  1.0  0.0661
  H  H20  1  0.649600  0.609600  0.338800  1.0  0.0891
  H  H21  1  0.784000  0.710200  0.237400  1.0  0.0989
  H  H22  1  0.534000  0.731600  0.044400  1.0  0.1024
  H  H23  1  0.415600  0.607300  0.146600  1.0  0.1078
  H  H24  1  0.208900  0.717400  0.269500  1.0  0.0809
  H  H25  1  0.134600  0.665600  0.211700  1.0  0.1152
  H  H26  1  0.106000  0.634700  0.313700  1.0  0.0946
  H  H27  1  0.446000  0.330000  0.389000  1.0  0.0881
  H  H28  1  0.764900  0.326300  0.262100  1.0  0.0837
  H  H29  1  0.825400  0.245900  0.143600  1.0  0.1254
  H  H30  1  0.428800  0.207000  0.155800  1.0  0.0972
  H  H31  1  0.384200  0.271300  0.278100  1.0  0.1049
  H  H32  1  0.733600  0.167300  0.434000  1.0  0.0677
  H  H33  1  0.774900  0.227900  0.500000  1.0  0.0888
  H  H34  1  0.624800  0.203900  0.506500  1.0  0.0653
  H  H35  1  0.049000  0.147000  0.397000  1.0  0.0623
  H  H36  1  0.972400  0.037600  0.572800  1.0  0.0935
  H  H37  1  0.966500  0.068600  0.710200  1.0  0.0895
  H  H38  1  0.343800  0.145100  0.661600  1.0  0.0973
  H  H39  1  0.349700  0.114000  0.524200  1.0  0.1054
  H  H40  1  0.025300  0.321400  0.325300  1.0  0.0883
  H  H41  1  0.157300  0.315200  0.262000  1.0  0.104
  H  H42  1  0.066000  0.220800  0.271900  1.0  0.0759
  H  H43  1  0.087000  0.942000  0.456000  1.0  0.1048
  H  H44  1  0.405200  0.956200  0.311100  1.0  0.0823
  H  H45  1  0.417200  0.957700  0.164900  1.0  0.0997
  H  H46  1  0.994300  0.986200  0.170100  1.0  0.1115
  H  H47  1  0.990300  0.007700  0.309500  1.0  0.0883
  H  H48  1  0.246200  0.731700  0.484400  1.0  0.0662
  H  H49  1  0.395700  0.720800  0.438200  1.0  0.1052
  H  H50  1  0.387100  0.692400  0.541300  1.0  0.0846
  C  C51  1  0.773400  0.740500  0.487500  1.0  0.0772
  C  C52  1  0.759800  0.788300  0.564000  1.0  0.0772
  C  C53  1  0.624300  0.822700  0.599900  1.0  -0.17
  C  C54  1  0.610800  0.868000  0.673700  1.0  -0.005
  C  C55  1  0.721200  0.880900  0.708800  1.0  -0.1691
  C  C56  1  0.855100  0.851000  0.673500  1.0  -0.0948
  C  C57  1  0.870800  0.804900  0.600600  1.0  -0.1443
  C  C58  1  0.703000  0.937300  0.786500  1.0  0.7551
  C  C59  1  0.726000  0.921800  0.361500  1.0  -0.0045
  C  C60  1  0.878200  0.597000  0.512600  1.0  0.0764
  C  C61  1  0.813600  0.507900  0.586900  1.0  0.0135
  C  C62  1  0.699200  0.483500  0.566600  1.0  -0.1367
  C  C63  1  0.630500  0.403600  0.635000  1.0  -0.0583
  C  C64  1  0.684700  0.357000  0.722800  1.0  -0.1348
  C  C65  1  0.803000  0.381700  0.743200  1.0  -0.0317
  C  C66  1  0.868300  0.459600  0.676900  1.0  -0.12
  C  C67  1  0.612900  0.270800  0.792400  1.0  0.7559
  C  C68  1  0.026000  0.434200  0.455300  1.0  -0.0809
  C  C69  1  0.434400  0.514300  0.320600  1.0  0.1079
  C  C70  1  0.517300  0.594600  0.252500  1.0  0.033
  C  C71  1  0.629100  0.630900  0.278700  1.0  -0.1339
  C  C72  1  0.705400  0.695000  0.218700  1.0  -0.0574
  C  C73  1  0.669600  0.738700  0.130100  1.0  -0.1337
  C  C74  1  0.559300  0.704500  0.104300  1.0  -0.0427
  C  C75  1  0.486800  0.631400  0.165700  1.0  -0.1519
  C  C76  1  0.741800  0.820400  0.062700  1.0  0.6877
  C  C77  1  0.176900  0.646100  0.269000  1.0  -0.0161
  C  C78  1  0.516600  0.369100  0.356700  1.0  0.0963
  C  C79  1  0.569400  0.304200  0.282400  1.0  0.0227
  C  C80  1  0.699500  0.297600  0.241400  1.0  -0.1271
  C  C81  1  0.736600  0.249600  0.170400  1.0  -0.075
  C  C82  1  0.635700  0.206200  0.139400  1.0  -0.1621
  C  C83  1  0.501200  0.224700  0.179200  1.0  -0.0353
  C  C84  1  0.472500  0.267300  0.250600  1.0  -0.1303
  C  C85  1  0.672000  0.152600  0.065000  1.0  0.7341
  C  C86  1  0.697000  0.228600  0.466600  1.0  -0.0169
  C  C87  1  0.129800  0.082300  0.434800  1.0  0.0628
  C  C88  1  0.161600  0.072700  0.534900  1.0  0.0374
  C  C89  1  0.046800  0.059100  0.590600  1.0  -0.1582
  C  C90  1  0.043300  0.077700  0.672900  1.0  -0.0156
  C  C91  1  0.154600  0.109900  0.699500  1.0  -0.1771
  C  C92  1  0.269300  0.123500  0.643800  1.0  -0.024
  C  C93  1  0.272900  0.104900  0.561500  1.0  -0.1115
  C  C94  1  0.150300  0.121800  0.790800  1.0  0.7504
  C  C95  1  0.104000  0.264000  0.302500  1.0  -0.0569
  C  C96  1  0.180200  0.944000  0.433400  1.0  0.0843
  C  C97  1  0.199800  0.954900  0.331900  1.0  0.0364
  C  C98  1  0.324200  0.957600  0.283600  1.0  -0.1318
  C  C99  1  0.330800  0.962300  0.194900  1.0  -0.0548
  C  C100  1  0.205700  0.974000  0.151300  1.0  -0.1913
  C  C101  1  0.077700  0.982200  0.196600  1.0  -0.0822
  C  C102  1  0.079100  0.984000  0.283000  1.0  -0.1282
  C  C103  1  0.211900  0.963500  0.058400  1.0  0.7658
  C  C104  1  0.338000  0.745300  0.485200  1.0  -0.0193
  O  O105  1  0.574900  0.973600  0.812600  1.0  -0.6986
  O  O106  1  0.810000  0.943700  0.815100  1.0  -0.6443
  O  O107  1  0.837700  0.814800  0.414700  1.0  -0.3623
  O  O108  1  0.487500  0.287400  0.781700  1.0  -0.6295
  O  O109  1  0.689400  0.186400  0.857100  1.0  -0.7842
  O  O110  1  0.892500  0.558600  0.437000  1.0  -0.4141
  O  O111  1  0.874700  0.811000  0.074900  1.0  -0.6837
  O  O112  1  0.678100  0.899500  0.989100  1.0  -0.8037
  O  O113  1  0.299600  0.525800  0.287100  1.0  -0.3788
  O  O114  1  0.795300  0.125000  0.037600  1.0  -0.6426
  O  O115  1  0.563900  0.134500  0.033000  1.0  -0.7331
  O  O116  1  0.636000  0.354200  0.407800  1.0  -0.3147
  O  O117  1  0.038700  0.116400  0.834500  1.0  -0.7341
  O  O118  1  0.257000  0.142900  0.816700  1.0  -0.7448
  O  O119  1  0.200900  0.164600  0.377000  1.0  -0.3739
  O  O120  1  0.322900  0.972200  0.014300  1.0  -0.775
  O  O121  1  0.111100  0.946000  0.031300  1.0  -0.6818
  O  O122  1  0.315800  0.876200  0.473600  1.0  -0.2737
