# generated using pymatgen
data_Co2H26C41N6O17
_symmetry_space_group_name_H-M   'P 1'
_cell_length_a   14.38100000
_cell_length_b   16.17300000
_cell_length_c   21.04900000
_cell_angle_alpha   89.88000000
_cell_angle_beta   89.88000000
_cell_angle_gamma   65.10000000
_symmetry_Int_Tables_number   1
_chemical_formula_structural   Co2H26C41N6O17
_chemical_formula_sum   'Co8 H104 C164 N24 O68'
_cell_volume   4440.56428941
_cell_formula_units_Z   4
loop_
 _symmetry_equiv_pos_site_id
 _symmetry_equiv_pos_as_xyz
  1  'x, y, z'
loop_
 _atom_site_type_symbol
 _atom_site_label
 _atom_site_symmetry_multiplicity
 _atom_site_fract_x
 _atom_site_fract_y
 _atom_site_fract_z
 _atom_site_occupancy
 _atom_site_charge
  Co  Co1  1  0.800120  0.234840  0.438950  1.0  0.9953
  Co  Co2  1  0.572410  0.445420  0.436680  1.0  1.0079
  Co  Co3  1  0.062250  0.941640  0.065200  1.0  0.9753
  Co  Co4  1  0.301880  0.742910  0.065090  1.0  1.0111
  Co  Co5  1  0.199880  0.765160  0.561050  1.0  0.9965
  Co  Co6  1  0.427590  0.554580  0.563320  1.0  1.0077
  Co  Co7  1  0.937750  0.058360  0.934800  1.0  0.9738
  Co  Co8  1  0.698120  0.257090  0.934910  1.0  1.0064
  H  H9  1  0.635100  0.098100  0.370500  1.0  0.1348
  H  H10  1  0.437000  0.326900  0.287800  1.0  0.1284
  H  H11  1  0.376700  0.242600  0.225900  1.0  0.1324
  H  H12  1  0.468700  0.894100  0.127700  1.0  0.1283
  H  H13  1  0.195900  0.080700  0.183500  1.0  0.1414
  H  H14  1  0.275600  0.152700  0.240900  1.0  0.1316
  H  H15  1  0.820400  0.976900  0.461100  1.0  0.1388
  H  H16  1  0.606600  0.073800  0.596400  1.0  0.1336
  H  H17  1  0.600100  0.933100  0.602100  1.0  0.1212
  H  H18  1  0.796900  0.571600  0.582400  1.0  0.1546
  H  H19  1  0.525900  0.703600  0.496600  1.0  0.1289
  H  H20  1  0.550800  0.835700  0.496300  1.0  0.1319
  H  H21  1  0.920900  0.352700  0.290100  1.0  0.1336
  H  H22  1  0.775500  0.581600  0.389500  1.0  0.1321
  H  H23  1  0.862200  0.649200  0.334500  1.0  0.1343
  H  H24  1  0.194700  0.616800  0.197100  1.0  0.1313
  H  H25  1  0.907500  0.787700  0.155000  1.0  0.126
  H  H26  1  0.848200  0.697100  0.210800  1.0  0.1386
  H  H27  1  0.323500  0.060300  0.974800  1.0  0.1529
  H  H28  1  0.022500  0.204000  0.002700  1.0  0.1377
  H  H29  1  0.045600  0.336000  0.007000  1.0  0.1318
  H  H30  1  0.292400  0.497700  0.070200  1.0  0.122
  H  H31  1  0.124600  0.557900  0.912800  1.0  0.1296
  H  H32  1  0.119500  0.417800  0.916600  1.0  0.1422
  H  H33  1  0.832600  0.059200  0.369300  1.0  0.1058
  H  H34  1  0.949900  0.947700  0.308100  1.0  0.1601
  H  H35  1  0.131900  0.077300  0.318500  1.0  0.1631
  H  H36  1  0.010000  0.185600  0.380200  1.0  0.1082
  H  H37  1  0.167300  0.956300  0.239100  1.0  0.1089
  H  H38  1  0.100400  0.900800  0.238000  1.0  0.1251
  H  H39  1  0.182700  0.817300  0.324700  1.0  0.111
  H  H40  1  0.236800  0.881700  0.338500  1.0  0.118
  H  H41  1  0.280800  0.774500  0.226300  1.0  0.118
  H  H42  1  0.344200  0.826500  0.251600  1.0  0.1216
  H  H43  1  0.573600  0.621200  0.388800  1.0  0.1034
  H  H44  1  0.482400  0.747600  0.328600  1.0  0.1716
  H  H45  1  0.290900  0.638000  0.285600  1.0  0.1322
  H  H46  1  0.389100  0.510800  0.343600  1.0  0.1251
  H  H47  1  0.509900  0.702300  0.135300  1.0  0.1019
  H  H48  1  0.634900  0.589100  0.190600  1.0  0.1556
  H  H49  1  0.456900  0.456700  0.193400  1.0  0.1531
  H  H50  1  0.339400  0.572100  0.137600  1.0  0.1251
  H  H51  1  0.688100  0.451500  0.255500  1.0  0.1175
  H  H52  1  0.604000  0.417000  0.271500  1.0  0.1192
  H  H53  1  0.743200  0.359100  0.171800  1.0  0.1155
  H  H54  1  0.647900  0.335900  0.174100  1.0  0.1113
  H  H55  1  0.794400  0.280700  0.272500  1.0  0.1145
  H  H56  1  0.708500  0.246300  0.262400  1.0  0.1198
  H  H57  1  0.031700  0.123000  0.115000  1.0  0.108
  H  H58  1  0.925700  0.241600  0.176100  1.0  0.1491
  H  H59  1  0.759700  0.102300  0.212900  1.0  0.1444
  H  H60  1  0.870400  0.985900  0.151300  1.0  0.1229
  H  H61  1  0.364900  0.901900  0.629500  1.0  0.1346
  H  H62  1  0.563000  0.673100  0.712200  1.0  0.1285
  H  H63  1  0.623300  0.757400  0.774100  1.0  0.1325
  H  H64  1  0.531300  0.105900  0.872300  1.0  0.1282
  H  H65  1  0.804100  0.919300  0.816500  1.0  0.1411
  H  H66  1  0.724400  0.847300  0.759100  1.0  0.1321
  H  H67  1  0.179600  0.023100  0.538900  1.0  0.1393
  H  H68  1  0.393400  0.926200  0.403600  1.0  0.1338
  H  H69  1  0.399900  0.066900  0.397900  1.0  0.1238
  H  H70  1  0.203100  0.428400  0.417600  1.0  0.1535
  H  H71  1  0.474100  0.296400  0.503400  1.0  0.1294
  H  H72  1  0.449200  0.164300  0.503700  1.0  0.1321
  H  H73  1  0.079100  0.647300  0.709900  1.0  0.1336
  H  H74  1  0.224500  0.418400  0.610500  1.0  0.132
  H  H75  1  0.137800  0.350800  0.665500  1.0  0.134
  H  H76  1  0.805300  0.383200  0.802900  1.0  0.1298
  H  H77  1  0.092500  0.212300  0.845000  1.0  0.1253
  H  H78  1  0.151800  0.302900  0.789200  1.0  0.138
  H  H79  1  0.676500  0.939700  0.025200  1.0  0.1533
  H  H80  1  0.977500  0.796000  0.997300  1.0  0.1357
  H  H81  1  0.954400  0.664000  0.993000  1.0  0.1322
  H  H82  1  0.707600  0.502300  0.929800  1.0  0.1218
  H  H83  1  0.875400  0.442100  0.087200  1.0  0.1304
  H  H84  1  0.880500  0.582200  0.083400  1.0  0.1428
  H  H85  1  0.167400  0.940800  0.630700  1.0  0.105
  H  H86  1  0.050100  0.052300  0.691900  1.0  0.16
  H  H87  1  0.868100  0.922700  0.681500  1.0  0.1624
  H  H88  1  0.990000  0.814400  0.619800  1.0  0.1082
  H  H89  1  0.832700  0.043700  0.760900  1.0  0.1088
  H  H90  1  0.899600  0.099200  0.762000  1.0  0.1246
  H  H91  1  0.817300  0.182700  0.675300  1.0  0.1137
  H  H92  1  0.763200  0.118300  0.661500  1.0  0.1172
  H  H93  1  0.719200  0.225500  0.773700  1.0  0.1173
  H  H94  1  0.655800  0.173500  0.748400  1.0  0.1234
  H  H95  1  0.426400  0.378800  0.611200  1.0  0.1036
  H  H96  1  0.517600  0.252400  0.671400  1.0  0.1708
  H  H97  1  0.709100  0.362000  0.714400  1.0  0.1323
  H  H98  1  0.610900  0.489200  0.656400  1.0  0.1254
  H  H99  1  0.490100  0.297700  0.864700  1.0  0.1015
  H  H100  1  0.365100  0.410900  0.809400  1.0  0.1545
  H  H101  1  0.543100  0.543300  0.806600  1.0  0.1539
  H  H102  1  0.660600  0.427900  0.862400  1.0  0.1258
  H  H103  1  0.311900  0.548500  0.744500  1.0  0.1158
  H  H104  1  0.396000  0.583000  0.728500  1.0  0.1191
  H  H105  1  0.256800  0.640900  0.828200  1.0  0.1159
  H  H106  1  0.352100  0.664100  0.825900  1.0  0.1117
  H  H107  1  0.205600  0.719300  0.727500  1.0  0.1153
  H  H108  1  0.291500  0.753700  0.737600  1.0  0.1206
  H  H109  1  0.968300  0.877000  0.885000  1.0  0.109
  H  H110  1  0.074300  0.758400  0.823900  1.0  0.1495
  H  H111  1  0.240300  0.897700  0.787100  1.0  0.1455
  H  H112  1  0.129600  0.014100  0.848700  1.0  0.1234
  C  C113  1  0.466500  0.118000  0.261100  1.0  0.0687
  C  C114  1  0.542500  0.078100  0.307500  1.0  0.035
  C  C115  1  0.582500  0.127700  0.341700  1.0  -0.0523
  C  C116  1  0.545400  0.221500  0.333800  1.0  -0.0835
  C  C117  1  0.466000  0.263800  0.291800  1.0  -0.0131
  C  C118  1  0.428500  0.212700  0.255200  1.0  -0.0789
  C  C119  1  0.594500  0.272300  0.370800  1.0  0.7
  C  C120  1  0.421900  0.068200  0.220400  1.0  0.0887
  C  C121  1  0.477000  0.991200  0.183700  1.0  0.0062
  C  C122  1  0.429200  0.946200  0.150700  1.0  -0.0183
  C  C123  1  0.324400  0.976900  0.151200  1.0  -0.1578
  C  C124  1  0.267100  0.056600  0.184300  1.0  -0.0966
  C  C125  1  0.315500  0.100200  0.218500  1.0  -0.0772
  C  C126  1  0.274300  0.923200  0.118300  1.0  0.7213
  C  C127  1  0.703100  0.870500  0.534300  1.0  0.0633
  C  C128  1  0.766800  0.886300  0.491900  1.0  -0.0227
  C  C129  1  0.774500  0.969400  0.489200  1.0  -0.0312
  C  C130  1  0.714700  0.040000  0.527900  1.0  -0.1109
  C  C131  1  0.648400  0.026500  0.570100  1.0  -0.0162
  C  C132  1  0.644100  0.941500  0.573000  1.0  -0.1078
  C  C133  1  0.719500  0.131100  0.522600  1.0  0.7131
  C  C134  1  0.688400  0.784200  0.538100  1.0  0.052
  C  C135  1  0.757900  0.705100  0.566300  1.0  0.0397
  C  C136  1  0.746700  0.624500  0.565300  1.0  -0.0161
  C  C137  1  0.659200  0.623700  0.538200  1.0  -0.1158
  C  C138  1  0.585900  0.703000  0.513400  1.0  -0.0359
  C  C139  1  0.601000  0.782600  0.513400  1.0  -0.067
  C  C140  1  0.648800  0.535400  0.533900  1.0  0.6988
  C  C141  1  0.937800  0.546700  0.274000  1.0  0.027
  C  C142  1  0.951800  0.457300  0.261500  1.0  -0.0005
  C  C143  1  0.906400  0.413400  0.298100  1.0  -0.0678
  C  C144  1  0.839300  0.459500  0.346600  1.0  -0.1144
  C  C145  1  0.822000  0.548900  0.358100  1.0  -0.0322
  C  C146  1  0.872400  0.590200  0.323900  1.0  -0.1074
  C  C147  1  0.783900  0.413600  0.382700  1.0  0.746
  C  C148  1  0.984300  0.600000  0.237300  1.0  0.0361
  C  C149  1  0.089600  0.578800  0.233700  1.0  0.0334
  C  C150  1  0.124500  0.633400  0.200200  1.0  -0.037
  C  C151  1  0.056700  0.712600  0.171300  1.0  -0.146
  C  C152  1  0.953800  0.735200  0.174900  1.0  -0.0053
  C  C153  1  0.918500  0.679900  0.208100  1.0  -0.0922
  C  C154  1  0.098700  0.771000  0.135700  1.0  0.7166
  C  C155  1  0.198600  0.280000  0.993700  1.0  0.0645
  C  C156  1  0.280000  0.196000  0.984700  1.0  0.0143
  C  C157  1  0.267200  0.115800  0.980900  1.0  -0.0347
  C  C158  1  0.170200  0.119600  0.986400  1.0  -0.1315
  C  C159  1  0.087700  0.201800  0.997400  1.0  -0.0383
  C  C160  1  0.102000  0.280800  0.000400  1.0  -0.0736
  C  C161  1  0.156500  0.032700  0.982300  1.0  0.6962
  C  C162  1  0.205400  0.370100  0.995200  1.0  0.0874
  C  C163  1  0.253400  0.398600  0.041300  1.0  0.0887
  C  C164  1  0.257400  0.481900  0.038800  1.0  -0.0506
  C  C165  1  0.210000  0.542600  0.990000  1.0  -0.0909
  C  C166  1  0.158500  0.517500  0.945400  1.0  -0.006
  C  C167  1  0.155600  0.432900  0.947600  1.0  -0.1079
  C  C168  1  0.214700  0.633700  0.989500  1.0  0.7112
  C  C169  1  0.893400  0.063300  0.358700  1.0  0.2037
  C  C170  1  0.963800  0.995800  0.322100  1.0  -0.1693
  C  C171  1  0.054700  0.999100  0.306000  1.0  0.1546
  C  C172  1  0.071400  0.072200  0.328300  1.0  -0.1859
  C  C173  1  0.997400  0.137400  0.365000  1.0  0.2159
  C  C174  1  0.133800  0.927900  0.265600  1.0  -0.1512
  C  C175  1  0.213300  0.854000  0.305000  1.0  -0.0723
  C  C176  1  0.305200  0.792700  0.264400  1.0  -0.1734
  C  C177  1  0.515500  0.624300  0.367600  1.0  0.2054
  C  C178  1  0.460600  0.701200  0.331900  1.0  -0.2016
  C  C179  1  0.374300  0.708100  0.301500  1.0  0.1444
  C  C180  1  0.348900  0.635800  0.306400  1.0  -0.0836
  C  C181  1  0.407500  0.559400  0.341800  1.0  0.1363
  C  C182  1  0.500400  0.650200  0.144800  1.0  0.2261
  C  C183  1  0.575400  0.583000  0.179900  1.0  -0.1797
  C  C184  1  0.562700  0.508300  0.198900  1.0  0.1567
  C  C185  1  0.470700  0.505700  0.181300  1.0  -0.1852
  C  C186  1  0.401700  0.574100  0.146700  1.0  0.1903
  C  C187  1  0.639400  0.431400  0.236900  1.0  -0.141
  C  C188  1  0.696000  0.348400  0.200100  1.0  -0.0639
  C  C189  1  0.756100  0.264900  0.240500  1.0  -0.1492
  C  C190  1  0.976300  0.118400  0.135000  1.0  0.2166
  C  C191  1  0.912600  0.190300  0.171600  1.0  -0.1898
  C  C192  1  0.829000  0.186500  0.202000  1.0  0.1444
  C  C193  1  0.814800  0.108000  0.193400  1.0  -0.1533
  C  C194  1  0.881500  0.038100  0.156200  1.0  0.2024
  C  C195  1  0.533500  0.882000  0.738900  1.0  0.0703
  C  C196  1  0.457500  0.921900  0.692500  1.0  0.0356
  C  C197  1  0.417500  0.872300  0.658300  1.0  -0.0544
  C  C198  1  0.454600  0.778500  0.666200  1.0  -0.083
  C  C199  1  0.534000  0.736200  0.708200  1.0  -0.012
  C  C200  1  0.571500  0.787300  0.744800  1.0  -0.0785
  C  C201  1  0.405500  0.727700  0.629200  1.0  0.6981
  C  C202  1  0.578100  0.931800  0.779600  1.0  0.0892
  C  C203  1  0.523000  0.008800  0.816300  1.0  0.0059
  C  C204  1  0.570800  0.053800  0.849300  1.0  -0.0189
  C  C205  1  0.675600  0.023100  0.848800  1.0  -0.1594
  C  C206  1  0.732900  0.943400  0.815700  1.0  -0.0967
  C  C207  1  0.684500  0.899800  0.781500  1.0  -0.0758
  C  C208  1  0.725700  0.076800  0.881700  1.0  0.7235
  C  C209  1  0.296900  0.129500  0.465700  1.0  0.0638
  C  C210  1  0.233200  0.113700  0.508100  1.0  -0.0232
  C  C211  1  0.225500  0.030600  0.510800  1.0  -0.0317
  C  C212  1  0.285300  0.960000  0.472100  1.0  -0.1109
  C  C213  1  0.351600  0.973500  0.429900  1.0  -0.0162
  C  C214  1  0.355900  0.058500  0.427000  1.0  -0.1074
  C  C215  1  0.280500  0.868900  0.477400  1.0  0.7155
  C  C216  1  0.311600  0.215800  0.461900  1.0  0.0515
  C  C217  1  0.242100  0.294900  0.433700  1.0  0.0394
  C  C218  1  0.253300  0.375500  0.434700  1.0  -0.0166
  C  C219  1  0.340800  0.376300  0.461800  1.0  -0.1151
  C  C220  1  0.414100  0.297000  0.486600  1.0  -0.0367
  C  C221  1  0.399000  0.217400  0.486600  1.0  -0.0659
  C  C222  1  0.351200  0.464600  0.466100  1.0  0.699
  C  C223  1  0.062200  0.453300  0.726000  1.0  0.0275
  C  C224  1  0.048200  0.542700  0.738500  1.0  -0.0016
  C  C225  1  0.093600  0.586600  0.701900  1.0  -0.0659
  C  C226  1  0.160700  0.540500  0.653400  1.0  -0.1138
  C  C227  1  0.178000  0.451100  0.641900  1.0  -0.0335
  C  C228  1  0.127600  0.409800  0.676100  1.0  -0.1089
  C  C229  1  0.216100  0.586400  0.617300  1.0  0.748
  C  C230  1  0.015700  0.400000  0.762700  1.0  0.0365
  C  C231  1  0.910400  0.421200  0.766300  1.0  0.0335
  C  C232  1  0.875500  0.366600  0.799800  1.0  -0.0368
  C  C233  1  0.943300  0.287400  0.828700  1.0  -0.1468
  C  C234  1  0.046200  0.264800  0.825100  1.0  -0.0043
  C  C235  1  0.081500  0.320100  0.791900  1.0  -0.0933
  C  C236  1  0.901300  0.229000  0.864300  1.0  0.7168
  C  C237  1  0.801400  0.720000  0.006300  1.0  0.0638
  C  C238  1  0.720000  0.804000  0.015300  1.0  0.0136
  C  C239  1  0.732800  0.884200  0.019100  1.0  -0.036
  C  C240  1  0.829800  0.880400  0.013600  1.0  -0.1318
  C  C241  1  0.912300  0.798200  0.002600  1.0  -0.0395
  C  C242  1  0.898000  0.719200  0.999600  1.0  -0.0719
  C  C243  1  0.843500  0.967300  0.017700  1.0  0.6966
  C  C244  1  0.794600  0.629900  0.004800  1.0  0.0867
  C  C245  1  0.746600  0.601400  0.958700  1.0  0.0872
  C  C246  1  0.742600  0.518100  0.961200  1.0  -0.0523
  C  C247  1  0.790000  0.457400  0.010000  1.0  -0.091
  C  C248  1  0.841500  0.482500  0.054600  1.0  -0.0073
  C  C249  1  0.844400  0.567100  0.052400  1.0  -0.1071
  C  C250  1  0.785300  0.366300  0.010500  1.0  0.7114
  C  C251  1  0.106600  0.936700  0.641300  1.0  0.203
  C  C252  1  0.036200  0.004200  0.677900  1.0  -0.169
  C  C253  1  0.945300  0.000900  0.694000  1.0  0.1541
  C  C254  1  0.928600  0.927800  0.671700  1.0  -0.1855
  C  C255  1  0.002600  0.862600  0.635000  1.0  0.2161
  C  C256  1  0.866200  0.072100  0.734400  1.0  -0.1527
  C  C257  1  0.786700  0.146000  0.695000  1.0  -0.0717
  C  C258  1  0.694800  0.207300  0.735600  1.0  -0.1759
  C  C259  1  0.484500  0.375700  0.632400  1.0  0.2068
  C  C260  1  0.539400  0.298800  0.668100  1.0  -0.1994
  C  C261  1  0.625700  0.291900  0.698500  1.0  0.1445
  C  C262  1  0.651100  0.364200  0.693600  1.0  -0.0851
  C  C263  1  0.592500  0.440600  0.658200  1.0  0.1371
  C  C264  1  0.499600  0.349800  0.855200  1.0  0.2255
  C  C265  1  0.424600  0.417000  0.820100  1.0  -0.1774
  C  C266  1  0.437300  0.491700  0.801100  1.0  0.1563
  C  C267  1  0.529300  0.494300  0.818700  1.0  -0.1841
  C  C268  1  0.598300  0.425900  0.853300  1.0  0.1911
  C  C269  1  0.360600  0.568600  0.763100  1.0  -0.143
  C  C270  1  0.304000  0.651600  0.799900  1.0  -0.0629
  C  C271  1  0.243900  0.735100  0.759500  1.0  -0.1478
  C  C272  1  0.023700  0.881600  0.865000  1.0  0.2178
  C  C273  1  0.087400  0.809700  0.828400  1.0  -0.188
  C  C274  1  0.171000  0.813500  0.798000  1.0  0.1451
  C  C275  1  0.185200  0.892000  0.806600  1.0  -0.1536
  C  C276  1  0.118500  0.961900  0.843800  1.0  0.2021
  N  N277  1  0.583800  0.981000  0.322600  1.0  0.5077
  N  N278  1  0.590200  0.952900  0.177400  1.0  0.6318
  N  N279  1  0.829500  0.818100  0.445200  1.0  0.6426
  N  N280  1  0.850100  0.702400  0.597900  1.0  0.2464
  N  N281  1  0.015800  0.405500  0.208400  1.0  0.6182
  N  N282  1  0.166400  0.499400  0.264800  1.0  0.6066
  N  N283  1  0.387100  0.183900  0.979400  1.0  0.6248
  N  N284  1  0.301800  0.341200  0.096400  1.0  0.021
  N  N285  1  0.908100  0.134800  0.380100  1.0  -0.3083
  N  N286  1  0.490500  0.554200  0.373400  1.0  -0.3078
  N  N287  1  0.962700  0.043000  0.126700  1.0  -0.2951
  N  N288  1  0.418000  0.646200  0.124200  1.0  -0.3108
  N  N289  1  0.416200  0.019000  0.677400  1.0  0.5091
  N  N290  1  0.409800  0.047100  0.822600  1.0  0.6317
  N  N291  1  0.170500  0.181900  0.554800  1.0  0.6423
  N  N292  1  0.149900  0.297600  0.402100  1.0  0.2459
  N  N293  1  0.984200  0.594500  0.791600  1.0  0.618
  N  N294  1  0.833600  0.500600  0.735200  1.0  0.6067
  N  N295  1  0.612900  0.816100  0.020600  1.0  0.6247
  N  N296  1  0.698200  0.658800  0.903600  1.0  0.0224
  N  N297  1  0.091900  0.865200  0.619900  1.0  -0.3084
  N  N298  1  0.509500  0.445800  0.626600  1.0  -0.3094
  N  N299  1  0.037300  0.957000  0.873300  1.0  -0.2952
  N  N300  1  0.582000  0.353800  0.875800  1.0  -0.3105
  O  O301  1  0.681800  0.223100  0.391300  1.0  -0.5602
  O  O302  1  0.546400  0.356400  0.376100  1.0  -0.5619
  O  O303  1  0.333100  0.843700  0.103000  1.0  -0.562
  O  O304  1  0.179300  0.961300  0.111800  1.0  -0.5596
  O  O305  1  0.630400  0.005900  0.182800  1.0  -0.5018
  O  O306  1  0.637000  0.873400  0.165800  1.0  -0.4028
  O  O307  1  0.684300  0.942200  0.327200  1.0  -0.477
  O  O308  1  0.541700  0.935300  0.309100  1.0  -0.4924
  O  O309  1  0.798800  0.130000  0.495900  1.0  -0.583
  O  O310  1  0.646800  0.199100  0.543000  1.0  -0.522
  O  O311  1  0.564800  0.538300  0.511390  1.0  -0.6658
  O  O312  1  0.721700  0.464200  0.551300  1.0  -0.5398
  O  O313  1  0.849400  0.738600  0.454300  1.0  -0.4839
  O  O314  1  0.872700  0.838200  0.401700  1.0  -0.4548
  O  O315  1  0.924600  0.637500  0.600500  1.0  -0.4196
  O  O316  1  0.859100  0.761500  0.619300  1.0  -0.4974
  O  O317  1  0.699900  0.463600  0.407100  1.0  -0.5513
  O  O318  1  0.825200  0.328400  0.384600  1.0  -0.5643
  O  O319  1  0.193600  0.741000  0.130900  1.0  -0.5632
  O  O320  1  0.034900  0.845300  0.114200  1.0  -0.5524
  O  O321  1  0.050700  0.321200  0.210600  1.0  -0.4556
  O  O322  1  0.030300  0.446900  0.164700  1.0  -0.4957
  O  O323  1  0.153500  0.432400  0.282700  1.0  -0.4308
  O  O324  1  0.253700  0.498300  0.277400  1.0  -0.51
  O  O325  1  0.066900  0.037400  0.997660  1.0  -0.6368
  O  O326  1  0.230100  0.962000  0.965900  1.0  -0.5321
  O  O327  1  0.288400  0.636600  0.020800  1.0  -0.5699
  O  O328  1  0.149000  0.697700  0.959400  1.0  -0.5008
  O  O329  1  0.456100  0.114200  0.994400  1.0  -0.4713
  O  O330  1  0.399700  0.250000  0.958500  1.0  -0.5072
  O  O331  1  0.394300  0.343600  0.111400  1.0  -0.5401
  O  O332  1  0.331400  0.257600  0.094600  1.0  -0.5467
  O  O333  1  0.677200  0.336200  0.497220  1.0  -0.4789
  O  O334  1  0.175900  0.836800  0.006790  1.0  -0.4929
  O  O335  1  0.318200  0.776900  0.608700  1.0  -0.5612
  O  O336  1  0.453600  0.643600  0.623900  1.0  -0.564
  O  O337  1  0.666900  0.156300  0.897000  1.0  -0.5643
  O  O338  1  0.820700  0.038700  0.888200  1.0  -0.5591
  O  O339  1  0.369600  0.994100  0.817200  1.0  -0.5019
  O  O340  1  0.363000  0.126600  0.834200  1.0  -0.4031
  O  O341  1  0.315700  0.057800  0.672800  1.0  -0.4784
  O  O342  1  0.458300  0.064700  0.690900  1.0  -0.4933
  O  O343  1  0.201200  0.870000  0.504100  1.0  -0.5842
  O  O344  1  0.353200  0.800900  0.457000  1.0  -0.5217
  O  O345  1  0.435200  0.461700  0.488610  1.0  -0.6671
  O  O346  1  0.278300  0.535800  0.448700  1.0  -0.5404
  O  O347  1  0.150600  0.261400  0.545700  1.0  -0.4829
  O  O348  1  0.127300  0.161800  0.598300  1.0  -0.4565
  O  O349  1  0.075400  0.362500  0.399500  1.0  -0.4207
  O  O350  1  0.140900  0.238500  0.380700  1.0  -0.4972
  O  O351  1  0.300100  0.536400  0.592900  1.0  -0.5521
  O  O352  1  0.174800  0.671600  0.615400  1.0  -0.5636
  O  O353  1  0.806400  0.259000  0.869100  1.0  -0.5627
  O  O354  1  0.965100  0.154700  0.885800  1.0  -0.5524
  O  O355  1  0.949300  0.678800  0.789400  1.0  -0.4542
  O  O356  1  0.969700  0.553100  0.835300  1.0  -0.495
  O  O357  1  0.846500  0.567600  0.717300  1.0  -0.4308
  O  O358  1  0.746300  0.501700  0.722600  1.0  -0.5077
  O  O359  1  0.933100  0.962600  0.002340  1.0  -0.6372
  O  O360  1  0.769900  0.038000  0.034100  1.0  -0.5293
  O  O361  1  0.711600  0.363400  0.979200  1.0  -0.5699
  O  O362  1  0.851000  0.302300  0.040600  1.0  -0.5006
  O  O363  1  0.543900  0.885800  0.005600  1.0  -0.4707
  O  O364  1  0.600300  0.750000  0.041500  1.0  -0.5059
  O  O365  1  0.605700  0.656400  0.888600  1.0  -0.5407
  O  O366  1  0.668600  0.742400  0.905400  1.0  -0.5465
  O  O367  1  0.322800  0.663800  0.502780  1.0  -0.4783
  O  O368  1  0.824100  0.163200  0.993210  1.0  -0.4926
