# generated using pymatgen
data_Co7H51C69(NO6)4
_symmetry_space_group_name_H-M   'P 1'
_cell_length_a   24.03800000
_cell_length_b   23.21700000
_cell_length_c   15.26300000
_cell_angle_alpha   90.00000000
_cell_angle_beta   115.73000000
_cell_angle_gamma   90.00000000
_symmetry_Int_Tables_number   1
_chemical_formula_structural   Co7H51C69(NO6)4
_chemical_formula_sum   'Co28 H204 C276 N16 O96'
_cell_volume   7673.55728375
_cell_formula_units_Z   4
loop_
 _symmetry_equiv_pos_site_id
 _symmetry_equiv_pos_as_xyz
  1  'x, y, z'
loop_
 _atom_site_type_symbol
 _atom_site_label
 _atom_site_symmetry_multiplicity
 _atom_site_fract_x
 _atom_site_fract_y
 _atom_site_fract_z
 _atom_site_occupancy
 _atom_site_charge
  Co  Co1  1  0.823690  0.638490  0.685480  1.0  1.0006
  Co  Co2  1  0.718960  0.739130  0.686690  1.0  1.0396
  Co  Co3  1  0.851740  0.655370  0.487610  1.0  0.9883
  Co  Co4  1  0.323690  0.138490  0.685480  1.0  1.0006
  Co  Co5  1  0.218960  0.239130  0.686690  1.0  1.0385
  Co  Co6  1  0.351740  0.155370  0.487610  1.0  0.9883
  Co  Co7  1  0.176310  0.638490  0.814520  1.0  1.0021
  Co  Co8  1  0.281040  0.739130  0.813310  1.0  1.0398
  Co  Co9  1  0.148260  0.655370  0.012390  1.0  0.9886
  Co  Co10  1  0.676310  0.138490  0.814520  1.0  1.0022
  Co  Co11  1  0.781040  0.239130  0.813310  1.0  1.0387
  Co  Co12  1  0.648260  0.155370  0.012390  1.0  0.9886
  Co  Co13  1  0.176310  0.361510  0.314520  1.0  1.0022
  Co  Co14  1  0.281040  0.260870  0.313310  1.0  1.0388
  Co  Co15  1  0.148260  0.344630  0.512390  1.0  0.9875
  Co  Co16  1  0.676310  0.861510  0.314520  1.0  1.0022
  Co  Co17  1  0.781040  0.760870  0.313310  1.0  1.0378
  Co  Co18  1  0.648260  0.844630  0.512390  1.0  0.9875
  Co  Co19  1  0.823690  0.361510  0.185480  1.0  1.0009
  Co  Co20  1  0.718960  0.260870  0.186690  1.0  1.0385
  Co  Co21  1  0.851740  0.344630  0.987610  1.0  0.989
  Co  Co22  1  0.323690  0.861510  0.185480  1.0  1.0009
  Co  Co23  1  0.218960  0.760870  0.186690  1.0  1.0375
  Co  Co24  1  0.351740  0.844630  0.987610  1.0  0.989
  Co  Co25  1  0.750000  0.750000  0.500000  1.0  1.1027
  Co  Co26  1  0.250000  0.750000  0.000000  1.0  1.1027
  Co  Co27  1  0.250000  0.250000  0.500000  1.0  1.1026
  Co  Co28  1  0.750000  0.250000  0.000000  1.0  1.1028
  H  H29  1  0.797000  0.477800  0.366700  1.0  0.1197
  H  H30  1  0.717100  0.511100  0.549200  1.0  0.1152
  H  H31  1  0.656900  0.430100  0.495400  1.0  0.114
  H  H32  1  0.663800  0.371500  0.375000  1.0  0.1224
  H  H33  1  0.970000  0.706100  0.925700  1.0  0.1131
  H  H34  1  0.038900  0.837400  0.116800  1.0  0.114
  H  H35  1  0.940100  0.875000  0.067300  1.0  0.1258
  H  H36  1  0.856700  0.832200  0.937400  1.0  0.1142
  H  H37  1  0.596700  0.661700  0.256900  1.0  0.1209
  H  H38  1  0.505400  0.613300  0.157400  1.0  0.105
  H  H39  1  0.584800  0.664800  0.417000  1.0  0.1256
  H  H40  1  0.965500  0.625300  0.811200  1.0  0.0961
  H  H41  1  0.037800  0.555000  0.899000  1.0  0.1267
  H  H42  1  0.900800  0.438100  0.815800  1.0  0.1329
  H  H43  1  0.833900  0.508600  0.723700  1.0  0.0873
  H  H44  1  0.052400  0.465700  0.989200  1.0  0.085
  H  H45  1  0.999100  0.417800  0.955100  1.0  0.1063
  H  H46  1  0.021200  0.391200  0.823200  1.0  0.093
  H  H47  1  0.071300  0.441800  0.849900  1.0  0.0868
  H  H48  1  0.084300  0.344400  0.975200  1.0  0.1009
  H  H49  1  0.134700  0.394700  0.000300  1.0  0.1044
  H  H50  1  0.192400  0.405300  0.892100  1.0  0.1142
  H  H51  1  0.233300  0.357000  0.800500  1.0  0.1016
  H  H52  1  0.120200  0.224800  0.766500  1.0  0.0965
  H  H53  1  0.081200  0.269200  0.864400  1.0  0.1003
  H  H54  1  0.297000  0.977800  0.366700  1.0  0.1197
  H  H55  1  0.217100  0.011100  0.549200  1.0  0.1151
  H  H56  1  0.156900  0.930100  0.495400  1.0  0.114
  H  H57  1  0.163800  0.871500  0.375000  1.0  0.1224
  H  H58  1  0.470000  0.206100  0.925700  1.0  0.1131
  H  H59  1  0.538900  0.337400  0.116800  1.0  0.114
  H  H60  1  0.440100  0.375000  0.067300  1.0  0.1258
  H  H61  1  0.356700  0.332200  0.937400  1.0  0.1142
  H  H62  1  0.096700  0.161700  0.256900  1.0  0.1209
  H  H63  1  0.005400  0.113300  0.157400  1.0  0.105
  H  H64  1  0.084800  0.164800  0.417000  1.0  0.1256
  H  H65  1  0.465500  0.125300  0.811200  1.0  0.0961
  H  H66  1  0.537800  0.055000  0.899000  1.0  0.1267
  H  H67  1  0.400800  0.938100  0.815800  1.0  0.1329
  H  H68  1  0.333900  0.008600  0.723700  1.0  0.0873
  H  H69  1  0.552400  0.965700  0.989200  1.0  0.085
  H  H70  1  0.499100  0.917800  0.955100  1.0  0.1063
  H  H71  1  0.521200  0.891200  0.823200  1.0  0.093
  H  H72  1  0.571300  0.941800  0.849900  1.0  0.0868
  H  H73  1  0.584300  0.844400  0.975200  1.0  0.1009
  H  H74  1  0.634700  0.894700  0.000300  1.0  0.1044
  H  H75  1  0.692400  0.905300  0.892100  1.0  0.1142
  H  H76  1  0.733300  0.857000  0.800500  1.0  0.1016
  H  H77  1  0.620200  0.724800  0.766500  1.0  0.0965
  H  H78  1  0.581200  0.769200  0.864400  1.0  0.1003
  H  H79  1  0.203000  0.477800  0.133300  1.0  0.1192
  H  H80  1  0.282900  0.511100  0.950800  1.0  0.115
  H  H81  1  0.343100  0.430100  0.004600  1.0  0.1142
  H  H82  1  0.336200  0.371500  0.125000  1.0  0.1229
  H  H83  1  0.030000  0.706100  0.574300  1.0  0.1128
  H  H84  1  0.961100  0.837400  0.383200  1.0  0.1139
  H  H85  1  0.059900  0.875000  0.432700  1.0  0.1256
  H  H86  1  0.143300  0.832200  0.562600  1.0  0.1144
  H  H87  1  0.403300  0.661700  0.243100  1.0  0.1202
  H  H88  1  0.494600  0.613300  0.342600  1.0  0.1062
  H  H89  1  0.415200  0.664800  0.083000  1.0  0.1254
  H  H90  1  0.034500  0.625300  0.688800  1.0  0.0963
  H  H91  1  0.962200  0.555000  0.601000  1.0  0.1254
  H  H92  1  0.099200  0.438100  0.684200  1.0  0.1331
  H  H93  1  0.166100  0.508600  0.776300  1.0  0.0879
  H  H94  1  0.947600  0.465700  0.510800  1.0  0.0849
  H  H95  1  0.000900  0.417800  0.544900  1.0  0.1057
  H  H96  1  0.978800  0.391200  0.676800  1.0  0.0922
  H  H97  1  0.928700  0.441800  0.650100  1.0  0.0856
  H  H98  1  0.915700  0.344400  0.524800  1.0  0.1012
  H  H99  1  0.865300  0.394700  0.499700  1.0  0.1049
  H  H100  1  0.807600  0.405300  0.607900  1.0  0.1153
  H  H101  1  0.766700  0.357000  0.699500  1.0  0.1013
  H  H102  1  0.879800  0.224800  0.733500  1.0  0.0963
  H  H103  1  0.918800  0.269200  0.635600  1.0  0.1002
  H  H104  1  0.703000  0.977800  0.133300  1.0  0.1192
  H  H105  1  0.782900  0.011100  0.950800  1.0  0.115
  H  H106  1  0.843100  0.930100  0.004600  1.0  0.1142
  H  H107  1  0.836200  0.871500  0.125000  1.0  0.1229
  H  H108  1  0.530000  0.206100  0.574300  1.0  0.1128
  H  H109  1  0.461100  0.337400  0.383200  1.0  0.1139
  H  H110  1  0.559900  0.375000  0.432700  1.0  0.1256
  H  H111  1  0.643300  0.332200  0.562600  1.0  0.1144
  H  H112  1  0.903300  0.161700  0.243100  1.0  0.1202
  H  H113  1  0.994600  0.113300  0.342600  1.0  0.1062
  H  H114  1  0.915200  0.164800  0.083000  1.0  0.1254
  H  H115  1  0.534500  0.125300  0.688800  1.0  0.0963
  H  H116  1  0.462200  0.055000  0.601000  1.0  0.1254
  H  H117  1  0.599200  0.938100  0.684200  1.0  0.1331
  H  H118  1  0.666100  0.008600  0.776300  1.0  0.0879
  H  H119  1  0.447600  0.965700  0.510800  1.0  0.0849
  H  H120  1  0.500900  0.917800  0.544900  1.0  0.1057
  H  H121  1  0.478800  0.891200  0.676800  1.0  0.0922
  H  H122  1  0.428700  0.941800  0.650100  1.0  0.0856
  H  H123  1  0.415700  0.844400  0.524800  1.0  0.1012
  H  H124  1  0.365300  0.894700  0.499700  1.0  0.1049
  H  H125  1  0.307600  0.905300  0.607900  1.0  0.1153
  H  H126  1  0.266700  0.857000  0.699500  1.0  0.1013
  H  H127  1  0.379800  0.724800  0.733500  1.0  0.0963
  H  H128  1  0.418800  0.769200  0.635600  1.0  0.1002
  H  H129  1  0.203000  0.522200  0.633300  1.0  0.1192
  H  H130  1  0.282900  0.488900  0.450800  1.0  0.1146
  H  H131  1  0.343100  0.569900  0.504600  1.0  0.1132
  H  H132  1  0.336200  0.628500  0.625000  1.0  0.1222
  H  H133  1  0.030000  0.293900  0.074300  1.0  0.1127
  H  H134  1  0.961100  0.162600  0.883200  1.0  0.1132
  H  H135  1  0.059900  0.125000  0.932700  1.0  0.1253
  H  H136  1  0.143300  0.167800  0.062600  1.0  0.1144
  H  H137  1  0.403300  0.338300  0.743100  1.0  0.1214
  H  H138  1  0.494600  0.386700  0.842600  1.0  0.1049
  H  H139  1  0.415200  0.335200  0.583000  1.0  0.1257
  H  H140  1  0.034500  0.374700  0.188800  1.0  0.0961
  H  H141  1  0.962200  0.445000  0.101000  1.0  0.1254
  H  H142  1  0.099200  0.561900  0.184200  1.0  0.1329
  H  H143  1  0.166100  0.491400  0.276300  1.0  0.0878
  H  H144  1  0.947600  0.534300  0.010800  1.0  0.0849
  H  H145  1  0.000900  0.582200  0.044900  1.0  0.1062
  H  H146  1  0.978800  0.608800  0.176800  1.0  0.0916
  H  H147  1  0.928700  0.558200  0.150100  1.0  0.0869
  H  H148  1  0.915700  0.655600  0.024800  1.0  0.1014
  H  H149  1  0.865300  0.605300  0.999700  1.0  0.1044
  H  H150  1  0.807600  0.594700  0.107900  1.0  0.1151
  H  H151  1  0.766700  0.643000  0.199500  1.0  0.1017
  H  H152  1  0.879800  0.775200  0.233500  1.0  0.0957
  H  H153  1  0.918800  0.730800  0.135600  1.0  0.1002
  H  H154  1  0.703000  0.022200  0.633300  1.0  0.1192
  H  H155  1  0.782900  0.988900  0.450800  1.0  0.1146
  H  H156  1  0.843100  0.069900  0.504600  1.0  0.1132
  H  H157  1  0.836200  0.128500  0.625000  1.0  0.1222
  H  H158  1  0.530000  0.793900  0.074300  1.0  0.1127
  H  H159  1  0.461100  0.662600  0.883200  1.0  0.1132
  H  H160  1  0.559900  0.625000  0.932700  1.0  0.1253
  H  H161  1  0.643300  0.667800  0.062600  1.0  0.1144
  H  H162  1  0.903300  0.838300  0.743100  1.0  0.1214
  H  H163  1  0.994600  0.886700  0.842600  1.0  0.1049
  H  H164  1  0.915200  0.835200  0.583000  1.0  0.1257
  H  H165  1  0.534500  0.874700  0.188800  1.0  0.0961
  H  H166  1  0.462200  0.945000  0.101000  1.0  0.1254
  H  H167  1  0.599200  0.061900  0.184200  1.0  0.1329
  H  H168  1  0.666100  0.991400  0.276300  1.0  0.0878
  H  H169  1  0.447600  0.034300  0.010800  1.0  0.0849
  H  H170  1  0.500900  0.082200  0.044900  1.0  0.1062
  H  H171  1  0.478800  0.108800  0.176800  1.0  0.0916
  H  H172  1  0.428700  0.058200  0.150100  1.0  0.0869
  H  H173  1  0.415700  0.155600  0.024800  1.0  0.1014
  H  H174  1  0.365300  0.105300  0.999700  1.0  0.1044
  H  H175  1  0.307600  0.094700  0.107900  1.0  0.1151
  H  H176  1  0.266700  0.143000  0.199500  1.0  0.1017
  H  H177  1  0.379800  0.275200  0.233500  1.0  0.0957
  H  H178  1  0.418800  0.230800  0.135600  1.0  0.1002
  H  H179  1  0.797000  0.522200  0.866700  1.0  0.1199
  H  H180  1  0.717100  0.488900  0.049200  1.0  0.1154
  H  H181  1  0.656900  0.569900  0.995400  1.0  0.1138
  H  H182  1  0.663800  0.628500  0.875000  1.0  0.1225
  H  H183  1  0.970000  0.293900  0.425700  1.0  0.1129
  H  H184  1  0.038900  0.162600  0.616800  1.0  0.1138
  H  H185  1  0.940100  0.125000  0.567300  1.0  0.1263
  H  H186  1  0.856700  0.167800  0.437400  1.0  0.114
  H  H187  1  0.596700  0.338300  0.756900  1.0  0.1227
  H  H188  1  0.505400  0.386700  0.657400  1.0  0.1056
  H  H189  1  0.584800  0.335200  0.917000  1.0  0.1263
  H  H190  1  0.965500  0.374700  0.311200  1.0  0.0961
  H  H191  1  0.037800  0.445000  0.399000  1.0  0.1263
  H  H192  1  0.900800  0.561900  0.315800  1.0  0.1325
  H  H193  1  0.833900  0.491400  0.223700  1.0  0.0872
  H  H194  1  0.052400  0.534300  0.489200  1.0  0.0854
  H  H195  1  0.999100  0.582200  0.455100  1.0  0.106
  H  H196  1  0.021200  0.608800  0.323200  1.0  0.0926
  H  H197  1  0.071300  0.558200  0.349900  1.0  0.0875
  H  H198  1  0.084300  0.655600  0.475200  1.0  0.1007
  H  H199  1  0.134700  0.605300  0.500300  1.0  0.1043
  H  H200  1  0.192400  0.594700  0.392100  1.0  0.1141
  H  H201  1  0.233300  0.643000  0.300500  1.0  0.1019
  H  H202  1  0.120200  0.775200  0.266500  1.0  0.096
  H  H203  1  0.081200  0.730800  0.364400  1.0  0.1005
  H  H204  1  0.297000  0.022200  0.866700  1.0  0.1199
  H  H205  1  0.217100  0.988900  0.049200  1.0  0.1154
  H  H206  1  0.156900  0.069900  0.995400  1.0  0.1138
  H  H207  1  0.163800  0.128500  0.875000  1.0  0.1225
  H  H208  1  0.470000  0.793900  0.425700  1.0  0.1129
  H  H209  1  0.538900  0.662600  0.616800  1.0  0.1138
  H  H210  1  0.440100  0.625000  0.567300  1.0  0.1263
  H  H211  1  0.356700  0.667800  0.437400  1.0  0.114
  H  H212  1  0.096700  0.838300  0.756900  1.0  0.1227
  H  H213  1  0.005400  0.886700  0.657400  1.0  0.1056
  H  H214  1  0.084800  0.835200  0.917000  1.0  0.1263
  H  H215  1  0.465500  0.874700  0.311200  1.0  0.0961
  H  H216  1  0.537800  0.945000  0.399000  1.0  0.1263
  H  H217  1  0.400800  0.061900  0.315800  1.0  0.1325
  H  H218  1  0.333900  0.991400  0.223700  1.0  0.0872
  H  H219  1  0.552400  0.034300  0.489200  1.0  0.0854
  H  H220  1  0.499100  0.082200  0.455100  1.0  0.106
  H  H221  1  0.521200  0.108800  0.323200  1.0  0.0926
  H  H222  1  0.571300  0.058200  0.349900  1.0  0.0875
  H  H223  1  0.584300  0.155600  0.475200  1.0  0.1007
  H  H224  1  0.634700  0.105300  0.500300  1.0  0.1043
  H  H225  1  0.692400  0.094700  0.392100  1.0  0.1141
  H  H226  1  0.733300  0.143000  0.300500  1.0  0.1019
  H  H227  1  0.620200  0.275200  0.266500  1.0  0.096
  H  H228  1  0.581200  0.230800  0.364400  1.0  0.1005
  H  H229  1  0.500000  0.804000  0.250000  1.0  0.1138
  H  H230  1  0.000000  0.304000  0.250000  1.0  0.1138
  H  H231  1  0.500000  0.196000  0.750000  1.0  0.114
  H  H232  1  0.000000  0.696000  0.750000  1.0  0.114
  C  C233  1  0.738700  0.380200  0.282700  1.0  0.6643
  C  C234  1  0.732700  0.419500  0.360200  1.0  -0.1258
  C  C235  1  0.769000  0.467600  0.393000  1.0  -0.0662
  C  C236  1  0.764600  0.501700  0.465300  1.0  -0.1328
  C  C237  1  0.721100  0.487200  0.501600  1.0  -0.0633
  C  C238  1  0.685200  0.439600  0.469300  1.0  -0.0848
  C  C239  1  0.689300  0.404600  0.398100  1.0  -0.0356
  C  C240  1  0.801200  0.556400  0.498200  1.0  0.6398
  C  C241  1  0.853300  0.739200  0.830200  1.0  0.6768
  C  C242  1  0.906200  0.766200  0.917000  1.0  -0.1382
  C  C243  1  0.964500  0.741400  0.952500  1.0  -0.0748
  C  C244  1  0.014600  0.767700  0.026600  1.0  -0.1065
  C  C245  1  0.004800  0.818500  0.067100  1.0  -0.0534
  C  C246  1  0.946300  0.841700  0.036400  1.0  -0.1006
  C  C247  1  0.896900  0.816000  0.960200  1.0  -0.0446
  C  C248  1  0.078700  0.743200  0.055700  1.0  0.6924
  C  C249  1  0.613100  0.762000  0.365400  1.0  0.6692
  C  C250  1  0.554900  0.734200  0.303300  1.0  0.0609
  C  C251  1  0.556200  0.674500  0.253900  1.0  -0.0814
  C  C252  1  0.503000  0.650500  0.181500  1.0  -0.1084
  C  C253  1  0.550200  0.677500  0.354500  1.0  -0.0886
  C  C254  1  0.952200  0.586800  0.810600  1.0  0.1267
  C  C255  1  0.995500  0.545000  0.864100  1.0  -0.1648
  C  C256  1  0.976100  0.488300  0.866000  1.0  0.0959
  C  C257  1  0.915700  0.475900  0.814900  1.0  -0.2178
  C  C258  1  0.876000  0.518700  0.761400  1.0  0.1799
  C  C259  1  0.020900  0.445700  0.931900  1.0  -0.1842
  C  C260  1  0.052500  0.413600  0.877600  1.0  -0.097
  C  C261  1  0.102800  0.372500  0.946600  1.0  -0.2342
  C  C262  1  0.131200  0.341700  0.890400  1.0  0.122
  C  C263  1  0.177600  0.367900  0.868000  1.0  -0.135
  C  C264  1  0.201300  0.339200  0.811600  1.0  0.1801
  C  C265  1  0.135700  0.261700  0.792700  1.0  0.1739
  C  C266  1  0.111700  0.288500  0.851500  1.0  -0.1233
  C  C267  1  0.238700  0.880200  0.282700  1.0  0.6657
  C  C268  1  0.232700  0.919500  0.360200  1.0  -0.1258
  C  C269  1  0.269000  0.967600  0.393000  1.0  -0.0661
  C  C270  1  0.264600  0.001700  0.465300  1.0  -0.1328
  C  C271  1  0.221100  0.987200  0.501600  1.0  -0.0633
  C  C272  1  0.185200  0.939600  0.469300  1.0  -0.0848
  C  C273  1  0.189300  0.904600  0.398100  1.0  -0.0355
  C  C274  1  0.301200  0.056400  0.498200  1.0  0.6398
  C  C275  1  0.353300  0.239200  0.830200  1.0  0.6768
  C  C276  1  0.406200  0.266200  0.917000  1.0  -0.1382
  C  C277  1  0.464500  0.241400  0.952500  1.0  -0.0748
  C  C278  1  0.514600  0.267700  0.026600  1.0  -0.1065
  C  C279  1  0.504800  0.318500  0.067100  1.0  -0.0535
  C  C280  1  0.446300  0.341700  0.036400  1.0  -0.1006
  C  C281  1  0.396900  0.316000  0.960200  1.0  -0.0446
  C  C282  1  0.578700  0.243200  0.055700  1.0  0.6924
  C  C283  1  0.113100  0.262000  0.365400  1.0  0.6692
  C  C284  1  0.054900  0.234200  0.303300  1.0  0.0609
  C  C285  1  0.056200  0.174500  0.253900  1.0  -0.0814
  C  C286  1  0.003000  0.150500  0.181500  1.0  -0.1084
  C  C287  1  0.050200  0.177500  0.354500  1.0  -0.0886
  C  C288  1  0.452200  0.086800  0.810600  1.0  0.1267
  C  C289  1  0.495500  0.045000  0.864100  1.0  -0.1648
  C  C290  1  0.476100  0.988300  0.866000  1.0  0.0959
  C  C291  1  0.415700  0.975900  0.814900  1.0  -0.2178
  C  C292  1  0.376000  0.018700  0.761400  1.0  0.1799
  C  C293  1  0.520900  0.945700  0.931900  1.0  -0.1842
  C  C294  1  0.552500  0.913600  0.877600  1.0  -0.097
  C  C295  1  0.602800  0.872500  0.946600  1.0  -0.2342
  C  C296  1  0.631200  0.841700  0.890400  1.0  0.122
  C  C297  1  0.677600  0.867900  0.868000  1.0  -0.135
  C  C298  1  0.701300  0.839200  0.811600  1.0  0.1801
  C  C299  1  0.635700  0.761700  0.792700  1.0  0.174
  C  C300  1  0.611700  0.788500  0.851500  1.0  -0.1233
  C  C301  1  0.261300  0.380200  0.217300  1.0  0.6658
  C  C302  1  0.267300  0.419500  0.139800  1.0  -0.1259
  C  C303  1  0.231000  0.467600  0.107000  1.0  -0.0661
  C  C304  1  0.235400  0.501700  0.034700  1.0  -0.1326
  C  C305  1  0.278900  0.487200  0.998400  1.0  -0.0657
  C  C306  1  0.314800  0.439600  0.030700  1.0  -0.0879
  C  C307  1  0.310700  0.404600  0.101900  1.0  -0.0362
  C  C308  1  0.198800  0.556400  0.001800  1.0  0.6408
  C  C309  1  0.146700  0.739200  0.669800  1.0  0.6768
  C  C310  1  0.093800  0.766200  0.583000  1.0  -0.139
  C  C311  1  0.035500  0.741400  0.547500  1.0  -0.075
  C  C312  1  0.985400  0.767700  0.473400  1.0  -0.1066
  C  C313  1  0.995200  0.818500  0.432900  1.0  -0.0553
  C  C314  1  0.053700  0.841700  0.463600  1.0  -0.1016
  C  C315  1  0.103100  0.816000  0.539800  1.0  -0.0438
  C  C316  1  0.921300  0.743200  0.444300  1.0  0.6914
  C  C317  1  0.386900  0.762000  0.134600  1.0  0.6672
  C  C318  1  0.445100  0.734200  0.196700  1.0  0.0611
  C  C319  1  0.443800  0.674500  0.246100  1.0  -0.079
  C  C320  1  0.497000  0.650500  0.318500  1.0  -0.1083
  C  C321  1  0.449800  0.677500  0.145500  1.0  -0.0867
  C  C322  1  0.047800  0.586800  0.689400  1.0  0.1256
  C  C323  1  0.004500  0.545000  0.635900  1.0  -0.1634
  C  C324  1  0.023900  0.488300  0.634000  1.0  0.0964
  C  C325  1  0.084300  0.475900  0.685100  1.0  -0.2171
  C  C326  1  0.124000  0.518700  0.738600  1.0  0.179
  C  C327  1  0.979100  0.445700  0.568100  1.0  -0.1802
  C  C328  1  0.947500  0.413600  0.622400  1.0  -0.0969
  C  C329  1  0.897200  0.372500  0.553400  1.0  -0.2291
  C  C330  1  0.868800  0.341700  0.609600  1.0  0.1215
  C  C331  1  0.822400  0.367900  0.632000  1.0  -0.1323
  C  C332  1  0.798700  0.339200  0.688400  1.0  0.1801
  C  C333  1  0.864300  0.261700  0.707300  1.0  0.1733
  C  C334  1  0.888300  0.288500  0.648500  1.0  -0.1234
  C  C335  1  0.761300  0.880200  0.217300  1.0  0.6671
  C  C336  1  0.767300  0.919500  0.139800  1.0  -0.1259
  C  C337  1  0.731000  0.967600  0.107000  1.0  -0.066
  C  C338  1  0.735400  0.001700  0.034700  1.0  -0.1326
  C  C339  1  0.778900  0.987200  0.998400  1.0  -0.0657
  C  C340  1  0.814800  0.939600  0.030700  1.0  -0.0879
  C  C341  1  0.810700  0.904600  0.101900  1.0  -0.0361
  C  C342  1  0.698800  0.056400  0.001800  1.0  0.6408
  C  C343  1  0.646700  0.239200  0.669800  1.0  0.6768
  C  C344  1  0.593800  0.266200  0.583000  1.0  -0.139
  C  C345  1  0.535500  0.241400  0.547500  1.0  -0.075
  C  C346  1  0.485400  0.267700  0.473400  1.0  -0.1066
  C  C347  1  0.495200  0.318500  0.432900  1.0  -0.0554
  C  C348  1  0.553700  0.341700  0.463600  1.0  -0.1016
  C  C349  1  0.603100  0.316000  0.539800  1.0  -0.0438
  C  C350  1  0.421300  0.243200  0.444300  1.0  0.6914
  C  C351  1  0.886900  0.262000  0.134600  1.0  0.6672
  C  C352  1  0.945100  0.234200  0.196700  1.0  0.0611
  C  C353  1  0.943800  0.174500  0.246100  1.0  -0.079
  C  C354  1  0.997000  0.150500  0.318500  1.0  -0.1083
  C  C355  1  0.949800  0.177500  0.145500  1.0  -0.0867
  C  C356  1  0.547800  0.086800  0.689400  1.0  0.1256
  C  C357  1  0.504500  0.045000  0.635900  1.0  -0.1634
  C  C358  1  0.523900  0.988300  0.634000  1.0  0.0964
  C  C359  1  0.584300  0.975900  0.685100  1.0  -0.2171
  C  C360  1  0.624000  0.018700  0.738600  1.0  0.179
  C  C361  1  0.479100  0.945700  0.568100  1.0  -0.1802
  C  C362  1  0.447500  0.913600  0.622400  1.0  -0.0969
  C  C363  1  0.397200  0.872500  0.553400  1.0  -0.2291
  C  C364  1  0.368800  0.841700  0.609600  1.0  0.1215
  C  C365  1  0.322400  0.867900  0.632000  1.0  -0.1323
  C  C366  1  0.298700  0.839200  0.688400  1.0  0.1801
  C  C367  1  0.364300  0.761700  0.707300  1.0  0.1734
  C  C368  1  0.388300  0.788500  0.648500  1.0  -0.1234
  C  C369  1  0.261300  0.619800  0.717300  1.0  0.6663
  C  C370  1  0.267300  0.580500  0.639800  1.0  -0.1265
  C  C371  1  0.231000  0.532400  0.607000  1.0  -0.0657
  C  C372  1  0.235400  0.498300  0.534700  1.0  -0.1343
  C  C373  1  0.278900  0.512800  0.498400  1.0  -0.0685
  C  C374  1  0.314800  0.560400  0.530700  1.0  -0.0879
  C  C375  1  0.310700  0.595400  0.601900  1.0  -0.035
  C  C376  1  0.198800  0.443600  0.501800  1.0  0.6401
  C  C377  1  0.146700  0.260800  0.169800  1.0  0.6776
  C  C378  1  0.093800  0.233800  0.083000  1.0  -0.1391
  C  C379  1  0.035500  0.258600  0.047500  1.0  -0.0749
  C  C380  1  0.985400  0.232300  0.973400  1.0  -0.1065
  C  C381  1  0.995200  0.181500  0.932900  1.0  -0.0534
  C  C382  1  0.053700  0.158300  0.963600  1.0  -0.1056
  C  C383  1  0.103100  0.184000  0.039800  1.0  -0.0448
  C  C384  1  0.921300  0.256800  0.944300  1.0  0.6916
  C  C385  1  0.386900  0.238000  0.634600  1.0  0.667
  C  C386  1  0.445100  0.265800  0.696700  1.0  0.0618
  C  C387  1  0.443800  0.325500  0.746100  1.0  -0.0782
  C  C388  1  0.497000  0.349500  0.818500  1.0  -0.1031
  C  C389  1  0.449800  0.322500  0.645500  1.0  -0.0886
  C  C390  1  0.047800  0.413200  0.189400  1.0  0.1248
  C  C391  1  0.004500  0.455000  0.135900  1.0  -0.1633
  C  C392  1  0.023900  0.511700  0.134000  1.0  0.0966
  C  C393  1  0.084300  0.524100  0.185100  1.0  -0.217
  C  C394  1  0.124000  0.481300  0.238600  1.0  0.1789
  C  C395  1  0.979100  0.554300  0.068100  1.0  -0.1812
  C  C396  1  0.947500  0.586400  0.122400  1.0  -0.0971
  C  C397  1  0.897200  0.627500  0.053400  1.0  -0.2299
  C  C398  1  0.868800  0.658300  0.109600  1.0  0.1211
  C  C399  1  0.822400  0.632100  0.132000  1.0  -0.1326
  C  C400  1  0.798700  0.660800  0.188400  1.0  0.1797
  C  C401  1  0.864300  0.738300  0.207300  1.0  0.1732
  C  C402  1  0.888300  0.711500  0.148500  1.0  -0.1238
  C  C403  1  0.761300  0.119800  0.717300  1.0  0.6676
  C  C404  1  0.767300  0.080500  0.639800  1.0  -0.1265
  C  C405  1  0.731000  0.032400  0.607000  1.0  -0.0656
  C  C406  1  0.735400  0.998300  0.534700  1.0  -0.1343
  C  C407  1  0.778900  0.012800  0.498400  1.0  -0.0685
  C  C408  1  0.814800  0.060400  0.530700  1.0  -0.0879
  C  C409  1  0.810700  0.095400  0.601900  1.0  -0.035
  C  C410  1  0.698800  0.943600  0.501800  1.0  0.6401
  C  C411  1  0.646700  0.760800  0.169800  1.0  0.6776
  C  C412  1  0.593800  0.733800  0.083000  1.0  -0.1391
  C  C413  1  0.535500  0.758600  0.047500  1.0  -0.0749
  C  C414  1  0.485400  0.732300  0.973400  1.0  -0.1065
  C  C415  1  0.495200  0.681500  0.932900  1.0  -0.0535
  C  C416  1  0.553700  0.658300  0.963600  1.0  -0.1056
  C  C417  1  0.603100  0.684000  0.039800  1.0  -0.0448
  C  C418  1  0.421300  0.756800  0.944300  1.0  0.6916
  C  C419  1  0.886900  0.738000  0.634600  1.0  0.667
  C  C420  1  0.945100  0.765800  0.696700  1.0  0.0618
  C  C421  1  0.943800  0.825500  0.746100  1.0  -0.0782
  C  C422  1  0.997000  0.849500  0.818500  1.0  -0.1031
  C  C423  1  0.949800  0.822500  0.645500  1.0  -0.0886
  C  C424  1  0.547800  0.913200  0.189400  1.0  0.1248
  C  C425  1  0.504500  0.955000  0.135900  1.0  -0.1633
  C  C426  1  0.523900  0.011700  0.134000  1.0  0.0966
  C  C427  1  0.584300  0.024100  0.185100  1.0  -0.217
  C  C428  1  0.624000  0.981300  0.238600  1.0  0.1789
  C  C429  1  0.479100  0.054300  0.068100  1.0  -0.1812
  C  C430  1  0.447500  0.086400  0.122400  1.0  -0.0971
  C  C431  1  0.397200  0.127500  0.053400  1.0  -0.2299
  C  C432  1  0.368800  0.158300  0.109600  1.0  0.1211
  C  C433  1  0.322400  0.132100  0.132000  1.0  -0.1326
  C  C434  1  0.298700  0.160800  0.188400  1.0  0.1797
  C  C435  1  0.364300  0.238300  0.207300  1.0  0.1732
  C  C436  1  0.388300  0.211500  0.148500  1.0  -0.1238
  C  C437  1  0.738700  0.619800  0.782700  1.0  0.6648
  C  C438  1  0.732700  0.580500  0.860200  1.0  -0.1249
  C  C439  1  0.769000  0.532400  0.893000  1.0  -0.0662
  C  C440  1  0.764600  0.498300  0.965300  1.0  -0.1344
  C  C441  1  0.721100  0.512800  0.001600  1.0  -0.065
  C  C442  1  0.685200  0.560400  0.969300  1.0  -0.0847
  C  C443  1  0.689300  0.595400  0.898100  1.0  -0.0358
  C  C444  1  0.801200  0.443600  0.998200  1.0  0.6387
  C  C445  1  0.853300  0.260800  0.330200  1.0  0.6773
  C  C446  1  0.906200  0.233800  0.417000  1.0  -0.1388
  C  C447  1  0.964500  0.258600  0.452500  1.0  -0.0742
  C  C448  1  0.014600  0.232300  0.526600  1.0  -0.1065
  C  C449  1  0.004800  0.181500  0.567100  1.0  -0.0529
  C  C450  1  0.946300  0.158300  0.536400  1.0  -0.1052
  C  C451  1  0.896900  0.184000  0.460200  1.0  -0.0452
  C  C452  1  0.078700  0.256800  0.555700  1.0  0.693
  C  C453  1  0.613100  0.238000  0.865400  1.0  0.6685
  C  C454  1  0.554900  0.265800  0.803300  1.0  0.0615
  C  C455  1  0.556200  0.325500  0.753900  1.0  -0.0809
  C  C456  1  0.503000  0.349500  0.681500  1.0  -0.1049
  C  C457  1  0.550200  0.322500  0.854500  1.0  -0.0909
  C  C458  1  0.952200  0.413200  0.310600  1.0  0.1257
  C  C459  1  0.995500  0.455000  0.364100  1.0  -0.1648
  C  C460  1  0.976100  0.511700  0.366000  1.0  0.0964
  C  C461  1  0.915700  0.524100  0.314900  1.0  -0.2174
  C  C462  1  0.876000  0.481300  0.261400  1.0  0.1801
  C  C463  1  0.020900  0.554300  0.431900  1.0  -0.1846
  C  C464  1  0.052500  0.586400  0.377600  1.0  -0.0973
  C  C465  1  0.102800  0.627500  0.446600  1.0  -0.2341
  C  C466  1  0.131200  0.658300  0.390400  1.0  0.1215
  C  C467  1  0.177600  0.632100  0.368000  1.0  -0.1351
  C  C468  1  0.201300  0.660800  0.311600  1.0  0.1806
  C  C469  1  0.135700  0.738300  0.292700  1.0  0.1738
  C  C470  1  0.111700  0.711500  0.351500  1.0  -0.1246
  C  C471  1  0.238700  0.119800  0.782700  1.0  0.6661
  C  C472  1  0.232700  0.080500  0.860200  1.0  -0.1249
  C  C473  1  0.269000  0.032400  0.893000  1.0  -0.0661
  C  C474  1  0.264600  0.998300  0.965300  1.0  -0.1344
  C  C475  1  0.221100  0.012800  0.001600  1.0  -0.065
  C  C476  1  0.185200  0.060400  0.969300  1.0  -0.0847
  C  C477  1  0.189300  0.095400  0.898100  1.0  -0.0357
  C  C478  1  0.301200  0.943600  0.998200  1.0  0.6387
  C  C479  1  0.353300  0.760800  0.330200  1.0  0.6773
  C  C480  1  0.406200  0.733800  0.417000  1.0  -0.1388
  C  C481  1  0.464500  0.758600  0.452500  1.0  -0.0742
  C  C482  1  0.514600  0.732300  0.526600  1.0  -0.1065
  C  C483  1  0.504800  0.681500  0.567100  1.0  -0.053
  C  C484  1  0.446300  0.658300  0.536400  1.0  -0.1052
  C  C485  1  0.396900  0.684000  0.460200  1.0  -0.0452
  C  C486  1  0.578700  0.756800  0.555700  1.0  0.693
  C  C487  1  0.113100  0.738000  0.865400  1.0  0.6685
  C  C488  1  0.054900  0.765800  0.803300  1.0  0.0615
  C  C489  1  0.056200  0.825500  0.753900  1.0  -0.0809
  C  C490  1  0.003000  0.849500  0.681500  1.0  -0.1049
  C  C491  1  0.050200  0.822500  0.854500  1.0  -0.0909
  C  C492  1  0.452200  0.913200  0.310600  1.0  0.1257
  C  C493  1  0.495500  0.955000  0.364100  1.0  -0.1648
  C  C494  1  0.476100  0.011700  0.366000  1.0  0.0964
  C  C495  1  0.415700  0.024100  0.314900  1.0  -0.2174
  C  C496  1  0.376000  0.981300  0.261400  1.0  0.1801
  C  C497  1  0.520900  0.054300  0.431900  1.0  -0.1846
  C  C498  1  0.552500  0.086400  0.377600  1.0  -0.0973
  C  C499  1  0.602800  0.127500  0.446600  1.0  -0.2341
  C  C500  1  0.631200  0.158300  0.390400  1.0  0.1215
  C  C501  1  0.677600  0.132100  0.368000  1.0  -0.1351
  C  C502  1  0.701300  0.160800  0.311600  1.0  0.1806
  C  C503  1  0.635700  0.238300  0.292700  1.0  0.1739
  C  C504  1  0.611700  0.211500  0.351500  1.0  -0.1246
  C  C505  1  0.500000  0.763100  0.250000  1.0  -0.1309
  C  C506  1  0.000000  0.263100  0.250000  1.0  -0.1309
  C  C507  1  0.500000  0.236900  0.750000  1.0  -0.1304
  C  C508  1  0.000000  0.736900  0.750000  1.0  -0.1304
  N  N509  1  0.892300  0.573900  0.758400  1.0  -0.3119
  N  N510  1  0.180200  0.286100  0.771300  1.0  -0.32
  N  N511  1  0.392300  0.073900  0.758400  1.0  -0.3119
  N  N512  1  0.680200  0.786100  0.771300  1.0  -0.3199
  N  N513  1  0.107700  0.573900  0.741600  1.0  -0.3119
  N  N514  1  0.819800  0.286100  0.728700  1.0  -0.3178
  N  N515  1  0.607700  0.073900  0.741600  1.0  -0.3119
  N  N516  1  0.319800  0.786100  0.728700  1.0  -0.3177
  N  N517  1  0.107700  0.426100  0.241600  1.0  -0.3101
  N  N518  1  0.819800  0.713900  0.228700  1.0  -0.3186
  N  N519  1  0.607700  0.926100  0.241600  1.0  -0.3101
  N  N520  1  0.319800  0.213900  0.228700  1.0  -0.3185
  N  N521  1  0.892300  0.426100  0.258400  1.0  -0.3128
  N  N522  1  0.180200  0.713900  0.271300  1.0  -0.3188
  N  N523  1  0.392300  0.926100  0.258400  1.0  -0.3128
  N  N524  1  0.680200  0.213900  0.271300  1.0  -0.3187
  O  O525  1  0.749700  0.689600  0.599500  1.0  -0.7444
  O  O526  1  0.774500  0.694400  0.406900  1.0  -0.7084
  O  O527  1  0.769100  0.404000  0.239900  1.0  -0.6069
  O  O528  1  0.714000  0.333333  0.267500  1.0  -0.5758
  O  O529  1  0.791000  0.586700  0.560300  1.0  -0.6927
  O  O530  1  0.837600  0.571800  0.461900  1.0  -0.5726
  O  O531  1  0.865000  0.690800  0.803700  1.0  -0.5951
  O  O532  1  0.804500  0.766700  0.790500  1.0  -0.5887
  O  O533  1  0.123800  0.776900  0.089700  1.0  -0.5977
  O  O534  1  0.080900  0.689600  0.039500  1.0  -0.5904
  O  O535  1  0.658000  0.730200  0.409300  1.0  -0.5767
  O  O536  1  0.613910  0.817960  0.372200  1.0  -0.6345
  O  O537  1  0.249700  0.189600  0.599500  1.0  -0.7444
  O  O538  1  0.274500  0.194400  0.406900  1.0  -0.7084
  O  O539  1  0.269100  0.904000  0.239900  1.0  -0.6067
  O  O540  1  0.214000  0.833300  0.267500  1.0  -0.576
  O  O541  1  0.291000  0.086700  0.560300  1.0  -0.6927
  O  O542  1  0.337600  0.071800  0.461900  1.0  -0.5726
  O  O543  1  0.365000  0.190800  0.803700  1.0  -0.5951
  O  O544  1  0.304500  0.266700  0.790500  1.0  -0.5887
  O  O545  1  0.623800  0.276900  0.089700  1.0  -0.5977
  O  O546  1  0.580900  0.189600  0.039500  1.0  -0.5904
  O  O547  1  0.158000  0.230200  0.409300  1.0  -0.5767
  O  O548  1  0.113910  0.317960  0.372200  1.0  -0.6345
  O  O549  1  0.250300  0.689600  0.900500  1.0  -0.7452
  O  O550  1  0.225500  0.694400  0.093100  1.0  -0.7081
  O  O551  1  0.230900  0.404000  0.260100  1.0  -0.6049
  O  O552  1  0.286000  0.333333  0.232500  1.0  -0.5765
  O  O553  1  0.209000  0.586700  0.939700  1.0  -0.6928
  O  O554  1  0.162400  0.571800  0.038100  1.0  -0.5714
  O  O555  1  0.135000  0.690800  0.696300  1.0  -0.5949
  O  O556  1  0.195500  0.766700  0.709500  1.0  -0.5887
  O  O557  1  0.876200  0.776900  0.410300  1.0  -0.598
  O  O558  1  0.919100  0.689600  0.460500  1.0  -0.5916
  O  O559  1  0.342000  0.730200  0.090700  1.0  -0.5769
  O  O560  1  0.386090  0.817960  0.127800  1.0  -0.6347
  O  O561  1  0.750300  0.189600  0.900500  1.0  -0.7452
  O  O562  1  0.725500  0.194400  0.093100  1.0  -0.7081
  O  O563  1  0.730900  0.904000  0.260100  1.0  -0.6048
  O  O564  1  0.786000  0.833300  0.232500  1.0  -0.5768
  O  O565  1  0.709000  0.086700  0.939700  1.0  -0.6928
  O  O566  1  0.662400  0.071800  0.038100  1.0  -0.5714
  O  O567  1  0.635000  0.190800  0.696300  1.0  -0.5949
  O  O568  1  0.695500  0.266700  0.709500  1.0  -0.5887
  O  O569  1  0.376200  0.276900  0.410300  1.0  -0.598
  O  O570  1  0.419100  0.189600  0.460500  1.0  -0.5916
  O  O571  1  0.842000  0.230200  0.090700  1.0  -0.5769
  O  O572  1  0.886090  0.317960  0.127800  1.0  -0.6347
  O  O573  1  0.250300  0.310400  0.400500  1.0  -0.7447
  O  O574  1  0.225500  0.305600  0.593100  1.0  -0.7076
  O  O575  1  0.230900  0.596000  0.760100  1.0  -0.6047
  O  O576  1  0.286000  0.666667  0.732500  1.0  -0.5758
  O  O577  1  0.209000  0.413300  0.439700  1.0  -0.6925
  O  O578  1  0.162400  0.428200  0.538100  1.0  -0.5714
  O  O579  1  0.135000  0.309200  0.196300  1.0  -0.5946
  O  O580  1  0.195500  0.233300  0.209500  1.0  -0.5888
  O  O581  1  0.876200  0.223100  0.910300  1.0  -0.5997
  O  O582  1  0.919100  0.310400  0.960500  1.0  -0.5917
  O  O583  1  0.342000  0.269800  0.590700  1.0  -0.5759
  O  O584  1  0.386090  0.182040  0.627800  1.0  -0.6355
  O  O585  1  0.750300  0.810400  0.400500  1.0  -0.7447
  O  O586  1  0.725500  0.805600  0.593100  1.0  -0.7076
  O  O587  1  0.730900  0.096000  0.760100  1.0  -0.6045
  O  O588  1  0.786000  0.166700  0.732500  1.0  -0.5761
  O  O589  1  0.709000  0.913300  0.439700  1.0  -0.6925
  O  O590  1  0.662400  0.928200  0.538100  1.0  -0.5714
  O  O591  1  0.635000  0.809200  0.196300  1.0  -0.5946
  O  O592  1  0.695500  0.733300  0.209500  1.0  -0.5888
  O  O593  1  0.376200  0.723100  0.910300  1.0  -0.5997
  O  O594  1  0.419100  0.810400  0.960500  1.0  -0.5917
  O  O595  1  0.842000  0.769800  0.590700  1.0  -0.5759
  O  O596  1  0.886090  0.682040  0.627800  1.0  -0.6355
  O  O597  1  0.749700  0.310400  0.099500  1.0  -0.7439
  O  O598  1  0.774500  0.305600  0.906900  1.0  -0.7082
  O  O599  1  0.769100  0.596000  0.739900  1.0  -0.6066
  O  O600  1  0.714000  0.666667  0.767500  1.0  -0.5753
  O  O601  1  0.791000  0.413300  0.060300  1.0  -0.6918
  O  O602  1  0.837600  0.428200  0.961900  1.0  -0.5728
  O  O603  1  0.865000  0.309200  0.303700  1.0  -0.5945
  O  O604  1  0.804500  0.233300  0.290500  1.0  -0.5886
  O  O605  1  0.123800  0.223100  0.589700  1.0  -0.5993
  O  O606  1  0.080900  0.310400  0.539500  1.0  -0.5893
  O  O607  1  0.658000  0.269800  0.909300  1.0  -0.5764
  O  O608  1  0.613910  0.182040  0.872200  1.0  -0.6348
  O  O609  1  0.249700  0.810400  0.099500  1.0  -0.7439
  O  O610  1  0.274500  0.805600  0.906900  1.0  -0.7082
  O  O611  1  0.269100  0.096000  0.739900  1.0  -0.6064
  O  O612  1  0.214000  0.166700  0.767500  1.0  -0.5756
  O  O613  1  0.291000  0.913300  0.060300  1.0  -0.6918
  O  O614  1  0.337600  0.928200  0.961900  1.0  -0.5728
  O  O615  1  0.365000  0.809200  0.303700  1.0  -0.5945
  O  O616  1  0.304500  0.733300  0.290500  1.0  -0.5886
  O  O617  1  0.623800  0.723100  0.589700  1.0  -0.5993
  O  O618  1  0.580900  0.810400  0.539500  1.0  -0.5893
  O  O619  1  0.158000  0.769800  0.909300  1.0  -0.5764
  O  O620  1  0.113910  0.682040  0.872200  1.0  -0.6348
