# generated using pymatgen
data_CuH5C15NO6
_symmetry_space_group_name_H-M   'P 1'
_cell_length_a   10.30360000
_cell_length_b   15.22480000
_cell_length_c   20.40690000
_cell_angle_alpha   68.09740000
_cell_angle_beta   75.37720000
_cell_angle_gamma   90.00000000
_symmetry_Int_Tables_number   1
_chemical_formula_structural   CuH5C15NO6
_chemical_formula_sum   'Cu4 H20 C60 N4 O24'
_cell_volume   2858.10540573
_cell_formula_units_Z   4
loop_
 _symmetry_equiv_pos_site_id
 _symmetry_equiv_pos_as_xyz
  1  'x, y, z'
loop_
 _atom_site_type_symbol
 _atom_site_label
 _atom_site_symmetry_multiplicity
 _atom_site_fract_x
 _atom_site_fract_y
 _atom_site_fract_z
 _atom_site_occupancy
 _atom_site_charge
  Cu  Cu1  1  0.618550  0.525270  0.949460  1.0  0.9093
  Cu  Cu2  1  0.068010  0.974730  0.050540  1.0  0.9076
  Cu  Cu3  1  0.931990  0.025270  0.949460  1.0  0.9077
  Cu  Cu4  1  0.381450  0.474730  0.050540  1.0  0.9085
  H  H5  1  0.484300  0.756700  0.782400  1.0  0.1275
  H  H6  1  0.241100  0.822600  0.564600  1.0  0.1122
  H  H7  1  0.766700  0.743300  0.217600  1.0  0.1269
  H  H8  1  0.305700  0.677400  0.435400  1.0  0.1119
  H  H9  1  0.233300  0.960900  0.782400  1.0  0.1255
  H  H10  1  0.694300  0.112800  0.564600  1.0  0.1118
  H  H11  1  0.515700  0.539100  0.217600  1.0  0.1252
  H  H12  1  0.758900  0.387200  0.435400  1.0  0.1118
  H  H13  1  0.515700  0.243300  0.217600  1.0  0.1271
  H  H14  1  0.758900  0.177400  0.435400  1.0  0.1121
  H  H15  1  0.233300  0.256700  0.782400  1.0  0.1271
  H  H16  1  0.694300  0.322600  0.564600  1.0  0.1125
  H  H17  1  0.766700  0.039100  0.217600  1.0  0.1256
  H  H18  1  0.305700  0.887200  0.435400  1.0  0.1119
  H  H19  1  0.484300  0.460900  0.782400  1.0  0.1258
  H  H20  1  0.241100  0.612800  0.564600  1.0  0.1114
  H  H21  1  0.262500  0.762500  0.975000  1.0  0.1186
  H  H22  1  0.737500  0.737500  0.025000  1.0  0.1189
  H  H23  1  0.737500  0.237500  0.025000  1.0  0.1189
  H  H24  1  0.262500  0.262500  0.975000  1.0  0.1186
  C  C25  1  0.428400  0.654150  0.926200  1.0  0.6846
  C  C26  1  0.377120  0.744710  0.885360  1.0  -0.0998
  C  C27  1  0.419080  0.784330  0.808640  1.0  -0.1131
  C  C28  1  0.331920  0.866620  0.657960  1.0  0.5429
  C  C29  1  0.374710  0.907310  0.576180  1.0  -0.1088
  C  C30  1  0.311800  0.873100  0.538600  1.0  -0.0484
  C  C31  1  0.854600  0.845850  0.073800  1.0  0.6844
  C  C32  1  0.762480  0.755290  0.114640  1.0  -0.1009
  C  C33  1  0.727720  0.715670  0.191360  1.0  -0.1124
  C  C34  1  0.489880  0.633380  0.342040  1.0  0.5438
  C  C35  1  0.450890  0.592690  0.423820  1.0  -0.1093
  C  C36  1  0.350400  0.626900  0.461400  1.0  -0.0479
  C  C37  1  0.145400  0.919650  0.926200  1.0  0.6841
  C  C38  1  0.237520  0.869930  0.885360  1.0  -0.0993
  C  C39  1  0.272280  0.907030  0.808640  1.0  -0.1177
  C  C40  1  0.510120  0.975420  0.657960  1.0  0.5448
  C  C41  1  0.549110  0.016510  0.576180  1.0  -0.1052
  C  C42  1  0.649600  0.088300  0.538600  1.0  -0.0481
  C  C43  1  0.571600  0.580350  0.073800  1.0  0.6839
  C  C44  1  0.622880  0.630070  0.114640  1.0  -0.1003
  C  C45  1  0.580920  0.592970  0.191360  1.0  -0.1181
  C  C46  1  0.668080  0.524580  0.342040  1.0  0.5441
  C  C47  1  0.625290  0.483490  0.423820  1.0  -0.1072
  C  C48  1  0.688200  0.411700  0.461400  1.0  -0.0466
  C  C49  1  0.571600  0.345850  0.073800  1.0  0.6849
  C  C50  1  0.622880  0.255290  0.114640  1.0  -0.0999
  C  C51  1  0.580920  0.215670  0.191360  1.0  -0.113
  C  C52  1  0.668080  0.133380  0.342040  1.0  0.5442
  C  C53  1  0.625290  0.092690  0.423820  1.0  -0.1092
  C  C54  1  0.688200  0.126900  0.461400  1.0  -0.0484
  C  C55  1  0.145400  0.154150  0.926200  1.0  0.6849
  C  C56  1  0.237520  0.244710  0.885360  1.0  -0.1003
  C  C57  1  0.272280  0.284330  0.808640  1.0  -0.1144
  C  C58  1  0.510120  0.366620  0.657960  1.0  0.5448
  C  C59  1  0.549110  0.407310  0.576180  1.0  -0.1086
  C  C60  1  0.649600  0.373100  0.538600  1.0  -0.0482
  C  C61  1  0.854600  0.080350  0.073800  1.0  0.6831
  C  C62  1  0.762480  0.130070  0.114640  1.0  -0.1
  C  C63  1  0.727720  0.092970  0.191360  1.0  -0.118
  C  C64  1  0.489880  0.024580  0.342040  1.0  0.5438
  C  C65  1  0.450890  0.983490  0.423820  1.0  -0.1056
  C  C66  1  0.350400  0.911700  0.461400  1.0  -0.0479
  C  C67  1  0.428400  0.419650  0.926200  1.0  0.6842
  C  C68  1  0.377120  0.369930  0.885360  1.0  -0.0997
  C  C69  1  0.419080  0.407030  0.808640  1.0  -0.1177
  C  C70  1  0.331920  0.475420  0.657960  1.0  0.5425
  C  C71  1  0.374710  0.516510  0.576180  1.0  -0.1072
  C  C72  1  0.311800  0.588300  0.538600  1.0  -0.0461
  C  C73  1  0.288570  0.788570  0.922860  1.0  -0.0412
  C  C74  1  0.364000  0.864000  0.772000  1.0  0.2035
  C  C75  1  0.480590  0.980590  0.538820  1.0  0.0645
  C  C76  1  0.711430  0.711430  0.077140  1.0  -0.0412
  C  C77  1  0.636000  0.636000  0.228000  1.0  0.2032
  C  C78  1  0.519410  0.519410  0.461180  1.0  0.0635
  C  C79  1  0.711430  0.211430  0.077140  1.0  -0.0412
  C  C80  1  0.636000  0.136000  0.228000  1.0  0.2032
  C  C81  1  0.519410  0.019410  0.461180  1.0  0.0645
  C  C82  1  0.288570  0.288570  0.922860  1.0  -0.0412
  C  C83  1  0.364000  0.364000  0.772000  1.0  0.2035
  C  C84  1  0.480590  0.480590  0.538820  1.0  0.0635
  N  N85  1  0.403900  0.903900  0.692200  1.0  -0.2558
  N  N86  1  0.596100  0.596100  0.307800  1.0  -0.2562
  N  N87  1  0.596100  0.096100  0.307800  1.0  -0.2562
  N  N88  1  0.403900  0.403900  0.692200  1.0  -0.2558
  O  O89  1  0.544650  0.640120  0.897500  1.0  -0.5701
  O  O90  1  0.347790  0.599670  0.985200  1.0  -0.585
  O  O91  1  0.242210  0.803810  0.693580  1.0  -0.4391
  O  O92  1  0.942150  0.859880  0.102500  1.0  -0.57
  O  O93  1  0.832990  0.900330  0.014800  1.0  -0.5865
  O  O94  1  0.435790  0.696190  0.306420  1.0  -0.4397
  O  O95  1  0.057850  0.962380  0.897500  1.0  -0.5671
  O  O96  1  0.167010  0.915130  0.985200  1.0  -0.587
  O  O97  1  0.564210  0.002610  0.693580  1.0  -0.4388
  O  O98  1  0.455350  0.537620  0.102500  1.0  -0.567
  O  O99  1  0.652210  0.584870  0.014800  1.0  -0.5856
  O  O100  1  0.757790  0.497390  0.306420  1.0  -0.4412
  O  O101  1  0.455350  0.359880  0.102500  1.0  -0.5694
  O  O102  1  0.652210  0.400330  0.014800  1.0  -0.5854
  O  O103  1  0.757790  0.196190  0.306420  1.0  -0.4393
  O  O104  1  0.057850  0.140120  0.897500  1.0  -0.5692
  O  O105  1  0.167010  0.099670  0.985200  1.0  -0.5871
  O  O106  1  0.564210  0.303810  0.693580  1.0  -0.4419
  O  O107  1  0.942150  0.037620  0.102500  1.0  -0.5663
  O  O108  1  0.832990  0.084870  0.014800  1.0  -0.587
  O  O109  1  0.435790  0.997390  0.306420  1.0  -0.4379
  O  O110  1  0.544650  0.462380  0.897500  1.0  -0.5681
  O  O111  1  0.347790  0.415130  0.985200  1.0  -0.5855
  O  O112  1  0.242210  0.502610  0.693580  1.0  -0.4387
