# generated using pymatgen
data_CuH5C15NO6
_symmetry_space_group_name_H-M   'P 1'
_cell_length_a   10.92200000
_cell_length_b   14.98100000
_cell_length_c   20.41180000
_cell_angle_alpha   111.52900000
_cell_angle_beta   105.51800000
_cell_angle_gamma   90.00000000
_symmetry_Int_Tables_number   1
_chemical_formula_structural   CuH5C15NO6
_chemical_formula_sum   'Cu4 H20 C60 N4 O24'
_cell_volume   2975.54850853
_cell_formula_units_Z   4
loop_
 _symmetry_equiv_pos_site_id
 _symmetry_equiv_pos_as_xyz
  1  'x, y, z'
loop_
 _atom_site_type_symbol
 _atom_site_label
 _atom_site_symmetry_multiplicity
 _atom_site_fract_x
 _atom_site_fract_y
 _atom_site_fract_z
 _atom_site_occupancy
 _atom_site_charge
  Cu  Cu1  1  0.559630  0.473730  0.947460  1.0  0.8938
  Cu  Cu2  1  0.112170  0.026270  0.052540  1.0  0.8964
  Cu  Cu3  1  0.887830  0.973730  0.947460  1.0  0.8935
  Cu  Cu4  1  0.440370  0.526270  0.052540  1.0  0.8934
  H  H5  1  0.737700  0.460600  0.216600  1.0  0.1316
  H  H6  1  0.766500  0.312000  0.435400  1.0  0.1107
  H  H7  1  0.021100  0.039400  0.783400  1.0  0.1311
  H  H8  1  0.831100  0.188000  0.564600  1.0  0.1105
  H  H9  1  0.978900  0.256000  0.216600  1.0  0.1305
  H  H10  1  0.168900  0.623400  0.435400  1.0  0.1113
  H  H11  1  0.262300  0.244000  0.783400  1.0  0.1306
  H  H12  1  0.233500  0.876600  0.564600  1.0  0.1109
  H  H13  1  0.262300  0.539400  0.783400  1.0  0.131
  H  H14  1  0.233500  0.688000  0.564600  1.0  0.1105
  H  H15  1  0.978900  0.960600  0.216600  1.0  0.1322
  H  H16  1  0.168900  0.812000  0.435400  1.0  0.1104
  H  H17  1  0.021100  0.744000  0.783400  1.0  0.1301
  H  H18  1  0.831100  0.376600  0.564600  1.0  0.1118
  H  H19  1  0.737700  0.756000  0.216600  1.0  0.1303
  H  H20  1  0.766500  0.123400  0.435400  1.0  0.1107
  H  H21  1  0.761700  0.261700  0.023400  1.0  0.1238
  H  H22  1  0.238300  0.238300  0.976600  1.0  0.1244
  H  H23  1  0.238300  0.738300  0.976600  1.0  0.1244
  H  H24  1  0.761700  0.761700  0.023400  1.0  0.1238
  C  C25  1  0.647100  0.418140  0.072600  1.0  0.6901
  C  C26  1  0.738130  0.369510  0.113460  1.0  -0.1213
  C  C27  1  0.774260  0.406440  0.190120  1.0  -0.1155
  C  C28  1  0.846720  0.358820  0.341440  1.0  0.5528
  C  C29  1  0.887540  0.401140  0.423480  1.0  -0.1014
  C  C30  1  0.832160  0.364360  0.461320  1.0  -0.0618
  C  C31  1  0.074500  0.081860  0.927400  1.0  0.6903
  C  C32  1  0.124670  0.130490  0.886540  1.0  -0.123
  C  C33  1  0.084140  0.093560  0.809880  1.0  -0.1155
  C  C34  1  0.005280  0.141180  0.658560  1.0  0.5544
  C  C35  1  0.964060  0.098860  0.576520  1.0  -0.1007
  C  C36  1  0.870840  0.135640  0.538680  1.0  -0.0635
  C  C37  1  0.925500  0.154460  0.072600  1.0  0.6867
  C  C38  1  0.875330  0.243950  0.113460  1.0  -0.1205
  C  C39  1  0.915860  0.283680  0.190120  1.0  -0.1157
  C  C40  1  0.994720  0.482620  0.341440  1.0  0.5556
  C  C41  1  0.035940  0.522340  0.423480  1.0  -0.0998
  C  C42  1  0.129160  0.596960  0.461320  1.0  -0.0599
  C  C43  1  0.352900  0.345540  0.927400  1.0  0.6871
  C  C44  1  0.261870  0.256050  0.886540  1.0  -0.1213
  C  C45  1  0.225740  0.216320  0.809880  1.0  -0.1154
  C  C46  1  0.153280  0.017380  0.658560  1.0  0.5561
  C  C47  1  0.112460  0.977660  0.576520  1.0  -0.0984
  C  C48  1  0.167840  0.903040  0.538680  1.0  -0.059
  C  C49  1  0.352900  0.581860  0.927400  1.0  0.6896
  C  C50  1  0.261870  0.630490  0.886540  1.0  -0.1217
  C  C51  1  0.225740  0.593560  0.809880  1.0  -0.1146
  C  C52  1  0.153280  0.641180  0.658560  1.0  0.5551
  C  C53  1  0.112460  0.598860  0.576520  1.0  -0.1
  C  C54  1  0.167840  0.635640  0.538680  1.0  -0.0618
  C  C55  1  0.925500  0.918140  0.072600  1.0  0.6904
  C  C56  1  0.875330  0.869510  0.113460  1.0  -0.1218
  C  C57  1  0.915860  0.906440  0.190120  1.0  -0.1151
  C  C58  1  0.994720  0.858820  0.341440  1.0  0.5545
  C  C59  1  0.035940  0.901140  0.423480  1.0  -0.1016
  C  C60  1  0.129160  0.864360  0.461320  1.0  -0.0633
  C  C61  1  0.074500  0.845540  0.927400  1.0  0.6879
  C  C62  1  0.124670  0.756050  0.886540  1.0  -0.1202
  C  C63  1  0.084140  0.716320  0.809880  1.0  -0.1165
  C  C64  1  0.005280  0.517380  0.658560  1.0  0.556
  C  C65  1  0.964060  0.477660  0.576520  1.0  -0.0982
  C  C66  1  0.870840  0.403040  0.538680  1.0  -0.06
  C  C67  1  0.647100  0.654460  0.072600  1.0  0.6871
  C  C68  1  0.738130  0.743950  0.113460  1.0  -0.1211
  C  C69  1  0.774260  0.783680  0.190120  1.0  -0.1164
  C  C70  1  0.846720  0.982620  0.341440  1.0  0.5548
  C  C71  1  0.887540  0.022340  0.423480  1.0  -0.0988
  C  C72  1  0.832160  0.096960  0.461320  1.0  -0.0597
  C  C73  1  0.863570  0.363570  0.227140  1.0  0.2006
  C  C74  1  0.787860  0.287860  0.075720  1.0  -0.0204
  C  C75  1  0.980430  0.480430  0.460860  1.0  0.0491
  C  C76  1  0.136430  0.136430  0.772860  1.0  0.2006
  C  C77  1  0.212140  0.212140  0.924280  1.0  -0.021
  C  C78  1  0.019570  0.019570  0.539140  1.0  0.0526
  C  C79  1  0.136430  0.636430  0.772860  1.0  0.2006
  C  C80  1  0.212140  0.712140  0.924280  1.0  -0.021
  C  C81  1  0.019570  0.519570  0.539140  1.0  0.0492
  C  C82  1  0.863570  0.863570  0.227140  1.0  0.2006
  C  C83  1  0.787860  0.787860  0.075720  1.0  -0.0204
  C  C84  1  0.980430  0.980430  0.460860  1.0  0.0525
  N  N85  1  0.903500  0.403500  0.307000  1.0  -0.2426
  N  N86  1  0.096500  0.096500  0.693000  1.0  -0.2421
  N  N87  1  0.096500  0.596500  0.693000  1.0  -0.2421
  N  N88  1  0.903500  0.903500  0.307000  1.0  -0.2426
  O  O89  1  0.660070  0.412120  0.011960  1.0  -0.5813
  O  O90  1  0.565600  0.461340  0.102260  1.0  -0.5728
  O  O91  1  0.769360  0.289460  0.306520  1.0  -0.4371
  O  O92  1  0.148110  0.087880  0.988040  1.0  -0.5808
  O  O93  1  0.963340  0.038660  0.897740  1.0  -0.5728
  O  O94  1  0.962840  0.210540  0.693480  1.0  -0.4372
  O  O95  1  0.851890  0.099840  0.011960  1.0  -0.5799
  O  O96  1  0.036660  0.140920  0.102260  1.0  -0.5719
  O  O97  1  0.037160  0.517060  0.306520  1.0  -0.4364
  O  O98  1  0.339930  0.400160  0.988040  1.0  -0.5798
  O  O99  1  0.434400  0.359080  0.897740  1.0  -0.5721
  O  O100  1  0.230640  0.982940  0.693480  1.0  -0.439
  O  O101  1  0.339930  0.587880  0.988040  1.0  -0.5815
  O  O102  1  0.434400  0.538660  0.897740  1.0  -0.5735
  O  O103  1  0.230640  0.710540  0.693480  1.0  -0.4353
  O  O104  1  0.851890  0.912120  0.011960  1.0  -0.5813
  O  O105  1  0.036660  0.961340  0.102260  1.0  -0.5731
  O  O106  1  0.037160  0.789460  0.306520  1.0  -0.4392
  O  O107  1  0.148110  0.900160  0.988040  1.0  -0.5812
  O  O108  1  0.963340  0.859080  0.897740  1.0  -0.5716
  O  O109  1  0.962840  0.482940  0.693480  1.0  -0.437
  O  O110  1  0.660070  0.599840  0.011960  1.0  -0.582
  O  O111  1  0.565600  0.640920  0.102260  1.0  -0.572
  O  O112  1  0.769360  0.017060  0.306520  1.0  -0.4378
