# generated using pymatgen
data_Cu3H22(C7O2)6
_symmetry_space_group_name_H-M   'P 1'
_cell_length_a   24.60550000
_cell_length_b   26.54890000
_cell_length_c   26.54880000
_cell_angle_alpha   77.59960000
_cell_angle_beta   62.39310000
_cell_angle_gamma   62.39310000
_symmetry_Int_Tables_number   1
_chemical_formula_structural   Cu3H22(C7O2)6
_chemical_formula_sum   'Cu12 H88 C168 O48'
_cell_volume   13618.70864802
_cell_formula_units_Z   4
loop_
 _symmetry_equiv_pos_site_id
 _symmetry_equiv_pos_as_xyz
  1  'x, y, z'
loop_
 _atom_site_type_symbol
 _atom_site_label
 _atom_site_symmetry_multiplicity
 _atom_site_fract_x
 _atom_site_fract_y
 _atom_site_fract_z
 _atom_site_occupancy
 _atom_site_charge
  Cu  Cu1  1  0.045650  0.492510  0.016590  1.0  0.9234
  Cu  Cu2  1  0.445250  0.016590  0.492510  1.0  0.9253
  Cu  Cu3  1  0.954350  0.983410  0.507490  1.0  0.9232
  Cu  Cu4  1  0.554750  0.507490  0.983410  1.0  0.9215
  Cu  Cu5  1  0.954350  0.507490  0.983410  1.0  0.9243
  Cu  Cu6  1  0.554750  0.983410  0.507490  1.0  0.9235
  Cu  Cu7  1  0.045650  0.016590  0.492510  1.0  0.9237
  Cu  Cu8  1  0.445250  0.492510  0.016590  1.0  0.9216
  Cu  Cu9  1  0.539810  0.460190  0.460190  1.0  0.9038
  Cu  Cu10  1  0.460190  0.539810  0.539810  1.0  0.9045
  Cu  Cu11  1  0.000000  0.960130  0.039870  1.0  0.9199
  Cu  Cu12  1  0.000000  0.039870  0.960130  1.0  0.919
  H  H13  1  0.668500  0.536500  0.345100  1.0  0.1042
  H  H14  1  0.825000  0.596800  0.274600  1.0  0.0955
  H  H15  1  0.909600  0.564900  0.186900  1.0  0.122
  H  H16  1  0.789800  0.533400  0.149600  1.0  0.1115
  H  H17  1  0.700900  0.567400  0.240800  1.0  0.1301
  H  H18  1  0.043100  0.659200  0.985000  1.0  0.1134
  H  H19  1  0.039500  0.748200  0.953800  1.0  0.1244
  H  H20  1  0.904700  0.773100  0.893700  1.0  0.1245
  H  H21  1  0.913600  0.681700  0.922100  1.0  0.1116
  H  H22  1  0.973000  0.849100  0.967700  1.0  0.1002
  H  H23  1  0.449900  0.345100  0.536500  1.0  0.1016
  H  H24  1  0.303600  0.274600  0.596800  1.0  0.099
  H  H25  1  0.338600  0.186900  0.564900  1.0  0.1213
  H  H26  1  0.527200  0.149600  0.533400  1.0  0.113
  H  H27  1  0.490900  0.240800  0.567400  1.0  0.1265
  H  H28  1  0.312700  0.985000  0.659200  1.0  0.1142
  H  H29  1  0.258500  0.953800  0.748200  1.0  0.1268
  H  H30  1  0.428500  0.893700  0.773100  1.0  0.1247
  H  H31  1  0.482600  0.922100  0.681700  1.0  0.1122
  H  H32  1  0.210200  0.967700  0.849100  1.0  0.0978
  H  H33  1  0.331500  0.654900  0.463500  1.0  0.102
  H  H34  1  0.175000  0.725400  0.403200  1.0  0.0951
  H  H35  1  0.090400  0.813100  0.435100  1.0  0.1204
  H  H36  1  0.210200  0.850400  0.466600  1.0  0.1133
  H  H37  1  0.299100  0.759200  0.432600  1.0  0.1272
  H  H38  1  0.956900  0.015000  0.340800  1.0  0.1143
  H  H39  1  0.960500  0.046200  0.251800  1.0  0.1236
  H  H40  1  0.095300  0.106300  0.226900  1.0  0.1268
  H  H41  1  0.086400  0.077900  0.318300  1.0  0.1121
  H  H42  1  0.027000  0.032300  0.150900  1.0  0.101
  H  H43  1  0.550100  0.463500  0.654900  1.0  0.1028
  H  H44  1  0.696400  0.403200  0.725400  1.0  0.0927
  H  H45  1  0.661400  0.435100  0.813100  1.0  0.1214
  H  H46  1  0.472800  0.466600  0.850400  1.0  0.1131
  H  H47  1  0.509100  0.432600  0.759200  1.0  0.1276
  H  H48  1  0.687300  0.340800  0.015000  1.0  0.1159
  H  H49  1  0.741500  0.251800  0.046200  1.0  0.1233
  H  H50  1  0.571500  0.226900  0.106300  1.0  0.1261
  H  H51  1  0.517400  0.318300  0.077900  1.0  0.1124
  H  H52  1  0.789800  0.150900  0.032300  1.0  0.1006
  H  H53  1  0.331500  0.463500  0.654900  1.0  0.104
  H  H54  1  0.175000  0.403200  0.725400  1.0  0.0946
  H  H55  1  0.090400  0.435100  0.813100  1.0  0.1233
  H  H56  1  0.210200  0.466600  0.850400  1.0  0.1119
  H  H57  1  0.299100  0.432600  0.759200  1.0  0.1274
  H  H58  1  0.956900  0.340800  0.015000  1.0  0.1129
  H  H59  1  0.960500  0.251800  0.046200  1.0  0.1243
  H  H60  1  0.095300  0.226900  0.106300  1.0  0.1246
  H  H61  1  0.086400  0.318300  0.077900  1.0  0.1115
  H  H62  1  0.027000  0.150900  0.032300  1.0  0.1012
  H  H63  1  0.550100  0.654900  0.463500  1.0  0.1025
  H  H64  1  0.696400  0.725400  0.403200  1.0  0.0992
  H  H65  1  0.661400  0.813100  0.435100  1.0  0.1217
  H  H66  1  0.472800  0.850400  0.466600  1.0  0.1126
  H  H67  1  0.509100  0.759200  0.432600  1.0  0.1266
  H  H68  1  0.687300  0.015000  0.340800  1.0  0.1143
  H  H69  1  0.741500  0.046200  0.251800  1.0  0.1247
  H  H70  1  0.571500  0.106300  0.226900  1.0  0.1244
  H  H71  1  0.517400  0.077900  0.318300  1.0  0.1137
  H  H72  1  0.789800  0.032300  0.150900  1.0  0.0978
  H  H73  1  0.668500  0.345100  0.536500  1.0  0.1014
  H  H74  1  0.825000  0.274600  0.596800  1.0  0.0968
  H  H75  1  0.909600  0.186900  0.564900  1.0  0.1214
  H  H76  1  0.789800  0.149600  0.533400  1.0  0.113
  H  H77  1  0.700900  0.240800  0.567400  1.0  0.1279
  H  H78  1  0.043100  0.985000  0.659200  1.0  0.1151
  H  H79  1  0.039500  0.953800  0.748200  1.0  0.1228
  H  H80  1  0.904700  0.893700  0.773100  1.0  0.1272
  H  H81  1  0.913600  0.922100  0.681700  1.0  0.1118
  H  H82  1  0.973000  0.967700  0.849100  1.0  0.1005
  H  H83  1  0.449900  0.536500  0.345100  1.0  0.1027
  H  H84  1  0.303600  0.596800  0.274600  1.0  0.0963
  H  H85  1  0.338600  0.564900  0.186900  1.0  0.1215
  H  H86  1  0.527200  0.533400  0.149600  1.0  0.1133
  H  H87  1  0.490900  0.567400  0.240800  1.0  0.1266
  H  H88  1  0.312700  0.659200  0.985000  1.0  0.1151
  H  H89  1  0.258500  0.748200  0.953800  1.0  0.1243
  H  H90  1  0.428500  0.773100  0.893700  1.0  0.1262
  H  H91  1  0.482600  0.681700  0.922100  1.0  0.1116
  H  H92  1  0.210200  0.849100  0.967700  1.0  0.1002
  H  H93  1  0.708000  0.676500  0.323500  1.0  0.1298
  H  H94  1  0.292000  0.323500  0.676500  1.0  0.1303
  H  H95  1  0.292000  0.676500  0.323500  1.0  0.1309
  H  H96  1  0.708000  0.323500  0.676500  1.0  0.1311
  H  H97  1  0.969100  0.824500  0.824500  1.0  0.1303
  H  H98  1  0.381900  0.824500  0.824500  1.0  0.128
  H  H99  1  0.030900  0.175500  0.175500  1.0  0.1307
  H  H100  1  0.618100  0.175500  0.175500  1.0  0.1286
  C  C101  1  0.659580  0.570200  0.359640  1.0  -0.0987
  C  C102  1  0.701180  0.601230  0.326010  1.0  -0.078
  C  C103  1  0.758400  0.581400  0.268800  1.0  0.0871
  C  C104  1  0.817100  0.582800  0.250200  1.0  -0.0998
  C  C105  1  0.867300  0.565200  0.197400  1.0  -0.1149
  C  C106  1  0.856100  0.548200  0.159800  1.0  -0.1112
  C  C107  1  0.796700  0.546700  0.175300  1.0  -0.0555
  C  C108  1  0.743900  0.565500  0.230300  1.0  -0.1498
  C  C109  1  0.915300  0.527580  0.101020  1.0  0.664
  C  C110  1  0.987200  0.601800  0.974800  1.0  0.7047
  C  C111  1  0.979900  0.661900  0.956100  1.0  -0.1457
  C  C112  1  0.016000  0.682100  0.965700  1.0  -0.0224
  C  C113  1  0.013500  0.735100  0.947700  1.0  -0.1329
  C  C114  1  0.972500  0.769350  0.920250  1.0  0.0316
  C  C115  1  0.933600  0.749750  0.911250  1.0  -0.1189
  C  C116  1  0.938500  0.695700  0.928700  1.0  -0.0606
  C  C117  1  0.970400  0.827290  0.901910  1.0  0.0462
  C  C118  1  0.973110  0.861350  0.931630  1.0  -0.0675
  C  C119  1  0.410580  0.359640  0.570200  1.0  -0.0963
  C  C120  1  0.371580  0.326010  0.601230  1.0  -0.0796
  C  C121  1  0.391400  0.268800  0.581400  1.0  0.0897
  C  C122  1  0.349900  0.250200  0.582800  1.0  -0.1055
  C  C123  1  0.370100  0.197400  0.565200  1.0  -0.1178
  C  C124  1  0.435900  0.159800  0.548200  1.0  -0.1108
  C  C125  1  0.481300  0.175300  0.546700  1.0  -0.0555
  C  C126  1  0.460300  0.230300  0.565500  1.0  -0.1447
  C  C127  1  0.456100  0.101020  0.527580  1.0  0.6665
  C  C128  1  0.436200  0.974800  0.601800  1.0  0.7033
  C  C129  1  0.402100  0.956100  0.661900  1.0  -0.1457
  C  C130  1  0.336200  0.965700  0.682100  1.0  -0.0212
  C  C131  1  0.303700  0.947700  0.735100  1.0  -0.1338
  C  C132  1  0.337900  0.920250  0.769350  1.0  0.0308
  C  C133  1  0.405400  0.911250  0.749750  1.0  -0.1179
  C  C134  1  0.437100  0.928700  0.695700  1.0  -0.0572
  C  C135  1  0.300400  0.901910  0.827290  1.0  0.0493
  C  C136  1  0.233910  0.931630  0.861350  1.0  -0.067
  C  C137  1  0.340420  0.640360  0.429800  1.0  -0.0996
  C  C138  1  0.298820  0.673990  0.398770  1.0  -0.0781
  C  C139  1  0.241600  0.731200  0.418600  1.0  0.0891
  C  C140  1  0.182900  0.749800  0.417200  1.0  -0.0979
  C  C141  1  0.132700  0.802600  0.434800  1.0  -0.1178
  C  C142  1  0.143900  0.840200  0.451800  1.0  -0.1108
  C  C143  1  0.203300  0.824700  0.453300  1.0  -0.0569
  C  C144  1  0.256100  0.769700  0.434500  1.0  -0.1435
  C  C145  1  0.084700  0.898980  0.472420  1.0  0.6661
  C  C146  1  0.012800  0.025200  0.398200  1.0  0.7031
  C  C147  1  0.020100  0.043900  0.338100  1.0  -0.145
  C  C148  1  0.984000  0.034300  0.317900  1.0  -0.022
  C  C149  1  0.986500  0.052300  0.264900  1.0  -0.1326
  C  C150  1  0.027500  0.079750  0.230650  1.0  0.0314
  C  C151  1  0.066400  0.088750  0.250250  1.0  -0.117
  C  C152  1  0.061500  0.071300  0.304300  1.0  -0.0583
  C  C153  1  0.029600  0.098090  0.172710  1.0  0.0487
  C  C154  1  0.026890  0.068370  0.138650  1.0  -0.0604
  C  C155  1  0.589420  0.429800  0.640360  1.0  -0.1034
  C  C156  1  0.628420  0.398770  0.673990  1.0  -0.0791
  C  C157  1  0.608600  0.418600  0.731200  1.0  0.0895
  C  C158  1  0.650100  0.417200  0.749800  1.0  -0.0951
  C  C159  1  0.629900  0.434800  0.802600  1.0  -0.1161
  C  C160  1  0.564100  0.451800  0.840200  1.0  -0.1112
  C  C161  1  0.518700  0.453300  0.824700  1.0  -0.0537
  C  C162  1  0.539700  0.434500  0.769700  1.0  -0.1463
  C  C163  1  0.543900  0.472420  0.898980  1.0  0.6665
  C  C164  1  0.563800  0.398200  0.025200  1.0  0.7052
  C  C165  1  0.597900  0.338100  0.043900  1.0  -0.1454
  C  C166  1  0.663800  0.317900  0.034300  1.0  -0.0194
  C  C167  1  0.696300  0.264900  0.052300  1.0  -0.1314
  C  C168  1  0.662100  0.230650  0.079750  1.0  0.0318
  C  C169  1  0.594600  0.250250  0.088750  1.0  -0.1171
  C  C170  1  0.562900  0.304300  0.071300  1.0  -0.0587
  C  C171  1  0.699600  0.172710  0.098090  1.0  0.0473
  C  C172  1  0.766090  0.138650  0.068370  1.0  -0.0685
  C  C173  1  0.340420  0.429800  0.640360  1.0  -0.1005
  C  C174  1  0.298820  0.398770  0.673990  1.0  -0.0778
  C  C175  1  0.241600  0.418600  0.731200  1.0  0.0891
  C  C176  1  0.182900  0.417200  0.749800  1.0  -0.0996
  C  C177  1  0.132700  0.434800  0.802600  1.0  -0.1168
  C  C178  1  0.143900  0.451800  0.840200  1.0  -0.1114
  C  C179  1  0.203300  0.453300  0.824700  1.0  -0.0568
  C  C180  1  0.256100  0.434500  0.769700  1.0  -0.1456
  C  C181  1  0.084700  0.472420  0.898980  1.0  0.6656
  C  C182  1  0.012800  0.398200  0.025200  1.0  0.705
  C  C183  1  0.020100  0.338100  0.043900  1.0  -0.1454
  C  C184  1  0.984000  0.317900  0.034300  1.0  -0.0223
  C  C185  1  0.986500  0.264900  0.052300  1.0  -0.134
  C  C186  1  0.027500  0.230650  0.079750  1.0  0.0315
  C  C187  1  0.066400  0.250250  0.088750  1.0  -0.1183
  C  C188  1  0.061500  0.304300  0.071300  1.0  -0.0599
  C  C189  1  0.029600  0.172710  0.098090  1.0  0.0466
  C  C190  1  0.026890  0.138650  0.068370  1.0  -0.0662
  C  C191  1  0.589420  0.640360  0.429800  1.0  -0.0978
  C  C192  1  0.628420  0.673990  0.398770  1.0  -0.0798
  C  C193  1  0.608600  0.731200  0.418600  1.0  0.0888
  C  C194  1  0.650100  0.749800  0.417200  1.0  -0.1032
  C  C195  1  0.629900  0.802600  0.434800  1.0  -0.1162
  C  C196  1  0.564100  0.840200  0.451800  1.0  -0.1104
  C  C197  1  0.518700  0.824700  0.453300  1.0  -0.0565
  C  C198  1  0.539700  0.769700  0.434500  1.0  -0.1477
  C  C199  1  0.543900  0.898980  0.472420  1.0  0.667
  C  C200  1  0.563800  0.025200  0.398200  1.0  0.7037
  C  C201  1  0.597900  0.043900  0.338100  1.0  -0.1452
  C  C202  1  0.663800  0.034300  0.317900  1.0  -0.0209
  C  C203  1  0.696300  0.052300  0.264900  1.0  -0.132
  C  C204  1  0.662100  0.079750  0.230650  1.0  0.0309
  C  C205  1  0.594600  0.088750  0.250250  1.0  -0.1178
  C  C206  1  0.562900  0.071300  0.304300  1.0  -0.0585
  C  C207  1  0.699600  0.098090  0.172710  1.0  0.0488
  C  C208  1  0.766090  0.068370  0.138650  1.0  -0.0663
  C  C209  1  0.659580  0.359640  0.570200  1.0  -0.1021
  C  C210  1  0.701180  0.326010  0.601230  1.0  -0.0786
  C  C211  1  0.758400  0.268800  0.581400  1.0  0.0897
  C  C212  1  0.817100  0.250200  0.582800  1.0  -0.0957
  C  C213  1  0.867300  0.197400  0.565200  1.0  -0.1172
  C  C214  1  0.856100  0.159800  0.548200  1.0  -0.1102
  C  C215  1  0.796700  0.175300  0.546700  1.0  -0.0563
  C  C216  1  0.743900  0.230300  0.565500  1.0  -0.1453
  C  C217  1  0.915300  0.101020  0.527580  1.0  0.6654
  C  C218  1  0.987200  0.974800  0.601800  1.0  0.7032
  C  C219  1  0.979900  0.956100  0.661900  1.0  -0.1445
  C  C220  1  0.016000  0.965700  0.682100  1.0  -0.0205
  C  C221  1  0.013500  0.947700  0.735100  1.0  -0.1328
  C  C222  1  0.972500  0.920250  0.769350  1.0  0.0314
  C  C223  1  0.933600  0.911250  0.749750  1.0  -0.1174
  C  C224  1  0.938500  0.928700  0.695700  1.0  -0.0595
  C  C225  1  0.970400  0.901910  0.827290  1.0  0.0484
  C  C226  1  0.973110  0.931630  0.861350  1.0  -0.0605
  C  C227  1  0.410580  0.570200  0.359640  1.0  -0.1015
  C  C228  1  0.371580  0.601230  0.326010  1.0  -0.0794
  C  C229  1  0.391400  0.581400  0.268800  1.0  0.0895
  C  C230  1  0.349900  0.582800  0.250200  1.0  -0.0953
  C  C231  1  0.370100  0.565200  0.197400  1.0  -0.1167
  C  C232  1  0.435900  0.548200  0.159800  1.0  -0.1109
  C  C233  1  0.481300  0.546700  0.175300  1.0  -0.0535
  C  C234  1  0.460300  0.565500  0.230300  1.0  -0.1427
  C  C235  1  0.456100  0.527580  0.101020  1.0  0.6663
  C  C236  1  0.436200  0.601800  0.974800  1.0  0.7048
  C  C237  1  0.402100  0.661900  0.956100  1.0  -0.1451
  C  C238  1  0.336200  0.682100  0.965700  1.0  -0.0205
  C  C239  1  0.303700  0.735100  0.947700  1.0  -0.133
  C  C240  1  0.337900  0.769350  0.920250  1.0  0.0319
  C  C241  1  0.405400  0.749750  0.911250  1.0  -0.1171
  C  C242  1  0.437100  0.695700  0.928700  1.0  -0.0568
  C  C243  1  0.300400  0.827290  0.901910  1.0  0.0463
  C  C244  1  0.233910  0.861350  0.931630  1.0  -0.0698
  C  C245  1  0.571000  0.554700  0.445300  1.0  0.6829
  C  C246  1  0.608900  0.589100  0.410900  1.0  -0.0722
  C  C247  1  0.683700  0.654700  0.345300  1.0  -0.1395
  C  C248  1  0.429000  0.445300  0.554700  1.0  0.6828
  C  C249  1  0.391100  0.410900  0.589100  1.0  -0.072
  C  C250  1  0.316300  0.345300  0.654700  1.0  -0.1404
  C  C251  1  0.429000  0.554700  0.445300  1.0  0.6819
  C  C252  1  0.391100  0.589100  0.410900  1.0  -0.0714
  C  C253  1  0.316300  0.654700  0.345300  1.0  -0.1403
  C  C254  1  0.571000  0.445300  0.554700  1.0  0.6827
  C  C255  1  0.608900  0.410900  0.589100  1.0  -0.0721
  C  C256  1  0.683700  0.345300  0.654700  1.0  -0.138
  C  C257  1  0.969800  0.846900  0.846900  1.0  -0.087
  C  C258  1  0.976000  0.911900  0.911900  1.0  -0.1232
  C  C259  1  0.978500  0.947400  0.947400  1.0  0.6581
  C  C260  1  0.336400  0.846900  0.846900  1.0  -0.0868
  C  C261  1  0.200200  0.911900  0.911900  1.0  -0.1217
  C  C262  1  0.126700  0.947400  0.947400  1.0  0.6535
  C  C263  1  0.030200  0.153100  0.153100  1.0  -0.0848
  C  C264  1  0.024000  0.088100  0.088100  1.0  -0.124
  C  C265  1  0.021500  0.052600  0.052600  1.0  0.6582
  C  C266  1  0.663600  0.153100  0.153100  1.0  -0.0881
  C  C267  1  0.799800  0.088100  0.088100  1.0  -0.1214
  C  C268  1  0.873300  0.052600  0.052600  1.0  0.6526
  O  O269  1  0.589690  0.508430  0.423730  1.0  -0.5633
  O  O270  1  0.973040  0.517410  0.090510  1.0  -0.5286
  O  O271  1  0.029520  0.571210  0.992350  1.0  -0.5619
  O  O272  1  0.892880  0.528850  0.063590  1.0  -0.5732
  O  O273  1  0.951130  0.584970  0.966170  1.0  -0.588
  O  O274  1  0.987750  0.923670  0.991830  1.0  -0.5764
  O  O275  1  0.478150  0.423730  0.508430  1.0  -0.5668
  O  O276  1  0.419040  0.090510  0.517410  1.0  -0.5328
  O  O277  1  0.406920  0.992350  0.571210  1.0  -0.5627
  O  O278  1  0.514680  0.063590  0.528850  1.0  -0.5754
  O  O279  1  0.497730  0.966170  0.584970  1.0  -0.5901
  O  O280  1  0.096750  0.991830  0.923670  1.0  -0.574
  O  O281  1  0.410310  0.576270  0.491570  1.0  -0.5652
  O  O282  1  0.026960  0.909490  0.482590  1.0  -0.5289
  O  O283  1  0.970480  0.007650  0.428790  1.0  -0.5622
  O  O284  1  0.107120  0.936410  0.471150  1.0  -0.5732
  O  O285  1  0.048870  0.033830  0.415030  1.0  -0.5881
  O  O286  1  0.012250  0.008170  0.076330  1.0  -0.5771
  O  O287  1  0.521850  0.491570  0.576270  1.0  -0.5643
  O  O288  1  0.580960  0.482590  0.909490  1.0  -0.5321
  O  O289  1  0.593080  0.428790  0.007650  1.0  -0.5625
  O  O290  1  0.485320  0.471150  0.936410  1.0  -0.5733
  O  O291  1  0.502270  0.415030  0.033830  1.0  -0.5871
  O  O292  1  0.903250  0.076330  0.008170  1.0  -0.5762
  O  O293  1  0.410310  0.491570  0.576270  1.0  -0.563
  O  O294  1  0.026960  0.482590  0.909490  1.0  -0.5292
  O  O295  1  0.970480  0.428790  0.007650  1.0  -0.5617
  O  O296  1  0.107120  0.471150  0.936410  1.0  -0.5728
  O  O297  1  0.048870  0.415030  0.033830  1.0  -0.5887
  O  O298  1  0.012250  0.076330  0.008170  1.0  -0.5772
  O  O299  1  0.521850  0.576270  0.491570  1.0  -0.5653
  O  O300  1  0.580960  0.909490  0.482590  1.0  -0.5325
  O  O301  1  0.593080  0.007650  0.428790  1.0  -0.5622
  O  O302  1  0.485320  0.936410  0.471150  1.0  -0.5751
  O  O303  1  0.502270  0.033830  0.415030  1.0  -0.5894
  O  O304  1  0.903250  0.008170  0.076330  1.0  -0.5746
  O  O305  1  0.589690  0.423730  0.508430  1.0  -0.5644
  O  O306  1  0.973040  0.090510  0.517410  1.0  -0.5292
  O  O307  1  0.029520  0.992350  0.571210  1.0  -0.5612
  O  O308  1  0.892880  0.063590  0.528850  1.0  -0.5739
  O  O309  1  0.951130  0.966170  0.584970  1.0  -0.5877
  O  O310  1  0.987750  0.991830  0.923670  1.0  -0.5763
  O  O311  1  0.478150  0.508430  0.423730  1.0  -0.564
  O  O312  1  0.419040  0.517410  0.090510  1.0  -0.5317
  O  O313  1  0.406920  0.571210  0.992350  1.0  -0.5632
  O  O314  1  0.514680  0.528850  0.063590  1.0  -0.5701
  O  O315  1  0.497730  0.584970  0.966170  1.0  -0.5877
  O  O316  1  0.096750  0.923670  0.991830  1.0  -0.5764
