# generated using pymatgen
data_CuH7(C7O2)2
_symmetry_space_group_name_H-M   'P 1'
_cell_length_a   17.58380000
_cell_length_b   17.58380000
_cell_length_c   17.58380000
_cell_angle_alpha   96.82990000
_cell_angle_beta   96.82990000
_cell_angle_gamma   96.82990000
_symmetry_Int_Tables_number   1
_chemical_formula_structural   CuH7(C7O2)2
_chemical_formula_sum   'Cu6 H42 C84 O24'
_cell_volume   5310.79981095
_cell_formula_units_Z   6
loop_
 _symmetry_equiv_pos_site_id
 _symmetry_equiv_pos_as_xyz
  1  'x, y, z'
loop_
 _atom_site_type_symbol
 _atom_site_label
 _atom_site_symmetry_multiplicity
 _atom_site_fract_x
 _atom_site_fract_y
 _atom_site_fract_z
 _atom_site_occupancy
 _atom_site_charge
  Cu  Cu1  1  0.307170  0.904660  0.904660  1.0  0.9171
  Cu  Cu2  1  0.904660  0.307170  0.904660  1.0  0.9162
  Cu  Cu3  1  0.904660  0.904660  0.307170  1.0  0.9171
  Cu  Cu4  1  0.851780  0.163170  0.851780  1.0  0.9158
  Cu  Cu5  1  0.851780  0.851780  0.163170  1.0  0.9149
  Cu  Cu6  1  0.163170  0.851780  0.851780  1.0  0.9117
  H  H7  1  0.213100  0.488100  0.838400  1.0  0.1013
  H  H8  1  0.183600  0.608600  0.830200  1.0  0.1211
  H  H9  1  0.425400  0.567500  0.927100  1.0  0.0988
  H  H10  1  0.395300  0.692000  0.927200  1.0  0.1024
  H  H11  1  0.235300  0.386500  0.896500  1.0  0.1037
  H  H12  1  0.147100  0.298000  0.888100  1.0  0.1074
  H  H13  1  0.838400  0.213100  0.488100  1.0  0.1018
  H  H14  1  0.830200  0.183600  0.608600  1.0  0.121
  H  H15  1  0.927100  0.425400  0.567500  1.0  0.0999
  H  H16  1  0.927200  0.395300  0.692000  1.0  0.1021
  H  H17  1  0.896500  0.235300  0.386500  1.0  0.1041
  H  H18  1  0.888100  0.147100  0.298000  1.0  0.1074
  H  H19  1  0.488100  0.838400  0.213100  1.0  0.1023
  H  H20  1  0.608600  0.830200  0.183600  1.0  0.1204
  H  H21  1  0.567500  0.927100  0.425400  1.0  0.0995
  H  H22  1  0.692000  0.927200  0.395300  1.0  0.1027
  H  H23  1  0.386500  0.896500  0.235300  1.0  0.1043
  H  H24  1  0.298000  0.888100  0.147100  1.0  0.1064
  H  H25  1  0.488100  0.213100  0.838400  1.0  0.1022
  H  H26  1  0.608600  0.183600  0.830200  1.0  0.1212
  H  H27  1  0.567500  0.425400  0.927100  1.0  0.0994
  H  H28  1  0.692000  0.395300  0.927200  1.0  0.1019
  H  H29  1  0.386500  0.235300  0.896500  1.0  0.1043
  H  H30  1  0.298000  0.147100  0.888100  1.0  0.1063
  H  H31  1  0.213100  0.838400  0.488100  1.0  0.102
  H  H32  1  0.183600  0.830200  0.608600  1.0  0.1218
  H  H33  1  0.425400  0.927100  0.567500  1.0  0.0992
  H  H34  1  0.395300  0.927200  0.692000  1.0  0.1024
  H  H35  1  0.235300  0.896500  0.386500  1.0  0.1038
  H  H36  1  0.147100  0.888100  0.298000  1.0  0.1077
  H  H37  1  0.838400  0.488100  0.213100  1.0  0.101
  H  H38  1  0.830200  0.608600  0.183600  1.0  0.1206
  H  H39  1  0.927100  0.567500  0.425400  1.0  0.0997
  H  H40  1  0.927200  0.692000  0.395300  1.0  0.1028
  H  H41  1  0.896500  0.386500  0.235300  1.0  0.1038
  H  H42  1  0.888100  0.298000  0.147100  1.0  0.1071
  H  H43  1  0.453850  0.453850  0.883600  1.0  0.0828
  H  H44  1  0.070150  0.070150  0.873700  1.0  0.1427
  H  H45  1  0.883600  0.453850  0.453850  1.0  0.0839
  H  H46  1  0.873700  0.070150  0.070150  1.0  0.1435
  H  H47  1  0.453850  0.883600  0.453850  1.0  0.0845
  H  H48  1  0.070150  0.873700  0.070150  1.0  0.1514
  C  C49  1  0.287300  0.664000  0.882900  1.0  -0.1226
  C  C50  1  0.251400  0.529500  0.857100  1.0  -0.1268
  C  C51  1  0.232300  0.601500  0.852800  1.0  -0.069
  C  C52  1  0.323800  0.511700  0.887400  1.0  0.0633
  C  C53  1  0.374800  0.574000  0.909700  1.0  -0.1406
  C  C54  1  0.356900  0.650600  0.908900  1.0  -0.0593
  C  C55  1  0.271000  0.746100  0.880700  1.0  0.67
  C  C56  1  0.014200  0.203500  0.880300  1.0  0.6811
  C  C57  1  0.343000  0.432600  0.886700  1.0  0.0524
  C  C58  1  0.284800  0.373900  0.892900  1.0  -0.1463
  C  C59  1  0.097800  0.191000  0.884200  1.0  -0.1331
  C  C60  1  0.157100  0.247200  0.888100  1.0  -0.037
  C  C61  1  0.882900  0.287300  0.664000  1.0  -0.1207
  C  C62  1  0.857100  0.251400  0.529500  1.0  -0.1296
  C  C63  1  0.852800  0.232300  0.601500  1.0  -0.0698
  C  C64  1  0.887400  0.323800  0.511700  1.0  0.0625
  C  C65  1  0.909700  0.374800  0.574000  1.0  -0.1439
  C  C66  1  0.908900  0.356900  0.650600  1.0  -0.0639
  C  C67  1  0.880700  0.271000  0.746100  1.0  0.6697
  C  C68  1  0.880300  0.014200  0.203500  1.0  0.6815
  C  C69  1  0.886700  0.343000  0.432600  1.0  0.0522
  C  C70  1  0.892900  0.284800  0.373900  1.0  -0.1464
  C  C71  1  0.884200  0.097800  0.191000  1.0  -0.1319
  C  C72  1  0.888100  0.157100  0.247200  1.0  -0.0362
  C  C73  1  0.664000  0.882900  0.287300  1.0  -0.1215
  C  C74  1  0.529500  0.857100  0.251400  1.0  -0.1271
  C  C75  1  0.601500  0.852800  0.232300  1.0  -0.069
  C  C76  1  0.511700  0.887400  0.323800  1.0  0.0604
  C  C77  1  0.574000  0.909700  0.374800  1.0  -0.1424
  C  C78  1  0.650600  0.908900  0.356900  1.0  -0.0592
  C  C79  1  0.746100  0.880700  0.271000  1.0  0.6676
  C  C80  1  0.203500  0.880300  0.014200  1.0  0.6819
  C  C81  1  0.432600  0.886700  0.343000  1.0  0.0508
  C  C82  1  0.373900  0.892900  0.284800  1.0  -0.1435
  C  C83  1  0.191000  0.884200  0.097800  1.0  -0.1343
  C  C84  1  0.247200  0.888100  0.157100  1.0  -0.0375
  C  C85  1  0.664000  0.287300  0.882900  1.0  -0.12
  C  C86  1  0.529500  0.251400  0.857100  1.0  -0.13
  C  C87  1  0.601500  0.232300  0.852800  1.0  -0.0705
  C  C88  1  0.511700  0.323800  0.887400  1.0  0.0606
  C  C89  1  0.574000  0.374800  0.909700  1.0  -0.1462
  C  C90  1  0.650600  0.356900  0.908900  1.0  -0.0608
  C  C91  1  0.746100  0.271000  0.880700  1.0  0.6675
  C  C92  1  0.203500  0.014200  0.880300  1.0  0.6807
  C  C93  1  0.432600  0.343000  0.886700  1.0  0.0511
  C  C94  1  0.373900  0.284800  0.892900  1.0  -0.1454
  C  C95  1  0.191000  0.097800  0.884200  1.0  -0.1328
  C  C96  1  0.247200  0.157100  0.888100  1.0  -0.0362
  C  C97  1  0.287300  0.882900  0.664000  1.0  -0.1225
  C  C98  1  0.251400  0.857100  0.529500  1.0  -0.1257
  C  C99  1  0.232300  0.852800  0.601500  1.0  -0.0681
  C  C100  1  0.323800  0.887400  0.511700  1.0  0.0625
  C  C101  1  0.374800  0.909700  0.574000  1.0  -0.1399
  C  C102  1  0.356900  0.908900  0.650600  1.0  -0.0591
  C  C103  1  0.271000  0.880700  0.746100  1.0  0.6703
  C  C104  1  0.014200  0.880300  0.203500  1.0  0.681
  C  C105  1  0.343000  0.886700  0.432600  1.0  0.0521
  C  C106  1  0.284800  0.892900  0.373900  1.0  -0.1465
  C  C107  1  0.097800  0.884200  0.191000  1.0  -0.1332
  C  C108  1  0.157100  0.888100  0.247200  1.0  -0.0383
  C  C109  1  0.882900  0.664000  0.287300  1.0  -0.1215
  C  C110  1  0.857100  0.529500  0.251400  1.0  -0.1283
  C  C111  1  0.852800  0.601500  0.232300  1.0  -0.0696
  C  C112  1  0.887400  0.511700  0.323800  1.0  0.0637
  C  C113  1  0.909700  0.574000  0.374800  1.0  -0.1417
  C  C114  1  0.908900  0.650600  0.356900  1.0  -0.0616
  C  C115  1  0.880700  0.746100  0.271000  1.0  0.6699
  C  C116  1  0.880300  0.203500  0.014200  1.0  0.6824
  C  C117  1  0.886700  0.432600  0.343000  1.0  0.0521
  C  C118  1  0.892900  0.373900  0.284800  1.0  -0.1433
  C  C119  1  0.884200  0.191000  0.097800  1.0  -0.1334
  C  C120  1  0.888100  0.247200  0.157100  1.0  -0.0353
  C  C121  1  0.414250  0.414250  0.885400  1.0  -0.1255
  C  C122  1  0.296550  0.296550  0.894000  1.0  0.074
  C  C123  1  0.232350  0.232350  0.892200  1.0  0.0184
  C  C124  1  0.110490  0.110500  0.879410  1.0  -0.0191
  C  C125  1  0.885400  0.414250  0.414250  1.0  -0.1253
  C  C126  1  0.894000  0.296550  0.296550  1.0  0.0736
  C  C127  1  0.892200  0.232350  0.232350  1.0  0.0175
  C  C128  1  0.879410  0.110490  0.110490  1.0  -0.0212
  C  C129  1  0.414250  0.885400  0.414250  1.0  -0.126
  C  C130  1  0.296550  0.894000  0.296550  1.0  0.0746
  C  C131  1  0.232350  0.892200  0.232350  1.0  0.0182
  C  C132  1  0.110490  0.879410  0.110490  1.0  -0.0233
  O  O133  1  0.323300  0.799600  0.901200  1.0  -0.5445
  O  O134  1  0.959800  0.149100  0.857100  1.0  -0.5576
  O  O135  1  0.006280  0.273950  0.900720  1.0  -0.5818
  O  O136  1  0.198690  0.752450  0.856420  1.0  -0.5824
  O  O137  1  0.901200  0.323300  0.799600  1.0  -0.5445
  O  O138  1  0.857100  0.959800  0.149100  1.0  -0.5585
  O  O139  1  0.900720  0.006280  0.273950  1.0  -0.5814
  O  O140  1  0.856420  0.198690  0.752450  1.0  -0.5814
  O  O141  1  0.799600  0.901200  0.323300  1.0  -0.5442
  O  O142  1  0.149100  0.857100  0.959800  1.0  -0.558
  O  O143  1  0.273950  0.900720  0.006280  1.0  -0.5811
  O  O144  1  0.752450  0.856420  0.198690  1.0  -0.5828
  O  O145  1  0.799600  0.323300  0.901200  1.0  -0.5438
  O  O146  1  0.149100  0.959800  0.857100  1.0  -0.5579
  O  O147  1  0.273950  0.006280  0.900720  1.0  -0.5823
  O  O148  1  0.752450  0.198690  0.856420  1.0  -0.582
  O  O149  1  0.323300  0.901200  0.799600  1.0  -0.5446
  O  O150  1  0.959800  0.857100  0.149100  1.0  -0.5585
  O  O151  1  0.006280  0.900720  0.273950  1.0  -0.5819
  O  O152  1  0.198690  0.856420  0.752450  1.0  -0.581
  O  O153  1  0.901200  0.799600  0.323300  1.0  -0.5439
  O  O154  1  0.857100  0.149100  0.959800  1.0  -0.5592
  O  O155  1  0.900720  0.273950  0.006280  1.0  -0.5812
  O  O156  1  0.856420  0.752450  0.198690  1.0  -0.5831
