# generated using pymatgen
data_CuH7(C7O2)2
_symmetry_space_group_name_H-M   'P 1'
_cell_length_a   18.11480000
_cell_length_b   18.11480000
_cell_length_c   24.39700000
_cell_angle_alpha   74.54220000
_cell_angle_beta   74.54220000
_cell_angle_gamma   106.38400000
_symmetry_Int_Tables_number   1
_chemical_formula_structural   CuH7(C7O2)2
_chemical_formula_sum   'Cu8 H56 C112 O32'
_cell_volume   6878.84041408
_cell_formula_units_Z   8
loop_
 _symmetry_equiv_pos_site_id
 _symmetry_equiv_pos_as_xyz
  1  'x, y, z'
loop_
 _atom_site_type_symbol
 _atom_site_label
 _atom_site_symmetry_multiplicity
 _atom_site_fract_x
 _atom_site_fract_y
 _atom_site_fract_z
 _atom_site_occupancy
 _atom_site_charge
  Cu  Cu1  1  0.552660  0.995260  0.953820  1.0  0.9188
  Cu  Cu2  1  0.493520  0.550920  0.953820  1.0  0.9215
  Cu  Cu3  1  0.504740  0.947340  0.546180  1.0  0.9218
  Cu  Cu4  1  0.949080  0.006480  0.546180  1.0  0.9204
  Cu  Cu5  1  0.447340  0.004740  0.046180  1.0  0.9206
  Cu  Cu6  1  0.506480  0.449080  0.046180  1.0  0.9213
  Cu  Cu7  1  0.495260  0.052660  0.453820  1.0  0.922
  Cu  Cu8  1  0.050920  0.993520  0.453820  1.0  0.9187
  H  H9  1  0.771700  0.571100  0.005200  1.0  0.1086
  H  H10  1  0.877200  0.812200  0.836400  1.0  0.107
  H  H11  1  0.912000  0.650800  0.963800  1.0  0.1106
  H  H12  1  0.735800  0.730600  0.876600  1.0  0.1204
  H  H13  1  0.996400  0.810600  0.777200  1.0  0.1045
  H  H14  1  0.050100  0.914500  0.683600  1.0  0.1
  H  H15  1  0.223100  0.923700  0.005200  1.0  0.1096
  H  H16  1  0.286400  0.851400  0.836400  1.0  0.1078
  H  H17  1  0.124200  0.885400  0.963800  1.0  0.112
  H  H18  1  0.387600  0.892800  0.876600  1.0  0.12
  H  H19  1  0.226400  0.912200  0.777200  1.0  0.1052
  H  H20  1  0.266300  0.901900  0.683600  1.0  0.0979
  H  H21  1  0.928900  0.728300  0.494800  1.0  0.1097
  H  H22  1  0.687800  0.622800  0.663600  1.0  0.1067
  H  H23  1  0.849200  0.588000  0.536200  1.0  0.1107
  H  H24  1  0.769400  0.764200  0.623400  1.0  0.1204
  H  H25  1  0.689400  0.503600  0.722800  1.0  0.1039
  H  H26  1  0.585500  0.449900  0.816400  1.0  0.0984
  H  H27  1  0.576300  0.276900  0.494800  1.0  0.1093
  H  H28  1  0.648600  0.213600  0.663600  1.0  0.1076
  H  H29  1  0.614600  0.375800  0.536200  1.0  0.1114
  H  H30  1  0.607200  0.112400  0.623400  1.0  0.1201
  H  H31  1  0.587800  0.273600  0.722800  1.0  0.1039
  H  H32  1  0.598100  0.233700  0.816400  1.0  0.0976
  H  H33  1  0.228300  0.428900  0.994800  1.0  0.109
  H  H34  1  0.122800  0.187800  0.163600  1.0  0.1066
  H  H35  1  0.088000  0.349200  0.036200  1.0  0.111
  H  H36  1  0.264200  0.269400  0.123400  1.0  0.1198
  H  H37  1  0.003600  0.189400  0.222800  1.0  0.1045
  H  H38  1  0.949900  0.085500  0.316400  1.0  0.0986
  H  H39  1  0.776900  0.076300  0.994800  1.0  0.1096
  H  H40  1  0.713600  0.148600  0.163600  1.0  0.1078
  H  H41  1  0.875800  0.114600  0.036200  1.0  0.1111
  H  H42  1  0.612400  0.107200  0.123400  1.0  0.1192
  H  H43  1  0.773600  0.087800  0.222800  1.0  0.1048
  H  H44  1  0.733700  0.098100  0.316400  1.0  0.0985
  H  H45  1  0.071100  0.271700  0.505200  1.0  0.1101
  H  H46  1  0.312200  0.377200  0.336400  1.0  0.1067
  H  H47  1  0.150800  0.412000  0.463800  1.0  0.111
  H  H48  1  0.230600  0.235800  0.376600  1.0  0.1204
  H  H49  1  0.310600  0.496400  0.277200  1.0  0.1042
  H  H50  1  0.414500  0.550100  0.183600  1.0  0.0985
  H  H51  1  0.423700  0.723100  0.505200  1.0  0.1091
  H  H52  1  0.351400  0.786400  0.336400  1.0  0.1074
  H  H53  1  0.385400  0.624200  0.463800  1.0  0.1111
  H  H54  1  0.392800  0.887600  0.376600  1.0  0.1207
  H  H55  1  0.412200  0.726400  0.277200  1.0  0.1039
  H  H56  1  0.401900  0.766300  0.183600  1.0  0.0973
  H  H57  1  0.032900  0.782900  0.934200  1.0  0.1149
  H  H58  1  0.237700  0.987700  0.524600  1.0  0.1221
  H  H59  1  0.717100  0.467100  0.565800  1.0  0.1144
  H  H60  1  0.512300  0.262300  0.975400  1.0  0.122
  H  H61  1  0.967100  0.217100  0.065800  1.0  0.1144
  H  H62  1  0.762300  0.012300  0.475400  1.0  0.122
  H  H63  1  0.282900  0.532900  0.434200  1.0  0.1149
  H  H64  1  0.487700  0.737700  0.024600  1.0  0.1221
  C  C65  1  0.742750  0.642550  0.941900  1.0  -0.1404
  C  C66  1  0.793550  0.618750  0.970100  1.0  -0.0753
  C  C67  1  0.856260  0.762260  0.869480  1.0  -0.1552
  C  C68  1  0.908770  0.736970  0.894060  1.0  0.0554
  C  C69  1  0.876930  0.666330  0.945540  1.0  -0.1137
  C  C70  1  0.771490  0.713890  0.893620  1.0  -0.0441
  C  C71  1  0.001970  0.789970  0.860260  1.0  0.0076
  C  C72  1  0.031930  0.820530  0.797940  1.0  -0.1253
  C  C73  1  0.104200  0.920800  0.663600  1.0  -0.0576
  C  C74  1  0.134760  0.949360  0.600680  1.0  -0.1072
  C  C75  1  0.648630  0.587830  0.964740  1.0  0.6824
  C  C76  1  0.081150  0.965350  0.566300  1.0  0.7023
  C  C77  1  0.315350  0.915550  0.941900  1.0  -0.1405
  C  C78  1  0.236350  0.911150  0.970100  1.0  -0.0762
  C  C79  1  0.274260  0.868260  0.869480  1.0  -0.1564
  C  C80  1  0.197170  0.868970  0.894060  1.0  0.0541
  C  C81  1  0.177530  0.888130  0.945540  1.0  -0.1131
  C  C82  1  0.334890  0.892490  0.893620  1.0  -0.0438
  C  C83  1  0.137770  0.849770  0.860260  1.0  0.0097
  C  C84  1  0.170130  0.881530  0.797940  1.0  -0.1249
  C  C85  1  0.232200  0.915600  0.663600  1.0  -0.0565
  C  C86  1  0.264560  0.949960  0.600680  1.0  -0.1063
  C  C87  1  0.386630  0.947430  0.964740  1.0  0.683
  C  C88  1  0.352550  0.968350  0.566300  1.0  0.7
  C  C89  1  0.857450  0.757250  0.558100  1.0  -0.1409
  C  C90  1  0.881250  0.706450  0.529900  1.0  -0.0774
  C  C91  1  0.737740  0.643740  0.630520  1.0  -0.1564
  C  C92  1  0.763030  0.591230  0.605940  1.0  0.057
  C  C93  1  0.833670  0.623070  0.554460  1.0  -0.1121
  C  C94  1  0.786110  0.728510  0.606380  1.0  -0.0453
  C  C95  1  0.710030  0.498030  0.639740  1.0  0.0103
  C  C96  1  0.679470  0.468070  0.702060  1.0  -0.1218
  C  C97  1  0.579200  0.395800  0.836400  1.0  -0.0579
  C  C98  1  0.550640  0.365240  0.899320  1.0  -0.107
  C  C99  1  0.912170  0.851370  0.535260  1.0  0.6848
  C  C100  1  0.534650  0.418850  0.933700  1.0  0.7021
  C  C101  1  0.584450  0.184650  0.558100  1.0  -0.1411
  C  C102  1  0.588850  0.263650  0.529900  1.0  -0.0775
  C  C103  1  0.631740  0.225740  0.630520  1.0  -0.1569
  C  C104  1  0.631030  0.302830  0.605940  1.0  0.0559
  C  C105  1  0.611870  0.322470  0.554460  1.0  -0.1137
  C  C106  1  0.607510  0.165110  0.606380  1.0  -0.0455
  C  C107  1  0.650230  0.362230  0.639740  1.0  0.009
  C  C108  1  0.618470  0.329870  0.702060  1.0  -0.1241
  C  C109  1  0.584400  0.267800  0.836400  1.0  -0.0553
  C  C110  1  0.550040  0.235440  0.899320  1.0  -0.1064
  C  C111  1  0.552570  0.113370  0.535260  1.0  0.6841
  C  C112  1  0.531650  0.147450  0.933700  1.0  0.7024
  C  C113  1  0.257250  0.357450  0.058100  1.0  -0.1408
  C  C114  1  0.206450  0.381250  0.029900  1.0  -0.0759
  C  C115  1  0.143740  0.237740  0.130520  1.0  -0.1564
  C  C116  1  0.091230  0.263030  0.105940  1.0  0.0546
  C  C117  1  0.123070  0.333670  0.054460  1.0  -0.1153
  C  C118  1  0.228510  0.286110  0.106380  1.0  -0.0441
  C  C119  1  0.998030  0.210030  0.139740  1.0  0.0083
  C  C120  1  0.968070  0.179470  0.202060  1.0  -0.1243
  C  C121  1  0.895800  0.079200  0.336400  1.0  -0.0549
  C  C122  1  0.865240  0.050640  0.399320  1.0  -0.1071
  C  C123  1  0.351370  0.412170  0.035260  1.0  0.6829
  C  C124  1  0.918850  0.034650  0.433700  1.0  0.7008
  C  C125  1  0.684650  0.084450  0.058100  1.0  -0.1414
  C  C126  1  0.763650  0.088850  0.029900  1.0  -0.0779
  C  C127  1  0.725740  0.131740  0.130520  1.0  -0.1558
  C  C128  1  0.802830  0.131030  0.105940  1.0  0.0545
  C  C129  1  0.822470  0.111870  0.054460  1.0  -0.1113
  C  C130  1  0.665110  0.107510  0.106380  1.0  -0.0442
  C  C131  1  0.862230  0.150230  0.139740  1.0  0.0091
  C  C132  1  0.829870  0.118470  0.202060  1.0  -0.1253
  C  C133  1  0.767800  0.084400  0.336400  1.0  -0.0567
  C  C134  1  0.735440  0.050040  0.399320  1.0  -0.1071
  C  C135  1  0.613370  0.052570  0.035260  1.0  0.6822
  C  C136  1  0.647450  0.031650  0.433700  1.0  0.6998
  C  C137  1  0.142550  0.242750  0.441900  1.0  -0.1408
  C  C138  1  0.118750  0.293550  0.470100  1.0  -0.0763
  C  C139  1  0.262260  0.356260  0.369480  1.0  -0.1549
  C  C140  1  0.236970  0.408770  0.394060  1.0  0.0566
  C  C141  1  0.166330  0.376930  0.445540  1.0  -0.1121
  C  C142  1  0.213890  0.271490  0.393620  1.0  -0.0448
  C  C143  1  0.289970  0.501970  0.360260  1.0  0.0095
  C  C144  1  0.320530  0.531930  0.297940  1.0  -0.1222
  C  C145  1  0.420800  0.604200  0.163600  1.0  -0.0539
  C  C146  1  0.449360  0.634760  0.100680  1.0  -0.1068
  C  C147  1  0.087830  0.148630  0.464740  1.0  0.6839
  C  C148  1  0.465350  0.581150  0.066300  1.0  0.7017
  C  C149  1  0.415550  0.815350  0.441900  1.0  -0.1404
  C  C150  1  0.411150  0.736350  0.470100  1.0  -0.0756
  C  C151  1  0.368260  0.774260  0.369480  1.0  -0.1573
  C  C152  1  0.368970  0.697170  0.394060  1.0  0.0555
  C  C153  1  0.388130  0.677530  0.445540  1.0  -0.1143
  C  C154  1  0.392490  0.834890  0.393620  1.0  -0.0471
  C  C155  1  0.349770  0.637770  0.360260  1.0  0.0098
  C  C156  1  0.381530  0.670130  0.297940  1.0  -0.1233
  C  C157  1  0.415600  0.732200  0.163600  1.0  -0.0568
  C  C158  1  0.449960  0.764560  0.100680  1.0  -0.1061
  C  C159  1  0.447430  0.886630  0.464740  1.0  0.685
  C  C160  1  0.468350  0.852550  0.066300  1.0  0.7021
  C  C161  1  0.054150  0.804150  0.891700  1.0  -0.0916
  C  C162  1  0.117500  0.867500  0.765000  1.0  0.0694
  C  C163  1  0.150100  0.900100  0.699800  1.0  0.0554
  C  C164  1  0.216460  0.966460  0.567080  1.0  -0.0681
  C  C165  1  0.695850  0.445850  0.608300  1.0  -0.0913
  C  C166  1  0.632500  0.382500  0.735000  1.0  0.0699
  C  C167  1  0.599900  0.349900  0.800200  1.0  0.0555
  C  C168  1  0.533540  0.283540  0.932920  1.0  -0.0682
  C  C169  1  0.945850  0.195850  0.108300  1.0  -0.0913
  C  C170  1  0.882500  0.132500  0.235000  1.0  0.0699
  C  C171  1  0.849900  0.099900  0.300200  1.0  0.0555
  C  C172  1  0.783540  0.033540  0.432920  1.0  -0.0682
  C  C173  1  0.304150  0.554150  0.391700  1.0  -0.0916
  C  C174  1  0.367500  0.617500  0.265000  1.0  0.0694
  C  C175  1  0.400100  0.650100  0.199800  1.0  0.0554
  C  C176  1  0.466460  0.716460  0.067080  1.0  -0.0681
  O  O177  1  0.610230  0.611510  0.933640  1.0  -0.5702
  O  O178  1  0.018190  0.977410  0.591680  1.0  -0.5728
  O  O179  1  0.622510  0.524090  0.013700  1.0  -0.5712
  O  O180  1  0.104130  0.968690  0.511900  1.0  -0.5911
  O  O181  1  0.456130  0.954850  0.933640  1.0  -0.5685
  O  O182  1  0.390130  0.930910  0.591680  1.0  -0.573
  O  O183  1  0.363790  0.962210  0.013700  1.0  -0.5702
  O  O184  1  0.383970  0.019410  0.511900  1.0  -0.5905
  O  O185  1  0.888490  0.889770  0.566360  1.0  -0.5692
  O  O186  1  0.522590  0.481810  0.908320  1.0  -0.572
  O  O187  1  0.975910  0.877490  0.486300  1.0  -0.5681
  O  O188  1  0.531310  0.395870  0.988100  1.0  -0.5916
  O  O189  1  0.545150  0.043870  0.566360  1.0  -0.5699
  O  O190  1  0.569090  0.109870  0.908320  1.0  -0.5726
  O  O191  1  0.537790  0.136210  0.486300  1.0  -0.5711
  O  O192  1  0.480590  0.116030  0.988100  1.0  -0.5906
  O  O193  1  0.389770  0.388490  0.066360  1.0  -0.571
  O  O194  1  0.981810  0.022590  0.408320  1.0  -0.5721
  O  O195  1  0.377490  0.475910  0.986300  1.0  -0.5707
  O  O196  1  0.895870  0.031310  0.488100  1.0  -0.5914
  O  O197  1  0.543870  0.045150  0.066360  1.0  -0.5677
  O  O198  1  0.609870  0.069090  0.408320  1.0  -0.5731
  O  O199  1  0.636210  0.037790  0.986300  1.0  -0.5688
  O  O200  1  0.616030  0.980590  0.488100  1.0  -0.5911
  O  O201  1  0.111510  0.110230  0.433640  1.0  -0.569
  O  O202  1  0.477410  0.518190  0.091680  1.0  -0.5725
  O  O203  1  0.024090  0.122510  0.513700  1.0  -0.5699
  O  O204  1  0.468690  0.604130  0.011900  1.0  -0.5916
  O  O205  1  0.454850  0.956130  0.433640  1.0  -0.5698
  O  O206  1  0.430910  0.890130  0.091680  1.0  -0.5733
  O  O207  1  0.462210  0.863790  0.513700  1.0  -0.5718
  O  O208  1  0.519410  0.883970  0.011900  1.0  -0.5912
