# generated using pymatgen
data_ZnH6(C2O)8
_symmetry_space_group_name_H-M   'P 1'
_cell_length_a   28.22190000
_cell_length_b   28.22190000
_cell_length_c   9.72660000
_cell_angle_alpha   90.00000000
_cell_angle_beta   90.00000000
_cell_angle_gamma   90.00000000
_symmetry_Int_Tables_number   1
_chemical_formula_structural   ZnH6(C2O)8
_chemical_formula_sum   'Zn12 H72 C192 O96'
_cell_volume   7746.99995623
_cell_formula_units_Z   12
loop_
 _symmetry_equiv_pos_site_id
 _symmetry_equiv_pos_as_xyz
  1  'x, y, z'
loop_
 _atom_site_type_symbol
 _atom_site_label
 _atom_site_symmetry_multiplicity
 _atom_site_fract_x
 _atom_site_fract_y
 _atom_site_fract_z
 _atom_site_occupancy
 _atom_site_charge
  Zn  Zn1  1  0.500000  0.000000  0.750000  1.0  1.0125
  Zn  Zn2  1  0.000000  0.500000  0.250000  1.0  1.0125
  Zn  Zn3  1  0.000000  0.000000  0.000000  1.0  1.0125
  Zn  Zn4  1  0.500000  0.500000  0.500000  1.0  1.0125
  Zn  Zn5  1  0.379410  0.250000  0.125000  1.0  1.0328
  Zn  Zn6  1  0.620590  0.750000  0.125000  1.0  1.0319
  Zn  Zn7  1  0.120590  0.250000  0.625000  1.0  1.0319
  Zn  Zn8  1  0.250000  0.620590  0.875000  1.0  1.0338
  Zn  Zn9  1  0.750000  0.120590  0.375000  1.0  1.0338
  Zn  Zn10  1  0.750000  0.379410  0.875000  1.0  1.0335
  Zn  Zn11  1  0.250000  0.879410  0.375000  1.0  1.0335
  Zn  Zn12  1  0.879410  0.750000  0.625000  1.0  1.0328
  H  H13  1  0.555600  0.138900  0.640800  1.0  0.1251
  H  H14  1  0.438300  0.133900  0.408200  1.0  0.129
  H  H15  1  0.511700  0.255700  0.446300  1.0  0.1217
  H  H16  1  0.627800  0.177100  0.524400  1.0  0.1249
  H  H17  1  0.055600  0.638900  0.140800  1.0  0.1251
  H  H18  1  0.938300  0.633900  0.908200  1.0  0.129
  H  H19  1  0.011700  0.755700  0.946300  1.0  0.1217
  H  H20  1  0.127800  0.677100  0.024400  1.0  0.1249
  H  H21  1  0.444400  0.861100  0.640800  1.0  0.1246
  H  H22  1  0.561700  0.866100  0.408200  1.0  0.1291
  H  H23  1  0.488300  0.744300  0.446300  1.0  0.1213
  H  H24  1  0.372200  0.822900  0.524400  1.0  0.1252
  H  H25  1  0.944400  0.361100  0.140800  1.0  0.1246
  H  H26  1  0.061700  0.366100  0.908200  1.0  0.1291
  H  H27  1  0.988300  0.244300  0.946300  1.0  0.1213
  H  H28  1  0.872200  0.322900  0.024400  1.0  0.1252
  H  H29  1  0.138900  0.444400  0.359200  1.0  0.1242
  H  H30  1  0.133900  0.561700  0.591800  1.0  0.1288
  H  H31  1  0.255700  0.488300  0.553700  1.0  0.1232
  H  H32  1  0.177100  0.372200  0.475600  1.0  0.1252
  H  H33  1  0.638900  0.944400  0.859200  1.0  0.1242
  H  H34  1  0.633900  0.061700  0.091800  1.0  0.1288
  H  H35  1  0.755700  0.988300  0.053700  1.0  0.1232
  H  H36  1  0.677100  0.872200  0.975600  1.0  0.1252
  H  H37  1  0.861100  0.555600  0.359200  1.0  0.1232
  H  H38  1  0.866100  0.438300  0.591800  1.0  0.1286
  H  H39  1  0.744300  0.511700  0.553700  1.0  0.1236
  H  H40  1  0.822900  0.627800  0.475600  1.0  0.1252
  H  H41  1  0.361100  0.055600  0.859200  1.0  0.1232
  H  H42  1  0.366100  0.938300  0.091800  1.0  0.1286
  H  H43  1  0.244300  0.011700  0.053700  1.0  0.1236
  H  H44  1  0.322900  0.127800  0.975600  1.0  0.1252
  H  H45  1  0.944400  0.138900  0.109200  1.0  0.1242
  H  H46  1  0.061700  0.133900  0.341800  1.0  0.1291
  H  H47  1  0.988300  0.255700  0.303700  1.0  0.1216
  H  H48  1  0.872200  0.177100  0.225600  1.0  0.1251
  H  H49  1  0.444400  0.638900  0.609200  1.0  0.1242
  H  H50  1  0.561700  0.633900  0.841800  1.0  0.1291
  H  H51  1  0.488300  0.755700  0.803700  1.0  0.1216
  H  H52  1  0.372200  0.677100  0.725600  1.0  0.1251
  H  H53  1  0.055600  0.861100  0.109200  1.0  0.1247
  H  H54  1  0.938300  0.866100  0.341800  1.0  0.1292
  H  H55  1  0.011700  0.744300  0.303700  1.0  0.1215
  H  H56  1  0.127800  0.822900  0.225600  1.0  0.125
  H  H57  1  0.555600  0.361100  0.609200  1.0  0.1247
  H  H58  1  0.438300  0.366100  0.841800  1.0  0.1292
  H  H59  1  0.511700  0.244300  0.803700  1.0  0.1215
  H  H60  1  0.627800  0.322900  0.725600  1.0  0.125
  H  H61  1  0.361100  0.444400  0.390800  1.0  0.1237
  H  H62  1  0.366100  0.561700  0.158200  1.0  0.1288
  H  H63  1  0.244300  0.488300  0.196300  1.0  0.1246
  H  H64  1  0.322900  0.372200  0.274400  1.0  0.1252
  H  H65  1  0.861100  0.944400  0.890800  1.0  0.1237
  H  H66  1  0.866100  0.061700  0.658200  1.0  0.1288
  H  H67  1  0.744300  0.988300  0.696300  1.0  0.1246
  H  H68  1  0.822900  0.872200  0.774400  1.0  0.1252
  H  H69  1  0.638900  0.555600  0.390800  1.0  0.1244
  H  H70  1  0.633900  0.438300  0.158200  1.0  0.1281
  H  H71  1  0.755700  0.511700  0.196300  1.0  0.1235
  H  H72  1  0.677100  0.627800  0.274400  1.0  0.1251
  H  H73  1  0.138900  0.055600  0.890800  1.0  0.1244
  H  H74  1  0.133900  0.938300  0.658200  1.0  0.1281
  H  H75  1  0.255700  0.011700  0.696300  1.0  0.1235
  H  H76  1  0.177100  0.127800  0.774400  1.0  0.1251
  H  H77  1  0.752000  0.250000  0.625000  1.0  0.4423
  H  H78  1  0.248000  0.750000  0.625000  1.0  0.433
  H  H79  1  0.250000  0.248000  0.375000  1.0  0.4368
  H  H80  1  0.750000  0.748000  0.875000  1.0  0.4368
  H  H81  1  0.750000  0.752000  0.375000  1.0  0.4355
  H  H82  1  0.250000  0.252000  0.875000  1.0  0.4355
  H  H83  1  0.748000  0.250000  0.125000  1.0  0.4321
  H  H84  1  0.252000  0.750000  0.125000  1.0  0.4414
  C  C85  1  0.487710  0.078230  0.572200  1.0  0.7
  C  C86  1  0.494950  0.128850  0.532500  1.0  -0.1329
  C  C87  1  0.533960  0.154100  0.583800  1.0  -0.0229
  C  C88  1  0.463710  0.150680  0.444600  1.0  0.0298
  C  C89  1  0.540740  0.201510  0.550600  1.0  0.0226
  C  C90  1  0.470450  0.199000  0.409900  1.0  -0.1395
  C  C91  1  0.508170  0.223660  0.465900  1.0  -0.0162
  C  C92  1  0.584890  0.228240  0.595900  1.0  0.0214
  C  C93  1  0.437500  0.223800  0.310800  1.0  0.6663
  C  C94  1  0.628230  0.206900  0.565200  1.0  -0.0596
  C  C95  1  0.671520  0.227230  0.591800  1.0  -0.0839
  C  C96  1  0.713900  0.199800  0.543200  1.0  0.671
  C  C97  1  0.987710  0.578230  0.072200  1.0  0.7
  C  C98  1  0.994950  0.628850  0.032500  1.0  -0.1329
  C  C99  1  0.033960  0.654100  0.083800  1.0  -0.0229
  C  C100  1  0.963710  0.650680  0.944600  1.0  0.0298
  C  C101  1  0.040740  0.701510  0.050600  1.0  0.0226
  C  C102  1  0.970450  0.699000  0.909900  1.0  -0.1395
  C  C103  1  0.008170  0.723660  0.965900  1.0  -0.0162
  C  C104  1  0.084890  0.728240  0.095900  1.0  0.0214
  C  C105  1  0.937500  0.723800  0.810800  1.0  0.6663
  C  C106  1  0.128230  0.706900  0.065200  1.0  -0.0596
  C  C107  1  0.171520  0.727230  0.091800  1.0  -0.0839
  C  C108  1  0.213900  0.699800  0.043200  1.0  0.671
  C  C109  1  0.512290  0.921770  0.572200  1.0  0.6994
  C  C110  1  0.505050  0.871150  0.532500  1.0  -0.1344
  C  C111  1  0.466040  0.845900  0.583800  1.0  -0.0238
  C  C112  1  0.536290  0.849320  0.444600  1.0  0.0301
  C  C113  1  0.459260  0.798490  0.550600  1.0  0.0222
  C  C114  1  0.529550  0.801000  0.409900  1.0  -0.1392
  C  C115  1  0.491830  0.776340  0.465900  1.0  -0.0155
  C  C116  1  0.415110  0.771760  0.595900  1.0  0.0207
  C  C117  1  0.562500  0.776200  0.310800  1.0  0.6642
  C  C118  1  0.371770  0.793100  0.565200  1.0  -0.0622
  C  C119  1  0.328480  0.772770  0.591800  1.0  -0.0838
  C  C120  1  0.286100  0.800200  0.543200  1.0  0.6701
  C  C121  1  0.012290  0.421770  0.072200  1.0  0.6994
  C  C122  1  0.005050  0.371150  0.032500  1.0  -0.1344
  C  C123  1  0.966040  0.345900  0.083800  1.0  -0.0238
  C  C124  1  0.036290  0.349320  0.944600  1.0  0.0301
  C  C125  1  0.959260  0.298490  0.050600  1.0  0.0222
  C  C126  1  0.029550  0.301000  0.909900  1.0  -0.1392
  C  C127  1  0.991830  0.276340  0.965900  1.0  -0.0155
  C  C128  1  0.915110  0.271760  0.095900  1.0  0.0207
  C  C129  1  0.062500  0.276200  0.810800  1.0  0.6654
  C  C130  1  0.871770  0.293100  0.065200  1.0  -0.0622
  C  C131  1  0.828480  0.272770  0.091800  1.0  -0.0838
  C  C132  1  0.786100  0.300200  0.043200  1.0  0.6701
  C  C133  1  0.078230  0.512290  0.427800  1.0  0.7034
  C  C134  1  0.128850  0.505050  0.467500  1.0  -0.1331
  C  C135  1  0.154100  0.466040  0.416200  1.0  -0.0204
  C  C136  1  0.150680  0.536290  0.555400  1.0  0.0306
  C  C137  1  0.201510  0.459260  0.449400  1.0  0.0209
  C  C138  1  0.199000  0.529550  0.590100  1.0  -0.139
  C  C139  1  0.223660  0.491830  0.534100  1.0  -0.0186
  C  C140  1  0.228240  0.415110  0.404100  1.0  0.0205
  C  C141  1  0.223800  0.562500  0.689200  1.0  0.6645
  C  C142  1  0.206900  0.371770  0.434800  1.0  -0.0622
  C  C143  1  0.227230  0.328480  0.408200  1.0  -0.0839
  C  C144  1  0.199800  0.286100  0.456800  1.0  0.6729
  C  C145  1  0.578230  0.012290  0.927800  1.0  0.7031
  C  C146  1  0.628850  0.005050  0.967500  1.0  -0.1331
  C  C147  1  0.654100  0.966040  0.916200  1.0  -0.0204
  C  C148  1  0.650680  0.036290  0.055400  1.0  0.0306
  C  C149  1  0.701510  0.959260  0.949400  1.0  0.0209
  C  C150  1  0.699000  0.029550  0.090100  1.0  -0.139
  C  C151  1  0.723660  0.991830  0.034100  1.0  -0.0186
  C  C152  1  0.728240  0.915110  0.904100  1.0  0.0205
  C  C153  1  0.723800  0.062500  0.189200  1.0  0.6641
  C  C154  1  0.706900  0.871770  0.934800  1.0  -0.0622
  C  C155  1  0.727230  0.828480  0.908200  1.0  -0.0839
  C  C156  1  0.699800  0.786100  0.956800  1.0  0.6729
  C  C157  1  0.921770  0.487710  0.427800  1.0  0.7002
  C  C158  1  0.871150  0.494950  0.467500  1.0  -0.134
  C  C159  1  0.845900  0.533960  0.416200  1.0  -0.0217
  C  C160  1  0.849320  0.463710  0.555400  1.0  0.0312
  C  C161  1  0.798490  0.540740  0.449400  1.0  0.0197
  C  C162  1  0.801000  0.470450  0.590100  1.0  -0.1387
  C  C163  1  0.776340  0.508170  0.534100  1.0  -0.0165
  C  C164  1  0.771760  0.584890  0.404100  1.0  0.0219
  C  C165  1  0.776200  0.437500  0.689200  1.0  0.6635
  C  C166  1  0.793100  0.628230  0.434800  1.0  -0.0614
  C  C167  1  0.772770  0.671520  0.408200  1.0  -0.0844
  C  C168  1  0.800200  0.713900  0.456800  1.0  0.6737
  C  C169  1  0.421770  0.987710  0.927800  1.0  0.7
  C  C170  1  0.371150  0.994950  0.967500  1.0  -0.134
  C  C171  1  0.345900  0.033960  0.916200  1.0  -0.0217
  C  C172  1  0.349320  0.963710  0.055400  1.0  0.0312
  C  C173  1  0.298490  0.040740  0.949400  1.0  0.0197
  C  C174  1  0.301000  0.970450  0.090100  1.0  -0.1387
  C  C175  1  0.276340  0.008170  0.034100  1.0  -0.0165
  C  C176  1  0.271760  0.084890  0.904100  1.0  0.0219
  C  C177  1  0.276200  0.937500  0.189200  1.0  0.6635
  C  C178  1  0.293100  0.128230  0.934800  1.0  -0.0614
  C  C179  1  0.272770  0.171520  0.908200  1.0  -0.0844
  C  C180  1  0.300200  0.213900  0.956800  1.0  0.6737
  C  C181  1  0.012290  0.078230  0.177800  1.0  0.7022
  C  C182  1  0.005050  0.128850  0.217500  1.0  -0.1337
  C  C183  1  0.966040  0.154100  0.166200  1.0  -0.0232
  C  C184  1  0.036290  0.150680  0.305400  1.0  0.0297
  C  C185  1  0.959260  0.201510  0.199400  1.0  0.0219
  C  C186  1  0.029550  0.199000  0.340100  1.0  -0.1392
  C  C187  1  0.991830  0.223660  0.284100  1.0  -0.0163
  C  C188  1  0.915110  0.228240  0.154100  1.0  0.0205
  C  C189  1  0.062500  0.223800  0.439200  1.0  0.6651
  C  C190  1  0.871770  0.206900  0.184800  1.0  -0.0616
  C  C191  1  0.828480  0.227230  0.158200  1.0  -0.0838
  C  C192  1  0.786100  0.199800  0.206800  1.0  0.6709
  C  C193  1  0.512290  0.578230  0.677800  1.0  0.702
  C  C194  1  0.505050  0.628850  0.717500  1.0  -0.1337
  C  C195  1  0.466040  0.654100  0.666200  1.0  -0.0232
  C  C196  1  0.536290  0.650680  0.805400  1.0  0.0297
  C  C197  1  0.459260  0.701510  0.699400  1.0  0.0219
  C  C198  1  0.529550  0.699000  0.840100  1.0  -0.1392
  C  C199  1  0.491830  0.723660  0.784100  1.0  -0.0163
  C  C200  1  0.415110  0.728240  0.654100  1.0  0.0205
  C  C201  1  0.562500  0.723800  0.939200  1.0  0.6648
  C  C202  1  0.371770  0.706900  0.684800  1.0  -0.0616
  C  C203  1  0.328480  0.727230  0.658200  1.0  -0.0838
  C  C204  1  0.286100  0.699800  0.706800  1.0  0.6709
  C  C205  1  0.987710  0.921770  0.177800  1.0  0.7001
  C  C206  1  0.994950  0.871150  0.217500  1.0  -0.1338
  C  C207  1  0.033960  0.845900  0.166200  1.0  -0.0219
  C  C208  1  0.963710  0.849320  0.305400  1.0  0.0293
  C  C209  1  0.040740  0.798490  0.199400  1.0  0.0222
  C  C210  1  0.970450  0.801000  0.340100  1.0  -0.14
  C  C211  1  0.008170  0.776340  0.284100  1.0  -0.0156
  C  C212  1  0.084890  0.771760  0.154100  1.0  0.0219
  C  C213  1  0.937500  0.776200  0.439200  1.0  0.6657
  C  C214  1  0.128230  0.793100  0.184800  1.0  -0.0631
  C  C215  1  0.171520  0.772770  0.158200  1.0  -0.0847
  C  C216  1  0.213900  0.800200  0.206800  1.0  0.6711
  C  C217  1  0.487710  0.421770  0.677800  1.0  0.7003
  C  C218  1  0.494950  0.371150  0.717500  1.0  -0.1338
  C  C219  1  0.533960  0.345900  0.666200  1.0  -0.0219
  C  C220  1  0.463710  0.349320  0.805400  1.0  0.0293
  C  C221  1  0.540740  0.298490  0.699400  1.0  0.0222
  C  C222  1  0.470450  0.301000  0.840100  1.0  -0.14
  C  C223  1  0.508170  0.276340  0.784100  1.0  -0.0156
  C  C224  1  0.584890  0.271760  0.654100  1.0  0.0219
  C  C225  1  0.437500  0.276200  0.939200  1.0  0.6657
  C  C226  1  0.628230  0.293100  0.684800  1.0  -0.0631
  C  C227  1  0.671520  0.272770  0.658200  1.0  -0.0847
  C  C228  1  0.713900  0.300200  0.706800  1.0  0.6711
  C  C229  1  0.421770  0.512290  0.322200  1.0  0.6993
  C  C230  1  0.371150  0.505050  0.282500  1.0  -0.1341
  C  C231  1  0.345900  0.466040  0.333800  1.0  -0.0214
  C  C232  1  0.349320  0.536290  0.194600  1.0  0.0318
  C  C233  1  0.298490  0.459260  0.300600  1.0  0.0198
  C  C234  1  0.301000  0.529550  0.159900  1.0  -0.1386
  C  C235  1  0.276340  0.491830  0.215900  1.0  -0.0159
  C  C236  1  0.271760  0.415110  0.345900  1.0  0.0219
  C  C237  1  0.276200  0.562500  0.060800  1.0  0.662
  C  C238  1  0.293100  0.371770  0.315200  1.0  -0.0602
  C  C239  1  0.272770  0.328480  0.341800  1.0  -0.0839
  C  C240  1  0.300200  0.286100  0.293200  1.0  0.6734
  C  C241  1  0.921770  0.012290  0.822200  1.0  0.6992
  C  C242  1  0.871150  0.005050  0.782500  1.0  -0.1341
  C  C243  1  0.845900  0.966040  0.833800  1.0  -0.0214
  C  C244  1  0.849320  0.036290  0.694600  1.0  0.0318
  C  C245  1  0.798490  0.959260  0.800600  1.0  0.0198
  C  C246  1  0.801000  0.029550  0.659900  1.0  -0.1386
  C  C247  1  0.776340  0.991830  0.715900  1.0  -0.0159
  C  C248  1  0.771760  0.915110  0.845900  1.0  0.0219
  C  C249  1  0.776200  0.062500  0.560800  1.0  0.6636
  C  C250  1  0.793100  0.871770  0.815200  1.0  -0.0602
  C  C251  1  0.772770  0.828480  0.841800  1.0  -0.0839
  C  C252  1  0.800200  0.786100  0.793200  1.0  0.6734
  C  C253  1  0.578230  0.487710  0.322200  1.0  0.7015
  C  C254  1  0.628850  0.494950  0.282500  1.0  -0.1327
  C  C255  1  0.654100  0.533960  0.333800  1.0  -0.0216
  C  C256  1  0.650680  0.463710  0.194600  1.0  0.0316
  C  C257  1  0.701510  0.540740  0.300600  1.0  0.0211
  C  C258  1  0.699000  0.470450  0.159900  1.0  -0.1392
  C  C259  1  0.723660  0.508170  0.215900  1.0  -0.0198
  C  C260  1  0.728240  0.584890  0.345900  1.0  0.0208
  C  C261  1  0.723800  0.437500  0.060800  1.0  0.6648
  C  C262  1  0.706900  0.628230  0.315200  1.0  -0.0611
  C  C263  1  0.727230  0.671520  0.341800  1.0  -0.0839
  C  C264  1  0.699800  0.713900  0.293200  1.0  0.6723
  C  C265  1  0.078230  0.987710  0.822200  1.0  0.7013
  C  C266  1  0.128850  0.994950  0.782500  1.0  -0.1327
  C  C267  1  0.154100  0.033960  0.833800  1.0  -0.0216
  C  C268  1  0.150680  0.963710  0.694600  1.0  0.0316
  C  C269  1  0.201510  0.040740  0.800600  1.0  0.0211
  C  C270  1  0.199000  0.970450  0.659900  1.0  -0.1392
  C  C271  1  0.223660  0.008170  0.715900  1.0  -0.0198
  C  C272  1  0.228240  0.084890  0.845900  1.0  0.0208
  C  C273  1  0.223800  0.937500  0.560800  1.0  0.6648
  C  C274  1  0.206900  0.128230  0.815200  1.0  -0.0611
  C  C275  1  0.227230  0.171520  0.841800  1.0  -0.0839
  C  C276  1  0.199800  0.213900  0.793200  1.0  0.6723
  O  O277  1  0.514450  0.061240  0.664000  1.0  -0.5604
  O  O278  1  0.456550  0.054870  0.511200  1.0  -0.5006
  O  O279  1  0.405420  0.199380  0.253700  1.0  -0.5595
  O  O280  1  0.442250  0.265670  0.286100  1.0  -0.5213
  O  O281  1  0.706290  0.163010  0.479500  1.0  -0.5697
  O  O282  1  0.755370  0.214800  0.559900  1.0  -0.4324
  O  O283  1  0.014450  0.561240  0.164000  1.0  -0.5604
  O  O284  1  0.956550  0.554870  0.011200  1.0  -0.5006
  O  O285  1  0.905420  0.699380  0.753700  1.0  -0.5595
  O  O286  1  0.942250  0.765670  0.786100  1.0  -0.5213
  O  O287  1  0.206290  0.663010  0.979500  1.0  -0.5697
  O  O288  1  0.255370  0.714800  0.059900  1.0  -0.4329
  O  O289  1  0.485550  0.938760  0.664000  1.0  -0.5608
  O  O290  1  0.543450  0.945130  0.511200  1.0  -0.5013
  O  O291  1  0.594580  0.800620  0.253700  1.0  -0.5585
  O  O292  1  0.557750  0.734330  0.286100  1.0  -0.5246
  O  O293  1  0.293710  0.836990  0.479500  1.0  -0.5692
  O  O294  1  0.244630  0.785200  0.559900  1.0  -0.425
  O  O295  1  0.985550  0.438760  0.164000  1.0  -0.5609
  O  O296  1  0.043450  0.445130  0.011200  1.0  -0.5013
  O  O297  1  0.094580  0.300620  0.753700  1.0  -0.5585
  O  O298  1  0.057750  0.234330  0.786100  1.0  -0.5246
  O  O299  1  0.793710  0.336990  0.979500  1.0  -0.5692
  O  O300  1  0.744630  0.285200  0.059900  1.0  -0.4245
  O  O301  1  0.061240  0.485550  0.336000  1.0  -0.56
  O  O302  1  0.054870  0.543450  0.488800  1.0  -0.5018
  O  O303  1  0.199380  0.594580  0.746300  1.0  -0.5584
  O  O304  1  0.265670  0.557750  0.713900  1.0  -0.5253
  O  O305  1  0.163010  0.293710  0.520500  1.0  -0.5689
  O  O306  1  0.214800  0.244630  0.440100  1.0  -0.4242
  O  O307  1  0.561240  0.985550  0.836000  1.0  -0.56
  O  O308  1  0.554870  0.043450  0.988800  1.0  -0.5018
  O  O309  1  0.699380  0.094580  0.246300  1.0  -0.5584
  O  O310  1  0.765670  0.057750  0.213900  1.0  -0.5253
  O  O311  1  0.663010  0.793710  0.020500  1.0  -0.5689
  O  O312  1  0.714800  0.744630  0.940100  1.0  -0.4248
  O  O313  1  0.938760  0.514450  0.336000  1.0  -0.5604
  O  O314  1  0.945130  0.456550  0.488800  1.0  -0.5019
  O  O315  1  0.800620  0.405420  0.746300  1.0  -0.5582
  O  O316  1  0.734330  0.442250  0.713900  1.0  -0.5286
  O  O317  1  0.836990  0.706290  0.520500  1.0  -0.5686
  O  O318  1  0.785200  0.755370  0.440100  1.0  -0.4267
  O  O319  1  0.438760  0.014450  0.836000  1.0  -0.5604
  O  O320  1  0.445130  0.956550  0.988800  1.0  -0.5019
  O  O321  1  0.300620  0.905420  0.246300  1.0  -0.5582
  O  O322  1  0.234330  0.942250  0.213900  1.0  -0.5286
  O  O323  1  0.336990  0.206290  0.020500  1.0  -0.5686
  O  O324  1  0.285200  0.255370  0.940100  1.0  -0.4268
  O  O325  1  0.985550  0.061240  0.086000  1.0  -0.5607
  O  O326  1  0.043450  0.054870  0.238800  1.0  -0.5035
  O  O327  1  0.094580  0.199380  0.496300  1.0  -0.5588
  O  O328  1  0.057750  0.265670  0.463900  1.0  -0.5223
  O  O329  1  0.793710  0.163010  0.270500  1.0  -0.5694
  O  O330  1  0.744630  0.214800  0.190100  1.0  -0.426
  O  O331  1  0.485550  0.561240  0.586000  1.0  -0.5608
  O  O332  1  0.543450  0.554870  0.738800  1.0  -0.5031
  O  O333  1  0.594580  0.699380  0.996300  1.0  -0.5588
  O  O334  1  0.557750  0.765670  0.963900  1.0  -0.5223
  O  O335  1  0.293710  0.663010  0.770500  1.0  -0.5694
  O  O336  1  0.244630  0.714800  0.690100  1.0  -0.426
  O  O337  1  0.014450  0.938760  0.086000  1.0  -0.5608
  O  O338  1  0.956550  0.945130  0.238800  1.0  -0.5017
  O  O339  1  0.905420  0.800620  0.496300  1.0  -0.5588
  O  O340  1  0.942250  0.734330  0.463900  1.0  -0.5243
  O  O341  1  0.206290  0.836990  0.270500  1.0  -0.5691
  O  O342  1  0.255370  0.785200  0.190100  1.0  -0.4334
  O  O343  1  0.514450  0.438760  0.586000  1.0  -0.5607
  O  O344  1  0.456550  0.445130  0.738800  1.0  -0.5017
  O  O345  1  0.405420  0.300620  0.996300  1.0  -0.5588
  O  O346  1  0.442250  0.234330  0.963900  1.0  -0.5243
  O  O347  1  0.706290  0.336990  0.770500  1.0  -0.5691
  O  O348  1  0.755370  0.285200  0.690100  1.0  -0.4334
  O  O349  1  0.438760  0.485550  0.414000  1.0  -0.5595
  O  O350  1  0.445130  0.543450  0.261200  1.0  -0.5011
  O  O351  1  0.300620  0.594580  0.003700  1.0  -0.558
  O  O352  1  0.234330  0.557750  0.036100  1.0  -0.5281
  O  O353  1  0.336990  0.293710  0.229500  1.0  -0.5689
  O  O354  1  0.285200  0.244630  0.309900  1.0  -0.4251
  O  O355  1  0.938760  0.985550  0.914000  1.0  -0.5594
  O  O356  1  0.945130  0.043450  0.761200  1.0  -0.5011
  O  O357  1  0.800620  0.094580  0.503700  1.0  -0.558
  O  O358  1  0.734330  0.057750  0.536100  1.0  -0.5281
  O  O359  1  0.836990  0.793710  0.729500  1.0  -0.5689
  O  O360  1  0.785200  0.744630  0.809900  1.0  -0.4251
  O  O361  1  0.561240  0.514450  0.414000  1.0  -0.5599
  O  O362  1  0.554870  0.456550  0.261200  1.0  -0.5008
  O  O363  1  0.699380  0.405420  0.003700  1.0  -0.559
  O  O364  1  0.765670  0.442250  0.036100  1.0  -0.5249
  O  O365  1  0.663010  0.706290  0.229500  1.0  -0.569
  O  O366  1  0.714800  0.755370  0.309900  1.0  -0.4266
  O  O367  1  0.061240  0.014450  0.914000  1.0  -0.5599
  O  O368  1  0.054870  0.956550  0.761200  1.0  -0.5008
  O  O369  1  0.199380  0.905420  0.503700  1.0  -0.559
  O  O370  1  0.265670  0.942250  0.536100  1.0  -0.5249
  O  O371  1  0.163010  0.206290  0.729500  1.0  -0.569
  O  O372  1  0.214800  0.255370  0.809900  1.0  -0.4266
