# generated using pymatgen
data_MnH18C30N2(O2F3)2
_symmetry_space_group_name_H-M   'P 1'
_cell_length_a   22.20030000
_cell_length_b   22.20030000
_cell_length_c   7.72980000
_cell_angle_alpha   90.00000000
_cell_angle_beta   90.00000000
_cell_angle_gamma   120.00000000
_symmetry_Int_Tables_number   1
_chemical_formula_structural   MnH18C30N2(O2F3)2
_chemical_formula_sum   'Mn3 H54 C90 N6 O12 F18'
_cell_volume   3299.26025581
_cell_formula_units_Z   3
loop_
 _symmetry_equiv_pos_site_id
 _symmetry_equiv_pos_as_xyz
  1  'x, y, z'
loop_
 _atom_site_type_symbol
 _atom_site_label
 _atom_site_symmetry_multiplicity
 _atom_site_fract_x
 _atom_site_fract_y
 _atom_site_fract_z
 _atom_site_occupancy
 _atom_site_charge
  Mn  Mn1  1  0.500000  0.000000  0.500000  1.0  1.0585
  Mn  Mn2  1  0.000000  0.500000  0.500000  1.0  1.0585
  Mn  Mn3  1  0.500000  0.500000  0.500000  1.0  1.0585
  H  H4  1  0.456600  0.835200  0.868600  1.0  0.0968
  H  H5  1  0.515000  0.612300  0.915300  1.0  0.1141
  H  H6  1  0.505800  0.533500  0.115500  1.0  0.0806
  H  H7  1  0.589000  0.866900  0.407100  1.0  0.108
  H  H8  1  0.441000  0.749900  0.060400  1.0  0.1244
  H  H9  1  0.594600  0.808500  0.604700  1.0  0.1082
  H  H10  1  0.575200  0.718000  0.786500  1.0  0.1005
  H  H11  1  0.488200  0.717000  0.296500  1.0  0.1288
  H  H12  1  0.487800  0.639300  0.482400  1.0  0.0601
  H  H13  1  0.164800  0.621400  0.868600  1.0  0.0948
  H  H14  1  0.387700  0.902700  0.915300  1.0  0.1148
  H  H15  1  0.466500  0.972300  0.115500  1.0  0.0808
  H  H16  1  0.133100  0.722100  0.407100  1.0  0.1072
  H  H17  1  0.250100  0.691100  0.060400  1.0  0.1238
  H  H18  1  0.191500  0.786100  0.604700  1.0  0.1091
  H  H19  1  0.282000  0.857200  0.786500  1.0  0.1012
  H  H20  1  0.283000  0.771200  0.296500  1.0  0.1294
  H  H21  1  0.360700  0.848500  0.482400  1.0  0.0594
  H  H22  1  0.378600  0.543400  0.868600  1.0  0.0962
  H  H23  1  0.097300  0.485000  0.915300  1.0  0.1146
  H  H24  1  0.027700  0.494200  0.115500  1.0  0.0838
  H  H25  1  0.277900  0.411000  0.407100  1.0  0.1077
  H  H26  1  0.308900  0.559000  0.060400  1.0  0.1228
  H  H27  1  0.213900  0.405400  0.604700  1.0  0.1089
  H  H28  1  0.142800  0.424800  0.786500  1.0  0.1003
  H  H29  1  0.228800  0.511800  0.296500  1.0  0.1298
  H  H30  1  0.151500  0.512200  0.482400  1.0  0.0595
  H  H31  1  0.543400  0.164800  0.131400  1.0  0.0968
  H  H32  1  0.485000  0.387700  0.084700  1.0  0.1138
  H  H33  1  0.494200  0.466500  0.884500  1.0  0.0804
  H  H34  1  0.411000  0.133100  0.592900  1.0  0.1089
  H  H35  1  0.559000  0.250100  0.939600  1.0  0.1242
  H  H36  1  0.405400  0.191500  0.395300  1.0  0.1074
  H  H37  1  0.424800  0.282000  0.213500  1.0  0.0999
  H  H38  1  0.511800  0.283000  0.703500  1.0  0.1288
  H  H39  1  0.512200  0.360700  0.517600  1.0  0.0604
  H  H40  1  0.835200  0.378600  0.131400  1.0  0.0946
  H  H41  1  0.612300  0.097300  0.084700  1.0  0.1141
  H  H42  1  0.533500  0.027700  0.884500  1.0  0.0808
  H  H43  1  0.866900  0.277900  0.592900  1.0  0.1076
  H  H44  1  0.749900  0.308900  0.939600  1.0  0.1239
  H  H45  1  0.808500  0.213900  0.395300  1.0  0.1078
  H  H46  1  0.718000  0.142800  0.213500  1.0  0.1005
  H  H47  1  0.717000  0.228800  0.703500  1.0  0.1294
  H  H48  1  0.639300  0.151500  0.517600  1.0  0.0602
  H  H49  1  0.621400  0.456600  0.131400  1.0  0.0956
  H  H50  1  0.902700  0.515000  0.084700  1.0  0.1143
  H  H51  1  0.972300  0.505800  0.884500  1.0  0.0823
  H  H52  1  0.722100  0.589000  0.592900  1.0  0.1071
  H  H53  1  0.691100  0.441000  0.939600  1.0  0.1232
  H  H54  1  0.786100  0.594600  0.395300  1.0  0.1088
  H  H55  1  0.857200  0.575200  0.213500  1.0  0.1006
  H  H56  1  0.771200  0.488200  0.703500  1.0  0.1291
  H  H57  1  0.848500  0.487800  0.517600  1.0  0.0614
  C  C58  1  0.481800  0.812500  0.854500  1.0  -0.0292
  C  C59  1  0.528100  0.830500  0.712500  1.0  -0.0765
  C  C60  1  0.535400  0.885900  0.592000  1.0  0.3368
  C  C61  1  0.510400  0.620000  0.031500  1.0  -0.2115
  C  C62  1  0.505900  0.573300  0.153800  1.0  0.1766
  C  C63  1  0.633500  0.956400  0.167300  1.0  0.5159
  C  C64  1  0.592700  0.953800  0.323800  1.0  0.3145
  C  C65  1  0.514000  0.730300  0.953900  1.0  0.0519
  C  C66  1  0.574600  0.898400  0.435800  1.0  -0.1347
  C  C67  1  0.473200  0.762500  0.971200  1.0  -0.1295
  C  C68  1  0.563100  0.796800  0.695300  1.0  -0.1296
  C  C69  1  0.553900  0.744100  0.809500  1.0  -0.1377
  C  C70  1  0.495500  0.681700  0.256400  1.0  -0.2146
  C  C71  1  0.494400  0.634200  0.365600  1.0  0.1919
  C  C72  1  0.507900  0.676900  0.079700  1.0  0.1136
  C  C73  1  0.187500  0.669300  0.854500  1.0  -0.028
  C  C74  1  0.169500  0.697600  0.712500  1.0  -0.0738
  C  C75  1  0.114100  0.649500  0.592000  1.0  0.3346
  C  C76  1  0.380000  0.890400  0.031500  1.0  -0.2109
  C  C77  1  0.426700  0.932600  0.153800  1.0  0.1762
  C  C78  1  0.043600  0.677100  0.167300  1.0  0.5172
  C  C79  1  0.046200  0.638900  0.323800  1.0  0.3099
  C  C80  1  0.269700  0.783700  0.953900  1.0  0.0507
  C  C81  1  0.101600  0.676200  0.435800  1.0  -0.1405
  C  C82  1  0.237500  0.710700  0.971200  1.0  -0.1299
  C  C83  1  0.203200  0.766300  0.695300  1.0  -0.1303
  C  C84  1  0.255900  0.809800  0.809500  1.0  -0.1387
  C  C85  1  0.318300  0.813800  0.256400  1.0  -0.2162
  C  C86  1  0.365800  0.860200  0.365600  1.0  0.1934
  C  C87  1  0.323100  0.831000  0.079700  1.0  0.1112
  C  C88  1  0.330700  0.518200  0.854500  1.0  -0.0301
  C  C89  1  0.302400  0.471900  0.712500  1.0  -0.0741
  C  C90  1  0.350500  0.464600  0.592000  1.0  0.3348
  C  C91  1  0.109600  0.489600  0.031500  1.0  -0.2126
  C  C92  1  0.067400  0.494100  0.153800  1.0  0.1753
  C  C93  1  0.322900  0.366500  0.167300  1.0  0.5212
  C  C94  1  0.361100  0.407300  0.323800  1.0  0.3096
  C  C95  1  0.216300  0.486000  0.953900  1.0  0.053
  C  C96  1  0.323800  0.425400  0.435800  1.0  -0.1401
  C  C97  1  0.289300  0.526800  0.971200  1.0  -0.1301
  C  C98  1  0.233700  0.436900  0.695300  1.0  -0.1313
  C  C99  1  0.190200  0.446100  0.809500  1.0  -0.1389
  C  C100  1  0.186200  0.504500  0.256400  1.0  -0.2154
  C  C101  1  0.139800  0.505600  0.365600  1.0  0.194
  C  C102  1  0.169000  0.492100  0.079700  1.0  0.1118
  C  C103  1  0.518200  0.187500  0.145500  1.0  -0.0311
  C  C104  1  0.471900  0.169500  0.287500  1.0  -0.0758
  C  C105  1  0.464600  0.114100  0.408000  1.0  0.3343
  C  C106  1  0.489600  0.380000  0.968500  1.0  -0.2102
  C  C107  1  0.494100  0.426700  0.846200  1.0  0.1771
  C  C108  1  0.366500  0.043600  0.832700  1.0  0.5158
  C  C109  1  0.407300  0.046200  0.676200  1.0  0.3126
  C  C110  1  0.486000  0.269700  0.046100  1.0  0.0521
  C  C111  1  0.425400  0.101600  0.564200  1.0  -0.1364
  C  C112  1  0.526800  0.237500  0.028800  1.0  -0.1289
  C  C113  1  0.436900  0.203200  0.304700  1.0  -0.1271
  C  C114  1  0.446100  0.255900  0.190500  1.0  -0.1383
  C  C115  1  0.504500  0.318300  0.743600  1.0  -0.2166
  C  C116  1  0.505600  0.365800  0.634400  1.0  0.1931
  C  C117  1  0.492100  0.323100  0.920300  1.0  0.1134
  C  C118  1  0.812500  0.330700  0.145500  1.0  -0.029
  C  C119  1  0.830500  0.302400  0.287500  1.0  -0.0742
  C  C120  1  0.885900  0.350500  0.408000  1.0  0.3362
  C  C121  1  0.620000  0.109600  0.968500  1.0  -0.2095
  C  C122  1  0.573300  0.067400  0.846200  1.0  0.1757
  C  C123  1  0.956400  0.322900  0.832700  1.0  0.5219
  C  C124  1  0.953800  0.361100  0.676200  1.0  0.3093
  C  C125  1  0.730300  0.216300  0.046100  1.0  0.0512
  C  C126  1  0.898400  0.323800  0.564200  1.0  -0.1411
  C  C127  1  0.762500  0.289300  0.028800  1.0  -0.1298
  C  C128  1  0.796800  0.233700  0.304700  1.0  -0.1309
  C  C129  1  0.744100  0.190200  0.190500  1.0  -0.1391
  C  C130  1  0.681700  0.186200  0.743600  1.0  -0.2164
  C  C131  1  0.634200  0.139800  0.634400  1.0  0.193
  C  C132  1  0.676900  0.169000  0.920300  1.0  0.1112
  C  C133  1  0.669300  0.481800  0.145500  1.0  -0.0286
  C  C134  1  0.697600  0.528100  0.287500  1.0  -0.0754
  C  C135  1  0.649500  0.535400  0.408000  1.0  0.3377
  C  C136  1  0.890400  0.510400  0.968500  1.0  -0.2099
  C  C137  1  0.932600  0.505900  0.846200  1.0  0.1744
  C  C138  1  0.677100  0.633500  0.832700  1.0  0.5166
  C  C139  1  0.638900  0.592700  0.676200  1.0  0.3099
  C  C140  1  0.783700  0.514000  0.046100  1.0  0.0525
  C  C141  1  0.676200  0.574600  0.564200  1.0  -0.1393
  C  C142  1  0.710700  0.473200  0.028800  1.0  -0.1297
  C  C143  1  0.766300  0.563100  0.304700  1.0  -0.13
  C  C144  1  0.809800  0.553900  0.190500  1.0  -0.1405
  C  C145  1  0.813800  0.495500  0.743600  1.0  -0.2165
  C  C146  1  0.860200  0.494400  0.634400  1.0  0.1922
  C  C147  1  0.831000  0.507900  0.920300  1.0  0.1108
  N  N148  1  0.501800  0.580600  0.321400  1.0  -0.3151
  N  N149  1  0.419400  0.921200  0.321400  1.0  -0.3178
  N  N150  1  0.078800  0.498200  0.321400  1.0  -0.3128
  N  N151  1  0.498200  0.419400  0.678600  1.0  -0.3153
  N  N152  1  0.580600  0.078800  0.678600  1.0  -0.318
  N  N153  1  0.921200  0.501800  0.678600  1.0  -0.3134
  O  O154  1  0.504800  0.919100  0.636400  1.0  -0.6024
  O  O155  1  0.577500  0.000900  0.332600  1.0  -0.5773
  O  O156  1  0.080900  0.585700  0.636400  1.0  -0.6021
  O  O157  1  0.999100  0.576600  0.332600  1.0  -0.5744
  O  O158  1  0.414300  0.495200  0.636400  1.0  -0.6037
  O  O159  1  0.423400  0.422500  0.332600  1.0  -0.5741
  O  O160  1  0.495200  0.080900  0.363600  1.0  -0.6036
  O  O161  1  0.422500  0.999100  0.667400  1.0  -0.5763
  O  O162  1  0.919100  0.414300  0.363600  1.0  -0.6036
  O  O163  1  0.000900  0.423400  0.667400  1.0  -0.5764
  O  O164  1  0.585700  0.504800  0.363600  1.0  -0.6025
  O  O165  1  0.576600  0.577500  0.667400  1.0  -0.5743
  F  F166  1  0.599700  0.956300  0.019800  1.0  -0.2177
  F  F167  1  0.648600  0.906200  0.151100  1.0  -0.1775
  F  F168  1  0.692500  0.015000  0.162500  1.0  -0.1875
  F  F169  1  0.043700  0.643400  0.019800  1.0  -0.2163
  F  F170  1  0.093800  0.742400  0.151100  1.0  -0.1831
  F  F171  1  0.985000  0.677500  0.162500  1.0  -0.1925
  F  F172  1  0.356600  0.400300  0.019800  1.0  -0.2163
  F  F173  1  0.257600  0.351400  0.151100  1.0  -0.1824
  F  F174  1  0.322500  0.307500  0.162500  1.0  -0.1905
  F  F175  1  0.400300  0.043700  0.980200  1.0  -0.216
  F  F176  1  0.351400  0.093800  0.848900  1.0  -0.1808
  F  F177  1  0.307500  0.985000  0.837500  1.0  -0.1879
  F  F178  1  0.956300  0.356600  0.980200  1.0  -0.2167
  F  F179  1  0.906200  0.257600  0.848900  1.0  -0.1792
  F  F180  1  0.015000  0.322500  0.837500  1.0  -0.1885
  F  F181  1  0.643400  0.599700  0.980200  1.0  -0.2163
  F  F182  1  0.742400  0.648600  0.848900  1.0  -0.1776
  F  F183  1  0.677500  0.692500  0.837500  1.0  -0.1901
