# generated using pymatgen
data_LaH11(C7O2)3
_symmetry_space_group_name_H-M   'P 1'
_cell_length_a   33.69000000
_cell_length_b   12.97000000
_cell_length_c   14.77100000
_cell_angle_alpha   90.00000000
_cell_angle_beta   101.57200000
_cell_angle_gamma   90.00000000
_symmetry_Int_Tables_number   1
_chemical_formula_structural   LaH11(C7O2)3
_chemical_formula_sum   'La8 H88 C168 O48'
_cell_volume   6323.13130710
_cell_formula_units_Z   8
loop_
 _symmetry_equiv_pos_site_id
 _symmetry_equiv_pos_as_xyz
  1  'x, y, z'
loop_
 _atom_site_type_symbol
 _atom_site_label
 _atom_site_symmetry_multiplicity
 _atom_site_fract_x
 _atom_site_fract_y
 _atom_site_fract_z
 _atom_site_occupancy
 _atom_site_charge
  La  La1  1  0.309130  0.199770  0.051110  1.0  2.137
  La  La2  1  0.809130  0.699770  0.051110  1.0  2.137
  La  La3  1  0.690870  0.199770  0.448890  1.0  2.1385
  La  La4  1  0.190870  0.699770  0.448890  1.0  2.1385
  La  La5  1  0.690870  0.800230  0.948890  1.0  2.1387
  La  La6  1  0.190870  0.300230  0.948890  1.0  2.1387
  La  La7  1  0.309130  0.800230  0.551110  1.0  2.1374
  La  La8  1  0.809130  0.300230  0.551110  1.0  2.1374
  H  H9  1  0.237100  0.557100  0.203700  1.0  0.1057
  H  H10  1  0.345500  0.690800  0.291300  1.0  0.0962
  H  H11  1  0.330900  0.482100  0.085900  1.0  0.1016
  H  H12  1  0.390400  0.761100  0.209400  1.0  0.1067
  H  H13  1  0.452800  0.799400  0.174400  1.0  0.1049
  H  H14  1  0.463400  0.505900  0.101800  1.0  0.1012
  H  H15  1  0.400500  0.470000  0.130800  1.0  0.0991
  H  H16  1  0.494300  0.835000  0.084400  1.0  0.1127
  H  H17  1  0.554000  0.872800  0.038700  1.0  0.0972
  H  H18  1  0.586200  0.579300  0.060600  1.0  0.0944
  H  H19  1  0.528200  0.540900  0.114900  1.0  0.1068
  H  H20  1  0.737100  0.057100  0.203700  1.0  0.1057
  H  H21  1  0.845500  0.190800  0.291300  1.0  0.0962
  H  H22  1  0.830900  0.982100  0.085900  1.0  0.1016
  H  H23  1  0.890400  0.261100  0.209400  1.0  0.1067
  H  H24  1  0.952800  0.299400  0.174400  1.0  0.1049
  H  H25  1  0.963400  0.005900  0.101800  1.0  0.1012
  H  H26  1  0.900500  0.970000  0.130800  1.0  0.0991
  H  H27  1  0.994300  0.335000  0.084400  1.0  0.1127
  H  H28  1  0.054000  0.372800  0.038700  1.0  0.0972
  H  H29  1  0.086200  0.079300  0.060600  1.0  0.0944
  H  H30  1  0.028200  0.040900  0.114900  1.0  0.1068
  H  H31  1  0.762900  0.557100  0.296300  1.0  0.1067
  H  H32  1  0.654500  0.690800  0.208700  1.0  0.0971
  H  H33  1  0.669100  0.482100  0.414100  1.0  0.1018
  H  H34  1  0.609600  0.761100  0.290600  1.0  0.1067
  H  H35  1  0.547200  0.799400  0.325600  1.0  0.1054
  H  H36  1  0.536600  0.505900  0.398200  1.0  0.1019
  H  H37  1  0.599500  0.470000  0.369200  1.0  0.1
  H  H38  1  0.505700  0.835000  0.415600  1.0  0.1126
  H  H39  1  0.446000  0.872800  0.461300  1.0  0.0971
  H  H40  1  0.413800  0.579300  0.439400  1.0  0.0938
  H  H41  1  0.471800  0.540900  0.385100  1.0  0.1071
  H  H42  1  0.262900  0.057100  0.296300  1.0  0.1067
  H  H43  1  0.154500  0.190800  0.208700  1.0  0.0971
  H  H44  1  0.169100  0.982100  0.414100  1.0  0.1018
  H  H45  1  0.109600  0.261100  0.290600  1.0  0.1067
  H  H46  1  0.047200  0.299400  0.325600  1.0  0.1054
  H  H47  1  0.036600  0.005900  0.398200  1.0  0.1019
  H  H48  1  0.099500  0.970000  0.369200  1.0  0.1
  H  H49  1  0.005700  0.335000  0.415600  1.0  0.1126
  H  H50  1  0.946000  0.372800  0.461300  1.0  0.0971
  H  H51  1  0.913800  0.079300  0.439400  1.0  0.0938
  H  H52  1  0.971800  0.040900  0.385100  1.0  0.1071
  H  H53  1  0.762900  0.442900  0.796300  1.0  0.1067
  H  H54  1  0.654500  0.309200  0.708700  1.0  0.0968
  H  H55  1  0.669100  0.517900  0.914100  1.0  0.1017
  H  H56  1  0.609600  0.238900  0.790600  1.0  0.1067
  H  H57  1  0.547200  0.200600  0.825600  1.0  0.1053
  H  H58  1  0.536600  0.494100  0.898200  1.0  0.1012
  H  H59  1  0.599500  0.530000  0.869200  1.0  0.1003
  H  H60  1  0.505700  0.165000  0.915600  1.0  0.1123
  H  H61  1  0.446000  0.127200  0.961300  1.0  0.0972
  H  H62  1  0.413800  0.420700  0.939400  1.0  0.0951
  H  H63  1  0.471800  0.459100  0.885100  1.0  0.1063
  H  H64  1  0.262900  0.942900  0.796300  1.0  0.1067
  H  H65  1  0.154500  0.809200  0.708700  1.0  0.0968
  H  H66  1  0.169100  0.017900  0.914100  1.0  0.1017
  H  H67  1  0.109600  0.738900  0.790600  1.0  0.1067
  H  H68  1  0.047200  0.700600  0.825600  1.0  0.1053
  H  H69  1  0.036600  0.994100  0.898200  1.0  0.1012
  H  H70  1  0.099500  0.030000  0.869200  1.0  0.1003
  H  H71  1  0.005700  0.665000  0.915600  1.0  0.1123
  H  H72  1  0.946000  0.627200  0.961300  1.0  0.0972
  H  H73  1  0.913800  0.920700  0.939400  1.0  0.0951
  H  H74  1  0.971800  0.959100  0.885100  1.0  0.1063
  H  H75  1  0.237100  0.442900  0.703700  1.0  0.1054
  H  H76  1  0.345500  0.309200  0.791300  1.0  0.0965
  H  H77  1  0.330900  0.517900  0.585900  1.0  0.1016
  H  H78  1  0.390400  0.238900  0.709400  1.0  0.106
  H  H79  1  0.452800  0.200600  0.674400  1.0  0.1051
  H  H80  1  0.463400  0.494100  0.601800  1.0  0.1012
  H  H81  1  0.400500  0.530000  0.630800  1.0  0.0994
  H  H82  1  0.494300  0.165000  0.584400  1.0  0.1124
  H  H83  1  0.554000  0.127200  0.538700  1.0  0.0971
  H  H84  1  0.586200  0.420700  0.560600  1.0  0.0947
  H  H85  1  0.528200  0.459100  0.614900  1.0  0.1059
  H  H86  1  0.737100  0.942900  0.703700  1.0  0.1054
  H  H87  1  0.845500  0.809200  0.791300  1.0  0.0965
  H  H88  1  0.830900  0.017900  0.585900  1.0  0.1016
  H  H89  1  0.890400  0.738900  0.709400  1.0  0.106
  H  H90  1  0.952800  0.700600  0.674400  1.0  0.1051
  H  H91  1  0.963400  0.994100  0.601800  1.0  0.1012
  H  H92  1  0.900500  0.030000  0.630800  1.0  0.0994
  H  H93  1  0.994300  0.665000  0.584400  1.0  0.1124
  H  H94  1  0.054000  0.627200  0.538700  1.0  0.0971
  H  H95  1  0.086200  0.920700  0.560600  1.0  0.0947
  H  H96  1  0.028200  0.959100  0.614900  1.0  0.1059
  C  C97  1  0.252560  0.437900  0.069200  1.0  0.7558
  C  C98  1  0.280080  0.509200  0.134200  1.0  -0.1362
  C  C99  1  0.264200  0.564700  0.200000  1.0  0.0081
  C  C100  1  0.288930  0.630700  0.259300  1.0  -0.1356
  C  C101  1  0.329230  0.645100  0.251700  1.0  -0.0599
  C  C102  1  0.345460  0.591600  0.185200  1.0  0.0262
  C  C103  1  0.320310  0.521200  0.128300  1.0  -0.0651
  C  C104  1  0.272470  0.688700  0.333700  1.0  0.7596
  C  C105  1  0.387630  0.611300  0.171700  1.0  0.027
  C  C106  1  0.404640  0.709600  0.185700  1.0  -0.1456
  C  C107  1  0.442500  0.732800  0.165200  1.0  -0.1352
  C  C108  1  0.464790  0.657100  0.131100  1.0  0.012
  C  C109  1  0.448490  0.558800  0.121400  1.0  -0.1277
  C  C110  1  0.410600  0.536700  0.140000  1.0  -0.1378
  C  C111  1  0.503880  0.681900  0.102600  1.0  0.0436
  C  C112  1  0.512600  0.782400  0.080100  1.0  -0.158
  C  C113  1  0.548340  0.804700  0.051200  1.0  -0.0502
  C  C114  1  0.575730  0.728900  0.040300  1.0  -0.1293
  C  C115  1  0.567770  0.631600  0.065000  1.0  -0.0436
  C  C116  1  0.532400  0.608100  0.097000  1.0  -0.1271
  C  C117  1  0.613250  0.753400  0.003900  1.0  0.7135
  C  C118  1  0.752560  0.937900  0.069200  1.0  0.7558
  C  C119  1  0.780080  0.009200  0.134200  1.0  -0.1362
  C  C120  1  0.764200  0.064700  0.200000  1.0  0.0081
  C  C121  1  0.788930  0.130700  0.259300  1.0  -0.1356
  C  C122  1  0.829230  0.145100  0.251700  1.0  -0.0599
  C  C123  1  0.845460  0.091600  0.185200  1.0  0.0262
  C  C124  1  0.820310  0.021200  0.128300  1.0  -0.0651
  C  C125  1  0.772470  0.188700  0.333700  1.0  0.7596
  C  C126  1  0.887630  0.111300  0.171700  1.0  0.027
  C  C127  1  0.904640  0.209600  0.185700  1.0  -0.1456
  C  C128  1  0.942500  0.232800  0.165200  1.0  -0.1352
  C  C129  1  0.964790  0.157100  0.131100  1.0  0.012
  C  C130  1  0.948490  0.058800  0.121400  1.0  -0.1277
  C  C131  1  0.910600  0.036700  0.140000  1.0  -0.1378
  C  C132  1  0.003880  0.181900  0.102600  1.0  0.0436
  C  C133  1  0.012600  0.282400  0.080100  1.0  -0.158
  C  C134  1  0.048340  0.304700  0.051200  1.0  -0.0502
  C  C135  1  0.075730  0.228900  0.040300  1.0  -0.1293
  C  C136  1  0.067770  0.131600  0.065000  1.0  -0.0436
  C  C137  1  0.032400  0.108100  0.097000  1.0  -0.1271
  C  C138  1  0.113250  0.253400  0.003900  1.0  0.7135
  C  C139  1  0.747440  0.437900  0.430800  1.0  0.7566
  C  C140  1  0.719920  0.509200  0.365800  1.0  -0.1363
  C  C141  1  0.735800  0.564700  0.300000  1.0  0.01
  C  C142  1  0.711070  0.630700  0.240700  1.0  -0.1378
  C  C143  1  0.670770  0.645100  0.248300  1.0  -0.0611
  C  C144  1  0.654540  0.591600  0.314800  1.0  0.0261
  C  C145  1  0.679690  0.521200  0.371700  1.0  -0.0666
  C  C146  1  0.727530  0.688700  0.166300  1.0  0.7825
  C  C147  1  0.612370  0.611300  0.328300  1.0  0.0282
  C  C148  1  0.595360  0.709600  0.314300  1.0  -0.1457
  C  C149  1  0.557500  0.732800  0.334800  1.0  -0.1358
  C  C150  1  0.535210  0.657100  0.368900  1.0  0.012
  C  C151  1  0.551510  0.558800  0.378600  1.0  -0.1265
  C  C152  1  0.589400  0.536700  0.360000  1.0  -0.1362
  C  C153  1  0.496120  0.681900  0.397400  1.0  0.0438
  C  C154  1  0.487400  0.782400  0.419900  1.0  -0.1586
  C  C155  1  0.451660  0.804700  0.448800  1.0  -0.0515
  C  C156  1  0.424270  0.728900  0.459700  1.0  -0.1298
  C  C157  1  0.432230  0.631600  0.435000  1.0  -0.045
  C  C158  1  0.467600  0.608100  0.403000  1.0  -0.1265
  C  C159  1  0.386750  0.753400  0.496100  1.0  0.713
  C  C160  1  0.247440  0.937900  0.430800  1.0  0.7566
  C  C161  1  0.219920  0.009200  0.365800  1.0  -0.1363
  C  C162  1  0.235800  0.064700  0.300000  1.0  0.01
  C  C163  1  0.211070  0.130700  0.240700  1.0  -0.1378
  C  C164  1  0.170770  0.145100  0.248300  1.0  -0.0611
  C  C165  1  0.154540  0.091600  0.314800  1.0  0.0261
  C  C166  1  0.179690  0.021200  0.371700  1.0  -0.0666
  C  C167  1  0.227530  0.188700  0.166300  1.0  0.7825
  C  C168  1  0.112370  0.111300  0.328300  1.0  0.0282
  C  C169  1  0.095360  0.209600  0.314300  1.0  -0.1457
  C  C170  1  0.057500  0.232800  0.334800  1.0  -0.136
  C  C171  1  0.035210  0.157100  0.368900  1.0  0.012
  C  C172  1  0.051510  0.058800  0.378600  1.0  -0.1265
  C  C173  1  0.089400  0.036700  0.360000  1.0  -0.1362
  C  C174  1  0.996120  0.181900  0.397400  1.0  0.0438
  C  C175  1  0.987400  0.282400  0.419900  1.0  -0.1587
  C  C176  1  0.951660  0.304700  0.448800  1.0  -0.0515
  C  C177  1  0.924270  0.228900  0.459700  1.0  -0.1298
  C  C178  1  0.932230  0.131600  0.435000  1.0  -0.045
  C  C179  1  0.967600  0.108100  0.403000  1.0  -0.1265
  C  C180  1  0.886750  0.253400  0.496100  1.0  0.713
  C  C181  1  0.747440  0.562100  0.930800  1.0  0.7566
  C  C182  1  0.719920  0.490800  0.865800  1.0  -0.1362
  C  C183  1  0.735800  0.435300  0.800000  1.0  0.0103
  C  C184  1  0.711070  0.369300  0.740700  1.0  -0.1376
  C  C185  1  0.670770  0.354900  0.748300  1.0  -0.0601
  C  C186  1  0.654540  0.408400  0.814800  1.0  0.0262
  C  C187  1  0.679690  0.478800  0.871700  1.0  -0.0662
  C  C188  1  0.727530  0.311300  0.666300  1.0  0.7819
  C  C189  1  0.612370  0.388700  0.828300  1.0  0.028
  C  C190  1  0.595360  0.290400  0.814300  1.0  -0.1456
  C  C191  1  0.557500  0.267200  0.834800  1.0  -0.1349
  C  C192  1  0.535210  0.342900  0.868900  1.0  0.0123
  C  C193  1  0.551510  0.441200  0.878600  1.0  -0.1261
  C  C194  1  0.589400  0.463300  0.860000  1.0  -0.1367
  C  C195  1  0.496120  0.318100  0.897400  1.0  0.0437
  C  C196  1  0.487400  0.217600  0.919900  1.0  -0.1578
  C  C197  1  0.451660  0.195300  0.948800  1.0  -0.0551
  C  C198  1  0.424270  0.271100  0.959700  1.0  -0.1297
  C  C199  1  0.432230  0.368400  0.935000  1.0  -0.0401
  C  C200  1  0.467600  0.391900  0.903000  1.0  -0.1267
  C  C201  1  0.386750  0.246600  0.996100  1.0  0.7127
  C  C202  1  0.247440  0.062100  0.930800  1.0  0.7566
  C  C203  1  0.219920  0.990800  0.865800  1.0  -0.1362
  C  C204  1  0.235800  0.935300  0.800000  1.0  0.0103
  C  C205  1  0.211070  0.869300  0.740700  1.0  -0.1376
  C  C206  1  0.170770  0.854900  0.748300  1.0  -0.0601
  C  C207  1  0.154540  0.908400  0.814800  1.0  0.0262
  C  C208  1  0.179690  0.978800  0.871700  1.0  -0.0662
  C  C209  1  0.227530  0.811300  0.666300  1.0  0.7819
  C  C210  1  0.112370  0.888700  0.828300  1.0  0.028
  C  C211  1  0.095360  0.790400  0.814300  1.0  -0.1456
  C  C212  1  0.057500  0.767200  0.834800  1.0  -0.1348
  C  C213  1  0.035210  0.842900  0.868900  1.0  0.0123
  C  C214  1  0.051510  0.941200  0.878600  1.0  -0.1261
  C  C215  1  0.089400  0.963300  0.860000  1.0  -0.1367
  C  C216  1  0.996120  0.818100  0.897400  1.0  0.0437
  C  C217  1  0.987400  0.717600  0.919900  1.0  -0.1575
  C  C218  1  0.951660  0.695300  0.948800  1.0  -0.0551
  C  C219  1  0.924270  0.771100  0.959700  1.0  -0.1297
  C  C220  1  0.932230  0.868400  0.935000  1.0  -0.0401
  C  C221  1  0.967600  0.891900  0.903000  1.0  -0.1267
  C  C222  1  0.886750  0.746600  0.996100  1.0  0.7127
  C  C223  1  0.252560  0.562100  0.569200  1.0  0.7553
  C  C224  1  0.280080  0.490800  0.634200  1.0  -0.1358
  C  C225  1  0.264200  0.435300  0.700000  1.0  0.0082
  C  C226  1  0.288930  0.369300  0.759300  1.0  -0.1363
  C  C227  1  0.329230  0.354900  0.751700  1.0  -0.0595
  C  C228  1  0.345460  0.408400  0.685200  1.0  0.0263
  C  C229  1  0.320310  0.478800  0.628300  1.0  -0.0652
  C  C230  1  0.272470  0.311300  0.833700  1.0  0.7572
  C  C231  1  0.387630  0.388700  0.671700  1.0  0.027
  C  C232  1  0.404640  0.290400  0.685700  1.0  -0.1447
  C  C233  1  0.442500  0.267200  0.665200  1.0  -0.1377
  C  C234  1  0.464790  0.342900  0.631100  1.0  0.0117
  C  C235  1  0.448490  0.441200  0.621400  1.0  -0.1276
  C  C236  1  0.410600  0.463300  0.640000  1.0  -0.1378
  C  C237  1  0.503880  0.318100  0.602600  1.0  0.0432
  C  C238  1  0.512600  0.217600  0.580100  1.0  -0.1586
  C  C239  1  0.548340  0.195300  0.551200  1.0  -0.0525
  C  C240  1  0.575730  0.271100  0.540300  1.0  -0.1292
  C  C241  1  0.567770  0.368400  0.565000  1.0  -0.0434
  C  C242  1  0.532400  0.391900  0.597000  1.0  -0.128
  C  C243  1  0.613250  0.246600  0.503900  1.0  0.7131
  C  C244  1  0.752560  0.062100  0.569200  1.0  0.7553
  C  C245  1  0.780080  0.990800  0.634200  1.0  -0.1358
  C  C246  1  0.764200  0.935300  0.700000  1.0  0.0082
  C  C247  1  0.788930  0.869300  0.759300  1.0  -0.1363
  C  C248  1  0.829230  0.854900  0.751700  1.0  -0.0595
  C  C249  1  0.845460  0.908400  0.685200  1.0  0.0263
  C  C250  1  0.820310  0.978800  0.628300  1.0  -0.0652
  C  C251  1  0.772470  0.811300  0.833700  1.0  0.7572
  C  C252  1  0.887630  0.888700  0.671700  1.0  0.027
  C  C253  1  0.904640  0.790400  0.685700  1.0  -0.1447
  C  C254  1  0.942500  0.767200  0.665200  1.0  -0.1377
  C  C255  1  0.964790  0.842900  0.631100  1.0  0.0117
  C  C256  1  0.948490  0.941200  0.621400  1.0  -0.1276
  C  C257  1  0.910600  0.963300  0.640000  1.0  -0.1378
  C  C258  1  0.003880  0.818100  0.602600  1.0  0.0432
  C  C259  1  0.012600  0.717600  0.580100  1.0  -0.1586
  C  C260  1  0.048340  0.695300  0.551200  1.0  -0.0525
  C  C261  1  0.075730  0.771100  0.540300  1.0  -0.1292
  C  C262  1  0.067770  0.868400  0.565000  1.0  -0.0434
  C  C263  1  0.032400  0.891900  0.597000  1.0  -0.128
  C  C264  1  0.113250  0.746600  0.503900  1.0  0.7131
  O  O265  1  0.267860  0.360500  0.036400  1.0  -0.7883
  O  O266  1  0.215210  0.458000  0.049300  1.0  -0.6513
  O  O267  1  0.235780  0.671300  0.336500  1.0  -0.7379
  O  O268  1  0.296020  0.750000  0.384300  1.0  -0.6983
  O  O269  1  0.623530  0.846500  0.997100  1.0  -0.6589
  O  O270  1  0.633140  0.679500  0.978700  1.0  -0.6351
  O  O271  1  0.767860  0.860500  0.036400  1.0  -0.7883
  O  O272  1  0.715210  0.958000  0.049300  1.0  -0.6513
  O  O273  1  0.735780  0.171300  0.336500  1.0  -0.7379
  O  O274  1  0.796020  0.250000  0.384300  1.0  -0.6983
  O  O275  1  0.123530  0.346500  0.997100  1.0  -0.6589
  O  O276  1  0.133140  0.179500  0.978700  1.0  -0.6351
  O  O277  1  0.732140  0.360500  0.463600  1.0  -0.7876
  O  O278  1  0.784790  0.458000  0.450700  1.0  -0.6511
  O  O279  1  0.764220  0.671300  0.163500  1.0  -0.7401
  O  O280  1  0.703980  0.750000  0.115700  1.0  -0.6973
  O  O281  1  0.376470  0.846500  0.502900  1.0  -0.6612
  O  O282  1  0.366860  0.679500  0.521300  1.0  -0.6352
  O  O283  1  0.232140  0.860500  0.463600  1.0  -0.7876
  O  O284  1  0.284790  0.958000  0.450700  1.0  -0.6511
  O  O285  1  0.264220  0.171300  0.163500  1.0  -0.7401
  O  O286  1  0.203980  0.250000  0.115700  1.0  -0.6973
  O  O287  1  0.876470  0.346500  0.502900  1.0  -0.6612
  O  O288  1  0.866860  0.179500  0.521300  1.0  -0.6352
  O  O289  1  0.732140  0.639500  0.963600  1.0  -0.7881
  O  O290  1  0.784790  0.542000  0.950700  1.0  -0.6516
  O  O291  1  0.764220  0.328700  0.663500  1.0  -0.7403
  O  O292  1  0.703980  0.250000  0.615700  1.0  -0.6967
  O  O293  1  0.376470  0.153500  0.002900  1.0  -0.662
  O  O294  1  0.366860  0.320500  0.021300  1.0  -0.6325
  O  O295  1  0.232140  0.139500  0.963600  1.0  -0.7881
  O  O296  1  0.284790  0.042000  0.950700  1.0  -0.6516
  O  O297  1  0.264220  0.828700  0.663500  1.0  -0.7403
  O  O298  1  0.203980  0.750000  0.615700  1.0  -0.6967
  O  O299  1  0.876470  0.653500  0.002900  1.0  -0.662
  O  O300  1  0.866860  0.820500  0.021300  1.0  -0.6325
  O  O301  1  0.267860  0.639500  0.536400  1.0  -0.7883
  O  O302  1  0.215210  0.542000  0.549300  1.0  -0.6512
  O  O303  1  0.235780  0.328700  0.836500  1.0  -0.737
  O  O304  1  0.296020  0.250000  0.884300  1.0  -0.6976
  O  O305  1  0.623530  0.153500  0.497100  1.0  -0.6571
  O  O306  1  0.633140  0.320500  0.478700  1.0  -0.6327
  O  O307  1  0.767860  0.139500  0.536400  1.0  -0.7883
  O  O308  1  0.715210  0.042000  0.549300  1.0  -0.6512
  O  O309  1  0.735780  0.828700  0.836500  1.0  -0.737
  O  O310  1  0.796020  0.750000  0.884300  1.0  -0.6976
  O  O311  1  0.123530  0.653500  0.497100  1.0  -0.6571
  O  O312  1  0.133140  0.820500  0.478700  1.0  -0.6327
