# generated using pymatgen
data_TbH11(C7O2)3
_symmetry_space_group_name_H-M   'P 1'
_cell_length_a   33.13000000
_cell_length_b   13.57200000
_cell_length_c   14.04900000
_cell_angle_alpha   90.00000000
_cell_angle_beta   101.32400000
_cell_angle_gamma   90.00000000
_symmetry_Int_Tables_number   1
_chemical_formula_structural   TbH11(C7O2)3
_chemical_formula_sum   'Tb8 H88 C168 O48'
_cell_volume   6194.02123751
_cell_formula_units_Z   8
loop_
 _symmetry_equiv_pos_site_id
 _symmetry_equiv_pos_as_xyz
  1  'x, y, z'
loop_
 _atom_site_type_symbol
 _atom_site_label
 _atom_site_symmetry_multiplicity
 _atom_site_fract_x
 _atom_site_fract_y
 _atom_site_fract_z
 _atom_site_occupancy
 _atom_site_charge
  Tb  Tb1  1  0.307790  0.793910  0.045240  1.0  2.2221
  Tb  Tb2  1  0.807790  0.293910  0.045240  1.0  2.2217
  Tb  Tb3  1  0.692210  0.793910  0.454760  1.0  2.2215
  Tb  Tb4  1  0.192210  0.293910  0.454760  1.0  2.2214
  Tb  Tb5  1  0.692210  0.206090  0.954760  1.0  2.2171
  Tb  Tb6  1  0.192210  0.706090  0.954760  1.0  2.217
  Tb  Tb7  1  0.307790  0.206090  0.545240  1.0  2.212
  Tb  Tb8  1  0.807790  0.706090  0.545240  1.0  2.212
  H  H9  1  0.265200  0.046200  0.794400  1.0  0.113
  H  H10  1  0.156700  0.183000  0.713400  1.0  0.089
  H  H11  1  0.168900  0.972500  0.914800  1.0  0.0986
  H  H12  1  0.113100  0.248600  0.800900  1.0  0.1085
  H  H13  1  0.048900  0.283900  0.832100  1.0  0.0971
  H  H14  1  0.034900  0.003000  0.902000  1.0  0.1047
  H  H15  1  0.099200  0.966400  0.867100  1.0  0.1057
  H  H16  1  0.006200  0.316000  0.922400  1.0  0.1045
  H  H17  1  0.944000  0.356100  0.962200  1.0  0.1021
  H  H18  1  0.909600  0.077300  0.933000  1.0  0.0883
  H  H19  1  0.970400  0.036700  0.884500  1.0  0.1232
  H  H20  1  0.765200  0.546200  0.794400  1.0  0.113
  H  H21  1  0.656700  0.683000  0.713400  1.0  0.089
  H  H22  1  0.668900  0.472500  0.914800  1.0  0.0986
  H  H23  1  0.613100  0.748600  0.800900  1.0  0.1085
  H  H24  1  0.548900  0.783900  0.832100  1.0  0.0971
  H  H25  1  0.534900  0.503000  0.902000  1.0  0.1047
  H  H26  1  0.599200  0.466400  0.867100  1.0  0.1057
  H  H27  1  0.506200  0.816000  0.922400  1.0  0.1045
  H  H28  1  0.444000  0.856100  0.962200  1.0  0.1021
  H  H29  1  0.409600  0.577300  0.933000  1.0  0.0883
  H  H30  1  0.470400  0.536700  0.884500  1.0  0.1232
  H  H31  1  0.734800  0.046200  0.705600  1.0  0.1117
  H  H32  1  0.843300  0.183000  0.786600  1.0  0.0883
  H  H33  1  0.831100  0.972500  0.585200  1.0  0.0991
  H  H34  1  0.886900  0.248600  0.699100  1.0  0.1083
  H  H35  1  0.951100  0.283900  0.667900  1.0  0.0976
  H  H36  1  0.965100  0.003000  0.598000  1.0  0.1049
  H  H37  1  0.900800  0.966400  0.632900  1.0  0.1057
  H  H38  1  0.993800  0.316000  0.577600  1.0  0.1049
  H  H39  1  0.056000  0.356100  0.537800  1.0  0.1021
  H  H40  1  0.090400  0.077300  0.567000  1.0  0.0887
  H  H41  1  0.029600  0.036700  0.615500  1.0  0.1231
  H  H42  1  0.234800  0.546200  0.705600  1.0  0.1117
  H  H43  1  0.343300  0.683000  0.786600  1.0  0.0883
  H  H44  1  0.331100  0.472500  0.585200  1.0  0.0991
  H  H45  1  0.386900  0.748600  0.699100  1.0  0.1083
  H  H46  1  0.451100  0.783900  0.667900  1.0  0.0976
  H  H47  1  0.465100  0.503000  0.598000  1.0  0.1049
  H  H48  1  0.400800  0.466400  0.632900  1.0  0.1057
  H  H49  1  0.493800  0.816000  0.577600  1.0  0.1049
  H  H50  1  0.556000  0.856100  0.537800  1.0  0.1021
  H  H51  1  0.590400  0.577300  0.567000  1.0  0.0887
  H  H52  1  0.529600  0.536700  0.615500  1.0  0.1231
  H  H53  1  0.734800  0.953800  0.205600  1.0  0.1113
  H  H54  1  0.843300  0.817000  0.286600  1.0  0.0889
  H  H55  1  0.831100  0.027500  0.085200  1.0  0.0989
  H  H56  1  0.886900  0.751400  0.199100  1.0  0.1081
  H  H57  1  0.951100  0.716100  0.167900  1.0  0.0982
  H  H58  1  0.965100  0.997000  0.098000  1.0  0.104
  H  H59  1  0.900800  0.033600  0.132900  1.0  0.1057
  H  H60  1  0.993800  0.684000  0.077600  1.0  0.1043
  H  H61  1  0.056000  0.643900  0.037800  1.0  0.1027
  H  H62  1  0.090400  0.922700  0.067000  1.0  0.0887
  H  H63  1  0.029600  0.963300  0.115500  1.0  0.1224
  H  H64  1  0.234800  0.453800  0.205600  1.0  0.1113
  H  H65  1  0.343300  0.317000  0.286600  1.0  0.0889
  H  H66  1  0.331100  0.527500  0.085200  1.0  0.0989
  H  H67  1  0.386900  0.251400  0.199100  1.0  0.1081
  H  H68  1  0.451100  0.216100  0.167900  1.0  0.0982
  H  H69  1  0.465100  0.497000  0.098000  1.0  0.104
  H  H70  1  0.400800  0.533600  0.132900  1.0  0.1057
  H  H71  1  0.493800  0.184000  0.077600  1.0  0.1043
  H  H72  1  0.556000  0.143900  0.037800  1.0  0.1027
  H  H73  1  0.590400  0.422700  0.067000  1.0  0.0887
  H  H74  1  0.529600  0.463300  0.115500  1.0  0.1224
  H  H75  1  0.265200  0.953800  0.294400  1.0  0.1129
  H  H76  1  0.156700  0.817000  0.213400  1.0  0.0888
  H  H77  1  0.168900  0.027500  0.414800  1.0  0.0981
  H  H78  1  0.113100  0.751400  0.300900  1.0  0.1088
  H  H79  1  0.048900  0.716100  0.332100  1.0  0.0983
  H  H80  1  0.034900  0.997000  0.402000  1.0  0.1039
  H  H81  1  0.099200  0.033600  0.367100  1.0  0.1058
  H  H82  1  0.006200  0.684000  0.422400  1.0  0.1053
  H  H83  1  0.944000  0.643900  0.462200  1.0  0.1032
  H  H84  1  0.909600  0.922700  0.433000  1.0  0.089
  H  H85  1  0.970400  0.963300  0.384500  1.0  0.1226
  H  H86  1  0.765200  0.453800  0.294400  1.0  0.1129
  H  H87  1  0.656700  0.317000  0.213400  1.0  0.0888
  H  H88  1  0.668900  0.527500  0.414800  1.0  0.0981
  H  H89  1  0.613100  0.251400  0.300900  1.0  0.1088
  H  H90  1  0.548900  0.216100  0.332100  1.0  0.0983
  H  H91  1  0.534900  0.497000  0.402000  1.0  0.1039
  H  H92  1  0.599200  0.533600  0.367100  1.0  0.1058
  H  H93  1  0.506200  0.184000  0.422400  1.0  0.1053
  H  H94  1  0.444000  0.143900  0.462200  1.0  0.1032
  H  H95  1  0.409600  0.422700  0.433000  1.0  0.089
  H  H96  1  0.470400  0.463300  0.384500  1.0  0.1226
  C  C97  1  0.247340  0.924200  0.926000  1.0  0.7305
  C  C98  1  0.221090  0.997500  0.863600  1.0  -0.1324
  C  C99  1  0.237780  0.053800  0.798900  1.0  0.022
  C  C100  1  0.213280  0.121600  0.740900  1.0  -0.1567
  C  C101  1  0.172820  0.136200  0.751800  1.0  -0.0708
  C  C102  1  0.156050  0.083100  0.818000  1.0  0.0105
  C  C103  1  0.180120  0.011600  0.872200  1.0  -0.0602
  C  C104  1  0.229740  0.178100  0.664300  1.0  0.7949
  C  C105  1  0.113610  0.102900  0.833200  1.0  0.0441
  C  C106  1  0.097640  0.198700  0.821600  1.0  -0.144
  C  C107  1  0.058920  0.219900  0.840700  1.0  -0.1193
  C  C108  1  0.035490  0.149900  0.871400  1.0  -0.0006
  C  C109  1  0.050620  0.052700  0.881700  1.0  -0.1313
  C  C110  1  0.089640  0.030900  0.861300  1.0  -0.1285
  C  C111  1  0.995400  0.173500  0.900400  1.0  0.0345
  C  C112  1  0.986800  0.266700  0.923800  1.0  -0.1236
  C  C113  1  0.949700  0.290700  0.949900  1.0  -0.0543
  C  C114  1  0.921280  0.219000  0.957600  1.0  -0.1075
  C  C115  1  0.929150  0.126100  0.931500  1.0  -0.0544
  C  C116  1  0.965830  0.101100  0.902400  1.0  -0.1655
  C  C117  1  0.882540  0.244500  0.991900  1.0  0.7224
  C  C118  1  0.747340  0.424200  0.926000  1.0  0.7305
  C  C119  1  0.721090  0.497500  0.863600  1.0  -0.1324
  C  C120  1  0.737780  0.553800  0.798900  1.0  0.022
  C  C121  1  0.713280  0.621600  0.740900  1.0  -0.1567
  C  C122  1  0.672820  0.636200  0.751800  1.0  -0.0708
  C  C123  1  0.656050  0.583100  0.818000  1.0  0.0105
  C  C124  1  0.680120  0.511600  0.872200  1.0  -0.0602
  C  C125  1  0.729740  0.678100  0.664300  1.0  0.7949
  C  C126  1  0.613610  0.602900  0.833200  1.0  0.0441
  C  C127  1  0.597640  0.698700  0.821600  1.0  -0.144
  C  C128  1  0.558920  0.719900  0.840700  1.0  -0.1193
  C  C129  1  0.535490  0.649900  0.871400  1.0  -0.0006
  C  C130  1  0.550620  0.552700  0.881700  1.0  -0.1313
  C  C131  1  0.589640  0.530900  0.861300  1.0  -0.1285
  C  C132  1  0.495400  0.673500  0.900400  1.0  0.0345
  C  C133  1  0.486800  0.766700  0.923800  1.0  -0.1236
  C  C134  1  0.449700  0.790700  0.949900  1.0  -0.0543
  C  C135  1  0.421280  0.719000  0.957600  1.0  -0.1075
  C  C136  1  0.429150  0.626100  0.931500  1.0  -0.0544
  C  C137  1  0.465830  0.601100  0.902400  1.0  -0.1655
  C  C138  1  0.382540  0.744500  0.991900  1.0  0.7224
  C  C139  1  0.752660  0.924200  0.574000  1.0  0.7294
  C  C140  1  0.778910  0.997500  0.636400  1.0  -0.1326
  C  C141  1  0.762220  0.053800  0.701100  1.0  0.0197
  C  C142  1  0.786720  0.121600  0.759100  1.0  -0.1578
  C  C143  1  0.827180  0.136200  0.748200  1.0  -0.0715
  C  C144  1  0.843950  0.083100  0.682000  1.0  0.0108
  C  C145  1  0.819880  0.011600  0.627800  1.0  -0.0604
  C  C146  1  0.770260  0.178100  0.835700  1.0  0.796
  C  C147  1  0.886390  0.102900  0.666800  1.0  0.0429
  C  C148  1  0.902360  0.198700  0.678400  1.0  -0.1413
  C  C149  1  0.941080  0.219900  0.659300  1.0  -0.119
  C  C150  1  0.964510  0.149900  0.628600  1.0  -0.0024
  C  C151  1  0.949380  0.052700  0.618300  1.0  -0.1327
  C  C152  1  0.910360  0.030900  0.638700  1.0  -0.1299
  C  C153  1  0.004600  0.173500  0.599600  1.0  0.0349
  C  C154  1  0.013200  0.266700  0.576200  1.0  -0.1224
  C  C155  1  0.050300  0.290700  0.550100  1.0  -0.0545
  C  C156  1  0.078720  0.219000  0.542400  1.0  -0.1085
  C  C157  1  0.070850  0.126100  0.568500  1.0  -0.0572
  C  C158  1  0.034170  0.101100  0.597600  1.0  -0.1658
  C  C159  1  0.117460  0.244500  0.508100  1.0  0.7228
  C  C160  1  0.252660  0.424200  0.574000  1.0  0.7294
  C  C161  1  0.278910  0.497500  0.636400  1.0  -0.1326
  C  C162  1  0.262220  0.553800  0.701100  1.0  0.0197
  C  C163  1  0.286720  0.621600  0.759100  1.0  -0.1578
  C  C164  1  0.327180  0.636200  0.748200  1.0  -0.0715
  C  C165  1  0.343950  0.583100  0.682000  1.0  0.0108
  C  C166  1  0.319880  0.511600  0.627800  1.0  -0.0604
  C  C167  1  0.270260  0.678100  0.835700  1.0  0.796
  C  C168  1  0.386390  0.602900  0.666800  1.0  0.0429
  C  C169  1  0.402360  0.698700  0.678400  1.0  -0.1413
  C  C170  1  0.441080  0.719900  0.659300  1.0  -0.119
  C  C171  1  0.464510  0.649900  0.628600  1.0  -0.0024
  C  C172  1  0.449380  0.552700  0.618300  1.0  -0.1327
  C  C173  1  0.410360  0.530900  0.638700  1.0  -0.1299
  C  C174  1  0.504600  0.673500  0.599600  1.0  0.0349
  C  C175  1  0.513200  0.766700  0.576200  1.0  -0.1224
  C  C176  1  0.550300  0.790700  0.550100  1.0  -0.0545
  C  C177  1  0.578720  0.719000  0.542400  1.0  -0.1085
  C  C178  1  0.570850  0.626100  0.568500  1.0  -0.0572
  C  C179  1  0.534170  0.601100  0.597600  1.0  -0.1658
  C  C180  1  0.617460  0.744500  0.508100  1.0  0.7228
  C  C181  1  0.752660  0.075800  0.074000  1.0  0.7299
  C  C182  1  0.778910  0.002500  0.136400  1.0  -0.132
  C  C183  1  0.762220  0.946200  0.201100  1.0  0.0199
  C  C184  1  0.786720  0.878400  0.259100  1.0  -0.1582
  C  C185  1  0.827180  0.863800  0.248200  1.0  -0.071
  C  C186  1  0.843950  0.916900  0.182000  1.0  0.0108
  C  C187  1  0.819880  0.988400  0.127800  1.0  -0.0598
  C  C188  1  0.770260  0.821900  0.335700  1.0  0.7956
  C  C189  1  0.886390  0.897100  0.166800  1.0  0.043
  C  C190  1  0.902360  0.801300  0.178400  1.0  -0.1395
  C  C191  1  0.941080  0.780100  0.159300  1.0  -0.1193
  C  C192  1  0.964510  0.850100  0.128600  1.0  -0.0018
  C  C193  1  0.949380  0.947300  0.118300  1.0  -0.133
  C  C194  1  0.910360  0.969100  0.138700  1.0  -0.1292
  C  C195  1  0.004600  0.826500  0.099600  1.0  0.0349
  C  C196  1  0.013200  0.733300  0.076200  1.0  -0.1227
  C  C197  1  0.050300  0.709300  0.050100  1.0  -0.0572
  C  C198  1  0.078720  0.781000  0.042400  1.0  -0.1084
  C  C199  1  0.070850  0.873900  0.068500  1.0  -0.0568
  C  C200  1  0.034170  0.898900  0.097600  1.0  -0.1658
  C  C201  1  0.117460  0.755500  0.008100  1.0  0.7232
  C  C202  1  0.252660  0.575800  0.074000  1.0  0.7299
  C  C203  1  0.278910  0.502500  0.136400  1.0  -0.132
  C  C204  1  0.262220  0.446200  0.201100  1.0  0.0199
  C  C205  1  0.286720  0.378400  0.259100  1.0  -0.1582
  C  C206  1  0.327180  0.363800  0.248200  1.0  -0.071
  C  C207  1  0.343950  0.416900  0.182000  1.0  0.0108
  C  C208  1  0.319880  0.488400  0.127800  1.0  -0.0598
  C  C209  1  0.270260  0.321900  0.335700  1.0  0.7956
  C  C210  1  0.386390  0.397100  0.166800  1.0  0.043
  C  C211  1  0.402360  0.301300  0.178400  1.0  -0.1395
  C  C212  1  0.441080  0.280100  0.159300  1.0  -0.1193
  C  C213  1  0.464510  0.350100  0.128600  1.0  -0.0018
  C  C214  1  0.449380  0.447300  0.118300  1.0  -0.133
  C  C215  1  0.410360  0.469100  0.138700  1.0  -0.1292
  C  C216  1  0.504600  0.326500  0.099600  1.0  0.0349
  C  C217  1  0.513200  0.233300  0.076200  1.0  -0.1227
  C  C218  1  0.550300  0.209300  0.050100  1.0  -0.0572
  C  C219  1  0.578720  0.281000  0.042400  1.0  -0.1084
  C  C220  1  0.570850  0.373900  0.068500  1.0  -0.0568
  C  C221  1  0.534170  0.398900  0.097600  1.0  -0.1658
  C  C222  1  0.617460  0.255500  0.008100  1.0  0.7232
  C  C223  1  0.247340  0.075800  0.426000  1.0  0.7305
  C  C224  1  0.221090  0.002500  0.363600  1.0  -0.1321
  C  C225  1  0.237780  0.946200  0.298900  1.0  0.0224
  C  C226  1  0.213280  0.878400  0.240900  1.0  -0.1565
  C  C227  1  0.172820  0.863800  0.251800  1.0  -0.0703
  C  C228  1  0.156050  0.916900  0.318000  1.0  0.0107
  C  C229  1  0.180120  0.988400  0.372200  1.0  -0.0593
  C  C230  1  0.229740  0.821900  0.164300  1.0  0.7949
  C  C231  1  0.113610  0.897100  0.333200  1.0  0.044
  C  C232  1  0.097640  0.801300  0.321600  1.0  -0.1409
  C  C233  1  0.058920  0.780100  0.340700  1.0  -0.1172
  C  C234  1  0.035490  0.850100  0.371400  1.0  -0.0013
  C  C235  1  0.050620  0.947300  0.381700  1.0  -0.1318
  C  C236  1  0.089640  0.969100  0.361300  1.0  -0.1283
  C  C237  1  0.995400  0.826500  0.400400  1.0  0.0347
  C  C238  1  0.986800  0.733300  0.423800  1.0  -0.123
  C  C239  1  0.949700  0.709300  0.449900  1.0  -0.0594
  C  C240  1  0.921280  0.781000  0.457600  1.0  -0.1066
  C  C241  1  0.929150  0.873900  0.431500  1.0  -0.0543
  C  C242  1  0.965830  0.898900  0.402400  1.0  -0.1652
  C  C243  1  0.882540  0.755500  0.491900  1.0  0.724
  C  C244  1  0.747340  0.575800  0.426000  1.0  0.7305
  C  C245  1  0.721090  0.502500  0.363600  1.0  -0.1321
  C  C246  1  0.737780  0.446200  0.298900  1.0  0.0224
  C  C247  1  0.713280  0.378400  0.240900  1.0  -0.1565
  C  C248  1  0.672820  0.363800  0.251800  1.0  -0.0703
  C  C249  1  0.656050  0.416900  0.318000  1.0  0.0107
  C  C250  1  0.680120  0.488400  0.372200  1.0  -0.0593
  C  C251  1  0.729740  0.321900  0.164300  1.0  0.7949
  C  C252  1  0.613610  0.397100  0.333200  1.0  0.044
  C  C253  1  0.597640  0.301300  0.321600  1.0  -0.1409
  C  C254  1  0.558920  0.280100  0.340700  1.0  -0.1172
  C  C255  1  0.535490  0.350100  0.371400  1.0  -0.0013
  C  C256  1  0.550620  0.447300  0.381700  1.0  -0.1318
  C  C257  1  0.589640  0.469100  0.361300  1.0  -0.1283
  C  C258  1  0.495400  0.326500  0.400400  1.0  0.0347
  C  C259  1  0.486800  0.233300  0.423800  1.0  -0.123
  C  C260  1  0.449700  0.209300  0.449900  1.0  -0.0594
  C  C261  1  0.421280  0.281000  0.457600  1.0  -0.1066
  C  C262  1  0.429150  0.373900  0.431500  1.0  -0.0543
  C  C263  1  0.465830  0.398900  0.402400  1.0  -0.1652
  C  C264  1  0.382540  0.255500  0.491900  1.0  0.724
  O  O265  1  0.285300  0.938500  0.948700  1.0  -0.6517
  O  O266  1  0.230820  0.848100  0.955600  1.0  -0.8538
  O  O267  1  0.862090  0.175300  0.018300  1.0  -0.6457
  O  O268  1  0.871380  0.331300  0.993400  1.0  -0.6354
  O  O269  1  0.206970  0.241900  0.617700  1.0  -0.7057
  O  O270  1  0.265900  0.158100  0.655300  1.0  -0.7635
  O  O271  1  0.785300  0.438500  0.948700  1.0  -0.6518
  O  O272  1  0.730820  0.348100  0.955600  1.0  -0.8538
  O  O273  1  0.362090  0.675300  0.018300  1.0  -0.6457
  O  O274  1  0.371380  0.831300  0.993400  1.0  -0.6359
  O  O275  1  0.706970  0.741900  0.617700  1.0  -0.7057
  O  O276  1  0.765900  0.658100  0.655300  1.0  -0.7635
  O  O277  1  0.714700  0.938500  0.551300  1.0  -0.6527
  O  O278  1  0.769180  0.848100  0.544400  1.0  -0.8531
  O  O279  1  0.137910  0.175300  0.481700  1.0  -0.6479
  O  O280  1  0.128620  0.331300  0.506600  1.0  -0.6367
  O  O281  1  0.793030  0.241900  0.882300  1.0  -0.7061
  O  O282  1  0.734100  0.158100  0.844700  1.0  -0.7649
  O  O283  1  0.214700  0.438500  0.551300  1.0  -0.6527
  O  O284  1  0.269180  0.348100  0.544400  1.0  -0.8531
  O  O285  1  0.637910  0.675300  0.481700  1.0  -0.6479
  O  O286  1  0.628620  0.831300  0.506600  1.0  -0.6367
  O  O287  1  0.293030  0.741900  0.882300  1.0  -0.7061
  O  O288  1  0.234100  0.658100  0.844700  1.0  -0.7649
  O  O289  1  0.714700  0.061500  0.051300  1.0  -0.6509
  O  O290  1  0.769180  0.151900  0.044400  1.0  -0.8534
  O  O291  1  0.137910  0.824700  0.981700  1.0  -0.6487
  O  O292  1  0.128620  0.668700  0.006600  1.0  -0.6356
  O  O293  1  0.793030  0.758100  0.382300  1.0  -0.708
  O  O294  1  0.734100  0.841900  0.344700  1.0  -0.7656
  O  O295  1  0.214700  0.561500  0.051300  1.0  -0.6508
  O  O296  1  0.269180  0.651900  0.044400  1.0  -0.8534
  O  O297  1  0.637910  0.324700  0.981700  1.0  -0.6487
  O  O298  1  0.628620  0.168700  0.006600  1.0  -0.6358
  O  O299  1  0.293030  0.258100  0.382300  1.0  -0.708
  O  O300  1  0.234100  0.341900  0.344700  1.0  -0.7656
  O  O301  1  0.285300  0.061500  0.448700  1.0  -0.6513
  O  O302  1  0.230820  0.151900  0.455600  1.0  -0.8544
  O  O303  1  0.862090  0.824700  0.518300  1.0  -0.6454
  O  O304  1  0.871380  0.668700  0.493400  1.0  -0.6377
  O  O305  1  0.206970  0.758100  0.117700  1.0  -0.7069
  O  O306  1  0.265900  0.841900  0.155300  1.0  -0.7636
  O  O307  1  0.785300  0.561500  0.448700  1.0  -0.6513
  O  O308  1  0.730820  0.651900  0.455600  1.0  -0.8544
  O  O309  1  0.362090  0.324700  0.518300  1.0  -0.6454
  O  O310  1  0.371380  0.168700  0.493400  1.0  -0.6377
  O  O311  1  0.706970  0.258100  0.117700  1.0  -0.7069
  O  O312  1  0.765900  0.341900  0.155300  1.0  -0.7636
