# generated using pymatgen
data_EuH11(C7O2)3
_symmetry_space_group_name_H-M   'P 1'
_cell_length_a   33.02000000
_cell_length_b   13.31700000
_cell_length_c   14.22000000
_cell_angle_alpha   90.00000000
_cell_angle_beta   101.73900000
_cell_angle_gamma   90.00000000
_symmetry_Int_Tables_number   1
_chemical_formula_structural   EuH11(C7O2)3
_chemical_formula_sum   'Eu8 H88 C168 O48'
_cell_volume   6122.14008647
_cell_formula_units_Z   8
loop_
 _symmetry_equiv_pos_site_id
 _symmetry_equiv_pos_as_xyz
  1  'x, y, z'
loop_
 _atom_site_type_symbol
 _atom_site_label
 _atom_site_symmetry_multiplicity
 _atom_site_fract_x
 _atom_site_fract_y
 _atom_site_fract_z
 _atom_site_occupancy
 _atom_site_charge
  Eu  Eu1  1  0.192080  0.703320  0.452420  1.0  2.112
  Eu  Eu2  1  0.692080  0.203320  0.452420  1.0  2.1121
  Eu  Eu3  1  0.807920  0.703320  0.047580  1.0  2.1105
  Eu  Eu4  1  0.307920  0.203320  0.047580  1.0  2.1105
  Eu  Eu5  1  0.807920  0.296680  0.547580  1.0  2.1109
  Eu  Eu6  1  0.307920  0.796680  0.547580  1.0  2.1109
  Eu  Eu7  1  0.192080  0.296680  0.952420  1.0  2.108
  Eu  Eu8  1  0.692080  0.796680  0.952420  1.0  2.108
  H  H9  1  0.088200  0.922800  0.560800  1.0  0.1173
  H  H10  1  0.029300  0.955900  0.617500  1.0  0.0947
  H  H11  1  0.993200  0.680500  0.582600  1.0  0.1178
  H  H12  1  0.054200  0.631900  0.535500  1.0  0.1283
  H  H13  1  0.964900  0.995500  0.601600  1.0  0.1046
  H  H14  1  0.900400  0.030700  0.629100  1.0  0.1073
  H  H15  1  0.888200  0.747700  0.704600  1.0  0.1058
  H  H16  1  0.950400  0.707600  0.667200  1.0  0.1121
  H  H17  1  0.831100  0.025300  0.585700  1.0  0.1035
  H  H18  1  0.735700  0.949100  0.705500  1.0  0.1097
  H  H19  1  0.843700  0.810900  0.787800  1.0  0.1037
  H  H20  1  0.588200  0.422800  0.560800  1.0  0.1173
  H  H21  1  0.529300  0.455900  0.617500  1.0  0.0947
  H  H22  1  0.493200  0.180500  0.582600  1.0  0.1178
  H  H23  1  0.554200  0.131900  0.535500  1.0  0.1283
  H  H24  1  0.464900  0.495500  0.601600  1.0  0.1046
  H  H25  1  0.400400  0.530700  0.629100  1.0  0.1073
  H  H26  1  0.388200  0.247700  0.704600  1.0  0.1058
  H  H27  1  0.450400  0.207600  0.667200  1.0  0.1121
  H  H28  1  0.331100  0.525300  0.585700  1.0  0.1035
  H  H29  1  0.235700  0.449100  0.705500  1.0  0.1097
  H  H30  1  0.343700  0.310900  0.787800  1.0  0.1037
  H  H31  1  0.911800  0.922800  0.939200  1.0  0.1174
  H  H32  1  0.970700  0.955900  0.882500  1.0  0.095
  H  H33  1  0.006800  0.680500  0.917400  1.0  0.1181
  H  H34  1  0.945800  0.631900  0.964500  1.0  0.1284
  H  H35  1  0.035100  0.995500  0.898400  1.0  0.1046
  H  H36  1  0.099600  0.030700  0.870900  1.0  0.1075
  H  H37  1  0.111800  0.747700  0.795400  1.0  0.1066
  H  H38  1  0.049600  0.707600  0.832800  1.0  0.1126
  H  H39  1  0.168900  0.025300  0.914300  1.0  0.1033
  H  H40  1  0.264300  0.949100  0.794500  1.0  0.1107
  H  H41  1  0.156300  0.810900  0.712200  1.0  0.1037
  H  H42  1  0.411800  0.422800  0.939200  1.0  0.1174
  H  H43  1  0.470700  0.455900  0.882500  1.0  0.095
  H  H44  1  0.506800  0.180500  0.917400  1.0  0.1181
  H  H45  1  0.445800  0.131900  0.964500  1.0  0.1284
  H  H46  1  0.535100  0.495500  0.898400  1.0  0.1046
  H  H47  1  0.599600  0.530700  0.870900  1.0  0.1075
  H  H48  1  0.611800  0.247700  0.795400  1.0  0.1066
  H  H49  1  0.549600  0.207600  0.832800  1.0  0.1126
  H  H50  1  0.668900  0.525300  0.914300  1.0  0.1033
  H  H51  1  0.764300  0.449100  0.794500  1.0  0.1107
  H  H52  1  0.656300  0.310900  0.712200  1.0  0.1037
  H  H53  1  0.911800  0.077200  0.439200  1.0  0.1168
  H  H54  1  0.970700  0.044100  0.382500  1.0  0.0951
  H  H55  1  0.006800  0.319500  0.417400  1.0  0.1177
  H  H56  1  0.945800  0.368100  0.464500  1.0  0.1277
  H  H57  1  0.035100  0.004500  0.398400  1.0  0.1032
  H  H58  1  0.099600  0.969300  0.370900  1.0  0.1074
  H  H59  1  0.111800  0.252300  0.295400  1.0  0.1071
  H  H60  1  0.049600  0.292400  0.332800  1.0  0.1115
  H  H61  1  0.168900  0.974700  0.414300  1.0  0.1036
  H  H62  1  0.264300  0.050900  0.294500  1.0  0.1109
  H  H63  1  0.156300  0.189100  0.212200  1.0  0.1033
  H  H64  1  0.411800  0.577200  0.439200  1.0  0.1168
  H  H65  1  0.470700  0.544100  0.382500  1.0  0.0951
  H  H66  1  0.506800  0.819500  0.417400  1.0  0.1177
  H  H67  1  0.445800  0.868100  0.464500  1.0  0.1277
  H  H68  1  0.535100  0.504500  0.398400  1.0  0.1032
  H  H69  1  0.599600  0.469300  0.370900  1.0  0.1074
  H  H70  1  0.611800  0.752300  0.295400  1.0  0.1071
  H  H71  1  0.549600  0.792400  0.332800  1.0  0.1115
  H  H72  1  0.668900  0.474700  0.414300  1.0  0.1036
  H  H73  1  0.764300  0.550900  0.294500  1.0  0.1109
  H  H74  1  0.656300  0.689100  0.212200  1.0  0.1033
  H  H75  1  0.088200  0.077200  0.060800  1.0  0.1172
  H  H76  1  0.029300  0.044100  0.117500  1.0  0.095
  H  H77  1  0.993200  0.319500  0.082600  1.0  0.1178
  H  H78  1  0.054200  0.368100  0.035500  1.0  0.1276
  H  H79  1  0.964900  0.004500  0.101600  1.0  0.1035
  H  H80  1  0.900400  0.969300  0.129100  1.0  0.1074
  H  H81  1  0.888200  0.252300  0.204600  1.0  0.107
  H  H82  1  0.950400  0.292400  0.167200  1.0  0.111
  H  H83  1  0.831100  0.974700  0.085700  1.0  0.1036
  H  H84  1  0.735700  0.050900  0.205500  1.0  0.1101
  H  H85  1  0.843700  0.189100  0.287800  1.0  0.1028
  H  H86  1  0.588200  0.577200  0.060800  1.0  0.1172
  H  H87  1  0.529300  0.544100  0.117500  1.0  0.095
  H  H88  1  0.493200  0.819500  0.082600  1.0  0.1178
  H  H89  1  0.554200  0.868100  0.035500  1.0  0.1276
  H  H90  1  0.464900  0.504500  0.101600  1.0  0.1035
  H  H91  1  0.400400  0.469300  0.129100  1.0  0.1074
  H  H92  1  0.388200  0.752300  0.204600  1.0  0.107
  H  H93  1  0.450400  0.792400  0.167200  1.0  0.111
  H  H94  1  0.331100  0.474700  0.085700  1.0  0.1036
  H  H95  1  0.235700  0.550900  0.205500  1.0  0.1101
  H  H96  1  0.343700  0.689100  0.287800  1.0  0.1028
  C  C97  1  0.116800  0.750500  0.503900  1.0  0.7249
  C  C98  1  0.078100  0.773900  0.540500  1.0  -0.1152
  C  C99  1  0.069700  0.871200  0.565400  1.0  -0.1328
  C  C100  1  0.033600  0.891000  0.597400  1.0  -0.1218
  C  C101  1  0.004300  0.821900  0.601000  1.0  0.0662
  C  C102  1  0.012800  0.729700  0.578600  1.0  -0.0962
  C  C103  1  0.049500  0.698800  0.548800  1.0  -0.1359
  C  C104  1  0.964900  0.849000  0.629100  1.0  0.049
  C  C105  1  0.949200  0.944000  0.620200  1.0  -0.1396
  C  C106  1  0.910600  0.965500  0.638200  1.0  -0.149
  C  C107  1  0.886900  0.893200  0.669300  1.0  0.0381
  C  C108  1  0.903300  0.797600  0.681400  1.0  -0.109
  C  C109  1  0.940800  0.773400  0.660600  1.0  -0.1595
  C  C110  1  0.844400  0.913600  0.682700  1.0  0.0578
  C  C111  1  0.820000  0.985300  0.627700  1.0  -0.065
  C  C112  1  0.779100  0.998000  0.634600  1.0  -0.1292
  C  C113  1  0.763300  0.942000  0.701400  1.0  -0.0126
  C  C114  1  0.787900  0.877500  0.760400  1.0  -0.1565
  C  C115  1  0.827800  0.859300  0.750000  1.0  -0.0893
  C  C116  1  0.753000  0.070900  0.571500  1.0  0.7236
  C  C117  1  0.770600  0.815700  0.835600  1.0  0.8138
  C  C118  1  0.616800  0.250500  0.503900  1.0  0.7249
  C  C119  1  0.578100  0.273900  0.540500  1.0  -0.1152
  C  C120  1  0.569700  0.371200  0.565400  1.0  -0.1328
  C  C121  1  0.533600  0.391000  0.597400  1.0  -0.1218
  C  C122  1  0.504300  0.321900  0.601000  1.0  0.0662
  C  C123  1  0.512800  0.229700  0.578600  1.0  -0.0962
  C  C124  1  0.549500  0.198800  0.548800  1.0  -0.1359
  C  C125  1  0.464900  0.349000  0.629100  1.0  0.049
  C  C126  1  0.449200  0.444000  0.620200  1.0  -0.1396
  C  C127  1  0.410600  0.465500  0.638200  1.0  -0.149
  C  C128  1  0.386900  0.393200  0.669300  1.0  0.0381
  C  C129  1  0.403300  0.297600  0.681400  1.0  -0.109
  C  C130  1  0.440800  0.273400  0.660600  1.0  -0.1595
  C  C131  1  0.344400  0.413600  0.682700  1.0  0.0578
  C  C132  1  0.320000  0.485300  0.627700  1.0  -0.065
  C  C133  1  0.279100  0.498000  0.634600  1.0  -0.1292
  C  C134  1  0.263300  0.442000  0.701400  1.0  -0.0126
  C  C135  1  0.287900  0.377500  0.760400  1.0  -0.1565
  C  C136  1  0.327800  0.359300  0.750000  1.0  -0.0893
  C  C137  1  0.253000  0.570900  0.571500  1.0  0.7236
  C  C138  1  0.270600  0.315700  0.835600  1.0  0.8138
  C  C139  1  0.883200  0.750500  0.996100  1.0  0.7253
  C  C140  1  0.921900  0.773900  0.959500  1.0  -0.1155
  C  C141  1  0.930300  0.871200  0.934600  1.0  -0.1314
  C  C142  1  0.966400  0.891000  0.902600  1.0  -0.1208
  C  C143  1  0.995700  0.821900  0.899000  1.0  0.0684
  C  C144  1  0.987200  0.729700  0.921400  1.0  -0.0971
  C  C145  1  0.950500  0.698800  0.951200  1.0  -0.1378
  C  C146  1  0.035100  0.849000  0.870900  1.0  0.0491
  C  C147  1  0.050800  0.944000  0.879800  1.0  -0.1393
  C  C148  1  0.089400  0.965500  0.861800  1.0  -0.1485
  C  C149  1  0.113100  0.893200  0.830700  1.0  0.0382
  C  C150  1  0.096700  0.797600  0.818600  1.0  -0.1103
  C  C151  1  0.059200  0.773400  0.839400  1.0  -0.1577
  C  C152  1  0.155600  0.913600  0.817300  1.0  0.0571
  C  C153  1  0.180000  0.985300  0.872300  1.0  -0.0673
  C  C154  1  0.220900  0.998000  0.865400  1.0  -0.1293
  C  C155  1  0.236700  0.942000  0.798600  1.0  -0.0135
  C  C156  1  0.212100  0.877500  0.739600  1.0  -0.1559
  C  C157  1  0.172200  0.859300  0.750000  1.0  -0.0892
  C  C158  1  0.247000  0.070900  0.928500  1.0  0.7246
  C  C159  1  0.229400  0.815700  0.664400  1.0  0.8125
  C  C160  1  0.383200  0.250500  0.996100  1.0  0.7253
  C  C161  1  0.421900  0.273900  0.959500  1.0  -0.1155
  C  C162  1  0.430300  0.371200  0.934600  1.0  -0.1314
  C  C163  1  0.466400  0.391000  0.902600  1.0  -0.1208
  C  C164  1  0.495700  0.321900  0.899000  1.0  0.0684
  C  C165  1  0.487200  0.229700  0.921400  1.0  -0.0971
  C  C166  1  0.450500  0.198800  0.951200  1.0  -0.1378
  C  C167  1  0.535100  0.349000  0.870900  1.0  0.0491
  C  C168  1  0.550800  0.444000  0.879800  1.0  -0.1393
  C  C169  1  0.589400  0.465500  0.861800  1.0  -0.1485
  C  C170  1  0.613100  0.393200  0.830700  1.0  0.0382
  C  C171  1  0.596700  0.297600  0.818600  1.0  -0.1103
  C  C172  1  0.559200  0.273400  0.839400  1.0  -0.1577
  C  C173  1  0.655600  0.413600  0.817300  1.0  0.0571
  C  C174  1  0.680000  0.485300  0.872300  1.0  -0.0673
  C  C175  1  0.720900  0.498000  0.865400  1.0  -0.1293
  C  C176  1  0.736700  0.442000  0.798600  1.0  -0.0135
  C  C177  1  0.712100  0.377500  0.739600  1.0  -0.1559
  C  C178  1  0.672200  0.359300  0.750000  1.0  -0.0892
  C  C179  1  0.747000  0.570900  0.928500  1.0  0.7246
  C  C180  1  0.729400  0.315700  0.664400  1.0  0.8125
  C  C181  1  0.883200  0.249500  0.496100  1.0  0.7254
  C  C182  1  0.921900  0.226100  0.459500  1.0  -0.1157
  C  C183  1  0.930300  0.128800  0.434600  1.0  -0.1326
  C  C184  1  0.966400  0.109000  0.402600  1.0  -0.12
  C  C185  1  0.995700  0.178100  0.399000  1.0  0.0689
  C  C186  1  0.987200  0.270300  0.421400  1.0  -0.0983
  C  C187  1  0.950500  0.301200  0.451200  1.0  -0.1344
  C  C188  1  0.035100  0.151000  0.370900  1.0  0.0487
  C  C189  1  0.050800  0.056000  0.379800  1.0  -0.1389
  C  C190  1  0.089400  0.034500  0.361800  1.0  -0.1476
  C  C191  1  0.113100  0.106800  0.330700  1.0  0.0385
  C  C192  1  0.096700  0.202400  0.318600  1.0  -0.111
  C  C193  1  0.059200  0.226600  0.339400  1.0  -0.1596
  C  C194  1  0.155600  0.086400  0.317300  1.0  0.0573
  C  C195  1  0.180000  0.014700  0.372300  1.0  -0.0679
  C  C196  1  0.220900  0.002000  0.365400  1.0  -0.1294
  C  C197  1  0.236700  0.058000  0.298600  1.0  -0.0136
  C  C198  1  0.212100  0.122500  0.239600  1.0  -0.1557
  C  C199  1  0.172200  0.140700  0.250000  1.0  -0.0892
  C  C200  1  0.247000  0.929100  0.428500  1.0  0.7242
  C  C201  1  0.229400  0.184300  0.164400  1.0  0.8133
  C  C202  1  0.383200  0.749500  0.496100  1.0  0.7254
  C  C203  1  0.421900  0.726100  0.459500  1.0  -0.1157
  C  C204  1  0.430300  0.628800  0.434600  1.0  -0.1326
  C  C205  1  0.466400  0.609000  0.402600  1.0  -0.12
  C  C206  1  0.495700  0.678100  0.399000  1.0  0.0689
  C  C207  1  0.487200  0.770300  0.421400  1.0  -0.0983
  C  C208  1  0.450500  0.801200  0.451200  1.0  -0.1344
  C  C209  1  0.535100  0.651000  0.370900  1.0  0.0487
  C  C210  1  0.550800  0.556000  0.379800  1.0  -0.1389
  C  C211  1  0.589400  0.534500  0.361800  1.0  -0.1476
  C  C212  1  0.613100  0.606800  0.330700  1.0  0.0385
  C  C213  1  0.596700  0.702400  0.318600  1.0  -0.111
  C  C214  1  0.559200  0.726600  0.339400  1.0  -0.1596
  C  C215  1  0.655600  0.586400  0.317300  1.0  0.0573
  C  C216  1  0.680000  0.514700  0.372300  1.0  -0.0679
  C  C217  1  0.720900  0.502000  0.365400  1.0  -0.1294
  C  C218  1  0.736700  0.558000  0.298600  1.0  -0.0136
  C  C219  1  0.712100  0.622500  0.239600  1.0  -0.1557
  C  C220  1  0.672200  0.640700  0.250000  1.0  -0.0892
  C  C221  1  0.747000  0.429100  0.428500  1.0  0.7242
  C  C222  1  0.729400  0.684300  0.164400  1.0  0.8133
  C  C223  1  0.116800  0.249500  0.003900  1.0  0.7263
  C  C224  1  0.078100  0.226100  0.040500  1.0  -0.1147
  C  C225  1  0.069700  0.128800  0.065400  1.0  -0.1339
  C  C226  1  0.033600  0.109000  0.097400  1.0  -0.1208
  C  C227  1  0.004300  0.178100  0.101000  1.0  0.0669
  C  C228  1  0.012800  0.270300  0.078600  1.0  -0.0966
  C  C229  1  0.049500  0.301200  0.048800  1.0  -0.1341
  C  C230  1  0.964900  0.151000  0.129100  1.0  0.049
  C  C231  1  0.949200  0.056000  0.120200  1.0  -0.1393
  C  C232  1  0.910600  0.034500  0.138200  1.0  -0.1486
  C  C233  1  0.886900  0.106800  0.169300  1.0  0.0382
  C  C234  1  0.903300  0.202400  0.181400  1.0  -0.1104
  C  C235  1  0.940800  0.226600  0.160600  1.0  -0.159
  C  C236  1  0.844400  0.086400  0.182700  1.0  0.058
  C  C237  1  0.820000  0.014700  0.127700  1.0  -0.0652
  C  C238  1  0.779100  0.002000  0.134600  1.0  -0.1296
  C  C239  1  0.763300  0.058000  0.201400  1.0  -0.0127
  C  C240  1  0.787900  0.122500  0.260400  1.0  -0.1565
  C  C241  1  0.827800  0.140700  0.250000  1.0  -0.0891
  C  C242  1  0.753000  0.929100  0.071500  1.0  0.7232
  C  C243  1  0.770600  0.184300  0.335600  1.0  0.8151
  C  C244  1  0.616800  0.749500  0.003900  1.0  0.7263
  C  C245  1  0.578100  0.726100  0.040500  1.0  -0.1147
  C  C246  1  0.569700  0.628800  0.065400  1.0  -0.1339
  C  C247  1  0.533600  0.609000  0.097400  1.0  -0.1208
  C  C248  1  0.504300  0.678100  0.101000  1.0  0.0669
  C  C249  1  0.512800  0.770300  0.078600  1.0  -0.0966
  C  C250  1  0.549500  0.801200  0.048800  1.0  -0.1341
  C  C251  1  0.464900  0.651000  0.129100  1.0  0.049
  C  C252  1  0.449200  0.556000  0.120200  1.0  -0.1393
  C  C253  1  0.410600  0.534500  0.138200  1.0  -0.1486
  C  C254  1  0.386900  0.606800  0.169300  1.0  0.0382
  C  C255  1  0.403300  0.702400  0.181400  1.0  -0.1104
  C  C256  1  0.440800  0.726600  0.160600  1.0  -0.159
  C  C257  1  0.344400  0.586400  0.182700  1.0  0.058
  C  C258  1  0.320000  0.514700  0.127700  1.0  -0.0652
  C  C259  1  0.279100  0.502000  0.134600  1.0  -0.1296
  C  C260  1  0.263300  0.558000  0.201400  1.0  -0.0127
  C  C261  1  0.287900  0.622500  0.260400  1.0  -0.1565
  C  C262  1  0.327800  0.640700  0.250000  1.0  -0.0891
  C  C263  1  0.253000  0.429100  0.071500  1.0  0.7232
  C  C264  1  0.270600  0.684300  0.335600  1.0  0.8151
  O  O265  1  0.137600  0.821100  0.481200  1.0  -0.6159
  O  O266  1  0.127400  0.659500  0.503600  1.0  -0.6569
  O  O267  1  0.794400  0.754400  0.884400  1.0  -0.6957
  O  O268  1  0.734980  0.839000  0.843600  1.0  -0.7565
  O  O269  1  0.715480  0.053800  0.549600  1.0  -0.5989
  O  O270  1  0.768680  0.149500  0.542200  1.0  -0.8536
  O  O271  1  0.637600  0.321100  0.481200  1.0  -0.6159
  O  O272  1  0.627400  0.159500  0.503600  1.0  -0.6575
  O  O273  1  0.294400  0.254400  0.884400  1.0  -0.6957
  O  O274  1  0.234980  0.339000  0.843600  1.0  -0.7565
  O  O275  1  0.215480  0.553800  0.549600  1.0  -0.5988
  O  O276  1  0.268680  0.649500  0.542200  1.0  -0.8536
  O  O277  1  0.862400  0.821100  0.018800  1.0  -0.6152
  O  O278  1  0.872600  0.659500  0.996400  1.0  -0.659
  O  O279  1  0.205600  0.754400  0.615600  1.0  -0.6958
  O  O280  1  0.265020  0.839000  0.656400  1.0  -0.7556
  O  O281  1  0.284520  0.053800  0.950400  1.0  -0.5985
  O  O282  1  0.231320  0.149500  0.957800  1.0  -0.8548
  O  O283  1  0.362400  0.321100  0.018800  1.0  -0.6152
  O  O284  1  0.372600  0.159500  0.996400  1.0  -0.6592
  O  O285  1  0.705600  0.254400  0.615600  1.0  -0.6958
  O  O286  1  0.765020  0.339000  0.656400  1.0  -0.7556
  O  O287  1  0.784520  0.553800  0.950400  1.0  -0.5985
  O  O288  1  0.731320  0.649500  0.957800  1.0  -0.8548
  O  O289  1  0.862400  0.178900  0.518800  1.0  -0.6149
  O  O290  1  0.872600  0.340500  0.496400  1.0  -0.6573
  O  O291  1  0.205600  0.245600  0.115600  1.0  -0.6945
  O  O292  1  0.265020  0.161000  0.156400  1.0  -0.7558
  O  O293  1  0.284520  0.946200  0.450400  1.0  -0.5989
  O  O294  1  0.231320  0.850500  0.457800  1.0  -0.8544
  O  O295  1  0.362400  0.678900  0.518800  1.0  -0.6149
  O  O296  1  0.372600  0.840500  0.496400  1.0  -0.6581
  O  O297  1  0.705600  0.745600  0.115600  1.0  -0.6945
  O  O298  1  0.765020  0.661000  0.156400  1.0  -0.7558
  O  O299  1  0.784520  0.446200  0.450400  1.0  -0.5986
  O  O300  1  0.731320  0.350500  0.457800  1.0  -0.8544
  O  O301  1  0.137600  0.178900  0.981200  1.0  -0.6157
  O  O302  1  0.127400  0.340500  0.003600  1.0  -0.6598
  O  O303  1  0.794400  0.245600  0.384400  1.0  -0.6945
  O  O304  1  0.734980  0.161000  0.343600  1.0  -0.7563
  O  O305  1  0.715480  0.946200  0.049600  1.0  -0.6011
  O  O306  1  0.768680  0.850500  0.042200  1.0  -0.8536
  O  O307  1  0.637600  0.678900  0.981200  1.0  -0.6157
  O  O308  1  0.627400  0.840500  0.003600  1.0  -0.66
  O  O309  1  0.294400  0.745600  0.384400  1.0  -0.6945
  O  O310  1  0.234980  0.661000  0.343600  1.0  -0.7563
  O  O311  1  0.215480  0.446200  0.049600  1.0  -0.6011
  O  O312  1  0.268680  0.350500  0.042200  1.0  -0.8536
