# generated using pymatgen
data_LaH15(C9O2)3
_symmetry_space_group_name_H-M   'P 1'
_cell_length_a   13.99990000
_cell_length_b   14.64700000
_cell_length_c   42.04000000
_cell_angle_alpha   90.00000000
_cell_angle_beta   97.94800000
_cell_angle_gamma   90.00000000
_symmetry_Int_Tables_number   1
_chemical_formula_structural   LaH15(C9O2)3
_chemical_formula_sum   'La8 H120 C216 O48'
_cell_volume   8537.76722855
_cell_formula_units_Z   8
loop_
 _symmetry_equiv_pos_site_id
 _symmetry_equiv_pos_as_xyz
  1  'x, y, z'
loop_
 _atom_site_type_symbol
 _atom_site_label
 _atom_site_symmetry_multiplicity
 _atom_site_fract_x
 _atom_site_fract_y
 _atom_site_fract_z
 _atom_site_occupancy
 _atom_site_charge
  La  La1  1  0.745690  0.787480  0.202480  1.0  2.1356
  La  La2  1  0.245690  0.287480  0.702480  1.0  2.1356
  La  La3  1  0.754310  0.787480  0.797520  1.0  2.1357
  La  La4  1  0.254310  0.287480  0.297520  1.0  2.1357
  La  La5  1  0.254310  0.212520  0.797520  1.0  2.1348
  La  La6  1  0.754310  0.712520  0.297520  1.0  2.1348
  La  La7  1  0.245690  0.212520  0.202480  1.0  2.1348
  La  La8  1  0.745690  0.712520  0.702480  1.0  2.1348
  H  H9  1  0.466500  0.538700  0.263400  1.0  0.112
  H  H10  1  0.279200  0.459300  0.187800  1.0  0.1015
  H  H11  1  0.467000  0.658500  0.177700  1.0  0.1012
  H  H12  1  0.272500  0.450200  0.132800  1.0  0.1134
  H  H13  1  0.204600  0.478100  0.081000  1.0  0.1106
  H  H14  1  0.270300  0.739600  0.090300  1.0  0.1116
  H  H15  1  0.342300  0.714700  0.142000  1.0  0.1097
  H  H16  1  0.154700  0.498500  0.033600  1.0  0.1203
  H  H17  1  0.077900  0.526800  0.982000  1.0  0.1234
  H  H18  1  0.111800  0.796600  0.997000  1.0  0.1152
  H  H19  1  0.188600  0.768300  0.048600  1.0  0.1144
  H  H20  1  0.023700  0.552200  0.934200  1.0  0.1229
  H  H21  1  0.938300  0.581800  0.885100  1.0  0.1083
  H  H22  1  0.953800  0.849600  0.904200  1.0  0.1081
  H  H23  1  0.031300  0.819200  0.954300  1.0  0.1061
  H  H24  1  0.966500  0.038700  0.763400  1.0  0.112
  H  H25  1  0.779200  0.959300  0.687800  1.0  0.1015
  H  H26  1  0.967000  0.158500  0.677700  1.0  0.1012
  H  H27  1  0.772500  0.950200  0.632800  1.0  0.1134
  H  H28  1  0.704600  0.978100  0.581000  1.0  0.1106
  H  H29  1  0.770300  0.239600  0.590300  1.0  0.1116
  H  H30  1  0.842300  0.214700  0.642000  1.0  0.1097
  H  H31  1  0.654700  0.998500  0.533600  1.0  0.1203
  H  H32  1  0.577900  0.026800  0.482000  1.0  0.1234
  H  H33  1  0.611800  0.296600  0.497000  1.0  0.1152
  H  H34  1  0.688600  0.268300  0.548600  1.0  0.1144
  H  H35  1  0.523700  0.052200  0.434200  1.0  0.1229
  H  H36  1  0.438300  0.081800  0.385100  1.0  0.1083
  H  H37  1  0.453800  0.349600  0.404200  1.0  0.1081
  H  H38  1  0.531300  0.319200  0.454300  1.0  0.1061
  H  H39  1  0.033500  0.538700  0.736600  1.0  0.1119
  H  H40  1  0.220800  0.459300  0.812200  1.0  0.1009
  H  H41  1  0.033000  0.658500  0.822300  1.0  0.1005
  H  H42  1  0.227500  0.450200  0.867200  1.0  0.1134
  H  H43  1  0.295400  0.478100  0.919000  1.0  0.1104
  H  H44  1  0.229700  0.739600  0.909700  1.0  0.1129
  H  H45  1  0.157700  0.714700  0.858000  1.0  0.1104
  H  H46  1  0.345300  0.498500  0.966400  1.0  0.1201
  H  H47  1  0.422100  0.526800  0.018000  1.0  0.1244
  H  H48  1  0.388200  0.796600  0.003000  1.0  0.1156
  H  H49  1  0.311400  0.768300  0.951400  1.0  0.1134
  H  H50  1  0.476300  0.552200  0.065800  1.0  0.1228
  H  H51  1  0.561700  0.581800  0.114900  1.0  0.1085
  H  H52  1  0.546200  0.849600  0.095800  1.0  0.1082
  H  H53  1  0.468700  0.819200  0.045700  1.0  0.1054
  H  H54  1  0.533500  0.038700  0.236600  1.0  0.1119
  H  H55  1  0.720800  0.959300  0.312200  1.0  0.1009
  H  H56  1  0.533000  0.158500  0.322300  1.0  0.1005
  H  H57  1  0.727500  0.950200  0.367200  1.0  0.1134
  H  H58  1  0.795400  0.978100  0.419000  1.0  0.1104
  H  H59  1  0.729700  0.239600  0.409700  1.0  0.1129
  H  H60  1  0.657700  0.214700  0.358000  1.0  0.1104
  H  H61  1  0.845300  0.998500  0.466400  1.0  0.1201
  H  H62  1  0.922100  0.026800  0.518000  1.0  0.1244
  H  H63  1  0.888200  0.296600  0.503000  1.0  0.1156
  H  H64  1  0.811400  0.268300  0.451400  1.0  0.1134
  H  H65  1  0.976300  0.052200  0.565800  1.0  0.1228
  H  H66  1  0.061700  0.081800  0.614900  1.0  0.1085
  H  H67  1  0.046200  0.349600  0.595800  1.0  0.1082
  H  H68  1  0.968700  0.319200  0.545700  1.0  0.1054
  H  H69  1  0.533500  0.461300  0.736600  1.0  0.112
  H  H70  1  0.720800  0.540700  0.812200  1.0  0.1007
  H  H71  1  0.533000  0.341500  0.822300  1.0  0.1011
  H  H72  1  0.727500  0.549800  0.867200  1.0  0.1138
  H  H73  1  0.795400  0.521900  0.919000  1.0  0.1093
  H  H74  1  0.729700  0.260400  0.909700  1.0  0.1125
  H  H75  1  0.657700  0.285300  0.858000  1.0  0.1095
  H  H76  1  0.845300  0.501500  0.966400  1.0  0.1203
  H  H77  1  0.922100  0.473200  0.018000  1.0  0.1239
  H  H78  1  0.888200  0.203400  0.003000  1.0  0.1142
  H  H79  1  0.811400  0.231700  0.951400  1.0  0.113
  H  H80  1  0.976300  0.447800  0.065800  1.0  0.1213
  H  H81  1  0.061700  0.418200  0.114900  1.0  0.1085
  H  H82  1  0.046200  0.150400  0.095800  1.0  0.1091
  H  H83  1  0.968700  0.180800  0.045700  1.0  0.1047
  H  H84  1  0.033500  0.961300  0.236600  1.0  0.112
  H  H85  1  0.220800  0.040700  0.312200  1.0  0.1007
  H  H86  1  0.033000  0.841500  0.322300  1.0  0.1011
  H  H87  1  0.227500  0.049800  0.367200  1.0  0.1138
  H  H88  1  0.295400  0.021900  0.419000  1.0  0.1093
  H  H89  1  0.229700  0.760400  0.409700  1.0  0.1125
  H  H90  1  0.157700  0.785300  0.358000  1.0  0.1095
  H  H91  1  0.345300  0.001500  0.466400  1.0  0.1203
  H  H92  1  0.422100  0.973200  0.518000  1.0  0.1239
  H  H93  1  0.388200  0.703400  0.503000  1.0  0.1142
  H  H94  1  0.311400  0.731700  0.451400  1.0  0.113
  H  H95  1  0.476300  0.947800  0.565800  1.0  0.1213
  H  H96  1  0.561700  0.918200  0.614900  1.0  0.1085
  H  H97  1  0.546200  0.650400  0.595800  1.0  0.1091
  H  H98  1  0.468700  0.680800  0.545700  1.0  0.1047
  H  H99  1  0.966500  0.461300  0.263400  1.0  0.1118
  H  H100  1  0.779200  0.540700  0.187800  1.0  0.1011
  H  H101  1  0.967000  0.341500  0.177700  1.0  0.1013
  H  H102  1  0.772500  0.549800  0.132800  1.0  0.1134
  H  H103  1  0.704600  0.521900  0.081000  1.0  0.1095
  H  H104  1  0.770300  0.260400  0.090300  1.0  0.1109
  H  H105  1  0.842300  0.285300  0.142000  1.0  0.1102
  H  H106  1  0.654700  0.501500  0.033600  1.0  0.1205
  H  H107  1  0.577900  0.473200  0.982000  1.0  0.1231
  H  H108  1  0.611800  0.203400  0.997000  1.0  0.1137
  H  H109  1  0.688600  0.231700  0.048600  1.0  0.1141
  H  H110  1  0.523700  0.447800  0.934200  1.0  0.1212
  H  H111  1  0.438300  0.418200  0.885100  1.0  0.109
  H  H112  1  0.453800  0.150400  0.904200  1.0  0.1093
  H  H113  1  0.531300  0.180800  0.954300  1.0  0.1056
  H  H114  1  0.466500  0.961300  0.763400  1.0  0.1118
  H  H115  1  0.279200  0.040700  0.687800  1.0  0.1011
  H  H116  1  0.467000  0.841500  0.677700  1.0  0.1013
  H  H117  1  0.272500  0.049800  0.632800  1.0  0.1134
  H  H118  1  0.204600  0.021900  0.581000  1.0  0.1095
  H  H119  1  0.270300  0.760400  0.590300  1.0  0.1109
  H  H120  1  0.342300  0.785300  0.642000  1.0  0.1102
  H  H121  1  0.154700  0.001500  0.533600  1.0  0.1205
  H  H122  1  0.077900  0.973200  0.482000  1.0  0.1231
  H  H123  1  0.111800  0.703400  0.497000  1.0  0.1137
  H  H124  1  0.188600  0.731700  0.548600  1.0  0.1141
  H  H125  1  0.023700  0.947800  0.434200  1.0  0.1212
  H  H126  1  0.938300  0.918200  0.385100  1.0  0.109
  H  H127  1  0.953800  0.650400  0.404200  1.0  0.1093
  H  H128  1  0.031300  0.680800  0.454300  1.0  0.1056
  C  C129  1  0.565300  0.668000  0.236010  1.0  0.7743
  C  C130  1  0.481100  0.607700  0.222790  1.0  -0.1648
  C  C131  1  0.442400  0.543700  0.241770  1.0  0.0336
  C  C132  1  0.369000  0.488000  0.228690  1.0  -0.1593
  C  C133  1  0.328600  0.498100  0.196440  1.0  -0.0487
  C  C134  1  0.361100  0.564500  0.177510  1.0  0.017
  C  C135  1  0.440500  0.616700  0.190670  1.0  -0.0842
  C  C136  1  0.328400  0.417500  0.249470  1.0  0.7578
  C  C137  1  0.316300  0.580100  0.143850  1.0  0.0504
  C  C138  1  0.273100  0.509200  0.124610  1.0  -0.1658
  C  C139  1  0.231200  0.526800  0.093410  1.0  -0.099
  C  C140  1  0.226900  0.612300  0.079750  1.0  0.0419
  C  C141  1  0.270200  0.680800  0.098710  1.0  -0.094
  C  C142  1  0.314000  0.665900  0.130070  1.0  -0.145
  C  C143  1  0.179300  0.630600  0.046200  1.0  0.021
  C  C144  1  0.146100  0.558300  0.026270  1.0  -0.1106
  C  C145  1  0.100100  0.575200  0.995380  1.0  -0.1069
  C  C146  1  0.087300  0.664500  0.984410  1.0  -0.009
  C  C147  1  0.120400  0.736800  0.004330  1.0  -0.1202
  C  C148  1  0.166400  0.719900  0.035230  1.0  -0.1186
  C  C149  1  0.033600  0.682500  0.950720  1.0  0.0664
  C  C150  1  0.006800  0.612100  0.928640  1.0  -0.1165
  C  C151  1  0.956300  0.629700  0.899130  1.0  -0.0823
  C  C152  1  0.931800  0.718100  0.890010  1.0  -0.116
  C  C153  1  0.964600  0.789400  0.910700  1.0  -0.0555
  C  C154  1  0.012300  0.771000  0.940430  1.0  -0.1199
  C  C155  1  0.870500  0.739500  0.858770  1.0  0.6669
  C  C156  1  0.065300  0.168000  0.736010  1.0  0.7743
  C  C157  1  0.981100  0.107700  0.722790  1.0  -0.1648
  C  C158  1  0.942400  0.043700  0.741770  1.0  0.0336
  C  C159  1  0.869000  0.988000  0.728690  1.0  -0.1593
  C  C160  1  0.828600  0.998100  0.696440  1.0  -0.0487
  C  C161  1  0.861100  0.064500  0.677510  1.0  0.017
  C  C162  1  0.940500  0.116700  0.690670  1.0  -0.0842
  C  C163  1  0.828400  0.917500  0.749470  1.0  0.7578
  C  C164  1  0.816300  0.080100  0.643850  1.0  0.0504
  C  C165  1  0.773100  0.009200  0.624610  1.0  -0.1658
  C  C166  1  0.731200  0.026800  0.593410  1.0  -0.099
  C  C167  1  0.726900  0.112300  0.579750  1.0  0.0419
  C  C168  1  0.770200  0.180800  0.598710  1.0  -0.094
  C  C169  1  0.814000  0.165900  0.630070  1.0  -0.145
  C  C170  1  0.679300  0.130600  0.546200  1.0  0.021
  C  C171  1  0.646100  0.058300  0.526270  1.0  -0.1106
  C  C172  1  0.600100  0.075200  0.495380  1.0  -0.1069
  C  C173  1  0.587300  0.164500  0.484410  1.0  -0.009
  C  C174  1  0.620400  0.236800  0.504330  1.0  -0.1202
  C  C175  1  0.666400  0.219900  0.535230  1.0  -0.1186
  C  C176  1  0.533600  0.182500  0.450720  1.0  0.0664
  C  C177  1  0.506800  0.112100  0.428640  1.0  -0.1165
  C  C178  1  0.456300  0.129700  0.399130  1.0  -0.0823
  C  C179  1  0.431800  0.218100  0.390010  1.0  -0.116
  C  C180  1  0.464600  0.289400  0.410700  1.0  -0.0555
  C  C181  1  0.512300  0.271000  0.440430  1.0  -0.1199
  C  C182  1  0.370500  0.239500  0.358770  1.0  0.6669
  C  C183  1  0.934700  0.668000  0.763990  1.0  0.7753
  C  C184  1  0.018900  0.607700  0.777210  1.0  -0.1642
  C  C185  1  0.057600  0.543700  0.758230  1.0  0.0355
  C  C186  1  0.131000  0.488000  0.771310  1.0  -0.1603
  C  C187  1  0.171400  0.498100  0.803560  1.0  -0.0481
  C  C188  1  0.138900  0.564500  0.822490  1.0  0.0153
  C  C189  1  0.059500  0.616700  0.809330  1.0  -0.0844
  C  C190  1  0.171600  0.417500  0.750530  1.0  0.7578
  C  C191  1  0.183700  0.580100  0.856150  1.0  0.0498
  C  C192  1  0.226900  0.509200  0.875390  1.0  -0.1659
  C  C193  1  0.268800  0.526800  0.906590  1.0  -0.0997
  C  C194  1  0.273100  0.612300  0.920250  1.0  0.0429
  C  C195  1  0.229800  0.680800  0.901290  1.0  -0.0948
  C  C196  1  0.186000  0.665900  0.869930  1.0  -0.1455
  C  C197  1  0.320700  0.630600  0.953800  1.0  0.0219
  C  C198  1  0.353900  0.558300  0.973730  1.0  -0.1108
  C  C199  1  0.399900  0.575200  0.004620  1.0  -0.1074
  C  C200  1  0.412700  0.664500  0.015590  1.0  -0.0099
  C  C201  1  0.379600  0.736800  0.995670  1.0  -0.1199
  C  C202  1  0.333600  0.719900  0.964770  1.0  -0.1207
  C  C203  1  0.466400  0.682500  0.049280  1.0  0.0669
  C  C204  1  0.493200  0.612100  0.071360  1.0  -0.1179
  C  C205  1  0.543700  0.629700  0.100870  1.0  -0.0816
  C  C206  1  0.568200  0.718100  0.109990  1.0  -0.1159
  C  C207  1  0.535400  0.789400  0.089300  1.0  -0.0573
  C  C208  1  0.487700  0.771000  0.059570  1.0  -0.1214
  C  C209  1  0.629500  0.739500  0.141230  1.0  0.6673
  C  C210  1  0.434700  0.168000  0.263990  1.0  0.7753
  C  C211  1  0.518900  0.107700  0.277210  1.0  -0.1642
  C  C212  1  0.557600  0.043700  0.258230  1.0  0.0355
  C  C213  1  0.631000  0.988000  0.271310  1.0  -0.1603
  C  C214  1  0.671400  0.998100  0.303560  1.0  -0.0481
  C  C215  1  0.638900  0.064500  0.322490  1.0  0.0153
  C  C216  1  0.559500  0.116700  0.309330  1.0  -0.0844
  C  C217  1  0.671600  0.917500  0.250530  1.0  0.7578
  C  C218  1  0.683700  0.080100  0.356150  1.0  0.0498
  C  C219  1  0.726900  0.009200  0.375390  1.0  -0.1659
  C  C220  1  0.768800  0.026800  0.406590  1.0  -0.0997
  C  C221  1  0.773100  0.112300  0.420250  1.0  0.0429
  C  C222  1  0.729800  0.180800  0.401290  1.0  -0.0948
  C  C223  1  0.686000  0.165900  0.369930  1.0  -0.1455
  C  C224  1  0.820700  0.130600  0.453800  1.0  0.0219
  C  C225  1  0.853900  0.058300  0.473730  1.0  -0.1108
  C  C226  1  0.899900  0.075200  0.504620  1.0  -0.1074
  C  C227  1  0.912700  0.164500  0.515590  1.0  -0.0099
  C  C228  1  0.879600  0.236800  0.495670  1.0  -0.1199
  C  C229  1  0.833600  0.219900  0.464770  1.0  -0.1207
  C  C230  1  0.966400  0.182500  0.549280  1.0  0.0669
  C  C231  1  0.993200  0.112100  0.571360  1.0  -0.1179
  C  C232  1  0.043700  0.129700  0.600870  1.0  -0.0816
  C  C233  1  0.068200  0.218100  0.609990  1.0  -0.1159
  C  C234  1  0.035400  0.289400  0.589300  1.0  -0.0573
  C  C235  1  0.987700  0.271000  0.559570  1.0  -0.1214
  C  C236  1  0.129500  0.239500  0.641230  1.0  0.6673
  C  C237  1  0.434700  0.332000  0.763990  1.0  0.7633
  C  C238  1  0.518900  0.392300  0.777210  1.0  -0.1649
  C  C239  1  0.557600  0.456300  0.758230  1.0  0.0357
  C  C240  1  0.631000  0.512000  0.771310  1.0  -0.1598
  C  C241  1  0.671400  0.501900  0.803560  1.0  -0.0483
  C  C242  1  0.638900  0.435500  0.822490  1.0  0.0156
  C  C243  1  0.559500  0.383300  0.809330  1.0  -0.0834
  C  C244  1  0.671600  0.582500  0.750530  1.0  0.7584
  C  C245  1  0.683700  0.419900  0.856150  1.0  0.0498
  C  C246  1  0.726900  0.490800  0.875390  1.0  -0.1669
  C  C247  1  0.768800  0.473200  0.906590  1.0  -0.0992
  C  C248  1  0.773100  0.387700  0.920250  1.0  0.0428
  C  C249  1  0.729800  0.319200  0.901290  1.0  -0.0942
  C  C250  1  0.686000  0.334100  0.869930  1.0  -0.1436
  C  C251  1  0.820700  0.369400  0.953800  1.0  0.0221
  C  C252  1  0.853900  0.441700  0.973730  1.0  -0.1119
  C  C253  1  0.899900  0.424800  0.004620  1.0  -0.1078
  C  C254  1  0.912700  0.335500  0.015590  1.0  -0.0097
  C  C255  1  0.879600  0.263200  0.995670  1.0  -0.1203
  C  C256  1  0.833600  0.280100  0.964770  1.0  -0.1177
  C  C257  1  0.966400  0.317500  0.049280  1.0  0.0665
  C  C258  1  0.993200  0.387900  0.071360  1.0  -0.1204
  C  C259  1  0.043700  0.370300  0.100870  1.0  -0.082
  C  C260  1  0.068200  0.281900  0.109990  1.0  -0.1158
  C  C261  1  0.035400  0.210600  0.089300  1.0  -0.0638
  C  C262  1  0.987700  0.229000  0.059570  1.0  -0.1229
  C  C263  1  0.129500  0.260500  0.141230  1.0  0.6669
  C  C264  1  0.934700  0.832000  0.263990  1.0  0.7633
  C  C265  1  0.018900  0.892300  0.277210  1.0  -0.1649
  C  C266  1  0.057600  0.956300  0.258230  1.0  0.0357
  C  C267  1  0.131000  0.012000  0.271310  1.0  -0.1598
  C  C268  1  0.171400  0.001900  0.303560  1.0  -0.0483
  C  C269  1  0.138900  0.935500  0.322490  1.0  0.0156
  C  C270  1  0.059500  0.883300  0.309330  1.0  -0.0834
  C  C271  1  0.171600  0.082500  0.250530  1.0  0.7584
  C  C272  1  0.183700  0.919900  0.356150  1.0  0.0498
  C  C273  1  0.226900  0.990800  0.375390  1.0  -0.1669
  C  C274  1  0.268800  0.973200  0.406590  1.0  -0.0992
  C  C275  1  0.273100  0.887700  0.420250  1.0  0.0428
  C  C276  1  0.229800  0.819200  0.401290  1.0  -0.0942
  C  C277  1  0.186000  0.834100  0.369930  1.0  -0.1436
  C  C278  1  0.320700  0.869400  0.453800  1.0  0.0221
  C  C279  1  0.353900  0.941700  0.473730  1.0  -0.1119
  C  C280  1  0.399900  0.924800  0.504620  1.0  -0.1078
  C  C281  1  0.412700  0.835500  0.515590  1.0  -0.0097
  C  C282  1  0.379600  0.763200  0.495670  1.0  -0.1203
  C  C283  1  0.333600  0.780100  0.464770  1.0  -0.1177
  C  C284  1  0.466400  0.817500  0.549280  1.0  0.0665
  C  C285  1  0.493200  0.887900  0.571360  1.0  -0.1204
  C  C286  1  0.543700  0.870300  0.600870  1.0  -0.082
  C  C287  1  0.568200  0.781900  0.609990  1.0  -0.1158
  C  C288  1  0.535400  0.710600  0.589300  1.0  -0.0638
  C  C289  1  0.487700  0.729000  0.559570  1.0  -0.1229
  C  C290  1  0.629500  0.760500  0.641230  1.0  0.6669
  C  C291  1  0.065300  0.332000  0.236010  1.0  0.7623
  C  C292  1  0.981100  0.392300  0.222790  1.0  -0.1644
  C  C293  1  0.942400  0.456300  0.241770  1.0  0.0339
  C  C294  1  0.869000  0.512000  0.228690  1.0  -0.1595
  C  C295  1  0.828600  0.501900  0.196440  1.0  -0.0486
  C  C296  1  0.861100  0.435500  0.177510  1.0  0.0169
  C  C297  1  0.940500  0.383300  0.190670  1.0  -0.083
  C  C298  1  0.828400  0.582500  0.249470  1.0  0.758
  C  C299  1  0.816300  0.419900  0.143850  1.0  0.0503
  C  C300  1  0.773100  0.490800  0.124610  1.0  -0.1675
  C  C301  1  0.731200  0.473200  0.093410  1.0  -0.0989
  C  C302  1  0.726900  0.387700  0.079750  1.0  0.0417
  C  C303  1  0.770200  0.319200  0.098710  1.0  -0.0918
  C  C304  1  0.814000  0.334100  0.130070  1.0  -0.1449
  C  C305  1  0.679300  0.369400  0.046200  1.0  0.0214
  C  C306  1  0.646100  0.441700  0.026270  1.0  -0.1115
  C  C307  1  0.600100  0.424800  0.995380  1.0  -0.1076
  C  C308  1  0.587300  0.335500  0.984410  1.0  -0.0088
  C  C309  1  0.620400  0.263200  0.004330  1.0  -0.1197
  C  C310  1  0.666400  0.280100  0.035230  1.0  -0.1181
  C  C311  1  0.533600  0.317500  0.950720  1.0  0.0663
  C  C312  1  0.506800  0.387900  0.928640  1.0  -0.1184
  C  C313  1  0.456300  0.370300  0.899130  1.0  -0.0823
  C  C314  1  0.431800  0.281900  0.890010  1.0  -0.1162
  C  C315  1  0.464600  0.210600  0.910700  1.0  -0.0626
  C  C316  1  0.512300  0.229000  0.940430  1.0  -0.1251
  C  C317  1  0.370500  0.260500  0.858770  1.0  0.6649
  C  C318  1  0.565300  0.832000  0.736010  1.0  0.7623
  C  C319  1  0.481100  0.892300  0.722790  1.0  -0.1644
  C  C320  1  0.442400  0.956300  0.741770  1.0  0.0339
  C  C321  1  0.369000  0.012000  0.728690  1.0  -0.1595
  C  C322  1  0.328600  0.001900  0.696440  1.0  -0.0486
  C  C323  1  0.361100  0.935500  0.677510  1.0  0.0169
  C  C324  1  0.440500  0.883300  0.690670  1.0  -0.083
  C  C325  1  0.328400  0.082500  0.749470  1.0  0.758
  C  C326  1  0.316300  0.919900  0.643850  1.0  0.0503
  C  C327  1  0.273100  0.990800  0.624610  1.0  -0.1675
  C  C328  1  0.231200  0.973200  0.593410  1.0  -0.0989
  C  C329  1  0.226900  0.887700  0.579750  1.0  0.0417
  C  C330  1  0.270200  0.819200  0.598710  1.0  -0.0918
  C  C331  1  0.314000  0.834100  0.630070  1.0  -0.1449
  C  C332  1  0.179300  0.869400  0.546200  1.0  0.0214
  C  C333  1  0.146100  0.941700  0.526270  1.0  -0.1115
  C  C334  1  0.100100  0.924800  0.495380  1.0  -0.1076
  C  C335  1  0.087300  0.835500  0.484410  1.0  -0.0088
  C  C336  1  0.120400  0.763200  0.504330  1.0  -0.1197
  C  C337  1  0.166400  0.780100  0.535230  1.0  -0.1181
  C  C338  1  0.033600  0.817500  0.450720  1.0  0.0663
  C  C339  1  0.006800  0.887900  0.428640  1.0  -0.1184
  C  C340  1  0.956300  0.870300  0.399130  1.0  -0.0823
  C  C341  1  0.931800  0.781900  0.390010  1.0  -0.1162
  C  C342  1  0.964600  0.710600  0.410700  1.0  -0.0626
  C  C343  1  0.012300  0.729000  0.440430  1.0  -0.1251
  C  C344  1  0.870500  0.760500  0.358770  1.0  0.6649
  O  O345  1  0.593700  0.726700  0.217480  1.0  -0.7053
  O  O346  1  0.602000  0.655700  0.264150  1.0  -0.6918
  O  O347  1  0.340600  0.428700  0.279300  1.0  -0.7081
  O  O348  1  0.284300  0.349500  0.236450  1.0  -0.8324
  O  O349  1  0.825900  0.676400  0.842680  1.0  -0.6863
  O  O350  1  0.866900  0.819700  0.848440  1.0  -0.6887
  O  O351  1  0.093700  0.226700  0.717480  1.0  -0.7053
  O  O352  1  0.102000  0.155700  0.764150  1.0  -0.6918
  O  O353  1  0.840600  0.928700  0.779300  1.0  -0.7083
  O  O354  1  0.784300  0.849500  0.736450  1.0  -0.8324
  O  O355  1  0.325900  0.176400  0.342680  1.0  -0.6863
  O  O356  1  0.366900  0.319700  0.348440  1.0  -0.689
  O  O357  1  0.906300  0.726700  0.782520  1.0  -0.7042
  O  O358  1  0.898000  0.655700  0.735850  1.0  -0.6927
  O  O359  1  0.159400  0.428700  0.720700  1.0  -0.7083
  O  O360  1  0.215700  0.349500  0.763550  1.0  -0.8316
  O  O361  1  0.674100  0.676400  0.157320  1.0  -0.6865
  O  O362  1  0.633100  0.819700  0.151560  1.0  -0.6879
  O  O363  1  0.406300  0.226700  0.282520  1.0  -0.7042
  O  O364  1  0.398000  0.155700  0.235850  1.0  -0.6927
  O  O365  1  0.659400  0.928700  0.220700  1.0  -0.7084
  O  O366  1  0.715700  0.849500  0.263550  1.0  -0.8316
  O  O367  1  0.174100  0.176400  0.657320  1.0  -0.6865
  O  O368  1  0.133100  0.319700  0.651560  1.0  -0.6881
  O  O369  1  0.406300  0.273300  0.782520  1.0  -0.7039
  O  O370  1  0.398000  0.344300  0.735850  1.0  -0.6928
  O  O371  1  0.659400  0.571300  0.720700  1.0  -0.7079
  O  O372  1  0.715700  0.650500  0.763550  1.0  -0.8312
  O  O373  1  0.174100  0.323600  0.157320  1.0  -0.685
  O  O374  1  0.133100  0.180300  0.151560  1.0  -0.6873
  O  O375  1  0.906300  0.773300  0.282520  1.0  -0.7039
  O  O376  1  0.898000  0.844300  0.235850  1.0  -0.6928
  O  O377  1  0.159400  0.071300  0.220700  1.0  -0.7079
  O  O378  1  0.215700  0.150500  0.263550  1.0  -0.8312
  O  O379  1  0.674100  0.823600  0.657320  1.0  -0.685
  O  O380  1  0.633100  0.680300  0.651560  1.0  -0.6876
  O  O381  1  0.093700  0.273300  0.217480  1.0  -0.7046
  O  O382  1  0.102000  0.344300  0.264150  1.0  -0.6919
  O  O383  1  0.840600  0.571300  0.279300  1.0  -0.7085
  O  O384  1  0.784300  0.650500  0.236450  1.0  -0.8325
  O  O385  1  0.325900  0.323600  0.842680  1.0  -0.685
  O  O386  1  0.366900  0.180300  0.848440  1.0  -0.6874
  O  O387  1  0.593700  0.773300  0.717480  1.0  -0.7046
  O  O388  1  0.602000  0.844300  0.764150  1.0  -0.6919
  O  O389  1  0.340600  0.071300  0.779300  1.0  -0.7086
  O  O390  1  0.284300  0.150500  0.736450  1.0  -0.8325
  O  O391  1  0.825900  0.823600  0.342680  1.0  -0.685
  O  O392  1  0.866900  0.680300  0.348440  1.0  -0.6874
