# generated using pymatgen
data_TbH15(C9O2)3
_symmetry_space_group_name_H-M   'P 1'
_cell_length_a   42.14500000
_cell_length_b   14.29600000
_cell_length_c   13.77100000
_cell_angle_alpha   90.00000000
_cell_angle_beta   101.68300000
_cell_angle_gamma   90.00000000
_symmetry_Int_Tables_number   1
_chemical_formula_structural   TbH15(C9O2)3
_chemical_formula_sum   'Tb8 H120 C216 O48'
_cell_volume   8125.20379762
_cell_formula_units_Z   8
loop_
 _symmetry_equiv_pos_site_id
 _symmetry_equiv_pos_as_xyz
  1  'x, y, z'
loop_
 _atom_site_type_symbol
 _atom_site_label
 _atom_site_symmetry_multiplicity
 _atom_site_fract_x
 _atom_site_fract_y
 _atom_site_fract_z
 _atom_site_occupancy
 _atom_site_charge
  Tb  Tb1  1  0.203980  0.208690  0.954560  1.0  2.238
  Tb  Tb2  1  0.703980  0.708690  0.954560  1.0  2.2377
  Tb  Tb3  1  0.796020  0.208690  0.545440  1.0  2.2346
  Tb  Tb4  1  0.296020  0.708690  0.545440  1.0  2.2349
  Tb  Tb5  1  0.796020  0.791310  0.045440  1.0  2.2297
  Tb  Tb6  1  0.296020  0.291310  0.045440  1.0  2.2299
  Tb  Tb7  1  0.203980  0.791310  0.454560  1.0  2.2233
  Tb  Tb8  1  0.703980  0.291310  0.454560  1.0  2.2233
  H  H9  1  0.313600  0.039300  0.089600  1.0  0.1069
  H  H10  1  0.323400  0.833400  0.290500  1.0  0.0946
  H  H11  1  0.238200  0.960600  0.206700  1.0  0.1041
  H  H12  1  0.370300  0.048300  0.146900  1.0  0.0947
  H  H13  1  0.422000  0.021600  0.128800  1.0  0.1118
  H  H14  1  0.410900  0.749000  0.174400  1.0  0.1089
  H  H15  1  0.359800  0.777700  0.201800  1.0  0.1086
  H  H16  1  0.469700  0.996900  0.127400  1.0  0.1196
  H  H17  1  0.521200  0.967500  0.099000  1.0  0.1178
  H  H18  1  0.504200  0.691100  0.103800  1.0  0.1244
  H  H19  1  0.452700  0.720500  0.132200  1.0  0.1116
  H  H20  1  0.568200  0.941600  0.086700  1.0  0.12
  H  H21  1  0.617000  0.911600  0.043600  1.0  0.0966
  H  H22  1  0.597700  0.638700  0.038300  1.0  0.0968
  H  H23  1  0.546700  0.668700  0.067200  1.0  0.1512
  H  H24  1  0.813600  0.539300  0.089600  1.0  0.1069
  H  H25  1  0.823400  0.333400  0.290500  1.0  0.0946
  H  H26  1  0.738200  0.460600  0.206700  1.0  0.1041
  H  H27  1  0.870300  0.548300  0.146900  1.0  0.0947
  H  H28  1  0.922000  0.521600  0.128800  1.0  0.1118
  H  H29  1  0.910900  0.249000  0.174400  1.0  0.1089
  H  H30  1  0.859800  0.277700  0.201800  1.0  0.1086
  H  H31  1  0.969700  0.496900  0.127400  1.0  0.1196
  H  H32  1  0.021200  0.467500  0.099000  1.0  0.1178
  H  H33  1  0.004200  0.191100  0.103800  1.0  0.1244
  H  H34  1  0.952700  0.220500  0.132200  1.0  0.1116
  H  H35  1  0.068200  0.441600  0.086700  1.0  0.12
  H  H36  1  0.117000  0.411600  0.043600  1.0  0.0966
  H  H37  1  0.097700  0.138700  0.038300  1.0  0.0968
  H  H38  1  0.046700  0.168700  0.067200  1.0  0.1512
  H  H39  1  0.686400  0.039300  0.410400  1.0  0.108
  H  H40  1  0.676600  0.833400  0.209500  1.0  0.0955
  H  H41  1  0.761800  0.960600  0.293300  1.0  0.1051
  H  H42  1  0.629700  0.048300  0.353100  1.0  0.0949
  H  H43  1  0.578000  0.021600  0.371200  1.0  0.1116
  H  H44  1  0.589100  0.749000  0.325600  1.0  0.1078
  H  H45  1  0.640200  0.777700  0.298200  1.0  0.1097
  H  H46  1  0.530300  0.996900  0.372600  1.0  0.1196
  H  H47  1  0.478800  0.967500  0.401000  1.0  0.1176
  H  H48  1  0.495800  0.691100  0.396200  1.0  0.124
  H  H49  1  0.547300  0.720500  0.367800  1.0  0.1114
  H  H50  1  0.431800  0.941600  0.413300  1.0  0.1197
  H  H51  1  0.383000  0.911600  0.456400  1.0  0.097
  H  H52  1  0.402300  0.638700  0.461700  1.0  0.0972
  H  H53  1  0.453300  0.668700  0.432800  1.0  0.1509
  H  H54  1  0.186400  0.539300  0.410400  1.0  0.108
  H  H55  1  0.176600  0.333400  0.209500  1.0  0.0955
  H  H56  1  0.261800  0.460600  0.293300  1.0  0.1051
  H  H57  1  0.129700  0.548300  0.353100  1.0  0.0949
  H  H58  1  0.078000  0.521600  0.371200  1.0  0.1116
  H  H59  1  0.089100  0.249000  0.325600  1.0  0.1078
  H  H60  1  0.140200  0.277700  0.298200  1.0  0.1097
  H  H61  1  0.030300  0.496900  0.372600  1.0  0.1196
  H  H62  1  0.978800  0.467500  0.401000  1.0  0.1176
  H  H63  1  0.995800  0.191100  0.396200  1.0  0.124
  H  H64  1  0.047300  0.220500  0.367800  1.0  0.1114
  H  H65  1  0.931800  0.441600  0.413300  1.0  0.1197
  H  H66  1  0.883000  0.411600  0.456400  1.0  0.097
  H  H67  1  0.902300  0.138700  0.461700  1.0  0.0972
  H  H68  1  0.953300  0.168700  0.432800  1.0  0.1509
  H  H69  1  0.686400  0.960700  0.910400  1.0  0.1078
  H  H70  1  0.676600  0.166600  0.709500  1.0  0.096
  H  H71  1  0.761800  0.039400  0.793300  1.0  0.1048
  H  H72  1  0.629700  0.951700  0.853100  1.0  0.0948
  H  H73  1  0.578000  0.978400  0.871200  1.0  0.1106
  H  H74  1  0.589100  0.251000  0.825600  1.0  0.1082
  H  H75  1  0.640200  0.222300  0.798200  1.0  0.1091
  H  H76  1  0.530300  0.003100  0.872600  1.0  0.1184
  H  H77  1  0.478800  0.032500  0.901000  1.0  0.1177
  H  H78  1  0.495800  0.308900  0.896200  1.0  0.1238
  H  H79  1  0.547300  0.279500  0.867800  1.0  0.1107
  H  H80  1  0.431800  0.058400  0.913300  1.0  0.1202
  H  H81  1  0.383000  0.088400  0.956400  1.0  0.0969
  H  H82  1  0.402300  0.361300  0.961700  1.0  0.0971
  H  H83  1  0.453300  0.331300  0.932800  1.0  0.1511
  H  H84  1  0.186400  0.460700  0.910400  1.0  0.1078
  H  H85  1  0.176600  0.666667  0.709500  1.0  0.0958
  H  H86  1  0.261800  0.539400  0.793300  1.0  0.1051
  H  H87  1  0.129700  0.451700  0.853100  1.0  0.0948
  H  H88  1  0.078000  0.478400  0.871200  1.0  0.1106
  H  H89  1  0.089100  0.751000  0.825600  1.0  0.1082
  H  H90  1  0.140200  0.722300  0.798200  1.0  0.1089
  H  H91  1  0.030300  0.503100  0.872600  1.0  0.1184
  H  H92  1  0.978800  0.532500  0.901000  1.0  0.1177
  H  H93  1  0.995800  0.808900  0.896200  1.0  0.1238
  H  H94  1  0.047300  0.779500  0.867800  1.0  0.1107
  H  H95  1  0.931800  0.558400  0.913300  1.0  0.1202
  H  H96  1  0.883000  0.588400  0.956400  1.0  0.0968
  H  H97  1  0.902300  0.861300  0.961700  1.0  0.0971
  H  H98  1  0.953300  0.831300  0.932800  1.0  0.1511
  H  H99  1  0.313600  0.960700  0.589600  1.0  0.1065
  H  H100  1  0.323400  0.166600  0.790500  1.0  0.0944
  H  H101  1  0.238200  0.039400  0.706700  1.0  0.1042
  H  H102  1  0.370300  0.951700  0.646900  1.0  0.0948
  H  H103  1  0.422000  0.978400  0.628800  1.0  0.1111
  H  H104  1  0.410900  0.251000  0.674400  1.0  0.1086
  H  H105  1  0.359800  0.222300  0.701800  1.0  0.1092
  H  H106  1  0.469700  0.003100  0.627400  1.0  0.1185
  H  H107  1  0.521200  0.032500  0.599000  1.0  0.1177
  H  H108  1  0.504200  0.308900  0.603800  1.0  0.1249
  H  H109  1  0.452700  0.279500  0.632200  1.0  0.1122
  H  H110  1  0.568200  0.058400  0.586700  1.0  0.1206
  H  H111  1  0.617000  0.088400  0.543600  1.0  0.0966
  H  H112  1  0.597700  0.361300  0.538300  1.0  0.0973
  H  H113  1  0.546700  0.331300  0.567200  1.0  0.1514
  H  H114  1  0.813600  0.460700  0.589600  1.0  0.1065
  H  H115  1  0.823400  0.666667  0.790500  1.0  0.0944
  H  H116  1  0.738200  0.539400  0.706700  1.0  0.1044
  H  H117  1  0.870300  0.451700  0.646900  1.0  0.0948
  H  H118  1  0.922000  0.478400  0.628800  1.0  0.1111
  H  H119  1  0.910900  0.751000  0.674400  1.0  0.1086
  H  H120  1  0.859800  0.722300  0.701800  1.0  0.109
  H  H121  1  0.969700  0.503100  0.627400  1.0  0.1185
  H  H122  1  0.021200  0.532500  0.599000  1.0  0.1177
  H  H123  1  0.004200  0.808900  0.603800  1.0  0.1249
  H  H124  1  0.952700  0.779500  0.632200  1.0  0.1122
  H  H125  1  0.068200  0.558400  0.586700  1.0  0.1206
  H  H126  1  0.117000  0.588400  0.543600  1.0  0.0966
  H  H127  1  0.097700  0.861300  0.538300  1.0  0.0973
  H  H128  1  0.046700  0.831300  0.567200  1.0  0.1514
  C  C129  1  0.252350  0.085700  0.079900  1.0  0.7465
  C  C130  1  0.273190  0.012200  0.141400  1.0  -0.1522
  C  C131  1  0.305100  0.001000  0.132600  1.0  -0.06
  C  C132  1  0.324700  0.933000  0.187600  1.0  0.033
  C  C133  1  0.310820  0.878800  0.252500  1.0  -0.0731
  C  C134  1  0.279070  0.890000  0.262400  1.0  -0.1646
  C  C135  1  0.259960  0.955100  0.204000  1.0  0.0283
  C  C136  1  0.265840  0.829900  0.336600  1.0  0.8033
  C  C137  1  0.358360  0.917100  0.176000  1.0  0.0656
  C  C138  1  0.378330  0.987500  0.153700  1.0  -0.1324
  C  C139  1  0.409380  0.971500  0.141300  1.0  -0.1475
  C  C140  1  0.422070  0.882400  0.146900  1.0  -0.0206
  C  C141  1  0.402920  0.809800  0.169600  1.0  -0.1348
  C  C142  1  0.371950  0.827200  0.185000  1.0  -0.1229
  C  C143  1  0.456110  0.861600  0.132600  1.0  -0.0309
  C  C144  1  0.476620  0.935600  0.122700  1.0  -0.097
  C  C145  1  0.507470  0.918000  0.105600  1.0  -0.0991
  C  C146  1  0.517810  0.826400  0.098600  1.0  -0.0314
  C  C147  1  0.497300  0.752400  0.108500  1.0  -0.1258
  C  C148  1  0.466450  0.770000  0.125500  1.0  -0.115
  C  C149  1  0.551550  0.809300  0.077800  1.0  -0.0094
  C  C150  1  0.573490  0.880500  0.073200  1.0  -0.1285
  C  C151  1  0.603080  0.862200  0.048900  1.0  -0.0644
  C  C152  1  0.612250  0.772600  0.032400  1.0  -0.1188
  C  C153  1  0.591220  0.700300  0.043900  1.0  -0.0535
  C  C154  1  0.560880  0.717900  0.063500  1.0  -0.1438
  C  C155  1  0.643920  0.753600  0.003200  1.0  0.7028
  C  C156  1  0.752350  0.585700  0.079900  1.0  0.7465
  C  C157  1  0.773190  0.512200  0.141400  1.0  -0.1522
  C  C158  1  0.805100  0.501000  0.132600  1.0  -0.06
  C  C159  1  0.824700  0.433000  0.187600  1.0  0.033
  C  C160  1  0.810820  0.378800  0.252500  1.0  -0.0731
  C  C161  1  0.779070  0.390000  0.262400  1.0  -0.1646
  C  C162  1  0.759960  0.455100  0.204000  1.0  0.0283
  C  C163  1  0.765840  0.329900  0.336600  1.0  0.8033
  C  C164  1  0.858360  0.417100  0.176000  1.0  0.0656
  C  C165  1  0.878330  0.487500  0.153700  1.0  -0.1324
  C  C166  1  0.909380  0.471500  0.141300  1.0  -0.1475
  C  C167  1  0.922070  0.382400  0.146900  1.0  -0.0206
  C  C168  1  0.902920  0.309800  0.169600  1.0  -0.1348
  C  C169  1  0.871950  0.327200  0.185000  1.0  -0.1229
  C  C170  1  0.956110  0.361600  0.132600  1.0  -0.0309
  C  C171  1  0.976620  0.435600  0.122700  1.0  -0.097
  C  C172  1  0.007470  0.418000  0.105600  1.0  -0.0991
  C  C173  1  0.017810  0.326400  0.098600  1.0  -0.0314
  C  C174  1  0.997300  0.252400  0.108500  1.0  -0.1258
  C  C175  1  0.966450  0.270000  0.125500  1.0  -0.115
  C  C176  1  0.051550  0.309300  0.077800  1.0  -0.0094
  C  C177  1  0.073490  0.380500  0.073200  1.0  -0.1285
  C  C178  1  0.103080  0.362200  0.048900  1.0  -0.0644
  C  C179  1  0.112250  0.272600  0.032400  1.0  -0.1188
  C  C180  1  0.091220  0.200300  0.043900  1.0  -0.0535
  C  C181  1  0.060880  0.217900  0.063500  1.0  -0.1438
  C  C182  1  0.143920  0.253600  0.003200  1.0  0.7028
  C  C183  1  0.747650  0.085700  0.420100  1.0  0.7479
  C  C184  1  0.726810  0.012200  0.358600  1.0  -0.1534
  C  C185  1  0.694900  0.001000  0.367400  1.0  -0.0606
  C  C186  1  0.675300  0.933000  0.312400  1.0  0.033
  C  C187  1  0.689180  0.878800  0.247500  1.0  -0.0732
  C  C188  1  0.720930  0.890000  0.237600  1.0  -0.1638
  C  C189  1  0.740040  0.955100  0.296000  1.0  0.0291
  C  C190  1  0.734160  0.829900  0.163400  1.0  0.802
  C  C191  1  0.641640  0.917100  0.324000  1.0  0.0677
  C  C192  1  0.621670  0.987500  0.346300  1.0  -0.1307
  C  C193  1  0.590620  0.971500  0.358700  1.0  -0.147
  C  C194  1  0.577930  0.882400  0.353100  1.0  -0.0188
  C  C195  1  0.597080  0.809800  0.330400  1.0  -0.1333
  C  C196  1  0.628050  0.827200  0.315000  1.0  -0.122
  C  C197  1  0.543890  0.861600  0.367400  1.0  -0.0284
  C  C198  1  0.523380  0.935600  0.377300  1.0  -0.0968
  C  C199  1  0.492530  0.918000  0.394400  1.0  -0.0981
  C  C200  1  0.482190  0.826400  0.401400  1.0  -0.0321
  C  C201  1  0.502700  0.752400  0.391500  1.0  -0.1252
  C  C202  1  0.533550  0.770000  0.374500  1.0  -0.1183
  C  C203  1  0.448450  0.809300  0.422200  1.0  -0.0088
  C  C204  1  0.426510  0.880500  0.426800  1.0  -0.1272
  C  C205  1  0.396920  0.862200  0.451100  1.0  -0.0615
  C  C206  1  0.387750  0.772600  0.467600  1.0  -0.1191
  C  C207  1  0.408780  0.700300  0.456100  1.0  -0.054
  C  C208  1  0.439120  0.717900  0.436500  1.0  -0.1456
  C  C209  1  0.356080  0.753600  0.496800  1.0  0.7051
  C  C210  1  0.247650  0.585700  0.420100  1.0  0.7479
  C  C211  1  0.226810  0.512200  0.358600  1.0  -0.1534
  C  C212  1  0.194900  0.501000  0.367400  1.0  -0.0606
  C  C213  1  0.175300  0.433000  0.312400  1.0  0.033
  C  C214  1  0.189180  0.378800  0.247500  1.0  -0.0732
  C  C215  1  0.220930  0.390000  0.237600  1.0  -0.1638
  C  C216  1  0.240040  0.455100  0.296000  1.0  0.0291
  C  C217  1  0.234160  0.329900  0.163400  1.0  0.802
  C  C218  1  0.141640  0.417100  0.324000  1.0  0.0677
  C  C219  1  0.121670  0.487500  0.346300  1.0  -0.1307
  C  C220  1  0.090620  0.471500  0.358700  1.0  -0.147
  C  C221  1  0.077930  0.382400  0.353100  1.0  -0.0188
  C  C222  1  0.097080  0.309800  0.330400  1.0  -0.1333
  C  C223  1  0.128050  0.327200  0.315000  1.0  -0.122
  C  C224  1  0.043890  0.361600  0.367400  1.0  -0.0284
  C  C225  1  0.023380  0.435600  0.377300  1.0  -0.0968
  C  C226  1  0.992530  0.418000  0.394400  1.0  -0.0981
  C  C227  1  0.982190  0.326400  0.401400  1.0  -0.0321
  C  C228  1  0.002700  0.252400  0.391500  1.0  -0.1252
  C  C229  1  0.033550  0.270000  0.374500  1.0  -0.1183
  C  C230  1  0.948450  0.309300  0.422200  1.0  -0.0088
  C  C231  1  0.926510  0.380500  0.426800  1.0  -0.1272
  C  C232  1  0.896920  0.362200  0.451100  1.0  -0.0615
  C  C233  1  0.887750  0.272600  0.467600  1.0  -0.1191
  C  C234  1  0.908780  0.200300  0.456100  1.0  -0.054
  C  C235  1  0.939120  0.217900  0.436500  1.0  -0.1456
  C  C236  1  0.856080  0.253600  0.496800  1.0  0.7051
  C  C237  1  0.747650  0.914300  0.920100  1.0  0.7476
  C  C238  1  0.726810  0.987800  0.858600  1.0  -0.1534
  C  C239  1  0.694900  0.999000  0.867400  1.0  -0.0604
  C  C240  1  0.675300  0.067000  0.812400  1.0  0.0331
  C  C241  1  0.689180  0.121200  0.747500  1.0  -0.0733
  C  C242  1  0.720930  0.110000  0.737600  1.0  -0.1641
  C  C243  1  0.740040  0.044900  0.796000  1.0  0.0286
  C  C244  1  0.734160  0.170100  0.663400  1.0  0.8025
  C  C245  1  0.641640  0.082900  0.824000  1.0  0.0677
  C  C246  1  0.621670  0.012500  0.846300  1.0  -0.1306
  C  C247  1  0.590620  0.028500  0.858700  1.0  -0.1459
  C  C248  1  0.577930  0.117600  0.853100  1.0  -0.019
  C  C249  1  0.597080  0.190200  0.830400  1.0  -0.1356
  C  C250  1  0.628050  0.172800  0.815000  1.0  -0.1233
  C  C251  1  0.543890  0.138400  0.867400  1.0  -0.0285
  C  C252  1  0.523380  0.064400  0.877300  1.0  -0.0959
  C  C253  1  0.492530  0.082000  0.894400  1.0  -0.097
  C  C254  1  0.482190  0.173600  0.901400  1.0  -0.0317
  C  C255  1  0.502700  0.247600  0.891500  1.0  -0.1261
  C  C256  1  0.533550  0.230000  0.874500  1.0  -0.1183
  C  C257  1  0.448450  0.190700  0.922200  1.0  -0.0093
  C  C258  1  0.426510  0.119500  0.926800  1.0  -0.1254
  C  C259  1  0.396920  0.137800  0.951100  1.0  -0.0618
  C  C260  1  0.387750  0.227400  0.967600  1.0  -0.1186
  C  C261  1  0.408780  0.299700  0.956100  1.0  -0.0481
  C  C262  1  0.439120  0.282100  0.936500  1.0  -0.1444
  C  C263  1  0.356080  0.246400  0.996800  1.0  0.7045
  C  C264  1  0.247650  0.414300  0.920100  1.0  0.7476
  C  C265  1  0.226810  0.487800  0.858600  1.0  -0.1534
  C  C266  1  0.194900  0.499000  0.867400  1.0  -0.0604
  C  C267  1  0.175300  0.567000  0.812400  1.0  0.0332
  C  C268  1  0.189180  0.621200  0.747500  1.0  -0.0692
  C  C269  1  0.220930  0.610000  0.737600  1.0  -0.1651
  C  C270  1  0.240040  0.544900  0.796000  1.0  0.0286
  C  C271  1  0.234160  0.670100  0.663400  1.0  0.8024
  C  C272  1  0.141640  0.582900  0.824000  1.0  0.0676
  C  C273  1  0.121670  0.512500  0.846300  1.0  -0.1306
  C  C274  1  0.090620  0.528500  0.858700  1.0  -0.1459
  C  C275  1  0.077930  0.617600  0.853100  1.0  -0.019
  C  C276  1  0.097080  0.690200  0.830400  1.0  -0.1356
  C  C277  1  0.128050  0.672800  0.815000  1.0  -0.1233
  C  C278  1  0.043890  0.638400  0.867400  1.0  -0.0285
  C  C279  1  0.023380  0.564400  0.877300  1.0  -0.0959
  C  C280  1  0.992530  0.582000  0.894400  1.0  -0.097
  C  C281  1  0.982190  0.673600  0.901400  1.0  -0.0317
  C  C282  1  0.002700  0.747600  0.891500  1.0  -0.1261
  C  C283  1  0.033550  0.730000  0.874500  1.0  -0.1183
  C  C284  1  0.948450  0.690700  0.922200  1.0  -0.0093
  C  C285  1  0.926510  0.619500  0.926800  1.0  -0.1254
  C  C286  1  0.896920  0.637800  0.951100  1.0  -0.0618
  C  C287  1  0.887750  0.727400  0.967600  1.0  -0.1186
  C  C288  1  0.908780  0.799700  0.956100  1.0  -0.0481
  C  C289  1  0.939120  0.782100  0.936500  1.0  -0.1444
  C  C290  1  0.856080  0.746400  0.996800  1.0  0.7045
  C  C291  1  0.252350  0.914300  0.579900  1.0  0.7462
  C  C292  1  0.273190  0.987800  0.641400  1.0  -0.1526
  C  C293  1  0.305100  0.999000  0.632600  1.0  -0.0598
  C  C294  1  0.324700  0.067000  0.687600  1.0  0.0329
  C  C295  1  0.310820  0.121200  0.752500  1.0  -0.0731
  C  C296  1  0.279070  0.110000  0.762400  1.0  -0.1644
  C  C297  1  0.259960  0.044900  0.704000  1.0  0.0281
  C  C298  1  0.265840  0.170100  0.836600  1.0  0.8039
  C  C299  1  0.358360  0.082900  0.676000  1.0  0.0657
  C  C300  1  0.378330  0.012500  0.653700  1.0  -0.1327
  C  C301  1  0.409380  0.028500  0.641300  1.0  -0.1467
  C  C302  1  0.422070  0.117600  0.646900  1.0  -0.0204
  C  C303  1  0.402920  0.190200  0.669600  1.0  -0.1337
  C  C304  1  0.371950  0.172800  0.685000  1.0  -0.1234
  C  C305  1  0.456110  0.138400  0.632600  1.0  -0.0314
  C  C306  1  0.476620  0.064400  0.622700  1.0  -0.0959
  C  C307  1  0.507470  0.082000  0.605600  1.0  -0.0986
  C  C308  1  0.517810  0.173600  0.598600  1.0  -0.0316
  C  C309  1  0.497300  0.247600  0.608500  1.0  -0.1245
  C  C310  1  0.466450  0.230000  0.625500  1.0  -0.1158
  C  C311  1  0.551550  0.190700  0.577800  1.0  -0.0088
  C  C312  1  0.573490  0.119500  0.573200  1.0  -0.1263
  C  C313  1  0.603080  0.137800  0.548900  1.0  -0.0648
  C  C314  1  0.612250  0.227400  0.532400  1.0  -0.1188
  C  C315  1  0.591220  0.299700  0.543900  1.0  -0.0484
  C  C316  1  0.560880  0.282100  0.563500  1.0  -0.1411
  C  C317  1  0.643920  0.246400  0.503200  1.0  0.7045
  C  C318  1  0.752350  0.414300  0.579900  1.0  0.7462
  C  C319  1  0.773190  0.487800  0.641400  1.0  -0.1526
  C  C320  1  0.805100  0.499000  0.632600  1.0  -0.0598
  C  C321  1  0.824700  0.567000  0.687600  1.0  0.033
  C  C322  1  0.810820  0.621200  0.752500  1.0  -0.0701
  C  C323  1  0.779070  0.610000  0.762400  1.0  -0.1653
  C  C324  1  0.759960  0.544900  0.704000  1.0  0.0281
  C  C325  1  0.765840  0.670100  0.836600  1.0  0.8038
  C  C326  1  0.858360  0.582900  0.676000  1.0  0.0657
  C  C327  1  0.878330  0.512500  0.653700  1.0  -0.1327
  C  C328  1  0.909380  0.528500  0.641300  1.0  -0.1467
  C  C329  1  0.922070  0.617600  0.646900  1.0  -0.0204
  C  C330  1  0.902920  0.690200  0.669600  1.0  -0.1337
  C  C331  1  0.871950  0.672800  0.685000  1.0  -0.1234
  C  C332  1  0.956110  0.638400  0.632600  1.0  -0.0314
  C  C333  1  0.976620  0.564400  0.622700  1.0  -0.0959
  C  C334  1  0.007470  0.582000  0.605600  1.0  -0.0986
  C  C335  1  0.017810  0.673600  0.598600  1.0  -0.0316
  C  C336  1  0.997300  0.747600  0.608500  1.0  -0.1245
  C  C337  1  0.966450  0.730000  0.625500  1.0  -0.1158
  C  C338  1  0.051550  0.690700  0.577800  1.0  -0.0088
  C  C339  1  0.073490  0.619500  0.573200  1.0  -0.1263
  C  C340  1  0.103080  0.637800  0.548900  1.0  -0.0648
  C  C341  1  0.112250  0.727400  0.532400  1.0  -0.1188
  C  C342  1  0.091220  0.799700  0.543900  1.0  -0.0484
  C  C343  1  0.060880  0.782100  0.563500  1.0  -0.1411
  C  C344  1  0.143920  0.746400  0.503200  1.0  0.7045
  O  O345  1  0.222380  0.073700  0.056300  1.0  -0.6555
  O  O346  1  0.265450  0.156700  0.051700  1.0  -0.8196
  O  O347  1  0.237240  0.845100  0.345700  1.0  -0.7958
  O  O348  1  0.284340  0.769400  0.383200  1.0  -0.7159
  O  O349  1  0.654640  0.671200  0.010200  1.0  -0.6636
  O  O350  1  0.659310  0.817400  0.973100  1.0  -0.6137
  O  O351  1  0.722380  0.573700  0.056300  1.0  -0.6553
  O  O352  1  0.765450  0.656700  0.051700  1.0  -0.8196
  O  O353  1  0.737240  0.345100  0.345700  1.0  -0.7958
  O  O354  1  0.784340  0.269400  0.383200  1.0  -0.7159
  O  O355  1  0.154640  0.171200  0.010200  1.0  -0.6638
  O  O356  1  0.159310  0.317400  0.973100  1.0  -0.6137
  O  O357  1  0.777620  0.073700  0.443700  1.0  -0.6566
  O  O358  1  0.734550  0.156700  0.448300  1.0  -0.8202
  O  O359  1  0.762760  0.845100  0.154300  1.0  -0.7942
  O  O360  1  0.715660  0.769400  0.116800  1.0  -0.7154
  O  O361  1  0.345360  0.671200  0.489800  1.0  -0.6665
  O  O362  1  0.340690  0.817400  0.526900  1.0  -0.6124
  O  O363  1  0.277620  0.573700  0.443700  1.0  -0.6566
  O  O364  1  0.234550  0.656700  0.448300  1.0  -0.8202
  O  O365  1  0.262760  0.345100  0.154300  1.0  -0.7942
  O  O366  1  0.215660  0.269400  0.116800  1.0  -0.7154
  O  O367  1  0.845360  0.171200  0.489800  1.0  -0.6666
  O  O368  1  0.840690  0.317400  0.526900  1.0  -0.6124
  O  O369  1  0.777620  0.926300  0.943700  1.0  -0.6569
  O  O370  1  0.734550  0.843300  0.948300  1.0  -0.8205
  O  O371  1  0.762760  0.154900  0.654300  1.0  -0.7941
  O  O372  1  0.715660  0.230600  0.616800  1.0  -0.7147
  O  O373  1  0.345360  0.328800  0.989800  1.0  -0.6671
  O  O374  1  0.340690  0.182600  0.026900  1.0  -0.6127
  O  O375  1  0.277620  0.426300  0.943700  1.0  -0.6567
  O  O376  1  0.234550  0.343300  0.948300  1.0  -0.8205
  O  O377  1  0.262760  0.654900  0.654300  1.0  -0.7941
  O  O378  1  0.215660  0.730600  0.616800  1.0  -0.7147
  O  O379  1  0.845360  0.828800  0.989800  1.0  -0.6675
  O  O380  1  0.840690  0.682600  0.026900  1.0  -0.6127
  O  O381  1  0.222380  0.926300  0.556300  1.0  -0.6552
  O  O382  1  0.265450  0.843300  0.551700  1.0  -0.8202
  O  O383  1  0.237240  0.154900  0.845700  1.0  -0.7953
  O  O384  1  0.284340  0.230600  0.883200  1.0  -0.7147
  O  O385  1  0.654640  0.328800  0.510200  1.0  -0.6687
  O  O386  1  0.659310  0.182600  0.473100  1.0  -0.6136
  O  O387  1  0.722380  0.426300  0.556300  1.0  -0.6552
  O  O388  1  0.765450  0.343300  0.551700  1.0  -0.8202
  O  O389  1  0.737240  0.654900  0.845700  1.0  -0.7953
  O  O390  1  0.784340  0.730600  0.883200  1.0  -0.7147
  O  O391  1  0.154640  0.828800  0.510200  1.0  -0.6687
  O  O392  1  0.159310  0.682600  0.473100  1.0  -0.6136
