# generated using pymatgen
data_LaH7(C5O2)3
_symmetry_space_group_name_H-M   'P 1'
_cell_length_a   24.79900000
_cell_length_b   13.26300000
_cell_length_c   14.97100000
_cell_angle_alpha   90.00000000
_cell_angle_beta   96.63500000
_cell_angle_gamma   90.00000000
_symmetry_Int_Tables_number   1
_chemical_formula_structural   LaH7(C5O2)3
_chemical_formula_sum   'La8 H56 C120 O48'
_cell_volume   4891.11889475
_cell_formula_units_Z   8
loop_
 _symmetry_equiv_pos_site_id
 _symmetry_equiv_pos_as_xyz
  1  'x, y, z'
loop_
 _atom_site_type_symbol
 _atom_site_label
 _atom_site_symmetry_multiplicity
 _atom_site_fract_x
 _atom_site_fract_y
 _atom_site_fract_z
 _atom_site_occupancy
 _atom_site_charge
  La  La1  1  0.329890  0.792150  0.030640  1.0  2.1566
  La  La2  1  0.829890  0.292150  0.030640  1.0  2.1566
  La  La3  1  0.670110  0.792150  0.469360  1.0  2.1582
  La  La4  1  0.170110  0.292150  0.469360  1.0  2.1582
  La  La5  1  0.670110  0.207850  0.969360  1.0  2.1579
  La  La6  1  0.170110  0.707850  0.969360  1.0  2.1579
  La  La7  1  0.329890  0.207850  0.530640  1.0  2.1564
  La  La8  1  0.829890  0.707850  0.530640  1.0  2.1564
  H  H9  1  0.272200  0.043600  0.788700  1.0  0.1124
  H  H10  1  0.132700  0.192900  0.730000  1.0  0.0983
  H  H11  1  0.147100  0.992200  0.930800  1.0  0.1053
  H  H12  1  0.084100  0.279400  0.831700  1.0  0.1157
  H  H13  1  0.002300  0.330400  0.876300  1.0  0.1079
  H  H14  1  0.970700  0.046800  0.942800  1.0  0.1115
  H  H15  1  0.052300  0.995300  0.897000  1.0  0.1032
  H  H16  1  0.772200  0.543600  0.788700  1.0  0.1124
  H  H17  1  0.632700  0.692900  0.730000  1.0  0.0983
  H  H18  1  0.647100  0.492200  0.930800  1.0  0.1053
  H  H19  1  0.584100  0.779400  0.831700  1.0  0.1157
  H  H20  1  0.502300  0.830400  0.876300  1.0  0.1079
  H  H21  1  0.470700  0.546800  0.942800  1.0  0.1115
  H  H22  1  0.552300  0.495300  0.897000  1.0  0.1032
  H  H23  1  0.727800  0.043600  0.711300  1.0  0.1128
  H  H24  1  0.867300  0.192900  0.770000  1.0  0.0971
  H  H25  1  0.852900  0.992200  0.569200  1.0  0.105
  H  H26  1  0.915900  0.279400  0.668300  1.0  0.1153
  H  H27  1  0.997700  0.330400  0.623700  1.0  0.1078
  H  H28  1  0.029300  0.046800  0.557200  1.0  0.1115
  H  H29  1  0.947700  0.995300  0.603000  1.0  0.1029
  H  H30  1  0.227800  0.543600  0.711300  1.0  0.1128
  H  H31  1  0.367300  0.692900  0.770000  1.0  0.0971
  H  H32  1  0.352900  0.492200  0.569200  1.0  0.105
  H  H33  1  0.415900  0.779400  0.668300  1.0  0.1153
  H  H34  1  0.497700  0.830400  0.623700  1.0  0.1078
  H  H35  1  0.529300  0.546800  0.557200  1.0  0.1115
  H  H36  1  0.447700  0.495300  0.603000  1.0  0.1029
  H  H37  1  0.727800  0.956400  0.211300  1.0  0.113
  H  H38  1  0.867300  0.807100  0.270000  1.0  0.0979
  H  H39  1  0.852900  0.007800  0.069200  1.0  0.1047
  H  H40  1  0.915900  0.720600  0.168300  1.0  0.1149
  H  H41  1  0.997700  0.669600  0.123700  1.0  0.1069
  H  H42  1  0.029300  0.953200  0.057200  1.0  0.1112
  H  H43  1  0.947700  0.004700  0.103000  1.0  0.103
  H  H44  1  0.227800  0.456400  0.211300  1.0  0.113
  H  H45  1  0.367300  0.307100  0.270000  1.0  0.0979
  H  H46  1  0.352900  0.507800  0.069200  1.0  0.1047
  H  H47  1  0.415900  0.220600  0.168300  1.0  0.1149
  H  H48  1  0.497700  0.169600  0.123700  1.0  0.1069
  H  H49  1  0.529300  0.453200  0.057200  1.0  0.1112
  H  H50  1  0.447700  0.504700  0.103000  1.0  0.103
  H  H51  1  0.272200  0.956400  0.288700  1.0  0.1124
  H  H52  1  0.132700  0.807100  0.230000  1.0  0.0983
  H  H53  1  0.147100  0.007800  0.430800  1.0  0.1048
  H  H54  1  0.084100  0.720600  0.331700  1.0  0.1158
  H  H55  1  0.002300  0.669600  0.376300  1.0  0.1068
  H  H56  1  0.970700  0.953200  0.442800  1.0  0.1112
  H  H57  1  0.052300  0.004700  0.397000  1.0  0.1036
  H  H58  1  0.772200  0.456400  0.288700  1.0  0.1124
  H  H59  1  0.632700  0.307100  0.230000  1.0  0.0983
  H  H60  1  0.647100  0.507800  0.430800  1.0  0.1048
  H  H61  1  0.584100  0.220600  0.331700  1.0  0.1158
  H  H62  1  0.502300  0.169600  0.376300  1.0  0.1068
  H  H63  1  0.470700  0.453200  0.442800  1.0  0.1112
  H  H64  1  0.552300  0.504700  0.397000  1.0  0.1036
  C  C65  1  0.249500  0.933800  0.926100  1.0  0.747
  C  C66  1  0.214900  0.007000  0.869600  1.0  -0.1421
  C  C67  1  0.236700  0.056700  0.799500  1.0  0.0201
  C  C68  1  0.205900  0.124400  0.746900  1.0  -0.1553
  C  C69  1  0.153500  0.146500  0.765600  1.0  -0.0535
  C  C70  1  0.131600  0.100400  0.836700  1.0  0.0071
  C  C71  1  0.162200  0.027600  0.886100  1.0  -0.0547
  C  C72  1  0.227400  0.173800  0.666500  1.0  0.7984
  C  C73  1  0.077400  0.131200  0.860400  1.0  0.0179
  C  C74  1  0.061600  0.232200  0.854400  1.0  -0.1335
  C  C75  1  0.012700  0.263100  0.881900  1.0  -0.0687
  C  C76  1  0.979300  0.193900  0.917700  1.0  -0.1414
  C  C77  1  0.993700  0.094100  0.921400  1.0  -0.0578
  C  C78  1  0.042800  0.063200  0.893400  1.0  -0.127
  C  C79  1  0.929700  0.228400  0.957400  1.0  0.6811
  C  C80  1  0.749500  0.433800  0.926100  1.0  0.747
  C  C81  1  0.714900  0.507000  0.869600  1.0  -0.1421
  C  C82  1  0.736700  0.556700  0.799500  1.0  0.0201
  C  C83  1  0.705900  0.624400  0.746900  1.0  -0.1553
  C  C84  1  0.653500  0.646500  0.765600  1.0  -0.0535
  C  C85  1  0.631600  0.600400  0.836700  1.0  0.0071
  C  C86  1  0.662200  0.527600  0.886100  1.0  -0.0547
  C  C87  1  0.727400  0.673800  0.666500  1.0  0.7984
  C  C88  1  0.577400  0.631200  0.860400  1.0  0.0179
  C  C89  1  0.561600  0.732200  0.854400  1.0  -0.1335
  C  C90  1  0.512700  0.763100  0.881900  1.0  -0.0687
  C  C91  1  0.479300  0.693900  0.917700  1.0  -0.1414
  C  C92  1  0.493700  0.594100  0.921400  1.0  -0.0578
  C  C93  1  0.542800  0.563200  0.893400  1.0  -0.127
  C  C94  1  0.429700  0.728400  0.957400  1.0  0.6811
  C  C95  1  0.750500  0.933800  0.573900  1.0  0.748
  C  C96  1  0.785100  0.007000  0.630400  1.0  -0.1412
  C  C97  1  0.763300  0.056700  0.700500  1.0  0.0177
  C  C98  1  0.794100  0.124400  0.753100  1.0  -0.1552
  C  C99  1  0.846500  0.146500  0.734400  1.0  -0.0522
  C  C100  1  0.868400  0.100400  0.663300  1.0  0.0066
  C  C101  1  0.837800  0.027600  0.613900  1.0  -0.054
  C  C102  1  0.772600  0.173800  0.833500  1.0  0.7987
  C  C103  1  0.922600  0.131200  0.639600  1.0  0.0175
  C  C104  1  0.938400  0.232200  0.645600  1.0  -0.134
  C  C105  1  0.987300  0.263100  0.618100  1.0  -0.0681
  C  C106  1  0.020700  0.193900  0.582300  1.0  -0.1402
  C  C107  1  0.006300  0.094100  0.578600  1.0  -0.0585
  C  C108  1  0.957200  0.063200  0.606600  1.0  -0.1279
  C  C109  1  0.070300  0.228400  0.542600  1.0  0.6814
  C  C110  1  0.250500  0.433800  0.573900  1.0  0.748
  C  C111  1  0.285100  0.507000  0.630400  1.0  -0.1412
  C  C112  1  0.263300  0.556700  0.700500  1.0  0.0177
  C  C113  1  0.294100  0.624400  0.753100  1.0  -0.1552
  C  C114  1  0.346500  0.646500  0.734400  1.0  -0.0522
  C  C115  1  0.368400  0.600400  0.663300  1.0  0.0066
  C  C116  1  0.337800  0.527600  0.613900  1.0  -0.054
  C  C117  1  0.272600  0.673800  0.833500  1.0  0.7987
  C  C118  1  0.422600  0.631200  0.639600  1.0  0.0175
  C  C119  1  0.438400  0.732200  0.645600  1.0  -0.134
  C  C120  1  0.487300  0.763100  0.618100  1.0  -0.0681
  C  C121  1  0.520700  0.693900  0.582300  1.0  -0.1402
  C  C122  1  0.506300  0.594100  0.578600  1.0  -0.0585
  C  C123  1  0.457200  0.563200  0.606600  1.0  -0.1279
  C  C124  1  0.570300  0.728400  0.542600  1.0  0.6814
  C  C125  1  0.750500  0.066200  0.073900  1.0  0.7475
  C  C126  1  0.785100  0.993000  0.130400  1.0  -0.141
  C  C127  1  0.763300  0.943300  0.200500  1.0  0.0173
  C  C128  1  0.794100  0.875600  0.253100  1.0  -0.155
  C  C129  1  0.846500  0.853500  0.234400  1.0  -0.051
  C  C130  1  0.868400  0.899600  0.163300  1.0  0.0066
  C  C131  1  0.837800  0.972400  0.113900  1.0  -0.0538
  C  C132  1  0.772600  0.826200  0.333500  1.0  0.798
  C  C133  1  0.922600  0.868800  0.139600  1.0  0.0174
  C  C134  1  0.938400  0.767800  0.145600  1.0  -0.1343
  C  C135  1  0.987300  0.736900  0.118100  1.0  -0.0701
  C  C136  1  0.020700  0.806100  0.082300  1.0  -0.1407
  C  C137  1  0.006300  0.905900  0.078600  1.0  -0.0595
  C  C138  1  0.957200  0.936800  0.106600  1.0  -0.1291
  C  C139  1  0.070300  0.771600  0.042600  1.0  0.6798
  C  C140  1  0.250500  0.566200  0.073900  1.0  0.7475
  C  C141  1  0.285100  0.493000  0.130400  1.0  -0.141
  C  C142  1  0.263300  0.443300  0.200500  1.0  0.0173
  C  C143  1  0.294100  0.375600  0.253100  1.0  -0.155
  C  C144  1  0.346500  0.353500  0.234400  1.0  -0.051
  C  C145  1  0.368400  0.399600  0.163300  1.0  0.0066
  C  C146  1  0.337800  0.472400  0.113900  1.0  -0.0538
  C  C147  1  0.272600  0.326200  0.333500  1.0  0.798
  C  C148  1  0.422600  0.368800  0.139600  1.0  0.0174
  C  C149  1  0.438400  0.267800  0.145600  1.0  -0.1343
  C  C150  1  0.487300  0.236900  0.118100  1.0  -0.0701
  C  C151  1  0.520700  0.306100  0.082300  1.0  -0.1407
  C  C152  1  0.506300  0.405900  0.078600  1.0  -0.0595
  C  C153  1  0.457200  0.436800  0.106600  1.0  -0.1291
  C  C154  1  0.570300  0.271600  0.042600  1.0  0.6798
  C  C155  1  0.249500  0.066200  0.426100  1.0  0.7473
  C  C156  1  0.214900  0.993000  0.369600  1.0  -0.1423
  C  C157  1  0.236700  0.943300  0.299500  1.0  0.0201
  C  C158  1  0.205900  0.875600  0.246900  1.0  -0.155
  C  C159  1  0.153500  0.853500  0.265600  1.0  -0.0526
  C  C160  1  0.131600  0.899600  0.336700  1.0  0.0072
  C  C161  1  0.162200  0.972400  0.386100  1.0  -0.0542
  C  C162  1  0.227400  0.826200  0.166500  1.0  0.7979
  C  C163  1  0.077400  0.868800  0.360400  1.0  0.0177
  C  C164  1  0.061600  0.767800  0.354400  1.0  -0.1343
  C  C165  1  0.012700  0.736900  0.381900  1.0  -0.0703
  C  C166  1  0.979300  0.806100  0.417700  1.0  -0.142
  C  C167  1  0.993700  0.905900  0.421400  1.0  -0.0587
  C  C168  1  0.042800  0.936800  0.393400  1.0  -0.1282
  C  C169  1  0.929700  0.771600  0.457400  1.0  0.6808
  C  C170  1  0.749500  0.566200  0.426100  1.0  0.7473
  C  C171  1  0.714900  0.493000  0.369600  1.0  -0.1423
  C  C172  1  0.736700  0.443300  0.299500  1.0  0.0201
  C  C173  1  0.705900  0.375600  0.246900  1.0  -0.155
  C  C174  1  0.653500  0.353500  0.265600  1.0  -0.0526
  C  C175  1  0.631600  0.399600  0.336700  1.0  0.0072
  C  C176  1  0.662200  0.472400  0.386100  1.0  -0.0542
  C  C177  1  0.727400  0.326200  0.166500  1.0  0.7979
  C  C178  1  0.577400  0.368800  0.360400  1.0  0.0177
  C  C179  1  0.561600  0.267800  0.354400  1.0  -0.1343
  C  C180  1  0.512700  0.236900  0.381900  1.0  -0.0703
  C  C181  1  0.479300  0.306100  0.417700  1.0  -0.142
  C  C182  1  0.493700  0.405900  0.421400  1.0  -0.0587
  C  C183  1  0.542800  0.436800  0.393400  1.0  -0.1282
  C  C184  1  0.429700  0.271600  0.457400  1.0  0.6808
  O  O185  1  0.299360  0.946600  0.936300  1.0  -0.6694
  O  O186  1  0.226840  0.860200  0.961800  1.0  -0.8561
  O  O187  1  0.274890  0.151400  0.652300  1.0  -0.7154
  O  O188  1  0.197280  0.234700  0.623600  1.0  -0.6646
  O  O189  1  0.915980  0.319300  0.953300  1.0  -0.71
  O  O190  1  0.901990  0.163200  0.993700  1.0  -0.628
  O  O191  1  0.799360  0.446600  0.936300  1.0  -0.6698
  O  O192  1  0.726840  0.360200  0.961800  1.0  -0.8561
  O  O193  1  0.774890  0.651400  0.652300  1.0  -0.7154
  O  O194  1  0.697280  0.734700  0.623600  1.0  -0.6646
  O  O195  1  0.415980  0.819300  0.953300  1.0  -0.71
  O  O196  1  0.401990  0.663200  0.993700  1.0  -0.628
  O  O197  1  0.700640  0.946600  0.563700  1.0  -0.6702
  O  O198  1  0.773160  0.860200  0.538200  1.0  -0.8562
  O  O199  1  0.725110  0.151400  0.847700  1.0  -0.7155
  O  O200  1  0.802720  0.234700  0.876400  1.0  -0.6648
  O  O201  1  0.084020  0.319300  0.546700  1.0  -0.7109
  O  O202  1  0.098010  0.163200  0.506300  1.0  -0.6293
  O  O203  1  0.200640  0.446600  0.563700  1.0  -0.6702
  O  O204  1  0.273160  0.360200  0.538200  1.0  -0.8562
  O  O205  1  0.225110  0.651400  0.847700  1.0  -0.7155
  O  O206  1  0.302720  0.734700  0.876400  1.0  -0.6648
  O  O207  1  0.584020  0.819300  0.546700  1.0  -0.7109
  O  O208  1  0.598010  0.663200  0.506300  1.0  -0.6293
  O  O209  1  0.700640  0.053400  0.063700  1.0  -0.669
  O  O210  1  0.773160  0.139800  0.038200  1.0  -0.8555
  O  O211  1  0.725110  0.848600  0.347700  1.0  -0.7158
  O  O212  1  0.802720  0.765300  0.376400  1.0  -0.6657
  O  O213  1  0.084020  0.680700  0.046700  1.0  -0.7091
  O  O214  1  0.098010  0.836800  0.006300  1.0  -0.6314
  O  O215  1  0.200640  0.553400  0.063700  1.0  -0.6691
  O  O216  1  0.273160  0.639800  0.038200  1.0  -0.8555
  O  O217  1  0.225110  0.348600  0.347700  1.0  -0.7158
  O  O218  1  0.302720  0.265300  0.376400  1.0  -0.6657
  O  O219  1  0.584020  0.180700  0.046700  1.0  -0.7091
  O  O220  1  0.598010  0.336800  0.006300  1.0  -0.6314
  O  O221  1  0.299360  0.053400  0.436300  1.0  -0.6693
  O  O222  1  0.226840  0.139800  0.461800  1.0  -0.8552
  O  O223  1  0.274890  0.848600  0.152300  1.0  -0.7155
  O  O224  1  0.197280  0.765300  0.123600  1.0  -0.6661
  O  O225  1  0.915980  0.680700  0.453300  1.0  -0.7093
  O  O226  1  0.901990  0.836800  0.493700  1.0  -0.6297
  O  O227  1  0.799360  0.553400  0.436300  1.0  -0.6693
  O  O228  1  0.726840  0.639800  0.461800  1.0  -0.8552
  O  O229  1  0.774890  0.348600  0.152300  1.0  -0.7155
  O  O230  1  0.697280  0.265300  0.123600  1.0  -0.6661
  O  O231  1  0.415980  0.180700  0.453300  1.0  -0.7093
  O  O232  1  0.401990  0.336800  0.493700  1.0  -0.6297
