# generated using pymatgen
data_EuH15(C9O2)3
_symmetry_space_group_name_H-M   'P 1'
_cell_length_a   42.14200000
_cell_length_b   14.06500000
_cell_length_c   13.87000000
_cell_angle_alpha   90.00000000
_cell_angle_beta   101.99600000
_cell_angle_gamma   90.00000000
_symmetry_Int_Tables_number   1
_chemical_formula_structural   EuH15(C9O2)3
_chemical_formula_sum   'Eu8 H120 C216 O48'
_cell_volume   8041.59464731
_cell_formula_units_Z   8
loop_
 _symmetry_equiv_pos_site_id
 _symmetry_equiv_pos_as_xyz
  1  'x, y, z'
loop_
 _atom_site_type_symbol
 _atom_site_label
 _atom_site_symmetry_multiplicity
 _atom_site_fract_x
 _atom_site_fract_y
 _atom_site_fract_z
 _atom_site_occupancy
 _atom_site_charge
  Eu  Eu1  1  0.204110  0.292340  0.452040  1.0  2.1165
  Eu  Eu2  1  0.704110  0.792340  0.452040  1.0  2.116
  Eu  Eu3  1  0.795890  0.292340  0.047960  1.0  2.1145
  Eu  Eu4  1  0.295890  0.792340  0.047960  1.0  2.1132
  Eu  Eu5  1  0.795890  0.707660  0.547960  1.0  2.1127
  Eu  Eu6  1  0.295890  0.207660  0.547960  1.0  2.1103
  Eu  Eu7  1  0.204110  0.707660  0.952040  1.0  2.102
  Eu  Eu8  1  0.704110  0.207660  0.952040  1.0  2.102
  H  H9  1  0.313500  0.464000  0.588500  1.0  0.0974
  H  H10  1  0.324200  0.671300  0.789500  1.0  0.0892
  H  H11  1  0.237600  0.547900  0.700500  1.0  0.1016
  H  H12  1  0.370000  0.453000  0.651500  1.0  0.0932
  H  H13  1  0.421700  0.475500  0.625400  1.0  0.1308
  H  H14  1  0.412100  0.758200  0.680000  1.0  0.1138
  H  H15  1  0.358600  0.732800  0.693400  1.0  0.1124
  H  H16  1  0.468100  0.500900  0.612300  1.0  0.1123
  H  H17  1  0.519100  0.529800  0.580500  1.0  0.1212
  H  H18  1  0.507300  0.809700  0.619600  1.0  0.1237
  H  H19  1  0.456200  0.780800  0.651400  1.0  0.1053
  H  H20  1  0.567300  0.555300  0.580000  1.0  0.1202
  H  H21  1  0.617300  0.586300  0.541100  1.0  0.097
  H  H22  1  0.597400  0.866000  0.531000  1.0  0.1025
  H  H23  1  0.547500  0.835000  0.569900  1.0  0.1575
  H  H24  1  0.813500  0.964000  0.588500  1.0  0.0974
  H  H25  1  0.824200  0.171300  0.789500  1.0  0.0892
  H  H26  1  0.737600  0.047900  0.700500  1.0  0.1016
  H  H27  1  0.870000  0.953000  0.651500  1.0  0.0932
  H  H28  1  0.921700  0.975500  0.625400  1.0  0.1308
  H  H29  1  0.912100  0.258200  0.680000  1.0  0.1138
  H  H30  1  0.858600  0.232800  0.693400  1.0  0.1124
  H  H31  1  0.968100  0.000900  0.612300  1.0  0.1123
  H  H32  1  0.019100  0.029800  0.580500  1.0  0.1212
  H  H33  1  0.007300  0.309700  0.619600  1.0  0.1237
  H  H34  1  0.956200  0.280800  0.651400  1.0  0.1053
  H  H35  1  0.067300  0.055300  0.580000  1.0  0.1202
  H  H36  1  0.117300  0.086300  0.541100  1.0  0.097
  H  H37  1  0.097400  0.366000  0.531000  1.0  0.1025
  H  H38  1  0.047500  0.335000  0.569900  1.0  0.1575
  H  H39  1  0.686500  0.464000  0.911500  1.0  0.0976
  H  H40  1  0.675800  0.671300  0.710500  1.0  0.09
  H  H41  1  0.762400  0.547900  0.799500  1.0  0.1017
  H  H42  1  0.630000  0.453000  0.848500  1.0  0.0936
  H  H43  1  0.578300  0.475500  0.874600  1.0  0.1302
  H  H44  1  0.587900  0.758200  0.820000  1.0  0.1125
  H  H45  1  0.641400  0.732800  0.806600  1.0  0.1119
  H  H46  1  0.531900  0.500900  0.887700  1.0  0.1131
  H  H47  1  0.480900  0.529800  0.919500  1.0  0.1208
  H  H48  1  0.492700  0.809700  0.880400  1.0  0.1223
  H  H49  1  0.543800  0.780800  0.848600  1.0  0.1045
  H  H50  1  0.432700  0.555300  0.920000  1.0  0.1206
  H  H51  1  0.382700  0.586300  0.958900  1.0  0.0968
  H  H52  1  0.402600  0.866000  0.969000  1.0  0.1024
  H  H53  1  0.452500  0.835000  0.930100  1.0  0.157
  H  H54  1  0.186500  0.964000  0.911500  1.0  0.0976
  H  H55  1  0.175800  0.171300  0.710500  1.0  0.09
  H  H56  1  0.262400  0.047900  0.799500  1.0  0.1017
  H  H57  1  0.130000  0.953000  0.848500  1.0  0.0936
  H  H58  1  0.078300  0.975500  0.874600  1.0  0.1302
  H  H59  1  0.087900  0.258200  0.820000  1.0  0.1125
  H  H60  1  0.141400  0.232800  0.806600  1.0  0.1119
  H  H61  1  0.031900  0.000900  0.887700  1.0  0.1131
  H  H62  1  0.980900  0.029800  0.919500  1.0  0.1208
  H  H63  1  0.992700  0.309700  0.880400  1.0  0.1223
  H  H64  1  0.043800  0.280800  0.848600  1.0  0.1045
  H  H65  1  0.932700  0.055300  0.920000  1.0  0.1206
  H  H66  1  0.882700  0.086300  0.958900  1.0  0.0968
  H  H67  1  0.902600  0.366000  0.969000  1.0  0.1024
  H  H68  1  0.952500  0.335000  0.930100  1.0  0.157
  H  H69  1  0.686500  0.536000  0.411500  1.0  0.0971
  H  H70  1  0.675800  0.328700  0.210500  1.0  0.0895
  H  H71  1  0.762400  0.452100  0.299500  1.0  0.1018
  H  H72  1  0.630000  0.547000  0.348500  1.0  0.0938
  H  H73  1  0.578300  0.524500  0.374600  1.0  0.1302
  H  H74  1  0.587900  0.241800  0.320000  1.0  0.1121
  H  H75  1  0.641400  0.267200  0.306600  1.0  0.1125
  H  H76  1  0.531900  0.499100  0.387700  1.0  0.1133
  H  H77  1  0.480900  0.470200  0.419500  1.0  0.121
  H  H78  1  0.492700  0.190300  0.380400  1.0  0.1215
  H  H79  1  0.543800  0.219200  0.348600  1.0  0.1048
  H  H80  1  0.432700  0.444700  0.420000  1.0  0.1202
  H  H81  1  0.382700  0.413700  0.458900  1.0  0.0974
  H  H82  1  0.402600  0.134000  0.469000  1.0  0.1022
  H  H83  1  0.452500  0.165000  0.430100  1.0  0.1576
  H  H84  1  0.186500  0.036000  0.411500  1.0  0.0971
  H  H85  1  0.175800  0.828700  0.210500  1.0  0.0895
  H  H86  1  0.262400  0.952100  0.299500  1.0  0.1018
  H  H87  1  0.130000  0.047000  0.348500  1.0  0.0938
  H  H88  1  0.078300  0.024500  0.374600  1.0  0.1302
  H  H89  1  0.087900  0.741800  0.320000  1.0  0.1121
  H  H90  1  0.141400  0.767200  0.306600  1.0  0.1125
  H  H91  1  0.031900  0.999100  0.387700  1.0  0.1133
  H  H92  1  0.980900  0.970200  0.419500  1.0  0.121
  H  H93  1  0.992700  0.690300  0.380400  1.0  0.1215
  H  H94  1  0.043800  0.719200  0.348600  1.0  0.1048
  H  H95  1  0.932700  0.944700  0.420000  1.0  0.1202
  H  H96  1  0.882700  0.913700  0.458900  1.0  0.0974
  H  H97  1  0.902600  0.634000  0.469000  1.0  0.1022
  H  H98  1  0.952500  0.665000  0.430100  1.0  0.1576
  H  H99  1  0.313500  0.536000  0.088500  1.0  0.097
  H  H100  1  0.324200  0.328700  0.289500  1.0  0.0897
  H  H101  1  0.237600  0.452100  0.200500  1.0  0.1014
  H  H102  1  0.370000  0.547000  0.151500  1.0  0.0933
  H  H103  1  0.421700  0.524500  0.125400  1.0  0.1301
  H  H104  1  0.412100  0.241800  0.180000  1.0  0.1132
  H  H105  1  0.358600  0.267200  0.193400  1.0  0.1119
  H  H106  1  0.468100  0.499100  0.112300  1.0  0.1126
  H  H107  1  0.519100  0.470200  0.080500  1.0  0.1214
  H  H108  1  0.507300  0.190300  0.119600  1.0  0.1232
  H  H109  1  0.456200  0.219200  0.151400  1.0  0.1042
  H  H110  1  0.567300  0.444700  0.080000  1.0  0.1198
  H  H111  1  0.617300  0.413700  0.041100  1.0  0.0971
  H  H112  1  0.597400  0.134000  0.031000  1.0  0.1017
  H  H113  1  0.547500  0.165000  0.069900  1.0  0.1572
  H  H114  1  0.813500  0.036000  0.088500  1.0  0.097
  H  H115  1  0.824200  0.828700  0.289500  1.0  0.0897
  H  H116  1  0.737600  0.952100  0.200500  1.0  0.1014
  H  H117  1  0.870000  0.047000  0.151500  1.0  0.0933
  H  H118  1  0.921700  0.024500  0.125400  1.0  0.1301
  H  H119  1  0.912100  0.741800  0.180000  1.0  0.1132
  H  H120  1  0.858600  0.767200  0.193400  1.0  0.1119
  H  H121  1  0.968100  0.999100  0.112300  1.0  0.1126
  H  H122  1  0.019100  0.970200  0.080500  1.0  0.1214
  H  H123  1  0.007300  0.690300  0.119600  1.0  0.1232
  H  H124  1  0.956200  0.719200  0.151400  1.0  0.1042
  H  H125  1  0.067300  0.944700  0.080000  1.0  0.1198
  H  H126  1  0.117300  0.913700  0.041100  1.0  0.0971
  H  H127  1  0.097400  0.634000  0.031000  1.0  0.1017
  H  H128  1  0.047500  0.665000  0.069900  1.0  0.1572
  C  C129  1  0.252800  0.421200  0.577100  1.0  0.7227
  C  C130  1  0.272400  0.492300  0.635800  1.0  -0.0789
  C  C131  1  0.304700  0.503100  0.630300  1.0  -0.1131
  C  C132  1  0.324300  0.572200  0.687000  1.0  0.0269
  C  C133  1  0.311300  0.625800  0.751500  1.0  -0.0693
  C  C134  1  0.279800  0.614700  0.762300  1.0  -0.1535
  C  C135  1  0.259600  0.551000  0.699600  1.0  0.0236
  C  C136  1  0.265500  0.676300  0.837200  1.0  0.7832
  C  C137  1  0.358800  0.586900  0.676400  1.0  -0.0122
  C  C138  1  0.378300  0.514500  0.655500  1.0  -0.1407
  C  C139  1  0.409800  0.527200  0.639900  1.0  -0.1678
  C  C140  1  0.423100  0.619800  0.646400  1.0  -0.0142
  C  C141  1  0.403400  0.697300  0.671300  1.0  -0.1263
  C  C142  1  0.371500  0.681900  0.682300  1.0  -0.1608
  C  C143  1  0.457100  0.638000  0.635000  1.0  0.0177
  C  C144  1  0.475900  0.562800  0.613800  1.0  -0.1167
  C  C145  1  0.506500  0.580100  0.594700  1.0  -0.1034
  C  C146  1  0.518300  0.672600  0.596900  1.0  0.0158
  C  C147  1  0.499400  0.747800  0.618100  1.0  -0.1217
  C  C148  1  0.468900  0.730500  0.637200  1.0  -0.0979
  C  C149  1  0.644100  0.749000  0.499500  1.0  0.7415
  C  C150  1  0.552460  0.692100  0.578800  1.0  0.0196
  C  C151  1  0.573400  0.617600  0.570200  1.0  -0.1079
  C  C152  1  0.603290  0.636200  0.546900  1.0  -0.0633
  C  C153  1  0.612310  0.729300  0.532200  1.0  -0.1509
  C  C154  1  0.591400  0.803800  0.540800  1.0  -0.0269
  C  C155  1  0.561500  0.785200  0.564100  1.0  -0.1312
  C  C156  1  0.752800  0.921200  0.577100  1.0  0.7227
  C  C157  1  0.772400  0.992300  0.635800  1.0  -0.0789
  C  C158  1  0.804700  0.003100  0.630300  1.0  -0.1131
  C  C159  1  0.824300  0.072200  0.687000  1.0  0.0269
  C  C160  1  0.811300  0.125800  0.751500  1.0  -0.0693
  C  C161  1  0.779800  0.114700  0.762300  1.0  -0.1535
  C  C162  1  0.759600  0.051000  0.699600  1.0  0.0236
  C  C163  1  0.765500  0.176300  0.837200  1.0  0.7832
  C  C164  1  0.858800  0.086900  0.676400  1.0  -0.0122
  C  C165  1  0.878300  0.014500  0.655500  1.0  -0.1407
  C  C166  1  0.909800  0.027200  0.639900  1.0  -0.1678
  C  C167  1  0.923100  0.119800  0.646400  1.0  -0.0142
  C  C168  1  0.903400  0.197300  0.671300  1.0  -0.1263
  C  C169  1  0.871500  0.181900  0.682300  1.0  -0.1608
  C  C170  1  0.957100  0.138000  0.635000  1.0  0.0177
  C  C171  1  0.975900  0.062800  0.613800  1.0  -0.1167
  C  C172  1  0.006500  0.080100  0.594700  1.0  -0.1034
  C  C173  1  0.018300  0.172600  0.596900  1.0  0.0158
  C  C174  1  0.999400  0.247800  0.618100  1.0  -0.1217
  C  C175  1  0.968900  0.230500  0.637200  1.0  -0.0979
  C  C176  1  0.144100  0.249000  0.499500  1.0  0.7415
  C  C177  1  0.052460  0.192100  0.578800  1.0  0.0196
  C  C178  1  0.073400  0.117600  0.570200  1.0  -0.1079
  C  C179  1  0.103290  0.136200  0.546900  1.0  -0.0633
  C  C180  1  0.112310  0.229300  0.532200  1.0  -0.1509
  C  C181  1  0.091400  0.303800  0.540800  1.0  -0.0269
  C  C182  1  0.061500  0.285200  0.564100  1.0  -0.1312
  C  C183  1  0.747200  0.421200  0.922900  1.0  0.7238
  C  C184  1  0.727600  0.492300  0.864200  1.0  -0.0782
  C  C185  1  0.695300  0.503100  0.869700  1.0  -0.114
  C  C186  1  0.675700  0.572200  0.813000  1.0  0.0269
  C  C187  1  0.688700  0.625800  0.748500  1.0  -0.0694
  C  C188  1  0.720200  0.614700  0.737700  1.0  -0.1519
  C  C189  1  0.740400  0.551000  0.800400  1.0  0.0264
  C  C190  1  0.734500  0.676300  0.662800  1.0  0.7834
  C  C191  1  0.641200  0.586900  0.823600  1.0  -0.0121
  C  C192  1  0.621700  0.514500  0.844500  1.0  -0.1395
  C  C193  1  0.590200  0.527200  0.860100  1.0  -0.167
  C  C194  1  0.576900  0.619800  0.853600  1.0  -0.0123
  C  C195  1  0.596600  0.697300  0.828700  1.0  -0.1297
  C  C196  1  0.628500  0.681900  0.817700  1.0  -0.1623
  C  C197  1  0.542900  0.638000  0.865000  1.0  0.019
  C  C198  1  0.524100  0.562800  0.886200  1.0  -0.1168
  C  C199  1  0.493500  0.580100  0.905300  1.0  -0.103
  C  C200  1  0.481700  0.672600  0.903100  1.0  0.0166
  C  C201  1  0.500600  0.747800  0.881900  1.0  -0.1232
  C  C202  1  0.531100  0.730500  0.862800  1.0  -0.0973
  C  C203  1  0.355900  0.749000  0.000500  1.0  0.7416
  C  C204  1  0.447540  0.692100  0.921200  1.0  0.0199
  C  C205  1  0.426600  0.617600  0.929800  1.0  -0.1067
  C  C206  1  0.396710  0.636200  0.953100  1.0  -0.0617
  C  C207  1  0.387690  0.729300  0.967800  1.0  -0.15
  C  C208  1  0.408600  0.803800  0.959200  1.0  -0.028
  C  C209  1  0.438500  0.785200  0.935900  1.0  -0.1335
  C  C210  1  0.247200  0.921200  0.922900  1.0  0.7238
  C  C211  1  0.227600  0.992300  0.864200  1.0  -0.0782
  C  C212  1  0.195300  0.003100  0.869700  1.0  -0.114
  C  C213  1  0.175700  0.072200  0.813000  1.0  0.0269
  C  C214  1  0.188700  0.125800  0.748500  1.0  -0.0694
  C  C215  1  0.220200  0.114700  0.737700  1.0  -0.1519
  C  C216  1  0.240400  0.051000  0.800400  1.0  0.0264
  C  C217  1  0.234500  0.176300  0.662800  1.0  0.7834
  C  C218  1  0.141200  0.086900  0.823600  1.0  -0.0121
  C  C219  1  0.121700  0.014500  0.844500  1.0  -0.1395
  C  C220  1  0.090200  0.027200  0.860100  1.0  -0.167
  C  C221  1  0.076900  0.119800  0.853600  1.0  -0.0123
  C  C222  1  0.096600  0.197300  0.828700  1.0  -0.1297
  C  C223  1  0.128500  0.181900  0.817700  1.0  -0.1623
  C  C224  1  0.042900  0.138000  0.865000  1.0  0.019
  C  C225  1  0.024100  0.062800  0.886200  1.0  -0.1168
  C  C226  1  0.993500  0.080100  0.905300  1.0  -0.103
  C  C227  1  0.981700  0.172600  0.903100  1.0  0.0166
  C  C228  1  0.000600  0.247800  0.881900  1.0  -0.1232
  C  C229  1  0.031100  0.230500  0.862800  1.0  -0.0973
  C  C230  1  0.855900  0.249000  0.000500  1.0  0.7416
  C  C231  1  0.947540  0.192100  0.921200  1.0  0.0199
  C  C232  1  0.926600  0.117600  0.929800  1.0  -0.1067
  C  C233  1  0.896710  0.136200  0.953100  1.0  -0.0617
  C  C234  1  0.887690  0.229300  0.967800  1.0  -0.15
  C  C235  1  0.908600  0.303800  0.959200  1.0  -0.028
  C  C236  1  0.938500  0.285200  0.935900  1.0  -0.1335
  C  C237  1  0.747200  0.578800  0.422900  1.0  0.7243
  C  C238  1  0.727600  0.507700  0.364200  1.0  -0.0783
  C  C239  1  0.695300  0.496900  0.369700  1.0  -0.1144
  C  C240  1  0.675700  0.427800  0.313000  1.0  0.0266
  C  C241  1  0.688700  0.374200  0.248500  1.0  -0.0691
  C  C242  1  0.720200  0.385300  0.237700  1.0  -0.152
  C  C243  1  0.740400  0.449000  0.300400  1.0  0.0264
  C  C244  1  0.734500  0.323700  0.162800  1.0  0.7832
  C  C245  1  0.641200  0.413100  0.323600  1.0  -0.0121
  C  C246  1  0.621700  0.485500  0.344500  1.0  -0.1411
  C  C247  1  0.590200  0.472800  0.360100  1.0  -0.169
  C  C248  1  0.576900  0.380200  0.353600  1.0  -0.012
  C  C249  1  0.596600  0.302700  0.328700  1.0  -0.1249
  C  C250  1  0.628500  0.318100  0.317700  1.0  -0.1601
  C  C251  1  0.542900  0.362000  0.365000  1.0  0.019
  C  C252  1  0.524100  0.437200  0.386200  1.0  -0.1177
  C  C253  1  0.493500  0.419900  0.405300  1.0  -0.1024
  C  C254  1  0.481700  0.327400  0.403100  1.0  0.0167
  C  C255  1  0.500600  0.252200  0.381900  1.0  -0.1229
  C  C256  1  0.531100  0.269500  0.362800  1.0  -0.0953
  C  C257  1  0.355900  0.251000  0.500500  1.0  0.7418
  C  C258  1  0.447540  0.307900  0.421200  1.0  0.02
  C  C259  1  0.426600  0.382400  0.429800  1.0  -0.1061
  C  C260  1  0.396710  0.363800  0.453100  1.0  -0.0618
  C  C261  1  0.387690  0.270700  0.467800  1.0  -0.1493
  C  C262  1  0.408600  0.196200  0.459200  1.0  -0.0325
  C  C263  1  0.438500  0.214800  0.435900  1.0  -0.1358
  C  C264  1  0.247200  0.078800  0.422900  1.0  0.7243
  C  C265  1  0.227600  0.007700  0.364200  1.0  -0.0783
  C  C266  1  0.195300  0.996900  0.369700  1.0  -0.1144
  C  C267  1  0.175700  0.927800  0.313000  1.0  0.0266
  C  C268  1  0.188700  0.874200  0.248500  1.0  -0.0691
  C  C269  1  0.220200  0.885300  0.237700  1.0  -0.152
  C  C270  1  0.240400  0.949000  0.300400  1.0  0.0264
  C  C271  1  0.234500  0.823700  0.162800  1.0  0.7832
  C  C272  1  0.141200  0.913100  0.323600  1.0  -0.0121
  C  C273  1  0.121700  0.985500  0.344500  1.0  -0.1411
  C  C274  1  0.090200  0.972800  0.360100  1.0  -0.169
  C  C275  1  0.076900  0.880200  0.353600  1.0  -0.012
  C  C276  1  0.096600  0.802700  0.328700  1.0  -0.1249
  C  C277  1  0.128500  0.818100  0.317700  1.0  -0.1601
  C  C278  1  0.042900  0.862000  0.365000  1.0  0.019
  C  C279  1  0.024100  0.937200  0.386200  1.0  -0.1177
  C  C280  1  0.993500  0.919900  0.405300  1.0  -0.1024
  C  C281  1  0.981700  0.827400  0.403100  1.0  0.0167
  C  C282  1  0.000600  0.752200  0.381900  1.0  -0.1229
  C  C283  1  0.031100  0.769500  0.362800  1.0  -0.0953
  C  C284  1  0.855900  0.751000  0.500500  1.0  0.7418
  C  C285  1  0.947540  0.807900  0.421200  1.0  0.02
  C  C286  1  0.926600  0.882400  0.429800  1.0  -0.1061
  C  C287  1  0.896710  0.863800  0.453100  1.0  -0.0618
  C  C288  1  0.887690  0.770700  0.467800  1.0  -0.1493
  C  C289  1  0.908600  0.696200  0.459200  1.0  -0.0325
  C  C290  1  0.938500  0.714800  0.435900  1.0  -0.1358
  C  C291  1  0.252800  0.578800  0.077100  1.0  0.7232
  C  C292  1  0.272400  0.507700  0.135800  1.0  -0.0787
  C  C293  1  0.304700  0.496900  0.130300  1.0  -0.1137
  C  C294  1  0.324300  0.427800  0.187000  1.0  0.0268
  C  C295  1  0.311300  0.374200  0.251500  1.0  -0.0694
  C  C296  1  0.279800  0.385300  0.262300  1.0  -0.1536
  C  C297  1  0.259600  0.449000  0.199600  1.0  0.0238
  C  C298  1  0.265500  0.323700  0.337200  1.0  0.783
  C  C299  1  0.358800  0.413100  0.176400  1.0  -0.0123
  C  C300  1  0.378300  0.485500  0.155500  1.0  -0.142
  C  C301  1  0.409800  0.472800  0.139900  1.0  -0.1699
  C  C302  1  0.423100  0.380200  0.146400  1.0  -0.0148
  C  C303  1  0.403400  0.302700  0.171300  1.0  -0.1251
  C  C304  1  0.371500  0.318100  0.182300  1.0  -0.1608
  C  C305  1  0.457100  0.362000  0.135000  1.0  0.0178
  C  C306  1  0.475900  0.437200  0.113800  1.0  -0.118
  C  C307  1  0.506500  0.419900  0.094700  1.0  -0.1033
  C  C308  1  0.518300  0.327400  0.096900  1.0  0.0162
  C  C309  1  0.499400  0.252200  0.118100  1.0  -0.123
  C  C310  1  0.468900  0.269500  0.137200  1.0  -0.0974
  C  C311  1  0.644100  0.251000  0.999500  1.0  0.7396
  C  C312  1  0.552460  0.307900  0.078800  1.0  0.0197
  C  C313  1  0.573400  0.382400  0.070200  1.0  -0.1074
  C  C314  1  0.603290  0.363800  0.046900  1.0  -0.0637
  C  C315  1  0.612310  0.270700  0.032200  1.0  -0.1493
  C  C316  1  0.591400  0.196200  0.040800  1.0  -0.0318
  C  C317  1  0.561500  0.214800  0.064100  1.0  -0.1334
  C  C318  1  0.752800  0.078800  0.077100  1.0  0.7232
  C  C319  1  0.772400  0.007700  0.135800  1.0  -0.0787
  C  C320  1  0.804700  0.996900  0.130300  1.0  -0.1137
  C  C321  1  0.824300  0.927800  0.187000  1.0  0.0268
  C  C322  1  0.811300  0.874200  0.251500  1.0  -0.0694
  C  C323  1  0.779800  0.885300  0.262300  1.0  -0.1536
  C  C324  1  0.759600  0.949000  0.199600  1.0  0.0238
  C  C325  1  0.765500  0.823700  0.337200  1.0  0.783
  C  C326  1  0.858800  0.913100  0.176400  1.0  -0.0123
  C  C327  1  0.878300  0.985500  0.155500  1.0  -0.142
  C  C328  1  0.909800  0.972800  0.139900  1.0  -0.1699
  C  C329  1  0.923100  0.880200  0.146400  1.0  -0.0148
  C  C330  1  0.903400  0.802700  0.171300  1.0  -0.1251
  C  C331  1  0.871500  0.818100  0.182300  1.0  -0.1608
  C  C332  1  0.957100  0.862000  0.135000  1.0  0.0178
  C  C333  1  0.975900  0.937200  0.113800  1.0  -0.118
  C  C334  1  0.006500  0.919900  0.094700  1.0  -0.1033
  C  C335  1  0.018300  0.827400  0.096900  1.0  0.0162
  C  C336  1  0.999400  0.752200  0.118100  1.0  -0.123
  C  C337  1  0.968900  0.769500  0.137200  1.0  -0.0974
  C  C338  1  0.144100  0.751000  0.999500  1.0  0.7396
  C  C339  1  0.052460  0.807900  0.078800  1.0  0.0197
  C  C340  1  0.073400  0.882400  0.070200  1.0  -0.1074
  C  C341  1  0.103290  0.863800  0.046900  1.0  -0.0637
  C  C342  1  0.112310  0.770700  0.032200  1.0  -0.1493
  C  C343  1  0.091400  0.696200  0.040800  1.0  -0.0318
  C  C344  1  0.061500  0.714800  0.064100  1.0  -0.1334
  O  O345  1  0.222750  0.432700  0.550800  1.0  -0.6293
  O  O346  1  0.264490  0.346000  0.548600  1.0  -0.8516
  O  O347  1  0.237860  0.662400  0.840100  1.0  -0.7092
  O  O348  1  0.283900  0.739900  0.881000  1.0  -0.7044
  O  O349  1  0.653600  0.832400  0.505800  1.0  -0.6561
  O  O350  1  0.659500  0.684000  0.474700  1.0  -0.6344
  O  O351  1  0.722750  0.932700  0.550800  1.0  -0.6292
  O  O352  1  0.764490  0.846000  0.548600  1.0  -0.8516
  O  O353  1  0.737860  0.162400  0.840100  1.0  -0.7092
  O  O354  1  0.783900  0.239900  0.881000  1.0  -0.7044
  O  O355  1  0.153600  0.332400  0.505800  1.0  -0.6563
  O  O356  1  0.159500  0.184000  0.474700  1.0  -0.6344
  O  O357  1  0.777250  0.432700  0.949200  1.0  -0.6287
  O  O358  1  0.735510  0.346000  0.951400  1.0  -0.8523
  O  O359  1  0.762140  0.662400  0.659900  1.0  -0.7057
  O  O360  1  0.716100  0.739900  0.619000  1.0  -0.7037
  O  O361  1  0.346400  0.832400  0.994200  1.0  -0.6547
  O  O362  1  0.340500  0.684000  0.025300  1.0  -0.6318
  O  O363  1  0.277250  0.932700  0.949200  1.0  -0.6286
  O  O364  1  0.235510  0.846000  0.951400  1.0  -0.8523
  O  O365  1  0.262140  0.162400  0.659900  1.0  -0.7057
  O  O366  1  0.216100  0.239900  0.619000  1.0  -0.7037
  O  O367  1  0.846400  0.332400  0.994200  1.0  -0.6553
  O  O368  1  0.840500  0.184000  0.025300  1.0  -0.6318
  O  O369  1  0.777250  0.567300  0.449200  1.0  -0.6285
  O  O370  1  0.735510  0.654000  0.451400  1.0  -0.8534
  O  O371  1  0.762140  0.337600  0.159900  1.0  -0.706
  O  O372  1  0.716100  0.260100  0.119000  1.0  -0.7042
  O  O373  1  0.346400  0.167600  0.494200  1.0  -0.6551
  O  O374  1  0.340500  0.316000  0.525300  1.0  -0.6319
  O  O375  1  0.277250  0.067300  0.449200  1.0  -0.6285
  O  O376  1  0.235510  0.154000  0.451400  1.0  -0.8534
  O  O377  1  0.262140  0.837600  0.159900  1.0  -0.706
  O  O378  1  0.216100  0.760100  0.119000  1.0  -0.7042
  O  O379  1  0.846400  0.667600  0.494200  1.0  -0.6554
  O  O380  1  0.840500  0.816000  0.525300  1.0  -0.6319
  O  O381  1  0.222750  0.567300  0.050800  1.0  -0.6277
  O  O382  1  0.264490  0.654000  0.048600  1.0  -0.8523
  O  O383  1  0.237860  0.337600  0.340100  1.0  -0.7102
  O  O384  1  0.283900  0.260100  0.381000  1.0  -0.7047
  O  O385  1  0.653600  0.167600  0.005800  1.0  -0.654
  O  O386  1  0.659500  0.316000  0.974700  1.0  -0.6344
  O  O387  1  0.722750  0.067300  0.050800  1.0  -0.6276
  O  O388  1  0.764490  0.154000  0.048600  1.0  -0.8523
  O  O389  1  0.737860  0.837600  0.340100  1.0  -0.7102
  O  O390  1  0.783900  0.760100  0.381000  1.0  -0.7047
  O  O391  1  0.153600  0.667600  0.005800  1.0  -0.6543
  O  O392  1  0.159500  0.816000  0.974700  1.0  -0.6344
