# generated using pymatgen
data_CdBH14C16N8O3
_symmetry_space_group_name_H-M   'P 1'
_cell_length_a   8.56200000
_cell_length_b   8.83900000
_cell_length_c   16.90400000
_cell_angle_alpha   82.23800000
_cell_angle_beta   89.59200000
_cell_angle_gamma   78.25200000
_symmetry_Int_Tables_number   1
_chemical_formula_structural   CdBH14C16N8O3
_chemical_formula_sum   'Cd2 B2 H28 C32 N16 O6'
_cell_volume   1240.73921345
_cell_formula_units_Z   2
loop_
 _symmetry_equiv_pos_site_id
 _symmetry_equiv_pos_as_xyz
  1  'x, y, z'
loop_
 _atom_site_type_symbol
 _atom_site_label
 _atom_site_symmetry_multiplicity
 _atom_site_fract_x
 _atom_site_fract_y
 _atom_site_fract_z
 _atom_site_occupancy
 _atom_site_charge
  Cd  Cd1  1  0.758540  0.323940  0.212710  1.0  0.9115
  Cd  Cd2  1  0.241460  0.676060  0.787290  1.0  0.9068
  B  B3  1  0.174800  0.765700  0.122800  1.0  0.4643
  B  B4  1  0.825200  0.234300  0.877200  1.0  0.464
  H  H5  1  0.049500  0.516800  0.205100  1.0  0.0779
  H  H6  1  0.219300  0.681900  0.295000  1.0  0.1171
  H  H7  1  0.159400  0.624900  0.984000  1.0  0.0866
  H  H8  1  0.349100  0.966400  0.193900  1.0  0.1407
  H  H9  1  0.886800  0.834300  0.022900  1.0  0.1168
  H  H10  1  0.447200  0.475700  0.341900  1.0  0.094
  H  H11  1  0.455600  0.539800  0.109000  1.0  0.0834
  H  H12  1  0.398600  0.935200  0.038000  1.0  0.1175
  H  H13  1  0.191700  0.209600  0.230900  1.0  0.0976
  H  H14  1  0.896400  0.997700  0.137800  1.0  0.0753
  H  H15  1  0.477000  0.866100  0.906200  1.0  0.1018
  H  H16  1  0.696400  0.665600  0.052600  1.0  0.0919
  H  H17  1  0.663100  0.413300  0.493400  1.0  0.3882
  H  H18  1  0.877900  0.548300  0.618800  1.0  0.0964
  H  H19  1  0.950500  0.483200  0.794900  1.0  0.0771
  H  H20  1  0.780700  0.318100  0.705000  1.0  0.1166
  H  H21  1  0.840600  0.375100  0.016000  1.0  0.0872
  H  H22  1  0.650900  0.033600  0.806100  1.0  0.1419
  H  H23  1  0.113200  0.165700  0.977100  1.0  0.1171
  H  H24  1  0.552800  0.524300  0.658100  1.0  0.0931
  H  H25  1  0.544400  0.460200  0.891000  1.0  0.0845
  H  H26  1  0.601400  0.064800  0.962000  1.0  0.1172
  H  H27  1  0.808300  0.790400  0.769100  1.0  0.0974
  H  H28  1  0.103600  0.002300  0.862200  1.0  0.074
  H  H29  1  0.523000  0.133900  0.093800  1.0  0.1027
  H  H30  1  0.303600  0.334400  0.947400  1.0  0.0921
  H  H31  1  0.336900  0.586700  0.506600  1.0  0.3895
  H  H32  1  0.122100  0.451700  0.381200  1.0  0.0972
  C  C33  1  0.984600  0.575400  0.163300  1.0  0.2004
  C  C34  1  0.294500  0.629300  0.263000  1.0  -0.1308
  C  C35  1  0.228700  0.694000  0.980800  1.0  0.1768
  C  C36  1  0.239400  0.001000  0.187000  1.0  -0.1174
  C  C37  1  0.897100  0.750300  0.063400  1.0  -0.1294
  C  C38  1  0.421000  0.515100  0.288700  1.0  -0.0108
  C  C39  1  0.425900  0.550400  0.161300  1.0  0.2027
  C  C40  1  0.359400  0.864700  0.011400  1.0  -0.1207
  C  C41  1  0.151200  0.136200  0.207200  1.0  0.0124
  C  C42  1  0.989800  0.020300  0.156500  1.0  0.2304
  C  C43  1  0.402500  0.825800  0.938400  1.0  0.0115
  C  C44  1  0.792200  0.656200  0.080200  1.0  0.0252
  C  C45  1  0.839600  0.374200  0.381100  1.0  0.7197
  C  C46  1  0.923300  0.437500  0.443100  1.0  -0.2507
  C  C47  1  0.927300  0.528800  0.571000  1.0  -0.1109
  C  C48  1  0.849300  0.466500  0.515600  1.0  0.2981
  C  C49  1  0.015400  0.424600  0.836700  1.0  0.1993
  C  C50  1  0.705500  0.370700  0.737000  1.0  -0.1315
  C  C51  1  0.771300  0.306000  0.019200  1.0  0.1768
  C  C52  1  0.760600  0.999000  0.813000  1.0  -0.1182
  C  C53  1  0.102900  0.249700  0.936600  1.0  -0.1284
  C  C54  1  0.579000  0.484900  0.711300  1.0  -0.0071
  C  C55  1  0.574100  0.449600  0.838700  1.0  0.2028
  C  C56  1  0.640600  0.135300  0.988600  1.0  -0.1192
  C  C57  1  0.848800  0.863800  0.792800  1.0  0.0122
  C  C58  1  0.010200  0.979700  0.843500  1.0  0.2302
  C  C59  1  0.597500  0.174200  0.061600  1.0  0.0109
  C  C60  1  0.207800  0.343800  0.919800  1.0  0.0242
  C  C61  1  0.160400  0.625800  0.618900  1.0  0.7193
  C  C62  1  0.076700  0.562500  0.556900  1.0  -0.2522
  C  C63  1  0.072700  0.471200  0.429000  1.0  -0.1087
  C  C64  1  0.150700  0.533500  0.484400  1.0  0.2965
  N  N65  1  0.504800  0.466400  0.224000  1.0  -0.3859
  N  N66  1  0.134700  0.924600  0.154500  1.0  -0.1914
  N  N67  1  0.022600  0.698500  0.117600  1.0  -0.1929
  N  N68  1  0.994200  0.147900  0.187300  1.0  -0.388
  N  N69  1  0.246600  0.780000  0.039000  1.0  -0.1968
  N  N70  1  0.846800  0.545200  0.143400  1.0  -0.423
  N  N71  1  0.319700  0.718100  0.918900  1.0  -0.3765
  N  N72  1  0.296900  0.653800  0.180600  1.0  -0.1955
  N  N73  1  0.495200  0.533600  0.776000  1.0  -0.3867
  N  N74  1  0.865300  0.075400  0.845500  1.0  -0.1934
  N  N75  1  0.977400  0.301500  0.882400  1.0  -0.1932
  N  N76  1  0.005800  0.852100  0.812700  1.0  -0.3884
  N  N77  1  0.753400  0.220000  0.961000  1.0  -0.1972
  N  N78  1  0.153200  0.454800  0.856600  1.0  -0.4233
  N  N79  1  0.680300  0.281900  0.081100  1.0  -0.3798
  N  N80  1  0.703100  0.346200  0.819400  1.0  -0.195
  O  O81  1  0.711100  0.333500  0.398200  1.0  -0.5793
  O  O82  1  0.702700  0.435600  0.533100  1.0  -0.5102
  O  O83  1  0.903900  0.367600  0.314100  1.0  -0.6229
  O  O84  1  0.288900  0.666500  0.601800  1.0  -0.5809
  O  O85  1  0.297300  0.564400  0.466900  1.0  -0.5098
  O  O86  1  0.096100  0.632400  0.685900  1.0  -0.6231
