# generated using pymatgen
data_ZnH2C6SO4
_symmetry_space_group_name_H-M   'P 1'
_cell_length_a   10.21510000
_cell_length_b   13.11700000
_cell_length_c   14.13600000
_cell_angle_alpha   90.00000000
_cell_angle_beta   90.00000000
_cell_angle_gamma   90.00000000
_symmetry_Int_Tables_number   1
_chemical_formula_structural   ZnH2C6SO4
_chemical_formula_sum   'Zn8 H16 C48 S8 O32'
_cell_volume   1894.10337327
_cell_formula_units_Z   8
loop_
 _symmetry_equiv_pos_site_id
 _symmetry_equiv_pos_as_xyz
  1  'x, y, z'
loop_
 _atom_site_type_symbol
 _atom_site_label
 _atom_site_symmetry_multiplicity
 _atom_site_fract_x
 _atom_site_fract_y
 _atom_site_fract_z
 _atom_site_occupancy
 _atom_site_charge
  Zn  Zn1  1  0.114090  0.930770  0.285640  1.0  1.0608
  Zn  Zn2  1  0.092060  0.233570  0.279640  1.0  1.1126
  Zn  Zn3  1  0.385910  0.069230  0.785640  1.0  1.0625
  Zn  Zn4  1  0.407940  0.766430  0.779640  1.0  1.1119
  Zn  Zn5  1  0.885910  0.430770  0.214360  1.0  1.0623
  Zn  Zn6  1  0.907940  0.733570  0.220360  1.0  1.1131
  Zn  Zn7  1  0.614090  0.569230  0.714360  1.0  1.0607
  Zn  Zn8  1  0.592060  0.266430  0.720360  1.0  1.1122
  H  H9  1  0.523600  0.954900  0.300600  1.0  0.1086
  H  H10  1  0.750000  0.010400  0.291500  1.0  0.1064
  H  H11  1  0.673500  0.782900  0.450700  1.0  0.1175
  H  H12  1  0.518000  0.863700  0.553600  1.0  0.1165
  H  H13  1  0.976400  0.045100  0.800600  1.0  0.1086
  H  H14  1  0.750000  0.989600  0.791500  1.0  0.1068
  H  H15  1  0.826500  0.217100  0.950700  1.0  0.1179
  H  H16  1  0.982000  0.136300  0.053600  1.0  0.1166
  H  H17  1  0.476400  0.454900  0.199400  1.0  0.1086
  H  H18  1  0.250000  0.510400  0.208500  1.0  0.1066
  H  H19  1  0.326500  0.282900  0.049300  1.0  0.1177
  H  H20  1  0.482000  0.363700  0.946400  1.0  0.1164
  H  H21  1  0.023600  0.545100  0.699400  1.0  0.1093
  H  H22  1  0.250000  0.489600  0.708500  1.0  0.1064
  H  H23  1  0.173500  0.717100  0.549300  1.0  0.1182
  H  H24  1  0.018000  0.636300  0.446400  1.0  0.1164
  C  C25  1  0.463100  0.095100  0.261900  1.0  -0.2073
  C  C26  1  0.548600  0.020500  0.283700  1.0  -0.0342
  C  C27  1  0.679100  0.052500  0.278000  1.0  -0.0553
  C  C28  1  0.691400  0.150900  0.250900  1.0  -0.2031
  C  C29  1  0.318100  0.093100  0.266100  1.0  0.7409
  C  C30  1  0.810900  0.212600  0.243800  1.0  0.7404
  C  C31  1  0.795100  0.904400  0.461300  1.0  -0.2068
  C  C32  1  0.686300  0.847100  0.477100  1.0  -0.0485
  C  C33  1  0.597100  0.893400  0.536300  1.0  -0.0348
  C  C34  1  0.635900  0.986500  0.566700  1.0  -0.2196
  C  C35  1  0.904500  0.884300  0.396800  1.0  0.7208
  C  C36  1  0.572000  0.057000  0.634300  1.0  0.7324
  C  C37  1  0.036900  0.904900  0.761900  1.0  -0.207
  C  C38  1  0.951400  0.979500  0.783700  1.0  -0.0335
  C  C39  1  0.820900  0.947500  0.778000  1.0  -0.0552
  C  C40  1  0.808600  0.849100  0.750900  1.0  -0.2028
  C  C41  1  0.181900  0.906900  0.766100  1.0  0.74
  C  C42  1  0.689100  0.787400  0.743800  1.0  0.7405
  C  C43  1  0.704900  0.095600  0.961300  1.0  -0.2062
  C  C44  1  0.813700  0.152900  0.977100  1.0  -0.0485
  C  C45  1  0.902900  0.106600  0.036300  1.0  -0.0341
  C  C46  1  0.864100  0.013500  0.066700  1.0  -0.2193
  C  C47  1  0.595500  0.115700  0.896800  1.0  0.7216
  C  C48  1  0.928000  0.943000  0.134300  1.0  0.735
  C  C49  1  0.536900  0.595100  0.238100  1.0  -0.2077
  C  C50  1  0.451400  0.520500  0.216300  1.0  -0.0341
  C  C51  1  0.320900  0.552500  0.222000  1.0  -0.0555
  C  C52  1  0.308600  0.650900  0.249100  1.0  -0.2033
  C  C53  1  0.681900  0.593100  0.233900  1.0  0.7399
  C  C54  1  0.189100  0.712600  0.256200  1.0  0.7406
  C  C55  1  0.204900  0.404400  0.038700  1.0  -0.2069
  C  C56  1  0.313700  0.347100  0.022900  1.0  -0.0477
  C  C57  1  0.402900  0.393400  0.963700  1.0  -0.0342
  C  C58  1  0.364100  0.486500  0.933300  1.0  -0.2195
  C  C59  1  0.095500  0.384300  0.103200  1.0  0.722
  C  C60  1  0.428000  0.557000  0.865700  1.0  0.734
  C  C61  1  0.963100  0.404900  0.738100  1.0  -0.2074
  C  C62  1  0.048600  0.479500  0.716300  1.0  -0.0342
  C  C63  1  0.179100  0.447500  0.722000  1.0  -0.0551
  C  C64  1  0.191400  0.349100  0.749100  1.0  -0.2026
  C  C65  1  0.818100  0.406900  0.733900  1.0  0.7407
  C  C66  1  0.310900  0.287400  0.756200  1.0  0.7411
  C  C67  1  0.295100  0.595600  0.538700  1.0  -0.2073
  C  C68  1  0.186300  0.652900  0.522900  1.0  -0.0497
  C  C69  1  0.097100  0.606600  0.463700  1.0  -0.0351
  C  C70  1  0.135900  0.513500  0.433300  1.0  -0.2185
  C  C71  1  0.404500  0.615700  0.603200  1.0  0.7212
  C  C72  1  0.072000  0.443000  0.365700  1.0  0.7334
  S  S73  1  0.541480  0.206390  0.231300  1.0  0.1786
  S  S74  1  0.786310  0.017230  0.522150  1.0  0.1805
  S  S75  1  0.958520  0.793610  0.731300  1.0  0.1795
  S  S76  1  0.713690  0.982770  0.022150  1.0  0.1826
  S  S77  1  0.458520  0.706390  0.268700  1.0  0.1778
  S  S78  1  0.213690  0.517230  0.977850  1.0  0.1818
  S  S79  1  0.041480  0.293610  0.768700  1.0  0.1785
  S  S80  1  0.286310  0.482770  0.477850  1.0  0.1822
  O  O81  1  0.270400  0.010800  0.296900  1.0  -0.6095
  O  O82  1  0.794400  0.302500  0.213900  1.0  -0.6277
  O  O83  1  0.989000  0.954400  0.386400  1.0  -0.6013
  O  O84  1  0.462900  0.030400  0.665500  1.0  -0.5983
  O  O85  1  0.258100  0.170600  0.242400  1.0  -0.5931
  O  O86  1  0.909500  0.800500  0.355800  1.0  -0.6275
  O  O87  1  0.632100  0.137200  0.655800  1.0  -0.642
  O  O88  1  0.917000  0.174300  0.269400  1.0  -0.6127
  O  O89  1  0.229600  0.989200  0.796900  1.0  -0.6069
  O  O90  1  0.705600  0.697500  0.713900  1.0  -0.627
  O  O91  1  0.511000  0.045600  0.886400  1.0  -0.601
  O  O92  1  0.037100  0.969600  0.165500  1.0  -0.5978
  O  O93  1  0.241900  0.829400  0.742400  1.0  -0.5931
  O  O94  1  0.590500  0.199500  0.855800  1.0  -0.6286
  O  O95  1  0.867900  0.862800  0.155800  1.0  -0.6402
  O  O96  1  0.583000  0.825700  0.769400  1.0  -0.6133
  O  O97  1  0.729600  0.510800  0.203100  1.0  -0.6069
  O  O98  1  0.205600  0.802500  0.286100  1.0  -0.6289
  O  O99  1  0.011000  0.454400  0.113600  1.0  -0.6016
  O  O100  1  0.537100  0.530400  0.834500  1.0  -0.5987
  O  O101  1  0.741900  0.670600  0.257600  1.0  -0.593
  O  O102  1  0.090500  0.300500  0.144200  1.0  -0.6279
  O  O103  1  0.367900  0.637200  0.844200  1.0  -0.6429
  O  O104  1  0.083000  0.674300  0.230600  1.0  -0.6139
  O  O105  1  0.770400  0.489200  0.703100  1.0  -0.6077
  O  O106  1  0.294400  0.197500  0.786100  1.0  -0.6274
  O  O107  1  0.489000  0.545600  0.613600  1.0  -0.6016
  O  O108  1  0.962900  0.469600  0.334500  1.0  -0.5976
  O  O109  1  0.758100  0.329400  0.757600  1.0  -0.5941
  O  O110  1  0.409500  0.699500  0.644200  1.0  -0.6283
  O  O111  1  0.132100  0.362800  0.344200  1.0  -0.6421
  O  O112  1  0.417000  0.325700  0.730600  1.0  -0.6134
