# generated using pymatgen
data_Cd3B2H27C33(N8O3)2
_symmetry_space_group_name_H-M   'P 1'
_cell_length_a   28.18700000
_cell_length_b   14.00200000
_cell_length_c   27.65700000
_cell_angle_alpha   90.00000000
_cell_angle_beta   116.22800000
_cell_angle_gamma   90.00000000
_symmetry_Int_Tables_number   1
_chemical_formula_structural   Cd3B2H27C33(N8O3)2
_chemical_formula_sum   'Cd24 B16 H216 C264 N128 O48'
_cell_volume   9791.67564989
_cell_formula_units_Z   8
loop_
 _symmetry_equiv_pos_site_id
 _symmetry_equiv_pos_as_xyz
  1  'x, y, z'
loop_
 _atom_site_type_symbol
 _atom_site_label
 _atom_site_symmetry_multiplicity
 _atom_site_fract_x
 _atom_site_fract_y
 _atom_site_fract_z
 _atom_site_occupancy
 _atom_site_charge
  Cd  Cd1  1  0.199820  0.631550  0.152990  1.0  0.9345
  Cd  Cd2  1  0.404500  0.375020  0.049780  1.0  0.9802
  Cd  Cd3  1  0.124350  0.463830  0.220830  1.0  0.8708
  Cd  Cd4  1  0.699820  0.131550  0.152990  1.0  0.9345
  Cd  Cd5  1  0.904500  0.875020  0.049780  1.0  0.9802
  Cd  Cd6  1  0.624350  0.963830  0.220830  1.0  0.8708
  Cd  Cd7  1  0.800180  0.631550  0.347010  1.0  0.9372
  Cd  Cd8  1  0.595500  0.375020  0.450220  1.0  0.9795
  Cd  Cd9  1  0.875650  0.463830  0.279170  1.0  0.8749
  Cd  Cd10  1  0.300180  0.131550  0.347010  1.0  0.9372
  Cd  Cd11  1  0.095500  0.875020  0.450220  1.0  0.9795
  Cd  Cd12  1  0.375650  0.963830  0.279170  1.0  0.8749
  Cd  Cd13  1  0.800180  0.368450  0.847010  1.0  0.937
  Cd  Cd14  1  0.595500  0.624980  0.950220  1.0  0.9793
  Cd  Cd15  1  0.875650  0.536170  0.779170  1.0  0.8751
  Cd  Cd16  1  0.300180  0.868450  0.847010  1.0  0.937
  Cd  Cd17  1  0.095500  0.124980  0.950220  1.0  0.9793
  Cd  Cd18  1  0.375650  0.036170  0.779170  1.0  0.8751
  Cd  Cd19  1  0.199820  0.368450  0.652990  1.0  0.934
  Cd  Cd20  1  0.404500  0.624980  0.549780  1.0  0.9795
  Cd  Cd21  1  0.124350  0.536170  0.720830  1.0  0.8714
  Cd  Cd22  1  0.699820  0.868450  0.652990  1.0  0.934
  Cd  Cd23  1  0.904500  0.124980  0.549780  1.0  0.9795
  Cd  Cd24  1  0.624350  0.036170  0.720830  1.0  0.8714
  B  B25  1  0.180590  0.492100  0.944400  1.0  0.4745
  B  B26  1  0.120840  0.012600  0.156640  1.0  0.4796
  B  B27  1  0.680590  0.992100  0.944400  1.0  0.4745
  B  B28  1  0.620840  0.512600  0.156640  1.0  0.4796
  B  B29  1  0.819410  0.492100  0.555600  1.0  0.4749
  B  B30  1  0.879160  0.012600  0.343360  1.0  0.4795
  B  B31  1  0.319410  0.992100  0.555600  1.0  0.4749
  B  B32  1  0.379160  0.512600  0.343360  1.0  0.4795
  B  B33  1  0.819410  0.507900  0.055600  1.0  0.4751
  B  B34  1  0.879160  0.987400  0.843360  1.0  0.4795
  B  B35  1  0.319410  0.007900  0.055600  1.0  0.4751
  B  B36  1  0.379160  0.487400  0.843360  1.0  0.4795
  B  B37  1  0.180590  0.507900  0.444400  1.0  0.4746
  B  B38  1  0.120840  0.987400  0.656640  1.0  0.4795
  B  B39  1  0.680590  0.007900  0.444400  1.0  0.4746
  B  B40  1  0.620840  0.487400  0.656640  1.0  0.4795
  H  H41  1  0.255300  0.851600  0.142500  1.0  0.0867
  H  H42  1  0.995800  0.841600  0.181900  1.0  0.087
  H  H43  1  0.255200  0.249300  0.231600  1.0  0.0945
  H  H44  1  0.207400  0.330200  0.894700  1.0  0.1023
  H  H45  1  0.085100  0.906400  0.224900  1.0  0.0981
  H  H46  1  0.017500  0.986500  0.073300  1.0  0.0787
  H  H47  1  0.377400  0.259900  0.194100  1.0  0.1006
  H  H48  1  0.181100  0.465700  0.844200  1.0  0.0827
  H  H49  1  0.022200  0.343300  0.896800  1.0  0.092
  H  H50  1  0.163400  0.494900  0.038500  1.0  0.0832
  H  H51  1  0.215400  0.008000  0.139000  1.0  0.1193
  H  H52  1  0.262700  0.457600  0.135100  1.0  0.0903
  H  H53  1  0.125800  0.673100  0.900500  1.0  0.1148
  H  H54  1  0.126500  0.810000  0.159700  1.0  0.0773
  H  H55  1  0.100700  0.999500  0.049200  1.0  0.0838
  H  H56  1  0.225900  0.036800  0.233300  1.0  0.0849
  H  H57  1  0.091700  0.125500  0.228400  1.0  0.1207
  H  H58  1  0.098000  0.699700  0.804700  1.0  0.0973
  H  H59  1  0.299600  0.279700  0.934700  1.0  0.1035
  H  H60  1  0.104800  0.219900  0.139200  1.0  0.1164
  H  H61  1  0.288700  0.490800  0.021300  1.0  0.0779
  H  H62  1  0.237000  0.668800  0.982600  1.0  0.1111
  H  H63  1  0.174200  0.305400  0.978100  1.0  0.0847
  H  H64  1  0.065000  0.489500  0.888800  1.0  0.114
  H  H65  1  0.247600  0.726800  0.069800  1.0  0.1106
  H  H66  1  0.164400  0.179400  0.312000  1.0  0.095
  H  H67  1  0.079400  0.274600  0.047600  1.0  0.0948
  H  H68  1  0.755300  0.351600  0.142500  1.0  0.0867
  H  H69  1  0.495800  0.341600  0.181900  1.0  0.087
  H  H70  1  0.755200  0.749300  0.231600  1.0  0.0945
  H  H71  1  0.707400  0.830200  0.894700  1.0  0.1023
  H  H72  1  0.585100  0.406400  0.224900  1.0  0.0981
  H  H73  1  0.517500  0.486500  0.073300  1.0  0.0787
  H  H74  1  0.877400  0.759900  0.194100  1.0  0.1006
  H  H75  1  0.681100  0.965700  0.844200  1.0  0.0826
  H  H76  1  0.522200  0.843300  0.896800  1.0  0.092
  H  H77  1  0.663400  0.994900  0.038500  1.0  0.0832
  H  H78  1  0.715400  0.508000  0.139000  1.0  0.1193
  H  H79  1  0.762700  0.957600  0.135100  1.0  0.0903
  H  H80  1  0.625800  0.173100  0.900500  1.0  0.1148
  H  H81  1  0.626500  0.310000  0.159700  1.0  0.0773
  H  H82  1  0.600700  0.499500  0.049200  1.0  0.0838
  H  H83  1  0.725900  0.536800  0.233300  1.0  0.0849
  H  H84  1  0.591700  0.625500  0.228400  1.0  0.1207
  H  H85  1  0.598000  0.199700  0.804700  1.0  0.0973
  H  H86  1  0.799600  0.779700  0.934700  1.0  0.1034
  H  H87  1  0.604800  0.719900  0.139200  1.0  0.1164
  H  H88  1  0.788700  0.990800  0.021300  1.0  0.0779
  H  H89  1  0.737000  0.168800  0.982600  1.0  0.1111
  H  H90  1  0.674200  0.805400  0.978100  1.0  0.0851
  H  H91  1  0.565000  0.989500  0.888800  1.0  0.114
  H  H92  1  0.747600  0.226800  0.069800  1.0  0.1106
  H  H93  1  0.664400  0.679400  0.312000  1.0  0.095
  H  H94  1  0.579400  0.774600  0.047600  1.0  0.0948
  H  H95  1  0.744700  0.851600  0.357500  1.0  0.0872
  H  H96  1  0.004200  0.841600  0.318100  1.0  0.0862
  H  H97  1  0.744800  0.249300  0.268400  1.0  0.0947
  H  H98  1  0.792600  0.330200  0.605300  1.0  0.1031
  H  H99  1  0.914900  0.906400  0.275100  1.0  0.0983
  H  H100  1  0.982500  0.986500  0.426700  1.0  0.0786
  H  H101  1  0.622600  0.259900  0.305900  1.0  0.1006
  H  H102  1  0.818900  0.465700  0.655800  1.0  0.0824
  H  H103  1  0.977800  0.343300  0.603200  1.0  0.0917
  H  H104  1  0.836600  0.494900  0.461500  1.0  0.0829
  H  H105  1  0.784600  0.008000  0.361000  1.0  0.1194
  H  H106  1  0.737300  0.457600  0.364900  1.0  0.0899
  H  H107  1  0.874200  0.673100  0.599500  1.0  0.1146
  H  H108  1  0.873500  0.810000  0.340300  1.0  0.0769
  H  H109  1  0.899300  0.999500  0.450800  1.0  0.0836
  H  H110  1  0.774100  0.036800  0.266700  1.0  0.0853
  H  H111  1  0.908300  0.125500  0.271600  1.0  0.1227
  H  H112  1  0.902000  0.699700  0.695300  1.0  0.098
  H  H113  1  0.700400  0.279700  0.565300  1.0  0.1042
  H  H114  1  0.895200  0.219900  0.360800  1.0  0.1159
  H  H115  1  0.711300  0.490800  0.478700  1.0  0.0793
  H  H116  1  0.763000  0.668800  0.517400  1.0  0.111
  H  H117  1  0.825800  0.305400  0.521900  1.0  0.0837
  H  H118  1  0.935000  0.489500  0.611200  1.0  0.1133
  H  H119  1  0.752400  0.726800  0.430200  1.0  0.1106
  H  H120  1  0.835600  0.179400  0.188000  1.0  0.0952
  H  H121  1  0.920600  0.274600  0.452400  1.0  0.0943
  H  H122  1  0.244700  0.351600  0.357500  1.0  0.0872
  H  H123  1  0.504200  0.341600  0.318100  1.0  0.0862
  H  H124  1  0.244800  0.749300  0.268400  1.0  0.0947
  H  H125  1  0.292600  0.830200  0.605300  1.0  0.1031
  H  H126  1  0.414900  0.406400  0.275100  1.0  0.0983
  H  H127  1  0.482500  0.486500  0.426700  1.0  0.0786
  H  H128  1  0.122600  0.759900  0.305900  1.0  0.1006
  H  H129  1  0.318900  0.965700  0.655800  1.0  0.0823
  H  H130  1  0.477800  0.843300  0.603200  1.0  0.0917
  H  H131  1  0.336600  0.994900  0.461500  1.0  0.0829
  H  H132  1  0.284600  0.508000  0.361000  1.0  0.1194
  H  H133  1  0.237300  0.957600  0.364900  1.0  0.0899
  H  H134  1  0.374200  0.173100  0.599500  1.0  0.1146
  H  H135  1  0.373500  0.310000  0.340300  1.0  0.0769
  H  H136  1  0.399300  0.499500  0.450800  1.0  0.0836
  H  H137  1  0.274100  0.536800  0.266700  1.0  0.0853
  H  H138  1  0.408300  0.625500  0.271600  1.0  0.1227
  H  H139  1  0.402000  0.199700  0.695300  1.0  0.098
  H  H140  1  0.200400  0.779700  0.565300  1.0  0.1041
  H  H141  1  0.395200  0.719900  0.360800  1.0  0.1159
  H  H142  1  0.211300  0.990800  0.478700  1.0  0.0793
  H  H143  1  0.263000  0.168800  0.517400  1.0  0.111
  H  H144  1  0.325800  0.805400  0.521900  1.0  0.0839
  H  H145  1  0.435000  0.989500  0.611200  1.0  0.1133
  H  H146  1  0.252400  0.226800  0.430200  1.0  0.1106
  H  H147  1  0.335600  0.679400  0.188000  1.0  0.0952
  H  H148  1  0.420600  0.774600  0.452400  1.0  0.0943
  H  H149  1  0.744700  0.148400  0.857500  1.0  0.0871
  H  H150  1  0.004200  0.158400  0.818100  1.0  0.0864
  H  H151  1  0.744800  0.750700  0.768400  1.0  0.0947
  H  H152  1  0.792600  0.669800  0.105300  1.0  0.1047
  H  H153  1  0.914900  0.093600  0.775100  1.0  0.0984
  H  H154  1  0.982500  0.013500  0.926700  1.0  0.0789
  H  H155  1  0.622600  0.740100  0.805900  1.0  0.1003
  H  H156  1  0.818900  0.534300  0.155800  1.0  0.0823
  H  H157  1  0.977800  0.656700  0.103200  1.0  0.092
  H  H158  1  0.836600  0.505100  0.961500  1.0  0.0828
  H  H159  1  0.784600  0.992000  0.861000  1.0  0.1192
  H  H160  1  0.737300  0.542400  0.864900  1.0  0.0901
  H  H161  1  0.874200  0.326900  0.099500  1.0  0.1145
  H  H162  1  0.873500  0.190000  0.840300  1.0  0.0767
  H  H163  1  0.899300  0.000500  0.950800  1.0  0.0837
  H  H164  1  0.774100  0.963200  0.766700  1.0  0.0851
  H  H165  1  0.908300  0.874500  0.771600  1.0  0.1223
  H  H166  1  0.902000  0.300300  0.195300  1.0  0.0981
  H  H167  1  0.700400  0.720300  0.065300  1.0  0.1041
  H  H168  1  0.895200  0.780100  0.860800  1.0  0.116
  H  H169  1  0.711300  0.509200  0.978700  1.0  0.079
  H  H170  1  0.763000  0.331200  0.017400  1.0  0.1114
  H  H171  1  0.825800  0.694600  0.021900  1.0  0.0842
  H  H172  1  0.935000  0.510500  0.111200  1.0  0.1136
  H  H173  1  0.752400  0.273200  0.930200  1.0  0.1102
  H  H174  1  0.835600  0.820600  0.688000  1.0  0.095
  H  H175  1  0.920600  0.725400  0.952400  1.0  0.0946
  H  H176  1  0.244700  0.648400  0.857500  1.0  0.0871
  H  H177  1  0.504200  0.658400  0.818100  1.0  0.0864
  H  H178  1  0.244800  0.250700  0.768400  1.0  0.0947
  H  H179  1  0.292600  0.169800  0.105300  1.0  0.1047
  H  H180  1  0.414900  0.593600  0.775100  1.0  0.0984
  H  H181  1  0.482500  0.513500  0.926700  1.0  0.0789
  H  H182  1  0.122600  0.240100  0.805900  1.0  0.1003
  H  H183  1  0.318900  0.034300  0.155800  1.0  0.0823
  H  H184  1  0.477800  0.156700  0.103200  1.0  0.092
  H  H185  1  0.336600  0.005100  0.961500  1.0  0.0828
  H  H186  1  0.284600  0.492000  0.861000  1.0  0.1192
  H  H187  1  0.237300  0.042400  0.864900  1.0  0.0901
  H  H188  1  0.374200  0.826900  0.099500  1.0  0.1145
  H  H189  1  0.373500  0.690000  0.840300  1.0  0.0767
  H  H190  1  0.399300  0.500500  0.950800  1.0  0.0837
  H  H191  1  0.274100  0.463200  0.766700  1.0  0.0851
  H  H192  1  0.408300  0.374500  0.771600  1.0  0.1223
  H  H193  1  0.402000  0.800300  0.195300  1.0  0.0981
  H  H194  1  0.200400  0.220300  0.065300  1.0  0.1041
  H  H195  1  0.395200  0.280100  0.860800  1.0  0.116
  H  H196  1  0.211300  0.009200  0.978700  1.0  0.079
  H  H197  1  0.263000  0.831200  0.017400  1.0  0.1114
  H  H198  1  0.325800  0.194600  0.021900  1.0  0.0845
  H  H199  1  0.435000  0.010500  0.111200  1.0  0.1136
  H  H200  1  0.252400  0.773200  0.930200  1.0  0.1102
  H  H201  1  0.335600  0.320600  0.688000  1.0  0.095
  H  H202  1  0.420600  0.225400  0.952400  1.0  0.0946
  H  H203  1  0.255300  0.148400  0.642500  1.0  0.0867
  H  H204  1  0.995800  0.158400  0.681900  1.0  0.087
  H  H205  1  0.255200  0.750700  0.731600  1.0  0.0943
  H  H206  1  0.207400  0.669800  0.394700  1.0  0.1044
  H  H207  1  0.085100  0.093600  0.724900  1.0  0.0984
  H  H208  1  0.017500  0.013500  0.573300  1.0  0.0788
  H  H209  1  0.377400  0.740100  0.694100  1.0  0.1005
  H  H210  1  0.181100  0.534300  0.344200  1.0  0.0828
  H  H211  1  0.022200  0.656700  0.396800  1.0  0.0922
  H  H212  1  0.163400  0.505100  0.538500  1.0  0.0837
  H  H213  1  0.215400  0.992000  0.639000  1.0  0.119
  H  H214  1  0.262700  0.542400  0.635100  1.0  0.0901
  H  H215  1  0.125800  0.326900  0.400500  1.0  0.1143
  H  H216  1  0.126500  0.190000  0.659700  1.0  0.0773
  H  H217  1  0.100700  0.000500  0.549200  1.0  0.0842
  H  H218  1  0.225900  0.963200  0.733300  1.0  0.0847
  H  H219  1  0.091700  0.874500  0.728400  1.0  0.1212
  H  H220  1  0.098000  0.300300  0.304700  1.0  0.0972
  H  H221  1  0.299600  0.720300  0.434700  1.0  0.1041
  H  H222  1  0.104800  0.780100  0.639200  1.0  0.1168
  H  H223  1  0.288700  0.509200  0.521300  1.0  0.0781
  H  H224  1  0.237000  0.331200  0.482600  1.0  0.1111
  H  H225  1  0.174200  0.694600  0.478100  1.0  0.0844
  H  H226  1  0.065000  0.510500  0.388800  1.0  0.1133
  H  H227  1  0.247600  0.273200  0.569800  1.0  0.1109
  H  H228  1  0.164400  0.820600  0.812000  1.0  0.0956
  H  H229  1  0.079400  0.725400  0.547600  1.0  0.0942
  H  H230  1  0.755300  0.648400  0.642500  1.0  0.0867
  H  H231  1  0.495800  0.658400  0.681900  1.0  0.087
  H  H232  1  0.755200  0.250700  0.731600  1.0  0.0943
  H  H233  1  0.707400  0.169800  0.394700  1.0  0.1044
  H  H234  1  0.585100  0.593600  0.724900  1.0  0.0984
  H  H235  1  0.517500  0.513500  0.573300  1.0  0.0788
  H  H236  1  0.877400  0.240100  0.694100  1.0  0.1005
  H  H237  1  0.681100  0.034300  0.344200  1.0  0.0827
  H  H238  1  0.522200  0.156700  0.396800  1.0  0.0922
  H  H239  1  0.663400  0.005100  0.538500  1.0  0.0837
  H  H240  1  0.715400  0.492000  0.639000  1.0  0.119
  H  H241  1  0.762700  0.042400  0.635100  1.0  0.0901
  H  H242  1  0.625800  0.826900  0.400500  1.0  0.1143
  H  H243  1  0.626500  0.690000  0.659700  1.0  0.0773
  H  H244  1  0.600700  0.500500  0.549200  1.0  0.0842
  H  H245  1  0.725900  0.463200  0.733300  1.0  0.0847
  H  H246  1  0.591700  0.374500  0.728400  1.0  0.1212
  H  H247  1  0.598000  0.800300  0.304700  1.0  0.0972
  H  H248  1  0.799600  0.220300  0.434700  1.0  0.104
  H  H249  1  0.604800  0.280100  0.639200  1.0  0.1168
  H  H250  1  0.788700  0.009200  0.521300  1.0  0.0781
  H  H251  1  0.737000  0.831200  0.482600  1.0  0.1111
  H  H252  1  0.674200  0.194600  0.478100  1.0  0.0848
  H  H253  1  0.565000  0.010500  0.388800  1.0  0.1133
  H  H254  1  0.747600  0.773200  0.569800  1.0  0.1109
  H  H255  1  0.664400  0.320600  0.812000  1.0  0.0956
  H  H256  1  0.579400  0.225400  0.547600  1.0  0.0942
  C  C257  1  0.224140  0.862600  0.145360  1.0  0.0211
  C  C258  1  0.011230  0.879500  0.165220  1.0  -0.0122
  C  C259  1  0.272470  0.278400  0.213600  1.0  -0.0089
  C  C260  1  0.324940  0.366900  0.161140  1.0  -0.1413
  C  C261  1  0.319870  0.240900  0.217990  1.0  -0.1568
  C  C262  1  0.234780  0.357000  0.924940  1.0  -0.1043
  C  C263  1  0.342840  0.151100  0.249740  1.0  0.6414
  C  C264  1  0.353380  0.415200  0.132830  1.0  0.6989
  C  C265  1  0.200820  0.404600  0.179560  1.0  0.6857
  C  C266  1  0.060790  0.915200  0.189140  1.0  -0.125
  C  C267  1  0.023120  0.958800  0.105960  1.0  0.1989
  C  C268  1  0.345850  0.285200  0.191480  1.0  -0.0988
  C  C269  1  0.163730  0.521000  0.846340  1.0  0.1943
  C  C270  1  0.058540  0.353900  0.912500  1.0  -0.0006
  C  C271  1  0.182720  0.546300  0.035220  1.0  0.2192
  C  C272  1  0.202410  0.949600  0.143780  1.0  -0.1283
  C  C273  1  0.277100  0.403600  0.156090  1.0  0.0003
  C  C274  1  0.133700  0.634300  0.877770  1.0  -0.124
  C  C275  1  0.153660  0.839800  0.155040  1.0  0.1938
  C  C276  1  0.098030  0.061400  0.059990  1.0  0.1715
  C  C277  1  0.201350  0.065500  0.242560  1.0  0.1916
  C  C278  1  0.127420  0.113300  0.239430  1.0  -0.1348
  C  C279  1  0.118340  0.648600  0.824640  1.0  -0.0187
  C  C280  1  0.285820  0.328800  0.947400  1.0  0.0027
  C  C281  1  0.100820  0.181800  0.110140  1.0  -0.0871
  C  C282  1  0.279850  0.444400  0.994580  1.0  0.2098
  C  C283  1  0.223000  0.640800  0.004010  1.0  -0.1392
  C  C284  1  0.141560  0.333333  0.957000  1.0  0.1863
  C  C285  1  0.082010  0.435200  0.908000  1.0  -0.1077
  C  C286  1  0.228800  0.672500  0.052420  1.0  0.0035
  C  C287  1  0.167880  0.143800  0.285430  1.0  0.0122
  C  C288  1  0.086400  0.211600  0.059260  1.0  -0.009
  C  C289  1  0.250780  0.359600  0.182350  1.0  -0.1515
  C  C290  1  0.724140  0.362600  0.145360  1.0  0.0211
  C  C291  1  0.511230  0.379500  0.165220  1.0  -0.0122
  C  C292  1  0.772470  0.778400  0.213600  1.0  -0.0089
  C  C293  1  0.824940  0.866900  0.161140  1.0  -0.1413
  C  C294  1  0.819870  0.740900  0.217990  1.0  -0.1568
  C  C295  1  0.734780  0.857000  0.924940  1.0  -0.1043
  C  C296  1  0.842840  0.651100  0.249740  1.0  0.6414
  C  C297  1  0.853380  0.915200  0.132830  1.0  0.6989
  C  C298  1  0.700820  0.904600  0.179560  1.0  0.6857
  C  C299  1  0.560790  0.415200  0.189140  1.0  -0.125
  C  C300  1  0.523120  0.458800  0.105960  1.0  0.1989
  C  C301  1  0.845850  0.785200  0.191480  1.0  -0.0988
  C  C302  1  0.663730  0.021000  0.846340  1.0  0.1943
  C  C303  1  0.558540  0.853900  0.912500  1.0  -0.0006
  C  C304  1  0.682720  0.046300  0.035220  1.0  0.2192
  C  C305  1  0.702410  0.449600  0.143780  1.0  -0.1283
  C  C306  1  0.777100  0.903600  0.156090  1.0  0.0003
  C  C307  1  0.633700  0.134300  0.877770  1.0  -0.124
  C  C308  1  0.653660  0.339800  0.155040  1.0  0.1938
  C  C309  1  0.598030  0.561400  0.059990  1.0  0.1715
  C  C310  1  0.701350  0.565500  0.242560  1.0  0.1916
  C  C311  1  0.627420  0.613300  0.239430  1.0  -0.1348
  C  C312  1  0.618340  0.148600  0.824640  1.0  -0.0187
  C  C313  1  0.785820  0.828800  0.947400  1.0  0.0027
  C  C314  1  0.600820  0.681800  0.110140  1.0  -0.0871
  C  C315  1  0.779850  0.944400  0.994580  1.0  0.2099
  C  C316  1  0.723000  0.140800  0.004010  1.0  -0.1392
  C  C317  1  0.641560  0.833300  0.957000  1.0  0.1864
  C  C318  1  0.582010  0.935200  0.908000  1.0  -0.1077
  C  C319  1  0.728800  0.172500  0.052420  1.0  0.0035
  C  C320  1  0.667880  0.643800  0.285430  1.0  0.0122
  C  C321  1  0.586400  0.711600  0.059260  1.0  -0.009
  C  C322  1  0.750780  0.859600  0.182350  1.0  -0.1515
  C  C323  1  0.775860  0.862600  0.354640  1.0  0.0222
  C  C324  1  0.988770  0.879500  0.334780  1.0  -0.0115
  C  C325  1  0.727530  0.278400  0.286400  1.0  -0.0095
  C  C326  1  0.675060  0.366900  0.338860  1.0  -0.142
  C  C327  1  0.680130  0.240900  0.282010  1.0  -0.1567
  C  C328  1  0.765220  0.357000  0.575060  1.0  -0.1038
  C  C329  1  0.657160  0.151100  0.250260  1.0  0.6387
  C  C330  1  0.646620  0.415200  0.367170  1.0  0.6993
  C  C331  1  0.799180  0.404600  0.320440  1.0  0.6854
  C  C332  1  0.939210  0.915200  0.310860  1.0  -0.1254
  C  C333  1  0.976880  0.958800  0.394040  1.0  0.2005
  C  C334  1  0.654150  0.285200  0.308520  1.0  -0.0952
  C  C335  1  0.836270  0.521000  0.653660  1.0  0.1987
  C  C336  1  0.941460  0.353900  0.587500  1.0  0.0007
  C  C337  1  0.817280  0.546300  0.464780  1.0  0.2196
  C  C338  1  0.797590  0.949600  0.356220  1.0  -0.1288
  C  C339  1  0.722900  0.403600  0.343910  1.0  0.0013
  C  C340  1  0.866300  0.634300  0.622230  1.0  -0.1213
  C  C341  1  0.846340  0.839800  0.344960  1.0  0.1932
  C  C342  1  0.901970  0.061400  0.440010  1.0  0.1707
  C  C343  1  0.798650  0.065500  0.257440  1.0  0.1918
  C  C344  1  0.872580  0.113300  0.260570  1.0  -0.1362
  C  C345  1  0.881660  0.648600  0.675360  1.0  -0.0175
  C  C346  1  0.714180  0.328800  0.552600  1.0  0.0022
  C  C347  1  0.899180  0.181800  0.389860  1.0  -0.0867
  C  C348  1  0.720150  0.444400  0.505420  1.0  0.2102
  C  C349  1  0.777000  0.640800  0.495990  1.0  -0.1394
  C  C350  1  0.858440  0.333333  0.543000  1.0  0.1869
  C  C351  1  0.917990  0.435200  0.592000  1.0  -0.1047
  C  C352  1  0.771200  0.672500  0.447580  1.0  0.0043
  C  C353  1  0.832120  0.143800  0.214570  1.0  0.012
  C  C354  1  0.913600  0.211600  0.440740  1.0  -0.0095
  C  C355  1  0.749220  0.359600  0.317650  1.0  -0.1513
  C  C356  1  0.275860  0.362600  0.354640  1.0  0.0222
  C  C357  1  0.488770  0.379500  0.334780  1.0  -0.0115
  C  C358  1  0.227530  0.778400  0.286400  1.0  -0.0095
  C  C359  1  0.175060  0.866900  0.338860  1.0  -0.142
  C  C360  1  0.180130  0.740900  0.282010  1.0  -0.1567
  C  C361  1  0.265220  0.857000  0.575060  1.0  -0.1038
  C  C362  1  0.157160  0.651100  0.250260  1.0  0.6387
  C  C363  1  0.146620  0.915200  0.367170  1.0  0.6993
  C  C364  1  0.299180  0.904600  0.320440  1.0  0.6854
  C  C365  1  0.439210  0.415200  0.310860  1.0  -0.1254
  C  C366  1  0.476880  0.458800  0.394040  1.0  0.2005
  C  C367  1  0.154150  0.785200  0.308520  1.0  -0.0952
  C  C368  1  0.336270  0.021000  0.653660  1.0  0.1987
  C  C369  1  0.441460  0.853900  0.587500  1.0  0.0007
  C  C370  1  0.317280  0.046300  0.464780  1.0  0.2196
  C  C371  1  0.297590  0.449600  0.356220  1.0  -0.1288
  C  C372  1  0.222900  0.903600  0.343910  1.0  0.0013
  C  C373  1  0.366300  0.134300  0.622230  1.0  -0.1213
  C  C374  1  0.346340  0.339800  0.344960  1.0  0.1932
  C  C375  1  0.401970  0.561400  0.440010  1.0  0.1707
  C  C376  1  0.298650  0.565500  0.257440  1.0  0.1918
  C  C377  1  0.372580  0.613300  0.260570  1.0  -0.1362
  C  C378  1  0.381660  0.148600  0.675360  1.0  -0.0175
  C  C379  1  0.214180  0.828800  0.552600  1.0  0.0022
  C  C380  1  0.399180  0.681800  0.389860  1.0  -0.0867
  C  C381  1  0.220150  0.944400  0.505420  1.0  0.2103
  C  C382  1  0.277000  0.140800  0.495990  1.0  -0.1394
  C  C383  1  0.358440  0.833300  0.543000  1.0  0.1869
  C  C384  1  0.417990  0.935200  0.592000  1.0  -0.1047
  C  C385  1  0.271200  0.172500  0.447580  1.0  0.0043
  C  C386  1  0.332120  0.643800  0.214570  1.0  0.012
  C  C387  1  0.413600  0.711600  0.440740  1.0  -0.0095
  C  C388  1  0.249220  0.859600  0.317650  1.0  -0.1513
  C  C389  1  0.775860  0.137400  0.854640  1.0  0.0222
  C  C390  1  0.988770  0.120500  0.834780  1.0  -0.0119
  C  C391  1  0.727530  0.721600  0.786400  1.0  -0.0095
  C  C392  1  0.675060  0.633100  0.838860  1.0  -0.1417
  C  C393  1  0.680130  0.759100  0.782010  1.0  -0.1553
  C  C394  1  0.765220  0.643000  0.075060  1.0  -0.1043
  C  C395  1  0.657160  0.848900  0.750260  1.0  0.6394
  C  C396  1  0.646620  0.584800  0.867170  1.0  0.699
  C  C397  1  0.799180  0.595400  0.820440  1.0  0.6852
  C  C398  1  0.939210  0.084800  0.810860  1.0  -0.1254
  C  C399  1  0.976880  0.041200  0.894040  1.0  0.2005
  C  C400  1  0.654150  0.714800  0.808520  1.0  -0.0949
  C  C401  1  0.836270  0.479000  0.153660  1.0  0.1989
  C  C402  1  0.941460  0.646100  0.087500  1.0  0.0005
  C  C403  1  0.817280  0.453700  0.964780  1.0  0.2195
  C  C404  1  0.797590  0.050400  0.856220  1.0  -0.1288
  C  C405  1  0.722900  0.596400  0.843910  1.0  0.0017
  C  C406  1  0.866300  0.365700  0.122230  1.0  -0.1224
  C  C407  1  0.846340  0.160200  0.844960  1.0  0.1934
  C  C408  1  0.901970  0.938600  0.940010  1.0  0.1701
  C  C409  1  0.798650  0.934500  0.757440  1.0  0.1915
  C  C410  1  0.872580  0.886700  0.760570  1.0  -0.1372
  C  C411  1  0.881660  0.351400  0.175360  1.0  -0.0187
  C  C412  1  0.714180  0.671200  0.052600  1.0  0.0026
  C  C413  1  0.899180  0.818200  0.889860  1.0  -0.0877
  C  C414  1  0.720150  0.555600  0.005420  1.0  0.2099
  C  C415  1  0.777000  0.359200  0.995990  1.0  -0.1388
  C  C416  1  0.858440  0.666667  0.043000  1.0  0.1858
  C  C417  1  0.917990  0.564800  0.092000  1.0  -0.1047
  C  C418  1  0.771200  0.327500  0.947580  1.0  0.0035
  C  C419  1  0.832120  0.856200  0.714570  1.0  0.0115
  C  C420  1  0.913600  0.788400  0.940740  1.0  -0.0099
  C  C421  1  0.749220  0.640400  0.817650  1.0  -0.1512
  C  C422  1  0.275860  0.637400  0.854640  1.0  0.0222
  C  C423  1  0.488770  0.620500  0.834780  1.0  -0.0119
  C  C424  1  0.227530  0.221600  0.786400  1.0  -0.0095
  C  C425  1  0.175060  0.133100  0.838860  1.0  -0.1417
  C  C426  1  0.180130  0.259100  0.782010  1.0  -0.1553
  C  C427  1  0.265220  0.143000  0.075060  1.0  -0.1043
  C  C428  1  0.157160  0.348900  0.750260  1.0  0.6394
  C  C429  1  0.146620  0.084800  0.867170  1.0  0.699
  C  C430  1  0.299180  0.095400  0.820440  1.0  0.6852
  C  C431  1  0.439210  0.584800  0.810860  1.0  -0.1254
  C  C432  1  0.476880  0.541200  0.894040  1.0  0.2005
  C  C433  1  0.154150  0.214800  0.808520  1.0  -0.0949
  C  C434  1  0.336270  0.979000  0.153660  1.0  0.1989
  C  C435  1  0.441460  0.146100  0.087500  1.0  0.0005
  C  C436  1  0.317280  0.953700  0.964780  1.0  0.2195
  C  C437  1  0.297590  0.550400  0.856220  1.0  -0.1288
  C  C438  1  0.222900  0.096400  0.843910  1.0  0.0017
  C  C439  1  0.366300  0.865700  0.122230  1.0  -0.1224
  C  C440  1  0.346340  0.660200  0.844960  1.0  0.1934
  C  C441  1  0.401970  0.438600  0.940010  1.0  0.1701
  C  C442  1  0.298650  0.434500  0.757440  1.0  0.1915
  C  C443  1  0.372580  0.386700  0.760570  1.0  -0.1372
  C  C444  1  0.381660  0.851400  0.175360  1.0  -0.0187
  C  C445  1  0.214180  0.171200  0.052600  1.0  0.0026
  C  C446  1  0.399180  0.318200  0.889860  1.0  -0.0877
  C  C447  1  0.220150  0.055600  0.005420  1.0  0.21
  C  C448  1  0.277000  0.859200  0.995990  1.0  -0.1388
  C  C449  1  0.358440  0.166700  0.043000  1.0  0.1859
  C  C450  1  0.417990  0.064800  0.092000  1.0  -0.1047
  C  C451  1  0.271200  0.827500  0.947580  1.0  0.0035
  C  C452  1  0.332120  0.356200  0.714570  1.0  0.0115
  C  C453  1  0.413600  0.288400  0.940740  1.0  -0.0099
  C  C454  1  0.249220  0.140400  0.817650  1.0  -0.1512
  C  C455  1  0.224140  0.137400  0.645360  1.0  0.0222
  C  C456  1  0.011230  0.120500  0.665220  1.0  -0.0129
  C  C457  1  0.272470  0.721600  0.713600  1.0  -0.0091
  C  C458  1  0.324940  0.633100  0.661140  1.0  -0.142
  C  C459  1  0.319870  0.759100  0.717990  1.0  -0.1563
  C  C460  1  0.234780  0.643000  0.424940  1.0  -0.1043
  C  C461  1  0.342840  0.848900  0.749740  1.0  0.6409
  C  C462  1  0.353380  0.584800  0.632830  1.0  0.6978
  C  C463  1  0.200820  0.595400  0.679560  1.0  0.6854
  C  C464  1  0.060790  0.084800  0.689140  1.0  -0.1252
  C  C465  1  0.023120  0.041200  0.605960  1.0  0.1985
  C  C466  1  0.345850  0.714800  0.691480  1.0  -0.0983
  C  C467  1  0.163730  0.479000  0.346340  1.0  0.1946
  C  C468  1  0.058540  0.646100  0.412500  1.0  -0.0008
  C  C469  1  0.182720  0.453700  0.535220  1.0  0.2197
  C  C470  1  0.202410  0.050400  0.643780  1.0  -0.1275
  C  C471  1  0.277100  0.596400  0.656090  1.0  0.001
  C  C472  1  0.133700  0.365700  0.377770  1.0  -0.1253
  C  C473  1  0.153660  0.160200  0.655040  1.0  0.1936
  C  C474  1  0.098030  0.938600  0.559990  1.0  0.1712
  C  C475  1  0.201350  0.934500  0.742560  1.0  0.1915
  C  C476  1  0.127420  0.886700  0.739430  1.0  -0.1346
  C  C477  1  0.118340  0.351400  0.324640  1.0  -0.0204
  C  C478  1  0.285820  0.671200  0.447400  1.0  0.0037
  C  C479  1  0.100820  0.818200  0.610140  1.0  -0.0883
  C  C480  1  0.279850  0.555600  0.494580  1.0  0.2098
  C  C481  1  0.223000  0.359200  0.504010  1.0  -0.1395
  C  C482  1  0.141560  0.666667  0.457000  1.0  0.1855
  C  C483  1  0.082010  0.564800  0.408000  1.0  -0.1081
  C  C484  1  0.228800  0.327500  0.552420  1.0  0.0036
  C  C485  1  0.167880  0.856200  0.785430  1.0  0.0122
  C  C486  1  0.086400  0.788400  0.559260  1.0  -0.0091
  C  C487  1  0.250780  0.640400  0.682350  1.0  -0.1515
  C  C488  1  0.724140  0.637400  0.645360  1.0  0.0222
  C  C489  1  0.511230  0.620500  0.665220  1.0  -0.0129
  C  C490  1  0.772470  0.221600  0.713600  1.0  -0.0091
  C  C491  1  0.824940  0.133100  0.661140  1.0  -0.142
  C  C492  1  0.819870  0.259100  0.717990  1.0  -0.1563
  C  C493  1  0.734780  0.143000  0.424940  1.0  -0.1043
  C  C494  1  0.842840  0.348900  0.749740  1.0  0.6409
  C  C495  1  0.853380  0.084800  0.632830  1.0  0.6978
  C  C496  1  0.700820  0.095400  0.679560  1.0  0.6854
  C  C497  1  0.560790  0.584800  0.689140  1.0  -0.1252
  C  C498  1  0.523120  0.541200  0.605960  1.0  0.1985
  C  C499  1  0.845850  0.214800  0.691480  1.0  -0.0983
  C  C500  1  0.663730  0.979000  0.346340  1.0  0.1946
  C  C501  1  0.558540  0.146100  0.412500  1.0  -0.0008
  C  C502  1  0.682720  0.953700  0.535220  1.0  0.2197
  C  C503  1  0.702410  0.550400  0.643780  1.0  -0.1275
  C  C504  1  0.777100  0.096400  0.656090  1.0  0.001
  C  C505  1  0.633700  0.865700  0.377770  1.0  -0.1253
  C  C506  1  0.653660  0.660200  0.655040  1.0  0.1936
  C  C507  1  0.598030  0.438600  0.559990  1.0  0.1712
  C  C508  1  0.701350  0.434500  0.742560  1.0  0.1915
  C  C509  1  0.627420  0.386700  0.739430  1.0  -0.1346
  C  C510  1  0.618340  0.851400  0.324640  1.0  -0.0204
  C  C511  1  0.785820  0.171200  0.447400  1.0  0.0037
  C  C512  1  0.600820  0.318200  0.610140  1.0  -0.0883
  C  C513  1  0.779850  0.055600  0.494580  1.0  0.2099
  C  C514  1  0.723000  0.859200  0.504010  1.0  -0.1395
  C  C515  1  0.641560  0.166700  0.457000  1.0  0.1858
  C  C516  1  0.582010  0.064800  0.408000  1.0  -0.1081
  C  C517  1  0.728800  0.827500  0.552420  1.0  0.0036
  C  C518  1  0.667880  0.356200  0.785430  1.0  0.0122
  C  C519  1  0.586400  0.288400  0.559260  1.0  -0.0091
  C  C520  1  0.750780  0.140400  0.682350  1.0  -0.1515
  N  N521  1  0.108590  0.084800  0.111150  1.0  -0.1758
  N  N522  1  0.214340  0.115000  0.287070  1.0  -0.3816
  N  N523  1  0.314270  0.384200  0.991970  1.0  -0.3927
  N  N524  1  0.230370  0.432900  0.954850  1.0  -0.1921
  N  N525  1  0.192840  0.793200  0.151910  1.0  -0.4165
  N  N526  1  0.068810  0.967000  0.151020  1.0  -0.1847
  N  N527  1  0.135860  0.422600  0.937140  1.0  -0.1824
  N  N528  1  0.203050  0.613100  0.072040  1.0  -0.4045
  N  N529  1  0.192630  0.559600  0.992170  1.0  -0.1911
  N  N530  1  0.148900  0.060900  0.212000  1.0  -0.1697
  N  N531  1  0.083610  0.134600  0.027060  1.0  -0.3366
  N  N532  1  0.163440  0.551600  0.892250  1.0  -0.2013
  N  N533  1  0.157040  0.934800  0.150740  1.0  -0.1825
  N  N534  1  0.987340  0.908100  0.112470  1.0  -0.3894
  N  N535  1  0.137230  0.576400  0.804650  1.0  -0.3592
  N  N536  1  0.095900  0.289500  0.943390  1.0  -0.4033
  N  N537  1  0.608590  0.584800  0.111150  1.0  -0.1758
  N  N538  1  0.714340  0.615000  0.287070  1.0  -0.3816
  N  N539  1  0.814270  0.884200  0.991970  1.0  -0.3927
  N  N540  1  0.730370  0.932900  0.954850  1.0  -0.1921
  N  N541  1  0.692840  0.293200  0.151910  1.0  -0.4165
  N  N542  1  0.568810  0.467000  0.151020  1.0  -0.1847
  N  N543  1  0.635860  0.922600  0.937140  1.0  -0.1816
  N  N544  1  0.703050  0.113100  0.072040  1.0  -0.4045
  N  N545  1  0.692630  0.059600  0.992170  1.0  -0.1911
  N  N546  1  0.648900  0.560900  0.212000  1.0  -0.1697
  N  N547  1  0.583610  0.634600  0.027060  1.0  -0.3366
  N  N548  1  0.663440  0.051600  0.892250  1.0  -0.2013
  N  N549  1  0.657040  0.434800  0.150740  1.0  -0.1825
  N  N550  1  0.487340  0.408100  0.112470  1.0  -0.3894
  N  N551  1  0.637230  0.076400  0.804650  1.0  -0.3592
  N  N552  1  0.595900  0.789500  0.943390  1.0  -0.403
  N  N553  1  0.891410  0.084800  0.388850  1.0  -0.1749
  N  N554  1  0.785660  0.115000  0.212930  1.0  -0.381
  N  N555  1  0.685730  0.384200  0.508030  1.0  -0.3935
  N  N556  1  0.769630  0.432900  0.545150  1.0  -0.1924
  N  N557  1  0.807160  0.793200  0.348090  1.0  -0.4159
  N  N558  1  0.931190  0.967000  0.348980  1.0  -0.182
  N  N559  1  0.864140  0.422600  0.562860  1.0  -0.1817
  N  N560  1  0.796950  0.613100  0.427960  1.0  -0.4019
  N  N561  1  0.807370  0.559600  0.507830  1.0  -0.191
  N  N562  1  0.851100  0.060900  0.288000  1.0  -0.1687
  N  N563  1  0.916390  0.134600  0.472940  1.0  -0.3421
  N  N564  1  0.836560  0.551600  0.607750  1.0  -0.2
  N  N565  1  0.842960  0.934800  0.349260  1.0  -0.1817
  N  N566  1  0.012660  0.908100  0.387530  1.0  -0.3912
  N  N567  1  0.862770  0.576400  0.695350  1.0  -0.3563
  N  N568  1  0.904100  0.289500  0.556610  1.0  -0.403
  N  N569  1  0.391410  0.584800  0.388850  1.0  -0.1749
  N  N570  1  0.285660  0.615000  0.212930  1.0  -0.381
  N  N571  1  0.185730  0.884200  0.508030  1.0  -0.3935
  N  N572  1  0.269630  0.932900  0.545150  1.0  -0.1924
  N  N573  1  0.307160  0.293200  0.348090  1.0  -0.4159
  N  N574  1  0.431190  0.467000  0.348980  1.0  -0.182
  N  N575  1  0.364140  0.922600  0.562860  1.0  -0.1808
  N  N576  1  0.296950  0.113100  0.427960  1.0  -0.4018
  N  N577  1  0.307370  0.059600  0.507830  1.0  -0.191
  N  N578  1  0.351100  0.560900  0.288000  1.0  -0.1687
  N  N579  1  0.416390  0.634600  0.472940  1.0  -0.3421
  N  N580  1  0.336560  0.051600  0.607750  1.0  -0.2
  N  N581  1  0.342960  0.434800  0.349260  1.0  -0.1817
  N  N582  1  0.512660  0.408100  0.387530  1.0  -0.3912
  N  N583  1  0.362770  0.076400  0.695350  1.0  -0.3563
  N  N584  1  0.404100  0.789500  0.556610  1.0  -0.4028
  N  N585  1  0.891410  0.915200  0.888850  1.0  -0.1746
  N  N586  1  0.785660  0.885000  0.712930  1.0  -0.3823
  N  N587  1  0.685730  0.615800  0.008030  1.0  -0.3936
  N  N588  1  0.769630  0.567100  0.045150  1.0  -0.1923
  N  N589  1  0.807160  0.206800  0.848090  1.0  -0.4166
  N  N590  1  0.931190  0.033000  0.848980  1.0  -0.1817
  N  N591  1  0.864140  0.577400  0.062860  1.0  -0.1812
  N  N592  1  0.796950  0.386900  0.927960  1.0  -0.4025
  N  N593  1  0.807370  0.440400  0.007830  1.0  -0.1908
  N  N594  1  0.851100  0.939100  0.788000  1.0  -0.1685
  N  N595  1  0.916390  0.865400  0.972940  1.0  -0.3415
  N  N596  1  0.836560  0.448400  0.107750  1.0  -0.2001
  N  N597  1  0.842960  0.065200  0.849260  1.0  -0.1828
  N  N598  1  0.012660  0.091900  0.887530  1.0  -0.3917
  N  N599  1  0.862770  0.423600  0.195350  1.0  -0.3557
  N  N600  1  0.904100  0.710500  0.056610  1.0  -0.4001
  N  N601  1  0.391410  0.415200  0.888850  1.0  -0.1746
  N  N602  1  0.285660  0.385000  0.712930  1.0  -0.3823
  N  N603  1  0.185730  0.115800  0.008030  1.0  -0.3936
  N  N604  1  0.269630  0.067100  0.045150  1.0  -0.1923
  N  N605  1  0.307160  0.706800  0.848090  1.0  -0.4166
  N  N606  1  0.431190  0.533000  0.848980  1.0  -0.1817
  N  N607  1  0.364140  0.077400  0.062860  1.0  -0.1803
  N  N608  1  0.296950  0.886900  0.927960  1.0  -0.4025
  N  N609  1  0.307370  0.940400  0.007830  1.0  -0.1908
  N  N610  1  0.351100  0.439100  0.788000  1.0  -0.1685
  N  N611  1  0.416390  0.365400  0.972940  1.0  -0.3415
  N  N612  1  0.336560  0.948400  0.107750  1.0  -0.2001
  N  N613  1  0.342960  0.565200  0.849260  1.0  -0.1828
  N  N614  1  0.512660  0.591900  0.887530  1.0  -0.3917
  N  N615  1  0.362770  0.923600  0.195350  1.0  -0.3557
  N  N616  1  0.404100  0.210500  0.056610  1.0  -0.3999
  N  N617  1  0.108590  0.915200  0.611150  1.0  -0.1757
  N  N618  1  0.214340  0.885000  0.787070  1.0  -0.3807
  N  N619  1  0.314270  0.615800  0.491970  1.0  -0.3926
  N  N620  1  0.230370  0.567100  0.454850  1.0  -0.1921
  N  N621  1  0.192840  0.206800  0.651910  1.0  -0.4164
  N  N622  1  0.068810  0.033000  0.651020  1.0  -0.1846
  N  N623  1  0.135860  0.577400  0.437140  1.0  -0.1819
  N  N624  1  0.203050  0.386900  0.572040  1.0  -0.4029
  N  N625  1  0.192630  0.440400  0.492170  1.0  -0.1912
  N  N626  1  0.148900  0.939100  0.712000  1.0  -0.1694
  N  N627  1  0.083610  0.865400  0.527060  1.0  -0.3368
  N  N628  1  0.163440  0.448400  0.392250  1.0  -0.201
  N  N629  1  0.157040  0.065200  0.650740  1.0  -0.1828
  N  N630  1  0.987340  0.091900  0.612470  1.0  -0.389
  N  N631  1  0.137230  0.423600  0.304650  1.0  -0.3581
  N  N632  1  0.095900  0.710500  0.443390  1.0  -0.4039
  N  N633  1  0.608590  0.415200  0.611150  1.0  -0.1757
  N  N634  1  0.714340  0.385000  0.787070  1.0  -0.3807
  N  N635  1  0.814270  0.115800  0.491970  1.0  -0.3926
  N  N636  1  0.730370  0.067100  0.454850  1.0  -0.1921
  N  N637  1  0.692840  0.706800  0.651910  1.0  -0.4164
  N  N638  1  0.568810  0.533000  0.651020  1.0  -0.1846
  N  N639  1  0.635860  0.077400  0.437140  1.0  -0.1811
  N  N640  1  0.703050  0.886900  0.572040  1.0  -0.4029
  N  N641  1  0.692630  0.940400  0.492170  1.0  -0.1912
  N  N642  1  0.648900  0.439100  0.712000  1.0  -0.1694
  N  N643  1  0.583610  0.365400  0.527060  1.0  -0.3368
  N  N644  1  0.663440  0.948400  0.392250  1.0  -0.201
  N  N645  1  0.657040  0.565200  0.650740  1.0  -0.1828
  N  N646  1  0.487340  0.591900  0.612470  1.0  -0.389
  N  N647  1  0.637230  0.923600  0.304650  1.0  -0.3581
  N  N648  1  0.595900  0.210500  0.443390  1.0  -0.4038
  O  O649  1  0.179270  0.470810  0.146340  1.0  -0.6815
  O  O650  1  0.340350  0.501800  0.119050  1.0  -0.5883
  O  O651  1  0.184600  0.373690  0.212370  1.0  -0.614
  O  O652  1  0.317950  0.107630  0.271460  1.0  -0.7157
  O  O653  1  0.385980  0.368400  0.124250  1.0  -0.6572
  O  O654  1  0.384850  0.118500  0.251610  1.0  -0.617
  O  O655  1  0.679270  0.970810  0.146340  1.0  -0.6815
  O  O656  1  0.840350  0.001800  0.119050  1.0  -0.5883
  O  O657  1  0.684600  0.873690  0.212370  1.0  -0.614
  O  O658  1  0.817950  0.607630  0.271460  1.0  -0.7157
  O  O659  1  0.885980  0.868400  0.124250  1.0  -0.6572
  O  O660  1  0.884850  0.618500  0.251610  1.0  -0.617
  O  O661  1  0.820730  0.470810  0.353660  1.0  -0.6811
  O  O662  1  0.659650  0.501800  0.380950  1.0  -0.59
  O  O663  1  0.815400  0.373690  0.287630  1.0  -0.6167
  O  O664  1  0.682050  0.107630  0.228540  1.0  -0.7152
  O  O665  1  0.614020  0.368400  0.375750  1.0  -0.6568
  O  O666  1  0.615150  0.118500  0.248390  1.0  -0.6183
  O  O667  1  0.320730  0.970810  0.353660  1.0  -0.6811
  O  O668  1  0.159650  0.001800  0.380950  1.0  -0.59
  O  O669  1  0.315400  0.873690  0.287630  1.0  -0.6167
  O  O670  1  0.182050  0.607630  0.228540  1.0  -0.7152
  O  O671  1  0.114020  0.868400  0.375750  1.0  -0.6568
  O  O672  1  0.115150  0.618500  0.248390  1.0  -0.6183
  O  O673  1  0.820730  0.529190  0.853660  1.0  -0.6804
  O  O674  1  0.659650  0.498200  0.880950  1.0  -0.5887
  O  O675  1  0.815400  0.626310  0.787630  1.0  -0.6166
  O  O676  1  0.682050  0.892370  0.728540  1.0  -0.7147
  O  O677  1  0.614020  0.631600  0.875750  1.0  -0.6562
  O  O678  1  0.615150  0.881500  0.748390  1.0  -0.6186
  O  O679  1  0.320730  0.029190  0.853660  1.0  -0.6804
  O  O680  1  0.159650  0.998200  0.880950  1.0  -0.5887
  O  O681  1  0.315400  0.126310  0.787630  1.0  -0.6166
  O  O682  1  0.182050  0.392370  0.728540  1.0  -0.7147
  O  O683  1  0.114020  0.131600  0.875750  1.0  -0.6562
  O  O684  1  0.115150  0.381500  0.748390  1.0  -0.6186
  O  O685  1  0.179270  0.529190  0.646340  1.0  -0.6812
  O  O686  1  0.340350  0.498200  0.619050  1.0  -0.5926
  O  O687  1  0.184600  0.626310  0.712370  1.0  -0.6144
  O  O688  1  0.317950  0.892370  0.771460  1.0  -0.7162
  O  O689  1  0.385980  0.631600  0.624250  1.0  -0.6576
  O  O690  1  0.384850  0.881500  0.751610  1.0  -0.6172
  O  O691  1  0.679270  0.029190  0.646340  1.0  -0.6812
  O  O692  1  0.840350  0.998200  0.619050  1.0  -0.5926
  O  O693  1  0.684600  0.126310  0.712370  1.0  -0.6144
  O  O694  1  0.817950  0.392370  0.771460  1.0  -0.7162
  O  O695  1  0.885980  0.131600  0.624250  1.0  -0.6576
  O  O696  1  0.884850  0.381500  0.751610  1.0  -0.6172
