# generated using pymatgen
data_Cd3H10(C10O7)2
_symmetry_space_group_name_H-M   'P 1'
_cell_length_a   6.86540000
_cell_length_b   11.42000000
_cell_length_c   17.43960000
_cell_angle_alpha   90.00000000
_cell_angle_beta   98.66200000
_cell_angle_gamma   90.00000000
_symmetry_Int_Tables_number   1
_chemical_formula_structural   Cd3H10(C10O7)2
_chemical_formula_sum   'Cd6 H20 C40 O28'
_cell_volume   1351.71905127
_cell_formula_units_Z   2
loop_
 _symmetry_equiv_pos_site_id
 _symmetry_equiv_pos_as_xyz
  1  'x, y, z'
loop_
 _atom_site_type_symbol
 _atom_site_label
 _atom_site_symmetry_multiplicity
 _atom_site_fract_x
 _atom_site_fract_y
 _atom_site_fract_z
 _atom_site_occupancy
 _atom_site_charge
  Cd  Cd1  1  0.832050  0.358450  0.526720  1.0  1.0627
  Cd  Cd2  1  0.667950  0.358450  0.973280  1.0  1.0633
  Cd  Cd3  1  0.167950  0.641550  0.473280  1.0  1.0632
  Cd  Cd4  1  0.332050  0.641550  0.026720  1.0  1.0626
  Cd  Cd5  1  0.250000  0.854020  0.250000  1.0  0.9962
  Cd  Cd6  1  0.750000  0.145980  0.750000  1.0  0.9925
  H  H7  1  0.531700  0.442000  0.266900  1.0  0.1142
  H  H8  1  0.392300  0.210300  0.094500  1.0  0.127
  H  H9  1  0.527200  0.097600  0.313800  1.0  0.1369
  H  H10  1  0.634100  0.995100  0.121500  1.0  0.1103
  H  H11  1  0.437800  0.030900  0.068300  1.0  0.1026
  H  H12  1  0.968300  0.442000  0.233100  1.0  0.1153
  H  H13  1  0.107700  0.210300  0.405500  1.0  0.1261
  H  H14  1  0.972800  0.097600  0.186200  1.0  0.1366
  H  H15  1  0.865900  0.995100  0.378500  1.0  0.1154
  H  H16  1  0.062200  0.030900  0.431700  1.0  0.105
  H  H17  1  0.468300  0.558000  0.733100  1.0  0.1162
  H  H18  1  0.607700  0.789700  0.905500  1.0  0.1262
  H  H19  1  0.472800  0.902400  0.686200  1.0  0.1364
  H  H20  1  0.365900  0.004900  0.878500  1.0  0.1159
  H  H21  1  0.562200  0.969100  0.931700  1.0  0.1044
  H  H22  1  0.031700  0.558000  0.766900  1.0  0.1163
  H  H23  1  0.892300  0.789700  0.594500  1.0  0.127
  H  H24  1  0.027200  0.902400  0.813800  1.0  0.1368
  H  H25  1  0.134100  0.004900  0.621500  1.0  0.1118
  H  H26  1  0.937800  0.969100  0.568300  1.0  0.1021
  C  C27  1  0.541200  0.274100  0.303000  1.0  -0.1258
  C  C28  1  0.512800  0.365100  0.249900  1.0  0.0299
  C  C29  1  0.456300  0.342200  0.171600  1.0  -0.1467
  C  C30  1  0.427400  0.227000  0.147000  1.0  -0.1266
  C  C31  1  0.451200  0.137400  0.200800  1.0  0.2547
  C  C32  1  0.509400  0.159000  0.278400  1.0  -0.1473
  C  C33  1  0.611800  0.297700  0.387800  1.0  0.6819
  C  C34  1  0.426100  0.438200  0.113200  1.0  0.6927
  C  C35  1  0.492500  0.983800  0.112700  1.0  -0.0137
  C  C36  1  0.446600  0.857400  0.096000  1.0  0.7529
  C  C37  1  0.958800  0.274100  0.197000  1.0  -0.1253
  C  C38  1  0.987200  0.365100  0.250100  1.0  0.0285
  C  C39  1  0.043700  0.342200  0.328400  1.0  -0.1459
  C  C40  1  0.072600  0.227000  0.353000  1.0  -0.1293
  C  C41  1  0.048800  0.137400  0.299200  1.0  0.2555
  C  C42  1  0.990600  0.159000  0.221600  1.0  -0.1489
  C  C43  1  0.888200  0.297700  0.112200  1.0  0.6856
  C  C44  1  0.073900  0.438200  0.386800  1.0  0.6912
  C  C45  1  0.007500  0.983800  0.387300  1.0  -0.0137
  C  C46  1  0.053400  0.857400  0.404000  1.0  0.7529
  C  C47  1  0.458800  0.725900  0.697000  1.0  -0.126
  C  C48  1  0.487200  0.634900  0.750100  1.0  0.029
  C  C49  1  0.543700  0.657800  0.828400  1.0  -0.1458
  C  C50  1  0.572600  0.773000  0.853000  1.0  -0.1292
  C  C51  1  0.548800  0.862600  0.799200  1.0  0.2565
  C  C52  1  0.490600  0.841000  0.721600  1.0  -0.1508
  C  C53  1  0.388200  0.702300  0.612200  1.0  0.6852
  C  C54  1  0.573900  0.561800  0.886800  1.0  0.6915
  C  C55  1  0.507500  0.016200  0.887300  1.0  -0.0141
  C  C56  1  0.553400  0.142600  0.904000  1.0  0.7552
  C  C57  1  0.041200  0.725900  0.803000  1.0  -0.1261
  C  C58  1  0.012800  0.634900  0.749900  1.0  0.0287
  C  C59  1  0.956300  0.657800  0.671600  1.0  -0.1474
  C  C60  1  0.927400  0.773000  0.647000  1.0  -0.1263
  C  C61  1  0.951200  0.862600  0.700800  1.0  0.2559
  C  C62  1  0.009400  0.841000  0.778400  1.0  -0.149
  C  C63  1  0.111800  0.702300  0.887800  1.0  0.6819
  C  C64  1  0.926100  0.561800  0.613200  1.0  0.6918
  C  C65  1  0.992500  0.016200  0.612700  1.0  -0.0133
  C  C66  1  0.946600  0.142600  0.596000  1.0  0.7552
  O  O67  1  0.662600  0.402400  0.406500  1.0  -0.5963
  O  O68  1  0.631600  0.217500  0.434500  1.0  -0.6005
  O  O69  1  0.381700  0.416900  0.042900  1.0  -0.6668
  O  O70  1  0.440200  0.542900  0.137900  1.0  -0.5921
  O  O71  1  0.412400  0.020700  0.179000  1.0  -0.3403
  O  O72  1  0.337700  0.802800  0.134300  1.0  -0.6297
  O  O73  1  0.516600  0.811100  0.041000  1.0  -0.5832
  O  O74  1  0.837400  0.402400  0.093500  1.0  -0.5931
  O  O75  1  0.868400  0.217500  0.065500  1.0  -0.6026
  O  O76  1  0.118300  0.416900  0.457100  1.0  -0.6673
  O  O77  1  0.059800  0.542900  0.362100  1.0  -0.5909
  O  O78  1  0.087600  0.020700  0.321000  1.0  -0.3395
  O  O79  1  0.162300  0.802800  0.365700  1.0  -0.6308
  O  O80  1  0.983400  0.811100  0.459000  1.0  -0.5835
  O  O81  1  0.337400  0.597600  0.593500  1.0  -0.594
  O  O82  1  0.368400  0.782500  0.565500  1.0  -0.6027
  O  O83  1  0.618300  0.583100  0.957100  1.0  -0.6671
  O  O84  1  0.559800  0.457100  0.862100  1.0  -0.5902
  O  O85  1  0.587600  0.979300  0.821000  1.0  -0.3415
  O  O86  1  0.662300  0.197200  0.865700  1.0  -0.6296
  O  O87  1  0.483400  0.188900  0.959000  1.0  -0.5833
  O  O88  1  0.162600  0.597600  0.906500  1.0  -0.5939
  O  O89  1  0.131600  0.782500  0.934500  1.0  -0.6018
  O  O90  1  0.881700  0.583100  0.542900  1.0  -0.6674
  O  O91  1  0.940200  0.457100  0.637900  1.0  -0.5897
  O  O92  1  0.912400  0.979300  0.679000  1.0  -0.3397
  O  O93  1  0.837700  0.197200  0.634300  1.0  -0.628
  O  O94  1  0.016600  0.188900  0.541000  1.0  -0.5831
