# generated using pymatgen
data_CuH4(C9O4)2
_symmetry_space_group_name_H-M   'P 1'
_cell_length_a   30.18920000
_cell_length_b   30.18920000
_cell_length_c   30.18920000
_cell_angle_alpha   90.00000000
_cell_angle_beta   90.00000000
_cell_angle_gamma   90.00000000
_symmetry_Int_Tables_number   1
_chemical_formula_structural   CuH4(C9O4)2
_chemical_formula_sum   'Cu12 H48 C216 O96'
_cell_volume   27514.06847032
_cell_formula_units_Z   12
loop_
 _symmetry_equiv_pos_site_id
 _symmetry_equiv_pos_as_xyz
  1  'x, y, z'
loop_
 _atom_site_type_symbol
 _atom_site_label
 _atom_site_symmetry_multiplicity
 _atom_site_fract_x
 _atom_site_fract_y
 _atom_site_fract_z
 _atom_site_occupancy
 _atom_site_charge
  Cu  Cu1  1  0.500000  0.500000  0.956730  1.0  0.9645
  Cu  Cu2  1  0.000000  0.000000  0.456730  1.0  0.9645
  Cu  Cu3  1  0.500000  0.500000  0.043270  1.0  0.9658
  Cu  Cu4  1  0.000000  0.000000  0.543270  1.0  0.9658
  Cu  Cu5  1  0.956730  0.500000  0.500000  1.0  0.9607
  Cu  Cu6  1  0.456730  0.000000  0.000000  1.0  0.9607
  Cu  Cu7  1  0.043270  0.500000  0.500000  1.0  0.9617
  Cu  Cu8  1  0.543270  0.000000  0.000000  1.0  0.9617
  Cu  Cu9  1  0.500000  0.956730  0.500000  1.0  0.9645
  Cu  Cu10  1  0.000000  0.456730  0.000000  1.0  0.9645
  Cu  Cu11  1  0.500000  0.043270  0.500000  1.0  0.9638
  Cu  Cu12  1  0.000000  0.543270  0.000000  1.0  0.9638
  H  H13  1  0.503800  0.637900  0.933300  1.0  0.1654
  H  H14  1  0.003800  0.137900  0.433300  1.0  0.1654
  H  H15  1  0.496200  0.362100  0.933300  1.0  0.1654
  H  H16  1  0.996200  0.862100  0.433300  1.0  0.1654
  H  H17  1  0.496200  0.637900  0.066700  1.0  0.1653
  H  H18  1  0.996200  0.137900  0.566700  1.0  0.1653
  H  H19  1  0.503800  0.362100  0.066700  1.0  0.1656
  H  H20  1  0.003800  0.862100  0.566700  1.0  0.1656
  H  H21  1  0.933300  0.503800  0.637900  1.0  0.1666
  H  H22  1  0.433300  0.003800  0.137900  1.0  0.1666
  H  H23  1  0.933300  0.496200  0.362100  1.0  0.1664
  H  H24  1  0.433300  0.996200  0.862100  1.0  0.1664
  H  H25  1  0.066700  0.496200  0.637900  1.0  0.1666
  H  H26  1  0.566700  0.996200  0.137900  1.0  0.1666
  H  H27  1  0.066700  0.503800  0.362100  1.0  0.1667
  H  H28  1  0.566700  0.003800  0.862100  1.0  0.1667
  H  H29  1  0.637900  0.933300  0.503800  1.0  0.166
  H  H30  1  0.137900  0.433300  0.003800  1.0  0.166
  H  H31  1  0.362100  0.933300  0.496200  1.0  0.1661
  H  H32  1  0.862100  0.433300  0.996200  1.0  0.1661
  H  H33  1  0.637900  0.066700  0.496200  1.0  0.1664
  H  H34  1  0.137900  0.566700  0.996200  1.0  0.1664
  H  H35  1  0.362100  0.066700  0.503800  1.0  0.1662
  H  H36  1  0.862100  0.566700  0.003800  1.0  0.1662
  H  H37  1  0.637900  0.503800  0.066700  1.0  0.1661
  H  H38  1  0.137900  0.003800  0.566700  1.0  0.1661
  H  H39  1  0.362100  0.496200  0.066700  1.0  0.166
  H  H40  1  0.862100  0.996200  0.566700  1.0  0.166
  H  H41  1  0.637900  0.496200  0.933300  1.0  0.1658
  H  H42  1  0.137900  0.996200  0.433300  1.0  0.1658
  H  H43  1  0.362100  0.503800  0.933300  1.0  0.1659
  H  H44  1  0.862100  0.003800  0.433300  1.0  0.1659
  H  H45  1  0.503800  0.933300  0.362100  1.0  0.1653
  H  H46  1  0.003800  0.433300  0.862100  1.0  0.1653
  H  H47  1  0.496200  0.933300  0.637900  1.0  0.165
  H  H48  1  0.996200  0.433300  0.137900  1.0  0.165
  H  H49  1  0.496200  0.066700  0.362100  1.0  0.1652
  H  H50  1  0.996200  0.566700  0.862100  1.0  0.1652
  H  H51  1  0.503800  0.066700  0.637900  1.0  0.166
  H  H52  1  0.003800  0.566700  0.137900  1.0  0.166
  H  H53  1  0.933300  0.637900  0.496200  1.0  0.167
  H  H54  1  0.433300  0.137900  0.996200  1.0  0.167
  H  H55  1  0.933300  0.362100  0.503800  1.0  0.1667
  H  H56  1  0.433300  0.862100  0.003800  1.0  0.1667
  H  H57  1  0.066700  0.637900  0.503800  1.0  0.1668
  H  H58  1  0.566700  0.137900  0.003800  1.0  0.1668
  H  H59  1  0.066700  0.362100  0.496200  1.0  0.1675
  H  H60  1  0.566700  0.862100  0.996200  1.0  0.1675
  C  C61  1  0.502310  0.654320  0.959350  1.0  0.0058
  C  C62  1  0.502420  0.701840  0.957320  1.0  0.2457
  C  C63  1  0.504920  0.727700  0.913300  1.0  0.2407
  C  C64  1  0.002310  0.154320  0.459350  1.0  0.0058
  C  C65  1  0.002420  0.201840  0.457320  1.0  0.2457
  C  C66  1  0.004920  0.227700  0.413300  1.0  0.2407
  C  C67  1  0.497690  0.345680  0.959350  1.0  0.0057
  C  C68  1  0.497580  0.298160  0.957320  1.0  0.2462
  C  C69  1  0.495080  0.272300  0.913300  1.0  0.2402
  C  C70  1  0.997690  0.845680  0.459350  1.0  0.0057
  C  C71  1  0.997580  0.798160  0.457320  1.0  0.2462
  C  C72  1  0.995080  0.772300  0.413300  1.0  0.2402
  C  C73  1  0.497690  0.654320  0.040650  1.0  0.0056
  C  C74  1  0.497580  0.701840  0.042680  1.0  0.2512
  C  C75  1  0.495080  0.727700  0.086700  1.0  0.2398
  C  C76  1  0.997690  0.154320  0.540650  1.0  0.0056
  C  C77  1  0.997580  0.201840  0.542680  1.0  0.2512
  C  C78  1  0.995080  0.227700  0.586700  1.0  0.2398
  C  C79  1  0.502310  0.345680  0.040650  1.0  0.0048
  C  C80  1  0.502420  0.298160  0.042680  1.0  0.2504
  C  C81  1  0.504920  0.272300  0.086700  1.0  0.2384
  C  C82  1  0.002310  0.845680  0.540650  1.0  0.0048
  C  C83  1  0.002420  0.798160  0.542680  1.0  0.2504
  C  C84  1  0.004920  0.772300  0.586700  1.0  0.2384
  C  C85  1  0.959350  0.502310  0.654320  1.0  0.0061
  C  C86  1  0.957320  0.502420  0.701840  1.0  0.2438
  C  C87  1  0.913300  0.504920  0.727700  1.0  0.2415
  C  C88  1  0.459350  0.002310  0.154320  1.0  0.0061
  C  C89  1  0.457320  0.002420  0.201840  1.0  0.2438
  C  C90  1  0.413300  0.004920  0.227700  1.0  0.2415
  C  C91  1  0.959350  0.497690  0.345680  1.0  0.0055
  C  C92  1  0.957320  0.497580  0.298160  1.0  0.244
  C  C93  1  0.913300  0.495080  0.272300  1.0  0.241
  C  C94  1  0.459350  0.997690  0.845680  1.0  0.0055
  C  C95  1  0.457320  0.997580  0.798160  1.0  0.244
  C  C96  1  0.413300  0.995080  0.772300  1.0  0.241
  C  C97  1  0.040650  0.497690  0.654320  1.0  0.0049
  C  C98  1  0.042680  0.497580  0.701840  1.0  0.2469
  C  C99  1  0.086700  0.495080  0.727700  1.0  0.239
  C  C100  1  0.540650  0.997690  0.154320  1.0  0.0049
  C  C101  1  0.542680  0.997580  0.201840  1.0  0.2469
  C  C102  1  0.586700  0.995080  0.227700  1.0  0.239
  C  C103  1  0.040650  0.502310  0.345680  1.0  0.006
  C  C104  1  0.042680  0.502420  0.298160  1.0  0.2467
  C  C105  1  0.086700  0.504920  0.272300  1.0  0.2389
  C  C106  1  0.540650  0.002310  0.845680  1.0  0.006
  C  C107  1  0.542680  0.002420  0.798160  1.0  0.2467
  C  C108  1  0.586700  0.004920  0.772300  1.0  0.2389
  C  C109  1  0.654320  0.959350  0.502310  1.0  0.005
  C  C110  1  0.701840  0.957320  0.502420  1.0  0.2431
  C  C111  1  0.727700  0.913300  0.504920  1.0  0.2455
  C  C112  1  0.154320  0.459350  0.002310  1.0  0.005
  C  C113  1  0.201840  0.457320  0.002420  1.0  0.2431
  C  C114  1  0.227700  0.413300  0.004920  1.0  0.2455
  C  C115  1  0.345680  0.959350  0.497690  1.0  0.0051
  C  C116  1  0.298160  0.957320  0.497580  1.0  0.2444
  C  C117  1  0.272300  0.913300  0.495080  1.0  0.2451
  C  C118  1  0.845680  0.459350  0.997690  1.0  0.0051
  C  C119  1  0.798160  0.457320  0.997580  1.0  0.2444
  C  C120  1  0.772300  0.413300  0.995080  1.0  0.2451
  C  C121  1  0.654320  0.040650  0.497690  1.0  0.0049
  C  C122  1  0.701840  0.042680  0.497580  1.0  0.2473
  C  C123  1  0.727700  0.086700  0.495080  1.0  0.2442
  C  C124  1  0.154320  0.540650  0.997690  1.0  0.0049
  C  C125  1  0.201840  0.542680  0.997580  1.0  0.2473
  C  C126  1  0.227700  0.586700  0.995080  1.0  0.2442
  C  C127  1  0.345680  0.040650  0.502310  1.0  0.0049
  C  C128  1  0.298160  0.042680  0.502420  1.0  0.2492
  C  C129  1  0.272300  0.086700  0.504920  1.0  0.2434
  C  C130  1  0.845680  0.540650  0.002310  1.0  0.0049
  C  C131  1  0.798160  0.542680  0.002420  1.0  0.2492
  C  C132  1  0.772300  0.586700  0.004920  1.0  0.2434
  C  C133  1  0.654320  0.502310  0.040650  1.0  0.0058
  C  C134  1  0.701840  0.502420  0.042680  1.0  0.245
  C  C135  1  0.727700  0.504920  0.086700  1.0  0.2408
  C  C136  1  0.154320  0.002310  0.540650  1.0  0.0058
  C  C137  1  0.201840  0.002420  0.542680  1.0  0.245
  C  C138  1  0.227700  0.004920  0.586700  1.0  0.2408
  C  C139  1  0.345680  0.497690  0.040650  1.0  0.0065
  C  C140  1  0.298160  0.497580  0.042680  1.0  0.2465
  C  C141  1  0.272300  0.495080  0.086700  1.0  0.2401
  C  C142  1  0.845680  0.997690  0.540650  1.0  0.0065
  C  C143  1  0.798160  0.997580  0.542680  1.0  0.2465
  C  C144  1  0.772300  0.995080  0.586700  1.0  0.2401
  C  C145  1  0.654320  0.497690  0.959350  1.0  0.0057
  C  C146  1  0.701840  0.497580  0.957320  1.0  0.2442
  C  C147  1  0.727700  0.495080  0.913300  1.0  0.2411
  C  C148  1  0.154320  0.997690  0.459350  1.0  0.0057
  C  C149  1  0.201840  0.997580  0.457320  1.0  0.2442
  C  C150  1  0.227700  0.995080  0.413300  1.0  0.2411
  C  C151  1  0.345680  0.502310  0.959350  1.0  0.0051
  C  C152  1  0.298160  0.502420  0.957320  1.0  0.2453
  C  C153  1  0.272300  0.504920  0.913300  1.0  0.2414
  C  C154  1  0.845680  0.002310  0.459350  1.0  0.0051
  C  C155  1  0.798160  0.002420  0.457320  1.0  0.2453
  C  C156  1  0.772300  0.004920  0.413300  1.0  0.2414
  C  C157  1  0.502310  0.959350  0.345680  1.0  0.0032
  C  C158  1  0.502420  0.957320  0.298160  1.0  0.2453
  C  C159  1  0.504920  0.913300  0.272300  1.0  0.243
  C  C160  1  0.002310  0.459350  0.845680  1.0  0.0032
  C  C161  1  0.002420  0.457320  0.798160  1.0  0.2453
  C  C162  1  0.004920  0.413300  0.772300  1.0  0.243
  C  C163  1  0.497690  0.959350  0.654320  1.0  0.0031
  C  C164  1  0.497580  0.957320  0.701840  1.0  0.2457
  C  C165  1  0.495080  0.913300  0.727700  1.0  0.2427
  C  C166  1  0.997690  0.459350  0.154320  1.0  0.0031
  C  C167  1  0.997580  0.457320  0.201840  1.0  0.2457
  C  C168  1  0.995080  0.413300  0.227700  1.0  0.2427
  C  C169  1  0.497690  0.040650  0.345680  1.0  0.0036
  C  C170  1  0.497580  0.042680  0.298160  1.0  0.2467
  C  C171  1  0.495080  0.086700  0.272300  1.0  0.2415
  C  C172  1  0.997690  0.540650  0.845680  1.0  0.0036
  C  C173  1  0.997580  0.542680  0.798160  1.0  0.2467
  C  C174  1  0.995080  0.586700  0.772300  1.0  0.2415
  C  C175  1  0.502310  0.040650  0.654320  1.0  0.003
  C  C176  1  0.502420  0.042680  0.701840  1.0  0.2473
  C  C177  1  0.504920  0.086700  0.727700  1.0  0.2404
  C  C178  1  0.002310  0.540650  0.154320  1.0  0.003
  C  C179  1  0.002420  0.542680  0.201840  1.0  0.2473
  C  C180  1  0.004920  0.586700  0.227700  1.0  0.2404
  C  C181  1  0.959350  0.654320  0.497690  1.0  0.0079
  C  C182  1  0.957320  0.701840  0.497580  1.0  0.2451
  C  C183  1  0.913300  0.727700  0.495080  1.0  0.2435
  C  C184  1  0.459350  0.154320  0.997690  1.0  0.0079
  C  C185  1  0.457320  0.201840  0.997580  1.0  0.2451
  C  C186  1  0.413300  0.227700  0.995080  1.0  0.2435
  C  C187  1  0.959350  0.345680  0.502310  1.0  0.0063
  C  C188  1  0.957320  0.298160  0.502420  1.0  0.2449
  C  C189  1  0.913300  0.272300  0.504920  1.0  0.2424
  C  C190  1  0.459350  0.845680  0.002310  1.0  0.0063
  C  C191  1  0.457320  0.798160  0.002420  1.0  0.2449
  C  C192  1  0.413300  0.772300  0.004920  1.0  0.2424
  C  C193  1  0.040650  0.654320  0.502310  1.0  0.0066
  C  C194  1  0.042680  0.701840  0.502420  1.0  0.2448
  C  C195  1  0.086700  0.727700  0.504920  1.0  0.2409
  C  C196  1  0.540650  0.154320  0.002310  1.0  0.0066
  C  C197  1  0.542680  0.201840  0.002420  1.0  0.2448
  C  C198  1  0.586700  0.227700  0.004920  1.0  0.2409
  C  C199  1  0.040650  0.345680  0.497690  1.0  0.0062
  C  C200  1  0.042680  0.298160  0.497580  1.0  0.2449
  C  C201  1  0.086700  0.272300  0.495080  1.0  0.2412
  C  C202  1  0.540650  0.845680  0.997690  1.0  0.0062
  C  C203  1  0.542680  0.798160  0.997580  1.0  0.2449
  C  C204  1  0.586700  0.772300  0.995080  1.0  0.2412
  C  C205  1  0.500000  0.582720  0.000000  1.0  0.7158
  C  C206  1  0.500000  0.632690  0.000000  1.0  -0.0204
  C  C207  1  0.500000  0.723170  0.000000  1.0  -0.073
  C  C208  1  0.000000  0.082720  0.500000  1.0  0.7158
  C  C209  1  0.000000  0.132690  0.500000  1.0  -0.0204
  C  C210  1  0.000000  0.223170  0.500000  1.0  -0.073
  C  C211  1  0.500000  0.417280  0.000000  1.0  0.7156
  C  C212  1  0.500000  0.367310  0.000000  1.0  -0.0207
  C  C213  1  0.500000  0.276830  0.000000  1.0  -0.0736
  C  C214  1  0.000000  0.917280  0.500000  1.0  0.7156
  C  C215  1  0.000000  0.867310  0.500000  1.0  -0.0207
  C  C216  1  0.000000  0.776830  0.500000  1.0  -0.0736
  C  C217  1  0.000000  0.500000  0.582720  1.0  0.7156
  C  C218  1  0.000000  0.500000  0.632690  1.0  -0.0228
  C  C219  1  0.000000  0.500000  0.723170  1.0  -0.0733
  C  C220  1  0.500000  0.000000  0.082720  1.0  0.7156
  C  C221  1  0.500000  0.000000  0.132690  1.0  -0.0228
  C  C222  1  0.500000  0.000000  0.223170  1.0  -0.0733
  C  C223  1  0.000000  0.500000  0.417280  1.0  0.7159
  C  C224  1  0.000000  0.500000  0.367310  1.0  -0.0222
  C  C225  1  0.000000  0.500000  0.276830  1.0  -0.0732
  C  C226  1  0.500000  0.000000  0.917280  1.0  0.7159
  C  C227  1  0.500000  0.000000  0.867310  1.0  -0.0222
  C  C228  1  0.500000  0.000000  0.776830  1.0  -0.0732
  C  C229  1  0.582720  0.000000  0.500000  1.0  0.7138
  C  C230  1  0.632690  0.000000  0.500000  1.0  -0.022
  C  C231  1  0.723170  0.000000  0.500000  1.0  -0.0732
  C  C232  1  0.082720  0.500000  0.000000  1.0  0.7138
  C  C233  1  0.132690  0.500000  0.000000  1.0  -0.022
  C  C234  1  0.223170  0.500000  0.000000  1.0  -0.0732
  C  C235  1  0.417280  0.000000  0.500000  1.0  0.7152
  C  C236  1  0.367310  0.000000  0.500000  1.0  -0.0218
  C  C237  1  0.276830  0.000000  0.500000  1.0  -0.0733
  C  C238  1  0.917280  0.500000  0.000000  1.0  0.7152
  C  C239  1  0.867310  0.500000  0.000000  1.0  -0.0218
  C  C240  1  0.776830  0.500000  0.000000  1.0  -0.0733
  C  C241  1  0.582720  0.500000  0.000000  1.0  0.7138
  C  C242  1  0.632690  0.500000  0.000000  1.0  -0.022
  C  C243  1  0.723170  0.500000  0.000000  1.0  -0.0732
  C  C244  1  0.082720  0.000000  0.500000  1.0  0.7138
  C  C245  1  0.132690  0.000000  0.500000  1.0  -0.022
  C  C246  1  0.223170  0.000000  0.500000  1.0  -0.0732
  C  C247  1  0.417280  0.500000  0.000000  1.0  0.7152
  C  C248  1  0.367310  0.500000  0.000000  1.0  -0.0218
  C  C249  1  0.276830  0.500000  0.000000  1.0  -0.0733
  C  C250  1  0.917280  0.000000  0.500000  1.0  0.7152
  C  C251  1  0.867310  0.000000  0.500000  1.0  -0.0218
  C  C252  1  0.776830  0.000000  0.500000  1.0  -0.0733
  C  C253  1  0.500000  0.000000  0.417280  1.0  0.7159
  C  C254  1  0.500000  0.000000  0.367310  1.0  -0.0222
  C  C255  1  0.500000  0.000000  0.276830  1.0  -0.0732
  C  C256  1  0.000000  0.500000  0.917280  1.0  0.7159
  C  C257  1  0.000000  0.500000  0.867310  1.0  -0.0222
  C  C258  1  0.000000  0.500000  0.776830  1.0  -0.0732
  C  C259  1  0.500000  0.000000  0.582720  1.0  0.7156
  C  C260  1  0.500000  0.000000  0.632690  1.0  -0.0228
  C  C261  1  0.500000  0.000000  0.723170  1.0  -0.0733
  C  C262  1  0.000000  0.500000  0.082720  1.0  0.7156
  C  C263  1  0.000000  0.500000  0.132690  1.0  -0.0228
  C  C264  1  0.000000  0.500000  0.223170  1.0  -0.0733
  C  C265  1  0.000000  0.582720  0.500000  1.0  0.7158
  C  C266  1  0.000000  0.632690  0.500000  1.0  -0.0204
  C  C267  1  0.000000  0.723170  0.500000  1.0  -0.073
  C  C268  1  0.500000  0.082720  0.000000  1.0  0.7158
  C  C269  1  0.500000  0.132690  0.000000  1.0  -0.0204
  C  C270  1  0.500000  0.223170  0.000000  1.0  -0.073
  C  C271  1  0.000000  0.417280  0.500000  1.0  0.7156
  C  C272  1  0.000000  0.367310  0.500000  1.0  -0.0207
  C  C273  1  0.000000  0.276830  0.500000  1.0  -0.0736
  C  C274  1  0.500000  0.917280  0.000000  1.0  0.7156
  C  C275  1  0.500000  0.867310  0.000000  1.0  -0.0207
  C  C276  1  0.500000  0.776830  0.000000  1.0  -0.0736
  O  O277  1  0.500890  0.562950  0.962520  1.0  -0.517
  O  O278  1  0.504690  0.727200  0.917290  1.0  -0.6943
  O  O279  1  0.000890  0.062950  0.462520  1.0  -0.5171
  O  O280  1  0.004690  0.227200  0.417290  1.0  -0.6943
  O  O281  1  0.499110  0.437050  0.962520  1.0  -0.5171
  O  O282  1  0.495310  0.272800  0.917290  1.0  -0.6935
  O  O283  1  0.999110  0.937050  0.462520  1.0  -0.5171
  O  O284  1  0.995310  0.772800  0.417290  1.0  -0.6935
  O  O285  1  0.499110  0.562950  0.037480  1.0  -0.5173
  O  O286  1  0.495310  0.727200  0.082710  1.0  -0.6897
  O  O287  1  0.999110  0.062950  0.537480  1.0  -0.5173
  O  O288  1  0.995310  0.227200  0.582710  1.0  -0.6897
  O  O289  1  0.500890  0.437050  0.037480  1.0  -0.5172
  O  O290  1  0.504690  0.272800  0.082710  1.0  -0.6884
  O  O291  1  0.000890  0.937050  0.537480  1.0  -0.5171
  O  O292  1  0.004690  0.772800  0.582710  1.0  -0.6884
  O  O293  1  0.962520  0.500890  0.562950  1.0  -0.5156
  O  O294  1  0.917290  0.504690  0.727200  1.0  -0.6936
  O  O295  1  0.462520  0.000890  0.062950  1.0  -0.5156
  O  O296  1  0.417290  0.004690  0.227200  1.0  -0.6936
  O  O297  1  0.962520  0.499110  0.437050  1.0  -0.5159
  O  O298  1  0.917290  0.495310  0.272800  1.0  -0.6934
  O  O299  1  0.462520  0.999110  0.937050  1.0  -0.5159
  O  O300  1  0.417290  0.995310  0.772800  1.0  -0.6934
  O  O301  1  0.037480  0.499110  0.562950  1.0  -0.5151
  O  O302  1  0.082710  0.495310  0.727200  1.0  -0.6918
  O  O303  1  0.537480  0.999110  0.062950  1.0  -0.5151
  O  O304  1  0.582710  0.995310  0.227200  1.0  -0.6918
  O  O305  1  0.037480  0.500890  0.437050  1.0  -0.5154
  O  O306  1  0.082710  0.504690  0.272800  1.0  -0.6922
  O  O307  1  0.537480  0.000890  0.937050  1.0  -0.5152
  O  O308  1  0.582710  0.004690  0.772800  1.0  -0.6922
  O  O309  1  0.562950  0.962520  0.500890  1.0  -0.5172
  O  O310  1  0.727200  0.917290  0.504690  1.0  -0.6954
  O  O311  1  0.062950  0.462520  0.000890  1.0  -0.517
  O  O312  1  0.227200  0.417290  0.004690  1.0  -0.6954
  O  O313  1  0.437050  0.962520  0.499110  1.0  -0.5162
  O  O314  1  0.272800  0.917290  0.495310  1.0  -0.6969
  O  O315  1  0.937050  0.462520  0.999110  1.0  -0.5162
  O  O316  1  0.772800  0.417290  0.995310  1.0  -0.6969
  O  O317  1  0.562950  0.037480  0.499110  1.0  -0.5168
  O  O318  1  0.727200  0.082710  0.495310  1.0  -0.6964
  O  O319  1  0.062950  0.537480  0.999110  1.0  -0.517
  O  O320  1  0.227200  0.582710  0.995310  1.0  -0.6964
  O  O321  1  0.437050  0.037480  0.500890  1.0  -0.5173
  O  O322  1  0.272800  0.082710  0.504690  1.0  -0.696
  O  O323  1  0.937050  0.537480  0.000890  1.0  -0.5173
  O  O324  1  0.772800  0.582710  0.004690  1.0  -0.696
  O  O325  1  0.562950  0.500890  0.037480  1.0  -0.519
  O  O326  1  0.727200  0.504690  0.082710  1.0  -0.6867
  O  O327  1  0.062950  0.000890  0.537480  1.0  -0.5191
  O  O328  1  0.227200  0.004690  0.582710  1.0  -0.6867
  O  O329  1  0.437050  0.499110  0.037480  1.0  -0.5188
  O  O330  1  0.272800  0.495310  0.082710  1.0  -0.6882
  O  O331  1  0.937050  0.999110  0.537480  1.0  -0.5189
  O  O332  1  0.772800  0.995310  0.582710  1.0  -0.6882
  O  O333  1  0.562950  0.499110  0.962520  1.0  -0.5189
  O  O334  1  0.727200  0.495310  0.917290  1.0  -0.6914
  O  O335  1  0.062950  0.999110  0.462520  1.0  -0.5187
  O  O336  1  0.227200  0.995310  0.417290  1.0  -0.6914
  O  O337  1  0.437050  0.500890  0.962520  1.0  -0.5188
  O  O338  1  0.272800  0.504690  0.917290  1.0  -0.6912
  O  O339  1  0.937050  0.000890  0.462520  1.0  -0.5188
  O  O340  1  0.772800  0.004690  0.417290  1.0  -0.6912
  O  O341  1  0.500890  0.962520  0.437050  1.0  -0.5148
  O  O342  1  0.504690  0.917290  0.272800  1.0  -0.6967
  O  O343  1  0.000890  0.462520  0.937050  1.0  -0.5148
  O  O344  1  0.004690  0.417290  0.772800  1.0  -0.6967
  O  O345  1  0.499110  0.962520  0.562950  1.0  -0.5147
  O  O346  1  0.495310  0.917290  0.727200  1.0  -0.6975
  O  O347  1  0.999110  0.462520  0.062950  1.0  -0.5148
  O  O348  1  0.995310  0.417290  0.227200  1.0  -0.6975
  O  O349  1  0.499110  0.037480  0.437050  1.0  -0.5153
  O  O350  1  0.495310  0.082710  0.272800  1.0  -0.6962
  O  O351  1  0.999110  0.537480  0.937050  1.0  -0.5151
  O  O352  1  0.995310  0.582710  0.772800  1.0  -0.6962
  O  O353  1  0.500890  0.037480  0.562950  1.0  -0.5153
  O  O354  1  0.504690  0.082710  0.727200  1.0  -0.6965
  O  O355  1  0.000890  0.537480  0.062950  1.0  -0.5152
  O  O356  1  0.004690  0.582710  0.227200  1.0  -0.6965
  O  O357  1  0.962520  0.562950  0.499110  1.0  -0.5155
  O  O358  1  0.917290  0.727200  0.495310  1.0  -0.696
  O  O359  1  0.462520  0.062950  0.999110  1.0  -0.5157
  O  O360  1  0.417290  0.227200  0.995310  1.0  -0.696
  O  O361  1  0.962520  0.437050  0.500890  1.0  -0.5159
  O  O362  1  0.917290  0.272800  0.504690  1.0  -0.6959
  O  O363  1  0.462520  0.937050  0.000890  1.0  -0.5159
  O  O364  1  0.417290  0.772800  0.004690  1.0  -0.6959
  O  O365  1  0.037480  0.562950  0.500890  1.0  -0.5152
  O  O366  1  0.082710  0.727200  0.504690  1.0  -0.6937
  O  O367  1  0.537480  0.062950  0.000890  1.0  -0.5152
  O  O368  1  0.582710  0.227200  0.004690  1.0  -0.6937
  O  O369  1  0.037480  0.437050  0.499110  1.0  -0.5148
  O  O370  1  0.082710  0.272800  0.495310  1.0  -0.6943
  O  O371  1  0.537480  0.937050  0.999110  1.0  -0.5148
  O  O372  1  0.582710  0.772800  0.995310  1.0  -0.6943
