# generated using pymatgen
data_ZnH12C18(N3O2)2
_symmetry_space_group_name_H-M   'P 1'
_cell_length_a   19.76650000
_cell_length_b   15.80120000
_cell_length_c   16.96800000
_cell_angle_alpha   90.00000000
_cell_angle_beta   90.00000000
_cell_angle_gamma   90.00000000
_symmetry_Int_Tables_number   1
_chemical_formula_structural   ZnH12C18(N3O2)2
_chemical_formula_sum   'Zn8 H96 C144 N48 O32'
_cell_volume   5299.69043517
_cell_formula_units_Z   8
loop_
 _symmetry_equiv_pos_site_id
 _symmetry_equiv_pos_as_xyz
  1  'x, y, z'
loop_
 _atom_site_type_symbol
 _atom_site_label
 _atom_site_symmetry_multiplicity
 _atom_site_fract_x
 _atom_site_fract_y
 _atom_site_fract_z
 _atom_site_occupancy
 _atom_site_charge
  Zn  Zn1  1  0.214620  0.522880  0.993430  1.0  0.9322
  Zn  Zn2  1  0.285380  0.977120  0.493430  1.0  0.932
  Zn  Zn3  1  0.785380  0.522880  0.506570  1.0  0.9322
  Zn  Zn4  1  0.714620  0.977120  0.006570  1.0  0.9323
  Zn  Zn5  1  0.785380  0.477120  0.006570  1.0  0.9322
  Zn  Zn6  1  0.714620  0.022880  0.506570  1.0  0.9322
  Zn  Zn7  1  0.214620  0.477120  0.493430  1.0  0.9323
  Zn  Zn8  1  0.285380  0.022880  0.993430  1.0  0.932
  H  H9  1  0.117200  0.419800  0.245900  1.0  0.0909
  H  H10  1  0.267900  0.377700  0.102400  1.0  0.1058
  H  H11  1  0.202400  0.348400  0.342500  1.0  0.0999
  H  H12  1  0.223000  0.225600  0.412600  1.0  0.0955
  H  H13  1  0.261800  0.102000  0.211000  1.0  0.0867
  H  H14  1  0.238100  0.225200  0.139500  1.0  0.111
  H  H15  1  0.114700  0.687300  0.007200  1.0  0.0994
  H  H16  1  0.980200  0.545700  0.899100  1.0  0.0977
  H  H17  1  0.901500  0.627400  0.987100  1.0  0.1088
  H  H18  1  0.821200  0.733100  0.000900  1.0  0.0912
  H  H19  1  0.960500  0.909200  0.952000  1.0  0.103
  H  H20  1  0.041500  0.803900  0.937300  1.0  0.1174
  H  H21  1  0.382800  0.080200  0.745900  1.0  0.0914
  H  H22  1  0.232100  0.122300  0.602400  1.0  0.1067
  H  H23  1  0.297600  0.151600  0.842500  1.0  0.0997
  H  H24  1  0.277000  0.274400  0.912600  1.0  0.0955
  H  H25  1  0.238200  0.398000  0.711000  1.0  0.0867
  H  H26  1  0.261900  0.274800  0.639500  1.0  0.1116
  H  H27  1  0.385300  0.812700  0.507200  1.0  0.0995
  H  H28  1  0.519800  0.954300  0.399100  1.0  0.0976
  H  H29  1  0.598500  0.872600  0.487100  1.0  0.1081
  H  H30  1  0.678800  0.766900  0.500900  1.0  0.0916
  H  H31  1  0.539500  0.590800  0.452000  1.0  0.1024
  H  H32  1  0.458500  0.696100  0.437300  1.0  0.1183
  H  H33  1  0.882800  0.419800  0.254100  1.0  0.0916
  H  H34  1  0.732100  0.377700  0.397600  1.0  0.1064
  H  H35  1  0.797600  0.348400  0.157500  1.0  0.0999
  H  H36  1  0.777000  0.225600  0.087400  1.0  0.0957
  H  H37  1  0.738200  0.102000  0.289000  1.0  0.0867
  H  H38  1  0.761900  0.225200  0.360500  1.0  0.1118
  H  H39  1  0.885300  0.687300  0.492800  1.0  0.1
  H  H40  1  0.019800  0.545700  0.600900  1.0  0.097
  H  H41  1  0.098500  0.627400  0.512900  1.0  0.1087
  H  H42  1  0.178800  0.733100  0.499100  1.0  0.0912
  H  H43  1  0.039500  0.909200  0.548000  1.0  0.1025
  H  H44  1  0.958500  0.803900  0.562700  1.0  0.1177
  H  H45  1  0.617200  0.080200  0.754100  1.0  0.0905
  H  H46  1  0.767900  0.122300  0.897600  1.0  0.1057
  H  H47  1  0.702400  0.151600  0.657500  1.0  0.1
  H  H48  1  0.723000  0.274400  0.587400  1.0  0.0956
  H  H49  1  0.761800  0.398000  0.789000  1.0  0.0866
  H  H50  1  0.738100  0.274800  0.860500  1.0  0.1114
  H  H51  1  0.614700  0.812700  0.992800  1.0  0.0997
  H  H52  1  0.480200  0.954300  0.100900  1.0  0.097
  H  H53  1  0.401500  0.872600  0.012900  1.0  0.1087
  H  H54  1  0.321200  0.766900  0.999100  1.0  0.091
  H  H55  1  0.460500  0.590800  0.048000  1.0  0.1022
  H  H56  1  0.541500  0.696100  0.062700  1.0  0.1167
  H  H57  1  0.882800  0.580200  0.754100  1.0  0.0912
  H  H58  1  0.732100  0.622300  0.897600  1.0  0.106
  H  H59  1  0.797600  0.651600  0.657500  1.0  0.0997
  H  H60  1  0.777000  0.774400  0.587400  1.0  0.0957
  H  H61  1  0.738200  0.898000  0.789000  1.0  0.0866
  H  H62  1  0.761900  0.774800  0.860500  1.0  0.1116
  H  H63  1  0.885300  0.312700  0.992800  1.0  0.0994
  H  H64  1  0.019800  0.454300  0.100900  1.0  0.097
  H  H65  1  0.098500  0.372600  0.012900  1.0  0.1082
  H  H66  1  0.178800  0.266900  0.999100  1.0  0.0912
  H  H67  1  0.039500  0.090800  0.048000  1.0  0.1022
  H  H68  1  0.958500  0.196100  0.062700  1.0  0.1184
  H  H69  1  0.617200  0.919800  0.254100  1.0  0.091
  H  H70  1  0.767900  0.877700  0.397600  1.0  0.1059
  H  H71  1  0.702400  0.848400  0.157500  1.0  0.1003
  H  H72  1  0.723000  0.725600  0.087400  1.0  0.0955
  H  H73  1  0.761800  0.602000  0.289000  1.0  0.0868
  H  H74  1  0.738100  0.725200  0.360500  1.0  0.1116
  H  H75  1  0.614700  0.187300  0.492800  1.0  0.1
  H  H76  1  0.480200  0.045700  0.600900  1.0  0.0968
  H  H77  1  0.401500  0.127400  0.512900  1.0  0.109
  H  H78  1  0.321200  0.233100  0.499100  1.0  0.091
  H  H79  1  0.460500  0.409200  0.548000  1.0  0.1025
  H  H80  1  0.541500  0.303900  0.562700  1.0  0.1167
  H  H81  1  0.117200  0.580200  0.745900  1.0  0.0909
  H  H82  1  0.267900  0.622300  0.602400  1.0  0.1057
  H  H83  1  0.202400  0.651600  0.842500  1.0  0.1001
  H  H84  1  0.223000  0.774400  0.912600  1.0  0.0952
  H  H85  1  0.261800  0.898000  0.711000  1.0  0.0866
  H  H86  1  0.238100  0.774800  0.639500  1.0  0.1111
  H  H87  1  0.114700  0.312700  0.507200  1.0  0.0996
  H  H88  1  0.980200  0.454300  0.399100  1.0  0.0979
  H  H89  1  0.901500  0.372600  0.487100  1.0  0.1083
  H  H90  1  0.821200  0.266900  0.500900  1.0  0.0914
  H  H91  1  0.960500  0.090800  0.452000  1.0  0.1026
  H  H92  1  0.041500  0.196100  0.437300  1.0  0.1168
  H  H93  1  0.382800  0.919800  0.245900  1.0  0.0915
  H  H94  1  0.232100  0.877700  0.102400  1.0  0.1069
  H  H95  1  0.297600  0.848400  0.342500  1.0  0.0995
  H  H96  1  0.277000  0.725600  0.412600  1.0  0.0959
  H  H97  1  0.238200  0.602000  0.211000  1.0  0.0866
  H  H98  1  0.261900  0.725200  0.139500  1.0  0.1115
  H  H99  1  0.385300  0.187300  0.007200  1.0  0.0996
  H  H100  1  0.519800  0.045700  0.899100  1.0  0.0976
  H  H101  1  0.598500  0.127400  0.987100  1.0  0.1086
  H  H102  1  0.678800  0.233100  0.000900  1.0  0.0915
  H  H103  1  0.539500  0.409200  0.952000  1.0  0.1028
  H  H104  1  0.458500  0.303900  0.937300  1.0  0.118
  C  C105  1  0.147000  0.424800  0.203700  1.0  0.1631
  C  C106  1  0.229700  0.400900  0.125900  1.0  0.1222
  C  C107  1  0.217800  0.297500  0.234700  1.0  0.1712
  C  C108  1  0.213700  0.298700  0.316200  1.0  -0.2125
  C  C109  1  0.226500  0.225600  0.358000  1.0  -0.054
  C  C110  1  0.244800  0.151800  0.318700  1.0  -0.1207
  C  C111  1  0.249400  0.151300  0.237200  1.0  -0.0217
  C  C112  1  0.235500  0.225100  0.194200  1.0  -0.1588
  C  C113  1  0.259800  0.072000  0.364600  1.0  0.6948
  C  C114  1  0.093900  0.642200  0.981600  1.0  0.1512
  C  C115  1  0.020400  0.564100  0.922000  1.0  0.1754
  C  C116  1  0.978400  0.706000  0.963700  1.0  0.1613
  C  C117  1  0.913400  0.683900  0.980700  1.0  -0.1946
  C  C118  1  0.865600  0.747300  0.988100  1.0  -0.0041
  C  C119  1  0.882400  0.830700  0.977000  1.0  -0.1707
  C  C120  1  0.948800  0.852600  0.958800  1.0  -0.0578
  C  C121  1  0.997300  0.790200  0.950900  1.0  -0.1595
  C  C122  1  0.829900  0.899700  0.983100  1.0  0.6641
  C  C123  1  0.353000  0.075200  0.703700  1.0  0.1647
  C  C124  1  0.270300  0.099100  0.625900  1.0  0.1216
  C  C125  1  0.282200  0.202500  0.734700  1.0  0.1708
  C  C126  1  0.286300  0.201300  0.816200  1.0  -0.2126
  C  C127  1  0.273500  0.274400  0.858000  1.0  -0.0544
  C  C128  1  0.255200  0.348200  0.818700  1.0  -0.12
  C  C129  1  0.250600  0.348700  0.737200  1.0  -0.0227
  C  C130  1  0.264500  0.274900  0.694200  1.0  -0.1595
  C  C131  1  0.240200  0.428000  0.864600  1.0  0.6938
  C  C132  1  0.406100  0.857800  0.481600  1.0  0.1508
  C  C133  1  0.479600  0.935900  0.422000  1.0  0.1754
  C  C134  1  0.521600  0.794000  0.463700  1.0  0.1612
  C  C135  1  0.586600  0.816100  0.480700  1.0  -0.1939
  C  C136  1  0.634400  0.752700  0.488100  1.0  -0.0054
  C  C137  1  0.617600  0.669300  0.477000  1.0  -0.1707
  C  C138  1  0.551200  0.647400  0.458800  1.0  -0.0526
  C  C139  1  0.502700  0.709800  0.450900  1.0  -0.1602
  C  C140  1  0.670100  0.600300  0.483100  1.0  0.6644
  C  C141  1  0.853000  0.424800  0.296300  1.0  0.1652
  C  C142  1  0.770300  0.400900  0.374100  1.0  0.1219
  C  C143  1  0.782200  0.297500  0.265300  1.0  0.1709
  C  C144  1  0.786300  0.298700  0.183800  1.0  -0.2125
  C  C145  1  0.773500  0.225600  0.142000  1.0  -0.0526
  C  C146  1  0.755200  0.151800  0.181300  1.0  -0.1202
  C  C147  1  0.750600  0.151300  0.262800  1.0  -0.0211
  C  C148  1  0.764500  0.225100  0.305800  1.0  -0.1592
  C  C149  1  0.740200  0.072000  0.135400  1.0  0.6942
  C  C150  1  0.906100  0.642200  0.518400  1.0  0.1507
  C  C151  1  0.979600  0.564100  0.578000  1.0  0.1768
  C  C152  1  0.021600  0.706000  0.536300  1.0  0.1597
  C  C153  1  0.086600  0.683900  0.519300  1.0  -0.1938
  C  C154  1  0.134400  0.747300  0.511900  1.0  -0.0044
  C  C155  1  0.117600  0.830700  0.523000  1.0  -0.1692
  C  C156  1  0.051200  0.852600  0.541200  1.0  -0.0515
  C  C157  1  0.002700  0.790200  0.549100  1.0  -0.1612
  C  C158  1  0.170100  0.899700  0.516900  1.0  0.664
  C  C159  1  0.647000  0.075200  0.796300  1.0  0.1631
  C  C160  1  0.729700  0.099100  0.874100  1.0  0.1225
  C  C161  1  0.717800  0.202500  0.765300  1.0  0.171
  C  C162  1  0.713700  0.201300  0.683800  1.0  -0.213
  C  C163  1  0.726500  0.274400  0.642000  1.0  -0.0531
  C  C164  1  0.744800  0.348200  0.681300  1.0  -0.1203
  C  C165  1  0.749400  0.348700  0.762800  1.0  -0.0226
  C  C166  1  0.735500  0.274900  0.805800  1.0  -0.1593
  C  C167  1  0.759800  0.428000  0.635400  1.0  0.694
  C  C168  1  0.593900  0.857800  0.018400  1.0  0.1502
  C  C169  1  0.520400  0.935900  0.078000  1.0  0.1753
  C  C170  1  0.478400  0.794000  0.036300  1.0  0.1626
  C  C171  1  0.413400  0.816100  0.019300  1.0  -0.1936
  C  C172  1  0.365600  0.752700  0.011900  1.0  -0.0042
  C  C173  1  0.382400  0.669300  0.023000  1.0  -0.171
  C  C174  1  0.448800  0.647400  0.041200  1.0  -0.0583
  C  C175  1  0.497300  0.709800  0.049100  1.0  -0.1598
  C  C176  1  0.329900  0.600300  0.016900  1.0  0.6649
  C  C177  1  0.853000  0.575200  0.796300  1.0  0.1646
  C  C178  1  0.770300  0.599100  0.874100  1.0  0.1219
  C  C179  1  0.782200  0.702500  0.765300  1.0  0.1707
  C  C180  1  0.786300  0.701300  0.683800  1.0  -0.2127
  C  C181  1  0.773500  0.774400  0.642000  1.0  -0.053
  C  C182  1  0.755200  0.848200  0.681300  1.0  -0.1198
  C  C183  1  0.750600  0.848700  0.762800  1.0  -0.0219
  C  C184  1  0.764500  0.774900  0.805800  1.0  -0.1591
  C  C185  1  0.740200  0.928000  0.635400  1.0  0.6936
  C  C186  1  0.906100  0.357800  0.018400  1.0  0.1501
  C  C187  1  0.979600  0.435900  0.078000  1.0  0.1761
  C  C188  1  0.021600  0.294000  0.036300  1.0  0.1608
  C  C189  1  0.086600  0.316100  0.019300  1.0  -0.1936
  C  C190  1  0.134400  0.252700  0.011900  1.0  -0.0048
  C  C191  1  0.117600  0.169300  0.023000  1.0  -0.1703
  C  C192  1  0.051200  0.147400  0.041200  1.0  -0.0572
  C  C193  1  0.002700  0.209800  0.049100  1.0  -0.1608
  C  C194  1  0.170100  0.100300  0.016900  1.0  0.6641
  C  C195  1  0.647000  0.924800  0.296300  1.0  0.1634
  C  C196  1  0.729700  0.900900  0.374100  1.0  0.1224
  C  C197  1  0.717800  0.797500  0.265300  1.0  0.1711
  C  C198  1  0.713700  0.798700  0.183800  1.0  -0.2128
  C  C199  1  0.726500  0.725600  0.142000  1.0  -0.0528
  C  C200  1  0.744800  0.651800  0.181300  1.0  -0.1206
  C  C201  1  0.749400  0.651300  0.262800  1.0  -0.0218
  C  C202  1  0.735500  0.725100  0.305800  1.0  -0.1593
  C  C203  1  0.759800  0.572000  0.135400  1.0  0.6943
  C  C204  1  0.593900  0.142200  0.518400  1.0  0.1508
  C  C205  1  0.520400  0.064100  0.578000  1.0  0.1768
  C  C206  1  0.478400  0.206000  0.536300  1.0  0.1614
  C  C207  1  0.413400  0.183900  0.519300  1.0  -0.1942
  C  C208  1  0.365600  0.247300  0.511900  1.0  -0.0044
  C  C209  1  0.382400  0.330700  0.523000  1.0  -0.1701
  C  C210  1  0.448800  0.352600  0.541200  1.0  -0.053
  C  C211  1  0.497300  0.290200  0.549100  1.0  -0.1593
  C  C212  1  0.329900  0.399700  0.516900  1.0  0.6642
  C  C213  1  0.147000  0.575200  0.703700  1.0  0.1633
  C  C214  1  0.229700  0.599100  0.625900  1.0  0.1223
  C  C215  1  0.217800  0.702500  0.734700  1.0  0.1711
  C  C216  1  0.213700  0.701300  0.816200  1.0  -0.2128
  C  C217  1  0.226500  0.774400  0.858000  1.0  -0.0544
  C  C218  1  0.244800  0.848200  0.818700  1.0  -0.1205
  C  C219  1  0.249400  0.848700  0.737200  1.0  -0.0232
  C  C220  1  0.235500  0.774900  0.694200  1.0  -0.1595
  C  C221  1  0.259800  0.928000  0.864600  1.0  0.6943
  C  C222  1  0.093900  0.357800  0.481600  1.0  0.1513
  C  C223  1  0.020400  0.435900  0.422000  1.0  0.1749
  C  C224  1  0.978400  0.294000  0.463700  1.0  0.1626
  C  C225  1  0.913400  0.316100  0.480700  1.0  -0.1937
  C  C226  1  0.865600  0.252700  0.488100  1.0  -0.004
  C  C227  1  0.882400  0.169300  0.477000  1.0  -0.1714
  C  C228  1  0.948800  0.147400  0.458800  1.0  -0.0527
  C  C229  1  0.997300  0.209800  0.450900  1.0  -0.1593
  C  C230  1  0.829900  0.100300  0.483100  1.0  0.665
  C  C231  1  0.353000  0.924800  0.203700  1.0  0.1647
  C  C232  1  0.270300  0.900900  0.125900  1.0  0.1216
  C  C233  1  0.282200  0.797500  0.234700  1.0  0.171
  C  C234  1  0.286300  0.798700  0.316200  1.0  -0.2122
  C  C235  1  0.273500  0.725600  0.358000  1.0  -0.0538
  C  C236  1  0.255200  0.651800  0.318700  1.0  -0.1203
  C  C237  1  0.250600  0.651300  0.237200  1.0  -0.0211
  C  C238  1  0.264500  0.725100  0.194200  1.0  -0.1589
  C  C239  1  0.240200  0.572000  0.364600  1.0  0.6945
  C  C240  1  0.406100  0.142200  0.981600  1.0  0.1505
  C  C241  1  0.479600  0.064100  0.922000  1.0  0.1751
  C  C242  1  0.521600  0.206000  0.963700  1.0  0.1601
  C  C243  1  0.586600  0.183900  0.980700  1.0  -0.1943
  C  C244  1  0.634400  0.247300  0.988100  1.0  -0.005
  C  C245  1  0.617600  0.330700  0.977000  1.0  -0.1696
  C  C246  1  0.551200  0.352600  0.958800  1.0  -0.0574
  C  C247  1  0.502700  0.290200  0.950900  1.0  -0.1612
  C  C248  1  0.670100  0.399700  0.983100  1.0  0.6642
  N  N249  1  0.143100  0.482700  0.150800  1.0  -0.2948
  N  N250  1  0.197200  0.467300  0.100000  1.0  -0.2232
  N  N251  1  0.200200  0.371400  0.190800  1.0  0.0226
  N  N252  1  0.076000  0.518900  0.926300  1.0  -0.2805
  N  N253  1  0.122900  0.569500  0.965500  1.0  -0.2341
  N  N254  1  0.029100  0.641500  0.955500  1.0  0.0278
  N  N255  1  0.356900  0.017300  0.650800  1.0  -0.2953
  N  N256  1  0.302800  0.032700  0.600000  1.0  -0.2241
  N  N257  1  0.299800  0.128600  0.690800  1.0  0.0221
  N  N258  1  0.424000  0.981100  0.426300  1.0  -0.2817
  N  N259  1  0.377100  0.930500  0.465500  1.0  -0.2349
  N  N260  1  0.470900  0.858500  0.455500  1.0  0.0273
  N  N261  1  0.856900  0.482700  0.349200  1.0  -0.2955
  N  N262  1  0.802800  0.467300  0.400000  1.0  -0.2244
  N  N263  1  0.799800  0.371400  0.309200  1.0  0.0211
  N  N264  1  0.924000  0.518900  0.573700  1.0  -0.2839
  N  N265  1  0.877100  0.569500  0.534500  1.0  -0.2347
  N  N266  1  0.970900  0.641500  0.544500  1.0  0.0276
  N  N267  1  0.643100  0.017300  0.849200  1.0  -0.2945
  N  N268  1  0.697200  0.032700  0.900000  1.0  -0.2234
  N  N269  1  0.700200  0.128600  0.809200  1.0  0.0219
  N  N270  1  0.576000  0.981100  0.073700  1.0  -0.2823
  N  N271  1  0.622900  0.930500  0.034500  1.0  -0.2349
  N  N272  1  0.529100  0.858500  0.044500  1.0  0.0276
  N  N273  1  0.856900  0.517300  0.849200  1.0  -0.2955
  N  N274  1  0.802800  0.532700  0.900000  1.0  -0.2237
  N  N275  1  0.799800  0.628600  0.809200  1.0  0.0214
  N  N276  1  0.924000  0.481100  0.073700  1.0  -0.2825
  N  N277  1  0.877100  0.430500  0.034500  1.0  -0.2348
  N  N278  1  0.970900  0.358500  0.044500  1.0  0.0274
  N  N279  1  0.643100  0.982700  0.349200  1.0  -0.2951
  N  N280  1  0.697200  0.967300  0.400000  1.0  -0.2239
  N  N281  1  0.700200  0.871400  0.309200  1.0  0.0218
  N  N282  1  0.576000  0.018900  0.573700  1.0  -0.2834
  N  N283  1  0.622900  0.069500  0.534500  1.0  -0.2342
  N  N284  1  0.529100  0.141500  0.544500  1.0  0.028
  N  N285  1  0.143100  0.517300  0.650800  1.0  -0.2944
  N  N286  1  0.197200  0.532700  0.600000  1.0  -0.2236
  N  N287  1  0.200200  0.628600  0.690800  1.0  0.0224
  N  N288  1  0.076000  0.481100  0.426300  1.0  -0.2814
  N  N289  1  0.122900  0.430500  0.465500  1.0  -0.2349
  N  N290  1  0.029100  0.358500  0.455500  1.0  0.0277
  N  N291  1  0.356900  0.982700  0.150800  1.0  -0.2955
  N  N292  1  0.302800  0.967300  0.100000  1.0  -0.2237
  N  N293  1  0.299800  0.871400  0.190800  1.0  0.0222
  N  N294  1  0.424000  0.018900  0.926300  1.0  -0.2812
  N  N295  1  0.377100  0.069500  0.965500  1.0  -0.2347
  N  N296  1  0.470900  0.141500  0.955500  1.0  0.0274
  O  O297  1  0.263300  0.003600  0.330700  1.0  -0.5683
  O  O298  1  0.268900  0.082600  0.438000  1.0  -0.6019
  O  O299  1  0.770000  0.875300  0.998100  1.0  -0.596
  O  O300  1  0.845300  0.974500  0.975600  1.0  -0.5385
  O  O301  1  0.236700  0.496400  0.830700  1.0  -0.5681
  O  O302  1  0.231100  0.417400  0.938000  1.0  -0.6005
  O  O303  1  0.730000  0.624700  0.498100  1.0  -0.5978
  O  O304  1  0.654700  0.525500  0.475600  1.0  -0.5375
  O  O305  1  0.736700  0.003600  0.169300  1.0  -0.5676
  O  O306  1  0.731100  0.082600  0.062000  1.0  -0.6011
  O  O307  1  0.230000  0.875300  0.501900  1.0  -0.5984
  O  O308  1  0.154700  0.974500  0.524400  1.0  -0.5386
  O  O309  1  0.763300  0.496400  0.669300  1.0  -0.568
  O  O310  1  0.768900  0.417400  0.562000  1.0  -0.6025
  O  O311  1  0.270000  0.624700  0.001900  1.0  -0.5959
  O  O312  1  0.345300  0.525500  0.024400  1.0  -0.5404
  O  O313  1  0.736700  0.996400  0.669300  1.0  -0.5674
  O  O314  1  0.731100  0.917400  0.562000  1.0  -0.601
  O  O315  1  0.230000  0.124700  0.001900  1.0  -0.5982
  O  O316  1  0.154700  0.025500  0.024400  1.0  -0.5386
  O  O317  1  0.763300  0.503600  0.169300  1.0  -0.5673
  O  O318  1  0.768900  0.582600  0.062000  1.0  -0.6025
  O  O319  1  0.270000  0.375300  0.501900  1.0  -0.5962
  O  O320  1  0.345300  0.474500  0.524400  1.0  -0.5394
  O  O321  1  0.263300  0.996400  0.830700  1.0  -0.5692
  O  O322  1  0.268900  0.917400  0.938000  1.0  -0.6016
  O  O323  1  0.770000  0.124700  0.498100  1.0  -0.5956
  O  O324  1  0.845300  0.025500  0.475600  1.0  -0.5392
  O  O325  1  0.236700  0.503600  0.330700  1.0  -0.5686
  O  O326  1  0.231100  0.582600  0.438000  1.0  -0.6008
  O  O327  1  0.730000  0.375300  0.998100  1.0  -0.5981
  O  O328  1  0.654700  0.474500  0.975600  1.0  -0.538
