# generated using pymatgen
data_SrEu2H2C8O17
_symmetry_space_group_name_H-M   'P 1'
_cell_length_a   11.45200000
_cell_length_b   15.82900000
_cell_length_c   12.68500000
_cell_angle_alpha   90.00000000
_cell_angle_beta   90.00000000
_cell_angle_gamma   90.00000000
_symmetry_Int_Tables_number   1
_chemical_formula_structural   SrEu2H2C8O17
_chemical_formula_sum   'Sr4 Eu8 H8 C32 O68'
_cell_volume   2299.45698598
_cell_formula_units_Z   4
loop_
 _symmetry_equiv_pos_site_id
 _symmetry_equiv_pos_as_xyz
  1  'x, y, z'
loop_
 _atom_site_type_symbol
 _atom_site_label
 _atom_site_symmetry_multiplicity
 _atom_site_fract_x
 _atom_site_fract_y
 _atom_site_fract_z
 _atom_site_occupancy
 _atom_site_charge
  Sr  Sr1  1  0.750000  0.672110  0.628940  1.0  1.7302
  Sr  Sr2  1  0.250000  0.827890  0.128940  1.0  1.7303
  Sr  Sr3  1  0.250000  0.327890  0.371060  1.0  1.7295
  Sr  Sr4  1  0.750000  0.172110  0.871060  1.0  1.7296
  Eu  Eu5  1  0.750000  0.922340  0.477060  1.0  1.9776
  Eu  Eu6  1  0.750000  0.925580  0.977280  1.0  2.0902
  Eu  Eu7  1  0.250000  0.577660  0.977060  1.0  1.9778
  Eu  Eu8  1  0.250000  0.574420  0.477280  1.0  2.0899
  Eu  Eu9  1  0.250000  0.077660  0.522940  1.0  1.9777
  Eu  Eu10  1  0.250000  0.074420  0.022720  1.0  2.0897
  Eu  Eu11  1  0.750000  0.422340  0.022940  1.0  1.9775
  Eu  Eu12  1  0.750000  0.425580  0.522720  1.0  2.0902
  H  H13  1  0.689400  0.752200  0.409500  1.0  0.4778
  H  H14  1  0.310600  0.747800  0.909500  1.0  0.4786
  H  H15  1  0.189400  0.247800  0.590500  1.0  0.4795
  H  H16  1  0.810600  0.252200  0.090500  1.0  0.4777
  H  H17  1  0.310600  0.247800  0.590500  1.0  0.4788
  H  H18  1  0.689400  0.252200  0.090500  1.0  0.4783
  H  H19  1  0.810600  0.752200  0.409500  1.0  0.4774
  H  H20  1  0.189400  0.747800  0.909500  1.0  0.4789
  C  C21  1  0.976900  0.042300  0.477100  1.0  0.5894
  C  C22  1  0.975200  0.042500  0.019700  1.0  0.5547
  C  C23  1  0.683200  0.906900  0.226200  1.0  0.5702
  C  C24  1  0.023100  0.457700  0.977100  1.0  0.5894
  C  C25  1  0.024800  0.457500  0.519700  1.0  0.5558
  C  C26  1  0.316800  0.593100  0.726200  1.0  0.5698
  C  C27  1  0.476900  0.957700  0.522900  1.0  0.5902
  C  C28  1  0.475200  0.957500  0.980300  1.0  0.5551
  C  C29  1  0.183200  0.093100  0.773800  1.0  0.5705
  C  C30  1  0.523100  0.542300  0.022900  1.0  0.5896
  C  C31  1  0.524800  0.542500  0.480300  1.0  0.5556
  C  C32  1  0.816800  0.406900  0.273800  1.0  0.5701
  C  C33  1  0.023100  0.957700  0.522900  1.0  0.59
  C  C34  1  0.024800  0.957500  0.980300  1.0  0.5554
  C  C35  1  0.316800  0.093100  0.773800  1.0  0.57
  C  C36  1  0.976900  0.542300  0.022900  1.0  0.5891
  C  C37  1  0.975200  0.542500  0.480300  1.0  0.5551
  C  C38  1  0.683200  0.406900  0.273800  1.0  0.5706
  C  C39  1  0.523100  0.042300  0.477100  1.0  0.5896
  C  C40  1  0.524800  0.042500  0.019700  1.0  0.5552
  C  C41  1  0.816800  0.906900  0.226200  1.0  0.5699
  C  C42  1  0.476900  0.457700  0.977100  1.0  0.5896
  C  C43  1  0.475200  0.457500  0.519700  1.0  0.5553
  C  C44  1  0.183200  0.593100  0.726200  1.0  0.57
  C  C45  1  0.750000  0.875400  0.730400  1.0  0.608
  C  C46  1  0.750000  0.972900  0.726900  1.0  0.5627
  C  C47  1  0.250000  0.624600  0.230400  1.0  0.6059
  C  C48  1  0.250000  0.527100  0.226900  1.0  0.5647
  C  C49  1  0.250000  0.124600  0.269600  1.0  0.6067
  C  C50  1  0.250000  0.027100  0.273100  1.0  0.5651
  C  C51  1  0.750000  0.375400  0.769600  1.0  0.6081
  C  C52  1  0.750000  0.472900  0.773100  1.0  0.5629
  O  O53  1  0.873300  0.045800  0.453600  1.0  -0.602
  O  O54  1  0.868200  0.055000  0.003600  1.0  -0.7305
  O  O55  1  0.634400  0.904700  0.138200  1.0  -0.6545
  O  O56  1  0.633600  0.907000  0.314600  1.0  -0.6252
  O  O57  1  0.050400  0.101300  0.469000  1.0  -0.6427
  O  O58  1  0.044700  0.091800  0.065100  1.0  -0.612
  O  O59  1  0.126700  0.454200  0.953600  1.0  -0.6026
  O  O60  1  0.131800  0.445000  0.503600  1.0  -0.7302
  O  O61  1  0.365600  0.595300  0.638200  1.0  -0.655
  O  O62  1  0.366400  0.593000  0.814600  1.0  -0.6276
  O  O63  1  0.949600  0.398700  0.969000  1.0  -0.6421
  O  O64  1  0.955300  0.408200  0.565100  1.0  -0.6111
  O  O65  1  0.373300  0.954200  0.546400  1.0  -0.6023
  O  O66  1  0.368200  0.945000  0.996400  1.0  -0.7303
  O  O67  1  0.134400  0.095300  0.861800  1.0  -0.6538
  O  O68  1  0.133600  0.093000  0.685400  1.0  -0.6247
  O  O69  1  0.550400  0.898700  0.531000  1.0  -0.6411
  O  O70  1  0.544700  0.908200  0.934900  1.0  -0.6121
  O  O71  1  0.626700  0.545800  0.046400  1.0  -0.6027
  O  O72  1  0.631800  0.555000  0.496400  1.0  -0.7294
  O  O73  1  0.865600  0.404700  0.361800  1.0  -0.6546
  O  O74  1  0.866400  0.407000  0.185400  1.0  -0.6265
  O  O75  1  0.449600  0.601300  0.031000  1.0  -0.6401
  O  O76  1  0.455300  0.591800  0.434900  1.0  -0.6118
  O  O77  1  0.126700  0.954200  0.546400  1.0  -0.6023
  O  O78  1  0.131800  0.945000  0.996400  1.0  -0.7298
  O  O79  1  0.365600  0.095300  0.861800  1.0  -0.654
  O  O80  1  0.366400  0.093000  0.685400  1.0  -0.6259
  O  O81  1  0.949600  0.898700  0.531000  1.0  -0.6409
  O  O82  1  0.955300  0.908200  0.934900  1.0  -0.6116
  O  O83  1  0.873300  0.545800  0.046400  1.0  -0.6021
  O  O84  1  0.868200  0.555000  0.496400  1.0  -0.73
  O  O85  1  0.634400  0.404700  0.361800  1.0  -0.6541
  O  O86  1  0.633600  0.407000  0.185400  1.0  -0.6238
  O  O87  1  0.050400  0.601300  0.031000  1.0  -0.6416
  O  O88  1  0.044700  0.591800  0.434900  1.0  -0.6119
  O  O89  1  0.626700  0.045800  0.453600  1.0  -0.6029
  O  O90  1  0.631800  0.055000  0.003600  1.0  -0.7298
  O  O91  1  0.865600  0.904700  0.138200  1.0  -0.6555
  O  O92  1  0.866400  0.907000  0.314600  1.0  -0.6265
  O  O93  1  0.449600  0.101300  0.469000  1.0  -0.6408
  O  O94  1  0.455300  0.091800  0.065100  1.0  -0.6108
  O  O95  1  0.373300  0.454200  0.953600  1.0  -0.6024
  O  O96  1  0.368200  0.445000  0.503600  1.0  -0.7308
  O  O97  1  0.134400  0.595300  0.638200  1.0  -0.6541
  O  O98  1  0.133600  0.593000  0.814600  1.0  -0.6251
  O  O99  1  0.550400  0.398700  0.969000  1.0  -0.6425
  O  O100  1  0.544700  0.408200  0.565100  1.0  -0.6114
  O  O101  1  0.750000  0.838300  0.642300  1.0  -0.7267
  O  O102  1  0.750000  0.007900  0.639900  1.0  -0.5899
  O  O103  1  0.750000  0.841800  0.817900  1.0  -0.6285
  O  O104  1  0.750000  0.008900  0.814400  1.0  -0.7351
  O  O105  1  0.750000  0.764600  0.443200  1.0  -0.9402
  O  O106  1  0.250000  0.661700  0.142300  1.0  -0.7269
  O  O107  1  0.250000  0.492100  0.139900  1.0  -0.5909
  O  O108  1  0.250000  0.658200  0.317900  1.0  -0.6294
  O  O109  1  0.250000  0.491100  0.314400  1.0  -0.7355
  O  O110  1  0.250000  0.735400  0.943200  1.0  -0.9432
  O  O111  1  0.250000  0.161700  0.357700  1.0  -0.7287
  O  O112  1  0.250000  0.992100  0.360100  1.0  -0.5906
  O  O113  1  0.250000  0.158200  0.182100  1.0  -0.6265
  O  O114  1  0.250000  0.991100  0.185600  1.0  -0.7343
  O  O115  1  0.250000  0.235400  0.556800  1.0  -0.9455
  O  O116  1  0.750000  0.338300  0.857700  1.0  -0.7281
  O  O117  1  0.750000  0.507900  0.860100  1.0  -0.5902
  O  O118  1  0.750000  0.341800  0.682100  1.0  -0.6271
  O  O119  1  0.750000  0.508900  0.685600  1.0  -0.7344
  O  O120  1  0.750000  0.264600  0.056800  1.0  -0.9447
