# generated using pymatgen
data_SrGd2H2C8O17
_symmetry_space_group_name_H-M   'P 1'
_cell_length_a   11.42500000
_cell_length_b   15.82400000
_cell_length_c   12.64900000
_cell_angle_alpha   90.00000000
_cell_angle_beta   90.00000000
_cell_angle_gamma   90.00000000
_symmetry_Int_Tables_number   1
_chemical_formula_structural   SrGd2H2C8O17
_chemical_formula_sum   'Sr4 Gd8 H8 C32 O68'
_cell_volume   2286.80259080
_cell_formula_units_Z   4
loop_
 _symmetry_equiv_pos_site_id
 _symmetry_equiv_pos_as_xyz
  1  'x, y, z'
loop_
 _atom_site_type_symbol
 _atom_site_label
 _atom_site_symmetry_multiplicity
 _atom_site_fract_x
 _atom_site_fract_y
 _atom_site_fract_z
 _atom_site_occupancy
 _atom_site_charge
  Sr  Sr1  1  0.250000  0.672450  0.128740  1.0  1.7564
  Sr  Sr2  1  0.750000  0.827550  0.628740  1.0  1.7566
  Sr  Sr3  1  0.750000  0.327550  0.871260  1.0  1.7558
  Sr  Sr4  1  0.250000  0.172450  0.371260  1.0  1.7558
  Gd  Gd5  1  0.250000  0.422940  0.522330  1.0  2.1238
  Gd  Gd6  1  0.250000  0.426220  0.022280  1.0  2.1732
  Gd  Gd7  1  0.750000  0.077060  0.022330  1.0  2.1238
  Gd  Gd8  1  0.750000  0.073780  0.522280  1.0  2.1726
  Gd  Gd9  1  0.750000  0.577060  0.477670  1.0  2.1238
  Gd  Gd10  1  0.750000  0.573780  0.977720  1.0  2.1728
  Gd  Gd11  1  0.250000  0.922940  0.977670  1.0  2.1238
  Gd  Gd12  1  0.250000  0.926220  0.477720  1.0  2.1733
  H  H13  1  0.193900  0.253000  0.595600  1.0  0.4882
  H  H14  1  0.806100  0.247000  0.095600  1.0  0.4895
  H  H15  1  0.693900  0.747000  0.404400  1.0  0.4879
  H  H16  1  0.306100  0.753000  0.904400  1.0  0.4892
  H  H17  1  0.806100  0.747000  0.404400  1.0  0.4894
  H  H18  1  0.193900  0.753000  0.904400  1.0  0.4881
  H  H19  1  0.306100  0.253000  0.595600  1.0  0.4895
  H  H20  1  0.693900  0.247000  0.095600  1.0  0.4885
  C  C21  1  0.025500  0.542200  0.979700  1.0  0.5937
  C  C22  1  0.317000  0.407600  0.773000  1.0  0.5722
  C  C23  1  0.977100  0.457800  0.477500  1.0  0.5657
  C  C24  1  0.974500  0.957800  0.479700  1.0  0.5946
  C  C25  1  0.683000  0.092400  0.273000  1.0  0.5719
  C  C26  1  0.022900  0.042200  0.977500  1.0  0.5662
  C  C27  1  0.525500  0.457800  0.020300  1.0  0.5948
  C  C28  1  0.817000  0.592400  0.227000  1.0  0.5718
  C  C29  1  0.477100  0.542200  0.522500  1.0  0.5652
  C  C30  1  0.474500  0.042200  0.520300  1.0  0.5928
  C  C31  1  0.183000  0.907600  0.727000  1.0  0.5723
  C  C32  1  0.522900  0.957800  0.022500  1.0  0.5665
  C  C33  1  0.974500  0.457800  0.020300  1.0  0.5946
  C  C34  1  0.683000  0.592400  0.227000  1.0  0.5719
  C  C35  1  0.022900  0.542200  0.522500  1.0  0.5658
  C  C36  1  0.025500  0.042200  0.520300  1.0  0.5931
  C  C37  1  0.317000  0.907600  0.727000  1.0  0.5722
  C  C38  1  0.977100  0.957800  0.022500  1.0  0.5662
  C  C39  1  0.474500  0.542200  0.979700  1.0  0.5935
  C  C40  1  0.183000  0.407600  0.773000  1.0  0.5723
  C  C41  1  0.522900  0.457800  0.477500  1.0  0.5662
  C  C42  1  0.525500  0.957800  0.479700  1.0  0.5948
  C  C43  1  0.817000  0.092400  0.273000  1.0  0.5718
  C  C44  1  0.477100  0.042200  0.977500  1.0  0.5655
  C  C45  1  0.250000  0.473300  0.271800  1.0  0.601
  C  C46  1  0.250000  0.376700  0.269000  1.0  0.6249
  C  C47  1  0.750000  0.026700  0.771800  1.0  0.6023
  C  C48  1  0.750000  0.123300  0.769000  1.0  0.6258
  C  C49  1  0.750000  0.526700  0.728200  1.0  0.6022
  C  C50  1  0.750000  0.623300  0.731000  1.0  0.6255
  C  C51  1  0.250000  0.973300  0.228200  1.0  0.6006
  C  C52  1  0.250000  0.876700  0.231000  1.0  0.6252
  O  O53  1  0.132200  0.554900  0.995300  1.0  -0.735
  O  O54  1  0.365400  0.406300  0.861100  1.0  -0.6812
  O  O55  1  0.954500  0.591800  0.934800  1.0  -0.6288
  O  O56  1  0.050900  0.399300  0.468500  1.0  -0.6807
  O  O57  1  0.367000  0.407900  0.684600  1.0  -0.6474
  O  O58  1  0.872100  0.453400  0.453600  1.0  -0.6105
  O  O59  1  0.867800  0.945100  0.495300  1.0  -0.7351
  O  O60  1  0.634600  0.093700  0.361100  1.0  -0.6809
  O  O61  1  0.045500  0.908200  0.434800  1.0  -0.629
  O  O62  1  0.949100  0.100700  0.968500  1.0  -0.6784
  O  O63  1  0.633000  0.092100  0.184600  1.0  -0.6461
  O  O64  1  0.127900  0.046600  0.953600  1.0  -0.6104
  O  O65  1  0.632200  0.445100  0.004700  1.0  -0.7343
  O  O66  1  0.865400  0.593700  0.138900  1.0  -0.6811
  O  O67  1  0.454500  0.408200  0.065200  1.0  -0.6277
  O  O68  1  0.550900  0.600700  0.531500  1.0  -0.6802
  O  O69  1  0.867000  0.592100  0.315400  1.0  -0.6471
  O  O70  1  0.372100  0.546600  0.546400  1.0  -0.6096
  O  O71  1  0.367800  0.054900  0.504700  1.0  -0.7364
  O  O72  1  0.134600  0.906300  0.638900  1.0  -0.6805
  O  O73  1  0.545500  0.091800  0.565200  1.0  -0.6284
  O  O74  1  0.449100  0.899300  0.031500  1.0  -0.6796
  O  O75  1  0.133000  0.907900  0.815400  1.0  -0.6453
  O  O76  1  0.627900  0.953400  0.046400  1.0  -0.6095
  O  O77  1  0.867800  0.445100  0.004700  1.0  -0.7353
  O  O78  1  0.634600  0.593700  0.138900  1.0  -0.6805
  O  O79  1  0.045500  0.408200  0.065200  1.0  -0.6285
  O  O80  1  0.949100  0.600700  0.531500  1.0  -0.6784
  O  O81  1  0.633000  0.592100  0.315400  1.0  -0.6453
  O  O82  1  0.127900  0.546600  0.546400  1.0  -0.6098
  O  O83  1  0.132200  0.054900  0.504700  1.0  -0.7354
  O  O84  1  0.365400  0.906300  0.638900  1.0  -0.6813
  O  O85  1  0.954500  0.091800  0.565200  1.0  -0.6286
  O  O86  1  0.050900  0.899300  0.031500  1.0  -0.6798
  O  O87  1  0.367000  0.907900  0.815400  1.0  -0.6459
  O  O88  1  0.872100  0.953400  0.046400  1.0  -0.6097
  O  O89  1  0.367800  0.554900  0.995300  1.0  -0.736
  O  O90  1  0.134600  0.406300  0.861100  1.0  -0.6808
  O  O91  1  0.545500  0.591800  0.934800  1.0  -0.6289
  O  O92  1  0.449100  0.399300  0.468500  1.0  -0.6798
  O  O93  1  0.133000  0.407900  0.684600  1.0  -0.6443
  O  O94  1  0.627900  0.453400  0.453600  1.0  -0.6103
  O  O95  1  0.632200  0.945100  0.495300  1.0  -0.734
  O  O96  1  0.865400  0.093700  0.361100  1.0  -0.681
  O  O97  1  0.454500  0.908200  0.434800  1.0  -0.6291
  O  O98  1  0.550900  0.100700  0.968500  1.0  -0.6802
  O  O99  1  0.867000  0.092100  0.184600  1.0  -0.646
  O  O100  1  0.372100  0.046600  0.953600  1.0  -0.6098
  O  O101  1  0.250000  0.508400  0.360500  1.0  -0.6011
  O  O102  1  0.250000  0.338200  0.356800  1.0  -0.7808
  O  O103  1  0.250000  0.342200  0.181500  1.0  -0.654
  O  O104  1  0.250000  0.510100  0.184500  1.0  -0.7754
  O  O105  1  0.250000  0.267200  0.556700  1.0  -0.9487
  O  O106  1  0.750000  0.991600  0.860500  1.0  -0.6028
  O  O107  1  0.750000  0.161800  0.856800  1.0  -0.7803
  O  O108  1  0.750000  0.157800  0.681500  1.0  -0.654
  O  O109  1  0.750000  0.989900  0.684500  1.0  -0.7761
  O  O110  1  0.750000  0.232800  0.056700  1.0  -0.9502
  O  O111  1  0.750000  0.491600  0.639500  1.0  -0.6031
  O  O112  1  0.750000  0.661800  0.643200  1.0  -0.778
  O  O113  1  0.750000  0.657800  0.818500  1.0  -0.6564
  O  O114  1  0.750000  0.489900  0.815500  1.0  -0.7772
  O  O115  1  0.750000  0.732800  0.443300  1.0  -0.9491
  O  O116  1  0.250000  0.008400  0.139500  1.0  -0.6011
  O  O117  1  0.250000  0.838200  0.143200  1.0  -0.7783
  O  O118  1  0.250000  0.842200  0.318500  1.0  -0.6549
  O  O119  1  0.250000  0.010100  0.315500  1.0  -0.7761
  O  O120  1  0.250000  0.767200  0.943300  1.0  -0.9457
