# generated using pymatgen
data_Ag5H28(C2N)14
_symmetry_space_group_name_H-M   'P 1'
_cell_length_a   23.35330000
_cell_length_b   20.53790000
_cell_length_c   12.62260000
_cell_angle_alpha   90.00000000
_cell_angle_beta   98.32000000
_cell_angle_gamma   90.00000000
_symmetry_Int_Tables_number   1
_chemical_formula_structural   Ag5H28(C2N)14
_chemical_formula_sum   'Ag20 H112 C112 N56'
_cell_volume   5990.43124455
_cell_formula_units_Z   4
loop_
 _symmetry_equiv_pos_site_id
 _symmetry_equiv_pos_as_xyz
  1  'x, y, z'
loop_
 _atom_site_type_symbol
 _atom_site_label
 _atom_site_symmetry_multiplicity
 _atom_site_fract_x
 _atom_site_fract_y
 _atom_site_fract_z
 _atom_site_occupancy
 _atom_site_charge
  Ag  Ag1  1  0.264030  0.076760  0.571800  1.0  0.1777
  Ag  Ag2  1  0.735970  0.076760  0.928200  1.0  0.1745
  Ag  Ag3  1  0.735970  0.923240  0.428200  1.0  0.1748
  Ag  Ag4  1  0.264030  0.923240  0.071800  1.0  0.1775
  Ag  Ag5  1  0.500000  0.413000  0.250000  1.0  0.22
  Ag  Ag6  1  0.500000  0.054400  0.250000  1.0  0.3433
  Ag  Ag7  1  0.500000  0.587000  0.750000  1.0  0.2205
  Ag  Ag8  1  0.500000  0.945600  0.750000  1.0  0.3443
  Ag  Ag9  1  0.000000  0.186700  0.250000  1.0  0.2496
  Ag  Ag10  1  0.000000  0.813300  0.750000  1.0  0.2496
  Ag  Ag11  1  0.764030  0.576760  0.571800  1.0  0.1777
  Ag  Ag12  1  0.235970  0.576760  0.928200  1.0  0.1745
  Ag  Ag13  1  0.235970  0.423240  0.428200  1.0  0.1748
  Ag  Ag14  1  0.764030  0.423240  0.071800  1.0  0.1775
  Ag  Ag15  1  0.000000  0.913000  0.250000  1.0  0.22
  Ag  Ag16  1  0.000000  0.554400  0.250000  1.0  0.3433
  Ag  Ag17  1  0.000000  0.087000  0.750000  1.0  0.2205
  Ag  Ag18  1  0.000000  0.445600  0.750000  1.0  0.3444
  Ag  Ag19  1  0.500000  0.686700  0.250000  1.0  0.2496
  Ag  Ag20  1  0.500000  0.313300  0.750000  1.0  0.2496
  H  H21  1  0.399000  0.083200  0.585400  1.0  0.0395
  H  H22  1  0.049800  0.423500  0.137700  1.0  0.053
  H  H23  1  0.172500  0.035900  0.377300  1.0  0.0665
  H  H24  1  0.187300  0.203900  0.519000  1.0  0.0525
  H  H25  1  0.472200  0.069800  0.482400  1.0  0.0526
  H  H26  1  0.099400  0.238000  0.410900  1.0  0.042
  H  H27  1  0.359600  0.009900  0.249500  1.0  0.0148
  H  H28  1  0.583800  0.460200  0.452600  1.0  0.0649
  H  H29  1  0.457700  0.177700  0.374000  1.0  0.0544
  H  H30  1  0.459500  0.296800  0.367400  1.0  0.0298
  H  H31  1  0.089900  0.073000  0.269300  1.0  0.0281
  H  H32  1  0.289200  0.008500  0.353900  1.0  0.0741
  H  H33  1  0.029300  0.309400  0.114800  1.0  0.0432
  H  H34  1  0.415300  0.486300  0.385900  1.0  0.0612
  H  H35  1  0.601000  0.083200  0.914600  1.0  0.0403
  H  H36  1  0.950200  0.423500  0.362300  1.0  0.0539
  H  H37  1  0.827500  0.035900  0.122700  1.0  0.0662
  H  H38  1  0.812700  0.203900  0.981000  1.0  0.0512
  H  H39  1  0.527800  0.069800  0.017600  1.0  0.0523
  H  H40  1  0.900600  0.238000  0.089100  1.0  0.0419
  H  H41  1  0.640400  0.009900  0.250500  1.0  0.0146
  H  H42  1  0.416200  0.460200  0.047400  1.0  0.0659
  H  H43  1  0.542300  0.177700  0.126000  1.0  0.0539
  H  H44  1  0.540500  0.296800  0.132600  1.0  0.03
  H  H45  1  0.910100  0.073000  0.230700  1.0  0.028
  H  H46  1  0.710800  0.008500  0.146100  1.0  0.073
  H  H47  1  0.970700  0.309400  0.385200  1.0  0.0439
  H  H48  1  0.584700  0.486300  0.114100  1.0  0.061
  H  H49  1  0.601000  0.916800  0.414600  1.0  0.0403
  H  H50  1  0.950200  0.576500  0.862300  1.0  0.0534
  H  H51  1  0.827500  0.964100  0.622700  1.0  0.0667
  H  H52  1  0.812700  0.796100  0.481000  1.0  0.0513
  H  H53  1  0.527800  0.930200  0.517600  1.0  0.0525
  H  H54  1  0.900600  0.762000  0.589100  1.0  0.0423
  H  H55  1  0.640400  0.990100  0.750500  1.0  0.0147
  H  H56  1  0.416200  0.539800  0.547400  1.0  0.0658
  H  H57  1  0.542300  0.822300  0.626000  1.0  0.0538
  H  H58  1  0.540500  0.703200  0.632600  1.0  0.0301
  H  H59  1  0.910100  0.927000  0.730700  1.0  0.0277
  H  H60  1  0.710800  0.991500  0.646100  1.0  0.073
  H  H61  1  0.970700  0.690600  0.885200  1.0  0.0431
  H  H62  1  0.584700  0.513700  0.614100  1.0  0.0608
  H  H63  1  0.399000  0.916800  0.085400  1.0  0.04
  H  H64  1  0.049800  0.576500  0.637700  1.0  0.0525
  H  H65  1  0.172500  0.964100  0.877300  1.0  0.0673
  H  H66  1  0.187300  0.796100  0.019000  1.0  0.0532
  H  H67  1  0.472200  0.930200  0.982400  1.0  0.0526
  H  H68  1  0.099400  0.762000  0.910900  1.0  0.0423
  H  H69  1  0.359600  0.990100  0.749500  1.0  0.015
  H  H70  1  0.583800  0.539800  0.952600  1.0  0.0654
  H  H71  1  0.457700  0.822300  0.874000  1.0  0.0545
  H  H72  1  0.459500  0.703200  0.867400  1.0  0.0304
  H  H73  1  0.089900  0.927000  0.769300  1.0  0.0279
  H  H74  1  0.289200  0.991500  0.853900  1.0  0.0744
  H  H75  1  0.029300  0.690600  0.614800  1.0  0.0434
  H  H76  1  0.415300  0.513700  0.885900  1.0  0.0611
  H  H77  1  0.899000  0.583200  0.585400  1.0  0.0395
  H  H78  1  0.549800  0.923500  0.137700  1.0  0.053
  H  H79  1  0.672500  0.535900  0.377300  1.0  0.0666
  H  H80  1  0.687300  0.703900  0.519000  1.0  0.0524
  H  H81  1  0.972200  0.569800  0.482400  1.0  0.0526
  H  H82  1  0.599400  0.738000  0.410900  1.0  0.0417
  H  H83  1  0.859600  0.509900  0.249500  1.0  0.015
  H  H84  1  0.083800  0.960200  0.452600  1.0  0.0649
  H  H85  1  0.957700  0.677700  0.374000  1.0  0.0544
  H  H86  1  0.959500  0.796800  0.367400  1.0  0.0298
  H  H87  1  0.589900  0.573000  0.269300  1.0  0.0281
  H  H88  1  0.789200  0.508500  0.353900  1.0  0.0741
  H  H89  1  0.529300  0.809400  0.114800  1.0  0.0432
  H  H90  1  0.915300  0.986300  0.385900  1.0  0.0612
  H  H91  1  0.101000  0.583200  0.914600  1.0  0.0402
  H  H92  1  0.450200  0.923500  0.362300  1.0  0.0539
  H  H93  1  0.327500  0.535900  0.122700  1.0  0.0663
  H  H94  1  0.312700  0.703900  0.981000  1.0  0.0512
  H  H95  1  0.027800  0.569800  0.017600  1.0  0.0523
  H  H96  1  0.400600  0.738000  0.089100  1.0  0.0419
  H  H97  1  0.140400  0.509900  0.250500  1.0  0.0149
  H  H98  1  0.916200  0.960200  0.047400  1.0  0.0659
  H  H99  1  0.042300  0.677700  0.126000  1.0  0.0539
  H  H100  1  0.040500  0.796800  0.132600  1.0  0.0301
  H  H101  1  0.410100  0.573000  0.230700  1.0  0.028
  H  H102  1  0.210800  0.508500  0.146100  1.0  0.073
  H  H103  1  0.470700  0.809400  0.385200  1.0  0.0436
  H  H104  1  0.084700  0.986300  0.114100  1.0  0.061
  H  H105  1  0.101000  0.416800  0.414600  1.0  0.0403
  H  H106  1  0.450200  0.076500  0.862300  1.0  0.0534
  H  H107  1  0.327500  0.464100  0.622700  1.0  0.0668
  H  H108  1  0.312700  0.296100  0.481000  1.0  0.0513
  H  H109  1  0.027800  0.430200  0.517600  1.0  0.0525
  H  H110  1  0.400600  0.262000  0.589100  1.0  0.0423
  H  H111  1  0.140400  0.490100  0.750500  1.0  0.0146
  H  H112  1  0.916200  0.039800  0.547400  1.0  0.0658
  H  H113  1  0.042300  0.322300  0.626000  1.0  0.0538
  H  H114  1  0.040500  0.203200  0.632600  1.0  0.0301
  H  H115  1  0.410100  0.427000  0.730700  1.0  0.0277
  H  H116  1  0.210800  0.491500  0.646100  1.0  0.073
  H  H117  1  0.470700  0.190600  0.885200  1.0  0.0431
  H  H118  1  0.084700  0.013700  0.614100  1.0  0.0608
  H  H119  1  0.899000  0.416800  0.085400  1.0  0.04
  H  H120  1  0.549800  0.076500  0.637700  1.0  0.0525
  H  H121  1  0.672500  0.464100  0.877300  1.0  0.0675
  H  H122  1  0.687300  0.296100  0.019000  1.0  0.0531
  H  H123  1  0.972200  0.430200  0.982400  1.0  0.0526
  H  H124  1  0.599400  0.262000  0.910900  1.0  0.042
  H  H125  1  0.859600  0.490100  0.749500  1.0  0.0148
  H  H126  1  0.083800  0.039800  0.952600  1.0  0.0654
  H  H127  1  0.957700  0.322300  0.874000  1.0  0.0545
  H  H128  1  0.959500  0.203200  0.867400  1.0  0.0304
  H  H129  1  0.589900  0.427000  0.769300  1.0  0.0279
  H  H130  1  0.789200  0.491500  0.853900  1.0  0.0744
  H  H131  1  0.529300  0.190600  0.614800  1.0  0.0431
  H  H132  1  0.915300  0.013700  0.885900  1.0  0.0611
  C  C133  1  0.390200  0.066400  0.517000  1.0  0.1168
  C  C134  1  0.026900  0.402000  0.181000  1.0  0.0447
  C  C135  1  0.158100  0.077000  0.388000  1.0  0.0674
  C  C136  1  0.166600  0.175000  0.471000  1.0  0.0657
  C  C137  1  0.434200  0.061000  0.453000  1.0  0.0466
  C  C138  1  0.112400  0.196000  0.406000  1.0  0.0798
  C  C139  1  0.369000  0.024000  0.320000  1.0  0.1197
  C  C140  1  0.549600  0.476100  0.472000  1.0  0.0711
  C  C141  1  0.475100  0.199900  0.323000  1.0  0.0729
  C  C142  1  0.476700  0.273000  0.318000  1.0  0.0865
  C  C143  1  0.107000  0.099400  0.325000  1.0  0.0969
  C  C144  1  0.326000  0.024000  0.381000  1.0  0.0602
  C  C145  1  0.019700  0.331400  0.174000  1.0  0.0919
  C  C146  1  0.449700  0.491400  0.432000  1.0  0.1137
  C  C147  1  0.609800  0.066400  0.983000  1.0  0.1165
  C  C148  1  0.973100  0.402000  0.319000  1.0  0.046
  C  C149  1  0.841900  0.077000  0.112000  1.0  0.068
  C  C150  1  0.833400  0.175000  0.029000  1.0  0.067
  C  C151  1  0.565800  0.061000  0.047000  1.0  0.0458
  C  C152  1  0.887600  0.196000  0.094000  1.0  0.08
  C  C153  1  0.631000  0.024000  0.180000  1.0  0.1213
  C  C154  1  0.450400  0.476100  0.028000  1.0  0.0719
  C  C155  1  0.524900  0.199900  0.177000  1.0  0.0718
  C  C156  1  0.523300  0.273000  0.182000  1.0  0.0862
  C  C157  1  0.893000  0.099400  0.175000  1.0  0.0985
  C  C158  1  0.674000  0.024000  0.119000  1.0  0.0629
  C  C159  1  0.980300  0.331400  0.326000  1.0  0.0935
  C  C160  1  0.550300  0.491400  0.068000  1.0  0.1133
  C  C161  1  0.609800  0.933600  0.483000  1.0  0.1166
  C  C162  1  0.973100  0.598000  0.819000  1.0  0.0461
  C  C163  1  0.841900  0.923000  0.612000  1.0  0.0683
  C  C164  1  0.833400  0.825000  0.529000  1.0  0.066
  C  C165  1  0.565800  0.939000  0.547000  1.0  0.0458
  C  C166  1  0.887600  0.804000  0.594000  1.0  0.0779
  C  C167  1  0.631000  0.976000  0.680000  1.0  0.1211
  C  C168  1  0.450400  0.523900  0.528000  1.0  0.0722
  C  C169  1  0.524900  0.800100  0.677000  1.0  0.0725
  C  C170  1  0.523300  0.727000  0.682000  1.0  0.0861
  C  C171  1  0.893000  0.900600  0.675000  1.0  0.0988
  C  C172  1  0.674000  0.976000  0.619000  1.0  0.063
  C  C173  1  0.980300  0.668600  0.826000  1.0  0.0939
  C  C174  1  0.550300  0.508600  0.568000  1.0  0.1134
  C  C175  1  0.390200  0.933600  0.017000  1.0  0.1168
  C  C176  1  0.026900  0.598000  0.681000  1.0  0.0449
  C  C177  1  0.158100  0.923000  0.888000  1.0  0.0681
  C  C178  1  0.166600  0.825000  0.971000  1.0  0.0658
  C  C179  1  0.434200  0.939000  0.953000  1.0  0.0466
  C  C180  1  0.112400  0.804000  0.906000  1.0  0.0776
  C  C181  1  0.369000  0.976000  0.820000  1.0  0.1196
  C  C182  1  0.549600  0.523900  0.972000  1.0  0.0729
  C  C183  1  0.475100  0.800100  0.823000  1.0  0.0734
  C  C184  1  0.476700  0.727000  0.818000  1.0  0.0874
  C  C185  1  0.107000  0.900600  0.825000  1.0  0.0971
  C  C186  1  0.326000  0.976000  0.881000  1.0  0.0599
  C  C187  1  0.019700  0.668600  0.674000  1.0  0.0931
  C  C188  1  0.449700  0.508600  0.932000  1.0  0.1137
  C  C189  1  0.890200  0.566400  0.517000  1.0  0.1168
  C  C190  1  0.526900  0.902000  0.181000  1.0  0.0447
  C  C191  1  0.658100  0.577000  0.388000  1.0  0.0669
  C  C192  1  0.666667  0.675000  0.471000  1.0  0.0675
  C  C193  1  0.934200  0.561000  0.453000  1.0  0.0465
  C  C194  1  0.612400  0.696000  0.406000  1.0  0.0799
  C  C195  1  0.869000  0.524000  0.320000  1.0  0.1197
  C  C196  1  0.049600  0.976100  0.472000  1.0  0.0711
  C  C197  1  0.975100  0.699900  0.323000  1.0  0.0729
  C  C198  1  0.976700  0.773000  0.318000  1.0  0.0865
  C  C199  1  0.607000  0.599400  0.325000  1.0  0.0969
  C  C200  1  0.826000  0.524000  0.381000  1.0  0.0602
  C  C201  1  0.519700  0.831400  0.174000  1.0  0.0919
  C  C202  1  0.949700  0.991400  0.432000  1.0  0.1137
  C  C203  1  0.109800  0.566400  0.983000  1.0  0.1165
  C  C204  1  0.473100  0.902000  0.319000  1.0  0.046
  C  C205  1  0.341900  0.577000  0.112000  1.0  0.068
  C  C206  1  0.333400  0.675000  0.029000  1.0  0.067
  C  C207  1  0.065800  0.561000  0.047000  1.0  0.0458
  C  C208  1  0.387600  0.696000  0.094000  1.0  0.08
  C  C209  1  0.131000  0.524000  0.180000  1.0  0.1213
  C  C210  1  0.950400  0.976100  0.028000  1.0  0.0719
  C  C211  1  0.024900  0.699900  0.177000  1.0  0.0718
  C  C212  1  0.023300  0.773000  0.182000  1.0  0.0862
  C  C213  1  0.393000  0.599400  0.175000  1.0  0.0985
  C  C214  1  0.174000  0.524000  0.119000  1.0  0.0629
  C  C215  1  0.480300  0.831400  0.326000  1.0  0.0935
  C  C216  1  0.050300  0.991400  0.068000  1.0  0.1132
  C  C217  1  0.109800  0.433600  0.483000  1.0  0.1166
  C  C218  1  0.473100  0.098000  0.819000  1.0  0.0461
  C  C219  1  0.341900  0.423000  0.612000  1.0  0.0683
  C  C220  1  0.333400  0.325000  0.529000  1.0  0.066
  C  C221  1  0.065800  0.439000  0.547000  1.0  0.0458
  C  C222  1  0.387600  0.304000  0.594000  1.0  0.0779
  C  C223  1  0.131000  0.476000  0.680000  1.0  0.1211
  C  C224  1  0.950400  0.023900  0.528000  1.0  0.0722
  C  C225  1  0.024900  0.300100  0.677000  1.0  0.0725
  C  C226  1  0.023300  0.227000  0.682000  1.0  0.0861
  C  C227  1  0.393000  0.400600  0.675000  1.0  0.0988
  C  C228  1  0.174000  0.476000  0.619000  1.0  0.063
  C  C229  1  0.480300  0.168600  0.826000  1.0  0.0939
  C  C230  1  0.050300  0.008600  0.568000  1.0  0.1133
  C  C231  1  0.890200  0.433600  0.017000  1.0  0.1168
  C  C232  1  0.526900  0.098000  0.681000  1.0  0.0449
  C  C233  1  0.658100  0.423000  0.888000  1.0  0.0677
  C  C234  1  0.666667  0.325000  0.971000  1.0  0.0674
  C  C235  1  0.934200  0.439000  0.953000  1.0  0.0466
  C  C236  1  0.612400  0.304000  0.906000  1.0  0.0777
  C  C237  1  0.869000  0.476000  0.820000  1.0  0.1196
  C  C238  1  0.049600  0.023900  0.972000  1.0  0.0729
  C  C239  1  0.975100  0.300100  0.823000  1.0  0.0734
  C  C240  1  0.976700  0.227000  0.818000  1.0  0.0874
  C  C241  1  0.607000  0.400600  0.825000  1.0  0.0971
  C  C242  1  0.826000  0.476000  0.881000  1.0  0.0599
  C  C243  1  0.519700  0.168600  0.674000  1.0  0.0931
  C  C244  1  0.949700  0.008600  0.932000  1.0  0.1137
  N  N245  1  0.422100  0.042000  0.352000  1.0  -0.3849
  N  N246  1  0.498400  0.467400  0.407000  1.0  -0.3339
  N  N247  1  0.082300  0.154800  0.341000  1.0  -0.3269
  N  N248  1  0.337000  0.049000  0.482000  1.0  -0.3465
  N  N249  1  0.185300  0.116200  0.462000  1.0  -0.383
  N  N250  1  0.577900  0.042000  0.148000  1.0  -0.3857
  N  N251  1  0.501600  0.467400  0.093000  1.0  -0.3348
  N  N252  1  0.917700  0.154800  0.159000  1.0  -0.3312
  N  N253  1  0.663000  0.049000  0.018000  1.0  -0.3467
  N  N254  1  0.814700  0.116200  0.038000  1.0  -0.3812
  N  N255  1  0.577900  0.958000  0.648000  1.0  -0.385
  N  N256  1  0.501600  0.532600  0.593000  1.0  -0.3366
  N  N257  1  0.917700  0.845200  0.659000  1.0  -0.3302
  N  N258  1  0.663000  0.951000  0.518000  1.0  -0.3468
  N  N259  1  0.814700  0.883800  0.538000  1.0  -0.38
  N  N260  1  0.422100  0.958000  0.852000  1.0  -0.3844
  N  N261  1  0.498400  0.532600  0.907000  1.0  -0.3343
  N  N262  1  0.082300  0.845200  0.841000  1.0  -0.3279
  N  N263  1  0.337000  0.951000  0.982000  1.0  -0.3466
  N  N264  1  0.185300  0.883800  0.962000  1.0  -0.3838
  N  N265  1  0.500000  0.303000  0.250000  1.0  -0.036
  N  N266  1  0.500000  0.170000  0.250000  1.0  -0.3855
  N  N267  1  0.500000  0.697000  0.750000  1.0  -0.0318
  N  N268  1  0.500000  0.830000  0.750000  1.0  -0.3843
  N  N269  1  0.000000  0.434000  0.250000  1.0  -0.4347
  N  N270  1  0.000000  0.299000  0.250000  1.0  -0.3782
  N  N271  1  0.000000  0.566000  0.750000  1.0  -0.4357
  N  N272  1  0.000000  0.701000  0.750000  1.0  -0.3769
  N  N273  1  0.922100  0.542000  0.352000  1.0  -0.3849
  N  N274  1  0.998400  0.967400  0.407000  1.0  -0.3339
  N  N275  1  0.582300  0.654800  0.341000  1.0  -0.3268
  N  N276  1  0.837000  0.549000  0.482000  1.0  -0.3468
  N  N277  1  0.685300  0.616200  0.462000  1.0  -0.4059
  N  N278  1  0.077900  0.542000  0.148000  1.0  -0.3857
  N  N279  1  0.001600  0.967400  0.093000  1.0  -0.3348
  N  N280  1  0.417700  0.654800  0.159000  1.0  -0.3312
  N  N281  1  0.163000  0.549000  0.018000  1.0  -0.3467
  N  N282  1  0.314700  0.616200  0.038000  1.0  -0.3812
  N  N283  1  0.077900  0.458000  0.648000  1.0  -0.385
  N  N284  1  0.001600  0.032600  0.593000  1.0  -0.3366
  N  N285  1  0.417700  0.345200  0.659000  1.0  -0.3302
  N  N286  1  0.163000  0.451000  0.518000  1.0  -0.3468
  N  N287  1  0.314700  0.383800  0.538000  1.0  -0.38
  N  N288  1  0.922100  0.458000  0.852000  1.0  -0.3844
  N  N289  1  0.998400  0.032600  0.907000  1.0  -0.3343
  N  N290  1  0.582300  0.345200  0.841000  1.0  -0.3278
  N  N291  1  0.837000  0.451000  0.982000  1.0  -0.3468
  N  N292  1  0.685300  0.383800  0.962000  1.0  -0.4064
  N  N293  1  0.000000  0.803000  0.250000  1.0  -0.036
  N  N294  1  0.000000  0.670000  0.250000  1.0  -0.3855
  N  N295  1  0.000000  0.197000  0.750000  1.0  -0.0318
  N  N296  1  0.000000  0.330000  0.750000  1.0  -0.3843
  N  N297  1  0.500000  0.934000  0.250000  1.0  -0.4347
  N  N298  1  0.500000  0.799000  0.250000  1.0  -0.3782
  N  N299  1  0.500000  0.066000  0.750000  1.0  -0.4357
  N  N300  1  0.500000  0.201000  0.750000  1.0  -0.3769
