# generated using pymatgen
data_ZnH2(C5O4)2
_symmetry_space_group_name_H-M   'P 1'
_cell_length_a   10.87780000
_cell_length_b   15.15180000
_cell_length_c   11.62210000
_cell_angle_alpha   90.00000000
_cell_angle_beta   96.24900000
_cell_angle_gamma   90.00000000
_symmetry_Int_Tables_number   1
_chemical_formula_structural   ZnH2(C5O4)2
_chemical_formula_sum   'Zn4 H8 C40 O32'
_cell_volume   1904.15253587
_cell_formula_units_Z   4
loop_
 _symmetry_equiv_pos_site_id
 _symmetry_equiv_pos_as_xyz
  1  'x, y, z'
loop_
 _atom_site_type_symbol
 _atom_site_label
 _atom_site_symmetry_multiplicity
 _atom_site_fract_x
 _atom_site_fract_y
 _atom_site_fract_z
 _atom_site_occupancy
 _atom_site_charge
  Zn  Zn1  1  0.254830  0.012400  0.498780  1.0  1.0708
  Zn  Zn2  1  0.245170  0.512400  0.001220  1.0  1.0704
  Zn  Zn3  1  0.745170  0.987600  0.501220  1.0  1.0702
  Zn  Zn4  1  0.754830  0.487600  0.998780  1.0  1.0706
  H  H5  1  0.701900  0.217400  0.268100  1.0  0.146
  H  H6  1  0.286100  0.238500  0.148800  1.0  0.1496
  H  H7  1  0.798100  0.717400  0.231900  1.0  0.1476
  H  H8  1  0.213900  0.738500  0.351200  1.0  0.1476
  H  H9  1  0.298100  0.782600  0.731900  1.0  0.1474
  H  H10  1  0.713900  0.761500  0.851200  1.0  0.1486
  H  H11  1  0.201900  0.282600  0.768100  1.0  0.146
  H  H12  1  0.786100  0.261500  0.648800  1.0  0.1508
  C  C13  1  0.410200  0.175500  0.262300  1.0  -0.1025
  C  C14  1  0.536400  0.169900  0.298200  1.0  -0.0007
  C  C15  1  0.617600  0.222600  0.245100  1.0  0.0044
  C  C16  1  0.578500  0.282800  0.159000  1.0  -0.0957
  C  C17  1  0.451400  0.289300  0.124900  1.0  -0.0142
  C  C18  1  0.370000  0.235200  0.174400  1.0  -0.0004
  C  C19  1  0.315000  0.121800  0.315900  1.0  0.7458
  C  C20  1  0.592000  0.114400  0.399500  1.0  0.6774
  C  C21  1  0.671700  0.341800  0.111900  1.0  0.7716
  C  C22  1  0.395300  0.355600  0.037300  1.0  0.7044
  C  C23  1  0.089800  0.675500  0.237700  1.0  -0.1016
  C  C24  1  0.963600  0.669900  0.201800  1.0  -0.0004
  C  C25  1  0.882400  0.722600  0.254900  1.0  0.0023
  C  C26  1  0.921500  0.782800  0.341000  1.0  -0.0951
  C  C27  1  0.048600  0.789300  0.375100  1.0  -0.0133
  C  C28  1  0.130000  0.735200  0.325600  1.0  0.0042
  C  C29  1  0.185000  0.621800  0.184100  1.0  0.7465
  C  C30  1  0.908000  0.614400  0.100500  1.0  0.6753
  C  C31  1  0.828300  0.841800  0.388100  1.0  0.7706
  C  C32  1  0.104700  0.855600  0.462700  1.0  0.7041
  C  C33  1  0.589800  0.824500  0.737700  1.0  -0.1009
  C  C34  1  0.463600  0.830100  0.701800  1.0  0.0
  C  C35  1  0.382400  0.777400  0.754900  1.0  0.0026
  C  C36  1  0.421500  0.717200  0.841000  1.0  -0.0951
  C  C37  1  0.548600  0.710700  0.875100  1.0  -0.0133
  C  C38  1  0.630000  0.764800  0.825600  1.0  0.0045
  C  C39  1  0.685000  0.878200  0.684100  1.0  0.7467
  C  C40  1  0.408000  0.885600  0.600500  1.0  0.6762
  C  C41  1  0.328300  0.658200  0.888100  1.0  0.7707
  C  C42  1  0.604700  0.644400  0.962700  1.0  0.7036
  C  C43  1  0.910200  0.324500  0.762300  1.0  -0.1019
  C  C44  1  0.036400  0.330100  0.798200  1.0  -0.0002
  C  C45  1  0.117600  0.277400  0.745100  1.0  0.0043
  C  C46  1  0.078500  0.217200  0.659000  1.0  -0.0959
  C  C47  1  0.951400  0.210700  0.624900  1.0  -0.014
  C  C48  1  0.870000  0.264800  0.674400  1.0  -0.0002
  C  C49  1  0.815000  0.378200  0.815900  1.0  0.7458
  C  C50  1  0.092000  0.385600  0.899500  1.0  0.6779
  C  C51  1  0.171700  0.158200  0.611900  1.0  0.7712
  C  C52  1  0.895300  0.144400  0.537300  1.0  0.704
  O  O53  1  0.357700  0.062100  0.387600  1.0  -0.5485
  O  O54  1  0.204500  0.137700  0.290800  1.0  -0.4827
  O  O55  1  0.635600  0.039700  0.373600  1.0  -0.5165
  O  O56  1  0.600900  0.147400  0.497100  1.0  -0.479
  O  O57  1  0.630600  0.412000  0.063000  1.0  -0.5392
  O  O58  1  0.781400  0.321000  0.123600  1.0  -0.4591
  O  O59  1  0.357500  0.425900  0.083800  1.0  -0.5645
  O  O60  1  0.381800  0.337400  0.934000  1.0  -0.4711
  O  O61  1  0.142300  0.562100  0.112400  1.0  -0.5479
  O  O62  1  0.295500  0.637700  0.209200  1.0  -0.4786
  O  O63  1  0.864400  0.539700  0.126400  1.0  -0.5168
  O  O64  1  0.899100  0.647400  0.002900  1.0  -0.4756
  O  O65  1  0.869400  0.912000  0.437000  1.0  -0.5384
  O  O66  1  0.718600  0.821000  0.376400  1.0  -0.4605
  O  O67  1  0.142500  0.925900  0.416200  1.0  -0.5655
  O  O68  1  0.118200  0.837400  0.566000  1.0  -0.4746
  O  O69  1  0.642300  0.937900  0.612400  1.0  -0.549
  O  O70  1  0.795500  0.862300  0.709200  1.0  -0.4785
  O  O71  1  0.364400  0.960300  0.626400  1.0  -0.5155
  O  O72  1  0.399100  0.852600  0.502900  1.0  -0.4764
  O  O73  1  0.369400  0.588000  0.937000  1.0  -0.5369
  O  O74  1  0.218600  0.679000  0.876400  1.0  -0.4606
  O  O75  1  0.642500  0.574100  0.916200  1.0  -0.5649
  O  O76  1  0.618200  0.662600  0.066000  1.0  -0.4749
  O  O77  1  0.857700  0.437900  0.887600  1.0  -0.5495
  O  O78  1  0.704500  0.362300  0.790800  1.0  -0.4822
  O  O79  1  0.135600  0.460300  0.873600  1.0  -0.5164
  O  O80  1  0.100900  0.352600  0.997100  1.0  -0.4787
  O  O81  1  0.130600  0.088000  0.563000  1.0  -0.5375
  O  O82  1  0.281400  0.179000  0.623600  1.0  -0.4588
  O  O83  1  0.857500  0.074100  0.583800  1.0  -0.5655
  O  O84  1  0.881800  0.162600  0.434000  1.0  -0.4706
