# generated using pymatgen
data_CoH2(C5O4)2
_symmetry_space_group_name_H-M   'P 1'
_cell_length_a   10.65920000
_cell_length_b   15.68970000
_cell_length_c   11.40880000
_cell_angle_alpha   90.00000000
_cell_angle_beta   90.10100000
_cell_angle_gamma   90.00000000
_symmetry_Int_Tables_number   1
_chemical_formula_structural   CoH2(C5O4)2
_chemical_formula_sum   'Co4 H8 C40 O32'
_cell_volume   1908.00075719
_cell_formula_units_Z   4
loop_
 _symmetry_equiv_pos_site_id
 _symmetry_equiv_pos_as_xyz
  1  'x, y, z'
loop_
 _atom_site_type_symbol
 _atom_site_label
 _atom_site_symmetry_multiplicity
 _atom_site_fract_x
 _atom_site_fract_y
 _atom_site_fract_z
 _atom_site_occupancy
 _atom_site_charge
  Co  Co1  1  0.000000  0.002880  0.250000  1.0  1.0069
  Co  Co2  1  0.500000  0.502880  0.250000  1.0  1.0069
  Co  Co3  1  0.000000  0.997120  0.750000  1.0  1.0066
  Co  Co4  1  0.500000  0.497120  0.750000  1.0  1.0066
  H  H5  1  0.699500  0.744900  0.300100  1.0  0.1705
  H  H6  1  0.199500  0.244900  0.300100  1.0  0.1705
  H  H7  1  0.300500  0.744900  0.199900  1.0  0.169
  H  H8  1  0.800500  0.244900  0.199900  1.0  0.169
  H  H9  1  0.300500  0.255100  0.699900  1.0  0.1697
  H  H10  1  0.800500  0.755100  0.699900  1.0  0.1697
  H  H11  1  0.699500  0.255100  0.800100  1.0  0.1712
  H  H12  1  0.199500  0.755100  0.800100  1.0  0.1712
  C  C13  1  0.800500  0.810240  0.422180  1.0  -0.0949
  C  C14  1  0.831500  0.813330  0.541770  1.0  0.0031
  C  C15  1  0.719700  0.746780  0.382990  1.0  -0.0278
  C  C16  1  0.850400  0.873310  0.334540  1.0  0.7464
  C  C17  1  0.922700  0.875200  0.596590  1.0  0.7191
  C  C18  1  0.300500  0.310240  0.422180  1.0  -0.0949
  C  C19  1  0.331500  0.313330  0.541770  1.0  0.0031
  C  C20  1  0.219700  0.246780  0.382990  1.0  -0.0278
  C  C21  1  0.350400  0.373310  0.334540  1.0  0.7464
  C  C22  1  0.422700  0.375200  0.596590  1.0  0.7191
  C  C23  1  0.199500  0.810240  0.077820  1.0  -0.0957
  C  C24  1  0.168500  0.813330  0.958230  1.0  0.003
  C  C25  1  0.280300  0.746780  0.117010  1.0  -0.0282
  C  C26  1  0.149600  0.873310  0.165460  1.0  0.7477
  C  C27  1  0.077300  0.875200  0.903410  1.0  0.7172
  C  C28  1  0.699500  0.310240  0.077820  1.0  -0.0957
  C  C29  1  0.668500  0.313330  0.958230  1.0  0.003
  C  C30  1  0.780300  0.246780  0.117010  1.0  -0.0282
  C  C31  1  0.649600  0.373310  0.165460  1.0  0.7477
  C  C32  1  0.577300  0.375200  0.903410  1.0  0.7172
  C  C33  1  0.199500  0.189760  0.577820  1.0  -0.0953
  C  C34  1  0.168500  0.186670  0.458230  1.0  0.0031
  C  C35  1  0.280300  0.253220  0.617010  1.0  -0.0283
  C  C36  1  0.149600  0.126690  0.665460  1.0  0.7481
  C  C37  1  0.077300  0.124800  0.403410  1.0  0.717
  C  C38  1  0.699500  0.689760  0.577820  1.0  -0.0953
  C  C39  1  0.668500  0.686670  0.458230  1.0  0.0031
  C  C40  1  0.780300  0.753220  0.617010  1.0  -0.0283
  C  C41  1  0.649600  0.626690  0.665460  1.0  0.7481
  C  C42  1  0.577300  0.624800  0.403410  1.0  0.717
  C  C43  1  0.800500  0.189760  0.922180  1.0  -0.0947
  C  C44  1  0.831500  0.186670  0.041770  1.0  0.0034
  C  C45  1  0.719700  0.253220  0.882990  1.0  -0.0279
  C  C46  1  0.850400  0.126690  0.834540  1.0  0.7464
  C  C47  1  0.922700  0.124800  0.096590  1.0  0.7181
  C  C48  1  0.300500  0.689760  0.922180  1.0  -0.0947
  C  C49  1  0.331500  0.686670  0.041770  1.0  0.0034
  C  C50  1  0.219700  0.753220  0.882990  1.0  -0.0279
  C  C51  1  0.350400  0.626690  0.834540  1.0  0.7464
  C  C52  1  0.422700  0.624800  0.096590  1.0  0.7181
  O  O53  1  0.906030  0.938840  0.374200  1.0  -0.5357
  O  O54  1  0.833910  0.859780  0.228250  1.0  -0.471
  O  O55  1  0.873750  0.936110  0.654260  1.0  -0.534
  O  O56  1  0.036450  0.859520  0.592060  1.0  -0.4812
  O  O57  1  0.406030  0.438840  0.374200  1.0  -0.5357
  O  O58  1  0.333910  0.359780  0.228250  1.0  -0.471
  O  O59  1  0.373750  0.436110  0.654260  1.0  -0.534
  O  O60  1  0.536450  0.359520  0.592060  1.0  -0.4812
  O  O61  1  0.093970  0.938840  0.125800  1.0  -0.536
  O  O62  1  0.166090  0.859780  0.271750  1.0  -0.4712
  O  O63  1  0.126250  0.936110  0.845740  1.0  -0.5325
  O  O64  1  0.963550  0.859520  0.907940  1.0  -0.479
  O  O65  1  0.593970  0.438840  0.125800  1.0  -0.536
  O  O66  1  0.666090  0.359780  0.271750  1.0  -0.4712
  O  O67  1  0.626250  0.436110  0.845740  1.0  -0.5325
  O  O68  1  0.463550  0.359520  0.907940  1.0  -0.479
  O  O69  1  0.093970  0.061160  0.625800  1.0  -0.5344
  O  O70  1  0.166090  0.140220  0.771750  1.0  -0.4708
  O  O71  1  0.126250  0.063890  0.345740  1.0  -0.5317
  O  O72  1  0.963550  0.140480  0.407940  1.0  -0.4789
  O  O73  1  0.593970  0.561160  0.625800  1.0  -0.5344
  O  O74  1  0.666090  0.640220  0.771750  1.0  -0.4708
  O  O75  1  0.626250  0.563890  0.345740  1.0  -0.5317
  O  O76  1  0.463550  0.640480  0.407940  1.0  -0.4789
  O  O77  1  0.906030  0.061160  0.874200  1.0  -0.5341
  O  O78  1  0.833910  0.140220  0.728250  1.0  -0.4708
  O  O79  1  0.873750  0.063890  0.154260  1.0  -0.5326
  O  O80  1  0.036450  0.140480  0.092060  1.0  -0.4798
  O  O81  1  0.406030  0.561160  0.874200  1.0  -0.5341
  O  O82  1  0.333910  0.640220  0.728250  1.0  -0.4708
  O  O83  1  0.373750  0.563890  0.154260  1.0  -0.5326
  O  O84  1  0.536450  0.640480  0.092060  1.0  -0.4798
