# generated using pymatgen
data_Mn2Nb(CN)8
_symmetry_space_group_name_H-M   'P 1'
_cell_length_a   9.63550000
_cell_length_b   13.99670000
_cell_length_c   14.17400000
_cell_angle_alpha   90.00000000
_cell_angle_beta   96.17400000
_cell_angle_gamma   90.00000000
_symmetry_Int_Tables_number   1
_chemical_formula_structural   Mn2Nb(CN)8
_chemical_formula_sum   'Mn8 Nb4 C32 N32'
_cell_volume   1900.49197657
_cell_formula_units_Z   4
loop_
 _symmetry_equiv_pos_site_id
 _symmetry_equiv_pos_as_xyz
  1  'x, y, z'
loop_
 _atom_site_type_symbol
 _atom_site_label
 _atom_site_symmetry_multiplicity
 _atom_site_fract_x
 _atom_site_fract_y
 _atom_site_fract_z
 _atom_site_occupancy
 _atom_site_charge
  Mn  Mn1  1  0.646800  0.785400  0.006700  1.0  1.1098
  Mn  Mn2  1  0.163000  0.883600  0.339400  1.0  1.0555
  Mn  Mn3  1  0.353200  0.285400  0.493300  1.0  1.1093
  Mn  Mn4  1  0.837000  0.383600  0.160600  1.0  1.0566
  Mn  Mn5  1  0.353200  0.214600  0.993300  1.0  1.1095
  Mn  Mn6  1  0.837000  0.116400  0.660600  1.0  1.0544
  Mn  Mn7  1  0.646800  0.714600  0.506700  1.0  1.1104
  Mn  Mn8  1  0.163000  0.616400  0.839400  1.0  1.0553
  Nb  Nb9  1  0.338700  0.950500  0.706100  1.0  0.2831
  Nb  Nb10  1  0.661300  0.450500  0.793900  1.0  0.2833
  Nb  Nb11  1  0.661300  0.049500  0.293900  1.0  0.283
  Nb  Nb12  1  0.338700  0.549500  0.206100  1.0  0.2825
  C  C13  1  0.474100  0.875400  0.821900  1.0  0.1486
  C  C14  1  0.255200  0.905000  0.559400  1.0  0.1236
  C  C15  1  0.117000  0.999100  0.712600  1.0  0.1196
  C  C16  1  0.485500  0.649200  0.141000  1.0  0.1327
  C  C17  1  0.557100  0.008200  0.709600  1.0  0.1297
  C  C18  1  0.667600  0.947200  0.172400  1.0  0.1306
  C  C19  1  0.681100  0.586500  0.877300  1.0  0.1065
  C  C20  1  0.234700  0.820600  0.759400  1.0  0.1159
  C  C21  1  0.525900  0.375400  0.678100  1.0  0.1484
  C  C22  1  0.744800  0.405000  0.940600  1.0  0.123
  C  C23  1  0.883000  0.499100  0.787400  1.0  0.1207
  C  C24  1  0.514500  0.149200  0.359000  1.0  0.1334
  C  C25  1  0.442900  0.508200  0.790400  1.0  0.1297
  C  C26  1  0.332400  0.447200  0.327600  1.0  0.1288
  C  C27  1  0.318900  0.086500  0.622700  1.0  0.1069
  C  C28  1  0.765300  0.320600  0.740600  1.0  0.1156
  C  C29  1  0.525900  0.124600  0.178100  1.0  0.1482
  C  C30  1  0.744800  0.095000  0.440600  1.0  0.1224
  C  C31  1  0.883000  0.000900  0.287400  1.0  0.1205
  C  C32  1  0.514500  0.350800  0.859000  1.0  0.1339
  C  C33  1  0.442900  0.991800  0.290400  1.0  0.1298
  C  C34  1  0.332400  0.052800  0.827600  1.0  0.1308
  C  C35  1  0.318900  0.413500  0.122700  1.0  0.1076
  C  C36  1  0.765300  0.179400  0.240600  1.0  0.1155
  C  C37  1  0.474100  0.624600  0.321900  1.0  0.1485
  C  C38  1  0.255200  0.595000  0.059400  1.0  0.1244
  C  C39  1  0.117000  0.500900  0.212600  1.0  0.1197
  C  C40  1  0.485500  0.850800  0.641000  1.0  0.133
  C  C41  1  0.557100  0.491800  0.209600  1.0  0.13
  C  C42  1  0.667600  0.552800  0.672400  1.0  0.1275
  C  C43  1  0.681100  0.913500  0.377300  1.0  0.1076
  C  C44  1  0.234700  0.679400  0.259400  1.0  0.1162
  N  N45  1  0.214000  0.885300  0.483200  1.0  -0.4288
  N  N46  1  0.541900  0.839000  0.882400  1.0  -0.4363
  N  N47  1  0.005000  0.026200  0.714700  1.0  -0.442
  N  N48  1  0.561900  0.697100  0.106300  1.0  -0.4274
  N  N49  1  0.665700  0.040200  0.704700  1.0  -0.4171
  N  N50  1  0.670200  0.896500  0.109600  1.0  -0.4395
  N  N51  1  0.690600  0.654700  0.921900  1.0  -0.4397
  N  N52  1  0.188800  0.753000  0.789100  1.0  -0.4253
  N  N53  1  0.786000  0.385300  0.016800  1.0  -0.4288
  N  N54  1  0.458100  0.339000  0.617600  1.0  -0.4363
  N  N55  1  0.995000  0.526200  0.785300  1.0  -0.4446
  N  N56  1  0.438100  0.197100  0.393700  1.0  -0.4276
  N  N57  1  0.334300  0.540200  0.795300  1.0  -0.4176
  N  N58  1  0.329800  0.396500  0.390400  1.0  -0.4385
  N  N59  1  0.309400  0.154700  0.578100  1.0  -0.4369
  N  N60  1  0.811200  0.253000  0.710900  1.0  -0.4249
  N  N61  1  0.786000  0.114700  0.516800  1.0  -0.4298
  N  N62  1  0.458100  0.161000  0.117600  1.0  -0.4361
  N  N63  1  0.995000  0.973800  0.285300  1.0  -0.4446
  N  N64  1  0.438100  0.302900  0.893700  1.0  -0.4271
  N  N65  1  0.334300  0.959800  0.295300  1.0  -0.4177
  N  N66  1  0.329800  0.103500  0.890400  1.0  -0.4386
  N  N67  1  0.309400  0.345300  0.078100  1.0  -0.4362
  N  N68  1  0.811200  0.247000  0.210900  1.0  -0.4258
  N  N69  1  0.214000  0.614700  0.983200  1.0  -0.4294
  N  N70  1  0.541900  0.661000  0.382400  1.0  -0.4364
  N  N71  1  0.005000  0.473800  0.214700  1.0  -0.442
  N  N72  1  0.561900  0.802900  0.606300  1.0  -0.4272
  N  N73  1  0.665700  0.459800  0.204700  1.0  -0.4172
  N  N74  1  0.670200  0.603500  0.609600  1.0  -0.4387
  N  N75  1  0.690600  0.845300  0.421900  1.0  -0.438
  N  N76  1  0.188800  0.747000  0.289100  1.0  -0.4267
