# generated using pymatgen
data_Mn2NbH4(C6N5)2
_symmetry_space_group_name_H-M   'P 1'
_cell_length_a   10.60520000
_cell_length_b   14.38690000
_cell_length_c   15.57510000
_cell_angle_alpha   90.00000000
_cell_angle_beta   90.00000000
_cell_angle_gamma   108.28500000
_symmetry_Int_Tables_number   1
_chemical_formula_structural   Mn2NbH4(C6N5)2
_chemical_formula_sum   'Mn8 Nb4 H16 C48 N40'
_cell_volume   2256.39640479
_cell_formula_units_Z   4
loop_
 _symmetry_equiv_pos_site_id
 _symmetry_equiv_pos_as_xyz
  1  'x, y, z'
loop_
 _atom_site_type_symbol
 _atom_site_label
 _atom_site_symmetry_multiplicity
 _atom_site_fract_x
 _atom_site_fract_y
 _atom_site_fract_z
 _atom_site_occupancy
 _atom_site_charge
  Mn  Mn1  1  0.586650  0.016780  0.224440  1.0  1.1847
  Mn  Mn2  1  0.892800  0.697190  0.948650  1.0  1.1638
  Mn  Mn3  1  0.413350  0.483220  0.724440  1.0  1.1843
  Mn  Mn4  1  0.107200  0.802810  0.448650  1.0  1.1623
  Mn  Mn5  1  0.413350  0.983220  0.775560  1.0  1.1842
  Mn  Mn6  1  0.107200  0.302810  0.051350  1.0  1.1626
  Mn  Mn7  1  0.586650  0.516780  0.275560  1.0  1.1845
  Mn  Mn8  1  0.892800  0.197190  0.551350  1.0  1.1638
  Nb  Nb9  1  0.603950  0.304890  0.978720  1.0  0.2721
  Nb  Nb10  1  0.396050  0.195110  0.478720  1.0  0.2727
  Nb  Nb11  1  0.396050  0.695110  0.021280  1.0  0.2721
  Nb  Nb12  1  0.603950  0.804890  0.521280  1.0  0.2714
  H  H13  1  0.901600  0.840700  0.106400  1.0  0.0852
  H  H14  1  0.044000  0.968300  0.182700  1.0  0.1332
  H  H15  1  0.289300  0.003700  0.986500  1.0  0.0772
  H  H16  1  0.244600  0.054100  0.119900  1.0  0.1308
  H  H17  1  0.098400  0.659300  0.606400  1.0  0.0857
  H  H18  1  0.956000  0.531700  0.682700  1.0  0.1332
  H  H19  1  0.710700  0.496300  0.486500  1.0  0.078
  H  H20  1  0.755400  0.445900  0.619900  1.0  0.1314
  H  H21  1  0.098400  0.159300  0.893600  1.0  0.0847
  H  H22  1  0.956000  0.031700  0.817300  1.0  0.133
  H  H23  1  0.710700  0.996300  0.013500  1.0  0.0784
  H  H24  1  0.755400  0.945900  0.880100  1.0  0.1312
  H  H25  1  0.901600  0.340700  0.393600  1.0  0.0847
  H  H26  1  0.044000  0.468300  0.317300  1.0  0.133
  H  H27  1  0.289300  0.503700  0.513500  1.0  0.0776
  H  H28  1  0.244600  0.554100  0.380100  1.0  0.131
  C  C29  1  0.716090  0.460650  0.942370  1.0  0.1321
  C  C30  1  0.491830  0.166480  0.911460  1.0  0.1392
  C  C31  1  0.814220  0.328020  0.021680  1.0  0.1391
  C  C32  1  0.488450  0.351680  0.875670  1.0  0.1283
  C  C33  1  0.621530  0.388490  0.103050  1.0  0.1287
  C  C34  1  0.395840  0.275240  0.029110  1.0  0.1317
  C  C35  1  0.586860  0.184510  0.075530  1.0  0.1149
  C  C36  1  0.720720  0.286650  0.862490  1.0  0.0461
  C  C37  1  0.982900  0.875240  0.082080  1.0  0.1391
  C  C38  1  0.067200  0.951950  0.128490  1.0  -0.074
  C  C39  1  0.208200  0.971040  0.011990  1.0  0.1625
  C  C40  1  0.183700  0.001710  0.092260  1.0  -0.0708
  C  C41  1  0.283910  0.039350  0.442370  1.0  0.1325
  C  C42  1  0.508170  0.333520  0.411460  1.0  0.139
  C  C43  1  0.185780  0.171980  0.521680  1.0  0.14
  C  C44  1  0.511550  0.148320  0.375670  1.0  0.1284
  C  C45  1  0.378470  0.111510  0.603050  1.0  0.1288
  C  C46  1  0.604160  0.224760  0.529110  1.0  0.1313
  C  C47  1  0.413140  0.315490  0.575530  1.0  0.115
  C  C48  1  0.279280  0.213350  0.362490  1.0  0.0458
  C  C49  1  0.017100  0.624760  0.582080  1.0  0.1382
  C  C50  1  0.932800  0.548050  0.628490  1.0  -0.0726
  C  C51  1  0.791800  0.528960  0.511990  1.0  0.1625
  C  C52  1  0.816300  0.498290  0.592260  1.0  -0.0711
  C  C53  1  0.283910  0.539350  0.057630  1.0  0.1318
  C  C54  1  0.508170  0.833520  0.088540  1.0  0.1387
  C  C55  1  0.185780  0.671980  0.978320  1.0  0.1403
  C  C56  1  0.511550  0.648320  0.124330  1.0  0.1291
  C  C57  1  0.378470  0.611510  0.896950  1.0  0.1287
  C  C58  1  0.604160  0.724760  0.970890  1.0  0.1315
  C  C59  1  0.413140  0.815490  0.924470  1.0  0.1145
  C  C60  1  0.279280  0.713350  0.137510  1.0  0.046
  C  C61  1  0.017100  0.124760  0.917920  1.0  0.1381
  C  C62  1  0.932800  0.048050  0.871510  1.0  -0.0728
  C  C63  1  0.791800  0.028960  0.988010  1.0  0.1623
  C  C64  1  0.816300  0.998290  0.907740  1.0  -0.0719
  C  C65  1  0.716090  0.960650  0.557630  1.0  0.1311
  C  C66  1  0.491830  0.666480  0.588540  1.0  0.1386
  C  C67  1  0.814220  0.828020  0.478320  1.0  0.1394
  C  C68  1  0.488450  0.851680  0.624330  1.0  0.129
  C  C69  1  0.621530  0.888490  0.396950  1.0  0.1277
  C  C70  1  0.395840  0.775240  0.470890  1.0  0.132
  C  C71  1  0.586860  0.684510  0.424470  1.0  0.1143
  C  C72  1  0.720720  0.786650  0.637510  1.0  0.0465
  C  C73  1  0.982900  0.375240  0.417920  1.0  0.1383
  C  C74  1  0.067200  0.451950  0.371510  1.0  -0.0732
  C  C75  1  0.208200  0.471040  0.488010  1.0  0.1629
  C  C76  1  0.183700  0.501710  0.407740  1.0  -0.072
  N  N77  1  0.774490  0.539310  0.921790  1.0  -0.4688
  N  N78  1  0.630960  0.430550  0.166640  1.0  -0.4643
  N  N79  1  0.576230  0.123670  0.124970  1.0  -0.4595
  N  N80  1  0.440780  0.098630  0.870690  1.0  -0.4746
  N  N81  1  0.922360  0.340110  0.040770  1.0  -0.4696
  N  N82  1  0.429840  0.377460  0.824200  1.0  -0.4635
  N  N83  1  0.011580  0.848450  0.005470  1.0  -0.2237
  N  N84  1  0.289870  0.264520  0.051870  1.0  -0.4754
  N  N85  1  0.782110  0.276940  0.804850  1.0  -0.4364
  N  N86  1  0.125570  0.899110  0.968730  1.0  -0.2274
  N  N87  1  0.225510  0.960690  0.421790  1.0  -0.4662
  N  N88  1  0.369040  0.069450  0.666667  1.0  -0.4625
  N  N89  1  0.423770  0.376330  0.624970  1.0  -0.4598
  N  N90  1  0.559220  0.401370  0.370690  1.0  -0.4746
  N  N91  1  0.077640  0.159890  0.540770  1.0  -0.4678
  N  N92  1  0.570160  0.122540  0.324200  1.0  -0.4645
  N  N93  1  0.988420  0.651550  0.505470  1.0  -0.2246
  N  N94  1  0.710130  0.235480  0.551870  1.0  -0.4749
  N  N95  1  0.217890  0.223060  0.304850  1.0  -0.4377
  N  N96  1  0.874430  0.600890  0.468730  1.0  -0.2274
  N  N97  1  0.225510  0.460690  0.078210  1.0  -0.466
  N  N98  1  0.369040  0.569450  0.833360  1.0  -0.4637
  N  N99  1  0.423770  0.876330  0.875030  1.0  -0.4606
  N  N100  1  0.559220  0.901370  0.129310  1.0  -0.4757
  N  N101  1  0.077640  0.659890  0.959230  1.0  -0.4686
  N  N102  1  0.570160  0.622540  0.175800  1.0  -0.4651
  N  N103  1  0.988420  0.151550  0.994530  1.0  -0.2253
  N  N104  1  0.710130  0.735480  0.948130  1.0  -0.4754
  N  N105  1  0.217890  0.723060  0.195150  1.0  -0.4369
  N  N106  1  0.874430  0.100890  0.031270  1.0  -0.2278
  N  N107  1  0.774490  0.039310  0.578210  1.0  -0.4691
  N  N108  1  0.630960  0.930550  0.333333  1.0  -0.463
  N  N109  1  0.576230  0.623670  0.375030  1.0  -0.4601
  N  N110  1  0.440780  0.598630  0.629310  1.0  -0.4749
  N  N111  1  0.922360  0.840110  0.459230  1.0  -0.469
  N  N112  1  0.429840  0.877460  0.675800  1.0  -0.4647
  N  N113  1  0.011580  0.348450  0.494530  1.0  -0.2242
  N  N114  1  0.289870  0.764520  0.448130  1.0  -0.4755
  N  N115  1  0.782110  0.776940  0.695150  1.0  -0.4363
  N  N116  1  0.125570  0.399110  0.531270  1.0  -0.2273
