# generated using pymatgen
data_CdH14C24(NO2)2
_symmetry_space_group_name_H-M   'P 1'
_cell_length_a   26.86500000
_cell_length_b   12.93700000
_cell_length_c   23.85800000
_cell_angle_alpha   90.00000000
_cell_angle_beta   109.57100000
_cell_angle_gamma   90.00000000
_symmetry_Int_Tables_number   1
_chemical_formula_structural   CdH14C24(NO2)2
_chemical_formula_sum   'Cd8 H112 C192 N16 O32'
_cell_volume   7812.86027291
_cell_formula_units_Z   8
loop_
 _symmetry_equiv_pos_site_id
 _symmetry_equiv_pos_as_xyz
  1  'x, y, z'
loop_
 _atom_site_type_symbol
 _atom_site_label
 _atom_site_symmetry_multiplicity
 _atom_site_fract_x
 _atom_site_fract_y
 _atom_site_fract_z
 _atom_site_occupancy
 _atom_site_charge
  Cd  Cd1  1  0.152250  0.967530  0.206710  1.0  0.877
  Cd  Cd2  1  0.652250  0.467530  0.206710  1.0  0.877
  Cd  Cd3  1  0.152250  0.032470  0.706710  1.0  0.8788
  Cd  Cd4  1  0.652250  0.532470  0.706710  1.0  0.8788
  Cd  Cd5  1  0.847750  0.967530  0.293290  1.0  0.877
  Cd  Cd6  1  0.347750  0.467530  0.293290  1.0  0.877
  Cd  Cd7  1  0.847750  0.032470  0.793290  1.0  0.8791
  Cd  Cd8  1  0.347750  0.532470  0.793290  1.0  0.8791
  H  H9  1  0.749600  0.665700  0.782600  1.0  0.0853
  H  H10  1  0.748800  0.373500  0.742300  1.0  0.0831
  H  H11  1  0.911900  0.624600  0.908300  1.0  0.1131
  H  H12  1  0.978100  0.230400  0.839200  1.0  0.1092
  H  H13  1  0.082300  0.560400  0.001700  1.0  0.1073
  H  H14  1  0.959800  0.757300  0.953700  1.0  0.1176
  H  H15  1  0.922300  0.381800  0.808600  1.0  0.109
  H  H16  1  0.129000  0.673800  0.075300  1.0  0.1037
  H  H17  1  0.837200  0.661100  0.834200  1.0  0.1212
  H  H18  1  0.837100  0.359700  0.794400  1.0  0.1147
  H  H19  1  0.006700  0.871200  0.026100  1.0  0.1095
  H  H20  1  0.086300  0.453600  0.858700  1.0  0.116
  H  H21  1  0.135600  0.343000  0.822100  1.0  0.1076
  H  H22  1  0.029600  0.120000  0.806500  1.0  0.1046
  H  H23  1  0.249600  0.165700  0.782600  1.0  0.0853
  H  H24  1  0.248800  0.873500  0.742300  1.0  0.0831
  H  H25  1  0.411900  0.124600  0.908300  1.0  0.1131
  H  H26  1  0.478100  0.730400  0.839200  1.0  0.1092
  H  H27  1  0.582300  0.060400  0.001700  1.0  0.1073
  H  H28  1  0.459800  0.257300  0.953700  1.0  0.1176
  H  H29  1  0.422300  0.881800  0.808600  1.0  0.109
  H  H30  1  0.629000  0.173800  0.075300  1.0  0.1037
  H  H31  1  0.337200  0.161100  0.834200  1.0  0.1212
  H  H32  1  0.337100  0.859700  0.794400  1.0  0.1147
  H  H33  1  0.506700  0.371200  0.026100  1.0  0.1095
  H  H34  1  0.586300  0.953600  0.858700  1.0  0.116
  H  H35  1  0.635600  0.843000  0.822100  1.0  0.1076
  H  H36  1  0.529600  0.620000  0.806500  1.0  0.1046
  H  H37  1  0.749600  0.334300  0.282600  1.0  0.0853
  H  H38  1  0.748800  0.626500  0.242300  1.0  0.0828
  H  H39  1  0.911900  0.375400  0.408300  1.0  0.1136
  H  H40  1  0.978100  0.769600  0.339200  1.0  0.1093
  H  H41  1  0.082300  0.439600  0.501700  1.0  0.1066
  H  H42  1  0.959800  0.242700  0.453700  1.0  0.1179
  H  H43  1  0.922300  0.618200  0.308600  1.0  0.1087
  H  H44  1  0.129000  0.326200  0.575300  1.0  0.1041
  H  H45  1  0.837200  0.338900  0.334200  1.0  0.1216
  H  H46  1  0.837100  0.640300  0.294400  1.0  0.1152
  H  H47  1  0.006700  0.128800  0.526100  1.0  0.1088
  H  H48  1  0.086300  0.546400  0.358700  1.0  0.1164
  H  H49  1  0.135600  0.657000  0.322100  1.0  0.1074
  H  H50  1  0.029600  0.880000  0.306500  1.0  0.1046
  H  H51  1  0.249600  0.834300  0.282600  1.0  0.0853
  H  H52  1  0.248800  0.126500  0.242300  1.0  0.0828
  H  H53  1  0.411900  0.875400  0.408300  1.0  0.1136
  H  H54  1  0.478100  0.269600  0.339200  1.0  0.1093
  H  H55  1  0.582300  0.939600  0.501700  1.0  0.1066
  H  H56  1  0.459800  0.742700  0.453700  1.0  0.1179
  H  H57  1  0.422300  0.118200  0.308600  1.0  0.1087
  H  H58  1  0.629000  0.826200  0.575300  1.0  0.1041
  H  H59  1  0.337200  0.838900  0.334200  1.0  0.1216
  H  H60  1  0.337100  0.140300  0.294400  1.0  0.1152
  H  H61  1  0.506700  0.628800  0.526100  1.0  0.1088
  H  H62  1  0.586300  0.046400  0.358700  1.0  0.1164
  H  H63  1  0.635600  0.157000  0.322100  1.0  0.1074
  H  H64  1  0.529600  0.380000  0.306500  1.0  0.1046
  H  H65  1  0.250400  0.665700  0.717400  1.0  0.0854
  H  H66  1  0.251200  0.373500  0.757700  1.0  0.0828
  H  H67  1  0.088100  0.624600  0.591700  1.0  0.1128
  H  H68  1  0.021900  0.230400  0.660800  1.0  0.1084
  H  H69  1  0.917700  0.560400  0.498300  1.0  0.1068
  H  H70  1  0.040200  0.757300  0.546300  1.0  0.1181
  H  H71  1  0.077700  0.381800  0.691400  1.0  0.1083
  H  H72  1  0.871000  0.673800  0.424700  1.0  0.104
  H  H73  1  0.162800  0.661100  0.665800  1.0  0.1212
  H  H74  1  0.162900  0.359700  0.705600  1.0  0.115
  H  H75  1  0.993300  0.871200  0.473900  1.0  0.1094
  H  H76  1  0.913700  0.453600  0.641300  1.0  0.1162
  H  H77  1  0.864400  0.343000  0.677900  1.0  0.107
  H  H78  1  0.970400  0.120000  0.693500  1.0  0.1044
  H  H79  1  0.750400  0.165700  0.717400  1.0  0.0854
  H  H80  1  0.751200  0.873500  0.757700  1.0  0.0828
  H  H81  1  0.588100  0.124600  0.591700  1.0  0.1128
  H  H82  1  0.521900  0.730400  0.660800  1.0  0.1084
  H  H83  1  0.417700  0.060400  0.498300  1.0  0.1068
  H  H84  1  0.540200  0.257300  0.546300  1.0  0.1181
  H  H85  1  0.577700  0.881800  0.691400  1.0  0.1083
  H  H86  1  0.371000  0.173800  0.424700  1.0  0.104
  H  H87  1  0.662800  0.161100  0.665800  1.0  0.1212
  H  H88  1  0.662900  0.859700  0.705600  1.0  0.115
  H  H89  1  0.493300  0.371200  0.473900  1.0  0.1094
  H  H90  1  0.413700  0.953600  0.641300  1.0  0.1162
  H  H91  1  0.364400  0.843000  0.677900  1.0  0.107
  H  H92  1  0.470400  0.620000  0.693500  1.0  0.1044
  H  H93  1  0.250400  0.334300  0.217400  1.0  0.0853
  H  H94  1  0.251200  0.626500  0.257700  1.0  0.0823
  H  H95  1  0.088100  0.375400  0.091700  1.0  0.1137
  H  H96  1  0.021900  0.769600  0.160800  1.0  0.1088
  H  H97  1  0.917700  0.439600  0.998300  1.0  0.1068
  H  H98  1  0.040200  0.242700  0.046300  1.0  0.1184
  H  H99  1  0.077700  0.618200  0.191400  1.0  0.1081
  H  H100  1  0.871000  0.326200  0.924700  1.0  0.1037
  H  H101  1  0.162800  0.338900  0.165800  1.0  0.1213
  H  H102  1  0.162900  0.640300  0.205600  1.0  0.1153
  H  H103  1  0.993300  0.128800  0.973900  1.0  0.1094
  H  H104  1  0.913700  0.546400  0.141300  1.0  0.1158
  H  H105  1  0.864400  0.657000  0.177900  1.0  0.1069
  H  H106  1  0.970400  0.880000  0.193500  1.0  0.1049
  H  H107  1  0.750400  0.834300  0.217400  1.0  0.0853
  H  H108  1  0.751200  0.126500  0.257700  1.0  0.0823
  H  H109  1  0.588100  0.875400  0.091700  1.0  0.1137
  H  H110  1  0.521900  0.269600  0.160800  1.0  0.1088
  H  H111  1  0.417700  0.939600  0.998300  1.0  0.1068
  H  H112  1  0.540200  0.742700  0.046300  1.0  0.1184
  H  H113  1  0.577700  0.118200  0.191400  1.0  0.1081
  H  H114  1  0.371000  0.826200  0.924700  1.0  0.1037
  H  H115  1  0.662800  0.838900  0.165800  1.0  0.1213
  H  H116  1  0.662900  0.140300  0.205600  1.0  0.1153
  H  H117  1  0.493300  0.628800  0.973900  1.0  0.1094
  H  H118  1  0.413700  0.046400  0.141300  1.0  0.1158
  H  H119  1  0.364400  0.157000  0.177900  1.0  0.1069
  H  H120  1  0.470400  0.380000  0.193500  1.0  0.1049
  C  C121  1  0.115500  0.153600  0.778300  1.0  0.6797
  C  C122  1  0.767700  0.603500  0.784900  1.0  0.1695
  C  C123  1  0.767000  0.431700  0.761300  1.0  0.1353
  C  C124  1  0.015550  0.645500  0.970500  1.0  -0.1014
  C  C125  1  0.986280  0.570800  0.923600  1.0  0.2205
  C  C126  1  0.906050  0.505000  0.851700  1.0  0.0963
  C  C127  1  0.931440  0.575100  0.896500  1.0  -0.1001
  C  C128  1  0.102300  0.855300  0.107600  1.0  0.6739
  C  C129  1  0.009700  0.253700  0.835700  1.0  -0.1256
  C  C130  1  0.066800  0.622200  0.006900  1.0  -0.0213
  C  C131  1  0.993700  0.740100  0.978200  1.0  -0.1039
  C  C132  1  0.937440  0.431200  0.837700  1.0  -0.1311
  C  C133  1  0.095000  0.690500  0.050900  1.0  -0.0151
  C  C134  1  0.991640  0.431600  0.867400  1.0  0.2185
  C  C135  1  0.848520  0.510000  0.820700  1.0  0.0823
  C  C136  1  0.072600  0.783300  0.058700  1.0  -0.1485
  C  C137  1  0.820100  0.601300  0.816000  1.0  -0.1875
  C  C138  1  0.820110  0.423000  0.792300  1.0  -0.2027
  C  C139  1  0.021700  0.808300  0.021500  1.0  -0.0469
  C  C140  1  0.086600  0.220700  0.809000  1.0  -0.1314
  C  C141  1  0.074200  0.387100  0.846800  1.0  -0.0756
  C  C142  1  0.026090  0.354700  0.850700  1.0  -0.0512
  C  C143  1  0.103800  0.320600  0.825400  1.0  -0.0151
  C  C144  1  0.040400  0.188000  0.815700  1.0  -0.0692
  C  C145  1  0.615500  0.653600  0.778300  1.0  0.6797
  C  C146  1  0.267700  0.103500  0.784900  1.0  0.1695
  C  C147  1  0.267000  0.931700  0.761300  1.0  0.1353
  C  C148  1  0.515550  0.145500  0.970500  1.0  -0.1014
  C  C149  1  0.486280  0.070800  0.923600  1.0  0.2205
  C  C150  1  0.406050  0.005000  0.851700  1.0  0.0963
  C  C151  1  0.431440  0.075100  0.896500  1.0  -0.1001
  C  C152  1  0.602300  0.355300  0.107600  1.0  0.6739
  C  C153  1  0.509700  0.753700  0.835700  1.0  -0.1256
  C  C154  1  0.566800  0.122200  0.006900  1.0  -0.0213
  C  C155  1  0.493700  0.240100  0.978200  1.0  -0.1039
  C  C156  1  0.437440  0.931200  0.837700  1.0  -0.1311
  C  C157  1  0.595000  0.190500  0.050900  1.0  -0.0151
  C  C158  1  0.491640  0.931600  0.867400  1.0  0.2185
  C  C159  1  0.348520  0.010000  0.820700  1.0  0.0823
  C  C160  1  0.572600  0.283300  0.058700  1.0  -0.1485
  C  C161  1  0.320100  0.101300  0.816000  1.0  -0.1875
  C  C162  1  0.320110  0.923000  0.792300  1.0  -0.2027
  C  C163  1  0.521700  0.308300  0.021500  1.0  -0.0469
  C  C164  1  0.586600  0.720700  0.809000  1.0  -0.1314
  C  C165  1  0.574200  0.887100  0.846800  1.0  -0.0756
  C  C166  1  0.526090  0.854700  0.850700  1.0  -0.0512
  C  C167  1  0.603800  0.820600  0.825400  1.0  -0.0151
  C  C168  1  0.540400  0.688000  0.815700  1.0  -0.0692
  C  C169  1  0.115500  0.846400  0.278300  1.0  0.6795
  C  C170  1  0.767700  0.396500  0.284900  1.0  0.1704
  C  C171  1  0.767000  0.568300  0.261300  1.0  0.136
  C  C172  1  0.015550  0.354500  0.470500  1.0  -0.101
  C  C173  1  0.986280  0.429200  0.423600  1.0  0.2208
  C  C174  1  0.906050  0.495000  0.351700  1.0  0.0962
  C  C175  1  0.931440  0.424900  0.396500  1.0  -0.0986
  C  C176  1  0.102300  0.144700  0.607600  1.0  0.6745
  C  C177  1  0.009700  0.746300  0.335700  1.0  -0.1256
  C  C178  1  0.066800  0.377800  0.506900  1.0  -0.021
  C  C179  1  0.993700  0.259900  0.478200  1.0  -0.1028
  C  C180  1  0.937440  0.568800  0.337700  1.0  -0.1308
  C  C181  1  0.095000  0.309500  0.550900  1.0  -0.015
  C  C182  1  0.991640  0.568400  0.367400  1.0  0.2184
  C  C183  1  0.848520  0.490000  0.320700  1.0  0.0829
  C  C184  1  0.072600  0.216700  0.558700  1.0  -0.1503
  C  C185  1  0.820100  0.398700  0.316000  1.0  -0.1861
  C  C186  1  0.820110  0.577000  0.292300  1.0  -0.2039
  C  C187  1  0.021700  0.191700  0.521500  1.0  -0.045
  C  C188  1  0.086600  0.779300  0.309000  1.0  -0.1323
  C  C189  1  0.074200  0.612900  0.346800  1.0  -0.0748
  C  C190  1  0.026090  0.645300  0.350700  1.0  -0.0516
  C  C191  1  0.103800  0.679400  0.325400  1.0  -0.0161
  C  C192  1  0.040400  0.812000  0.315700  1.0  -0.0691
  C  C193  1  0.615500  0.346400  0.278300  1.0  0.6795
  C  C194  1  0.267700  0.896500  0.284900  1.0  0.1704
  C  C195  1  0.267000  0.068300  0.261300  1.0  0.136
  C  C196  1  0.515550  0.854500  0.470500  1.0  -0.101
  C  C197  1  0.486280  0.929200  0.423600  1.0  0.2208
  C  C198  1  0.406050  0.995000  0.351700  1.0  0.0962
  C  C199  1  0.431440  0.924900  0.396500  1.0  -0.0986
  C  C200  1  0.602300  0.644700  0.607600  1.0  0.6745
  C  C201  1  0.509700  0.246300  0.335700  1.0  -0.1256
  C  C202  1  0.566800  0.877800  0.506900  1.0  -0.021
  C  C203  1  0.493700  0.759900  0.478200  1.0  -0.1028
  C  C204  1  0.437440  0.068800  0.337700  1.0  -0.1308
  C  C205  1  0.595000  0.809500  0.550900  1.0  -0.015
  C  C206  1  0.491640  0.068400  0.367400  1.0  0.2184
  C  C207  1  0.348520  0.990000  0.320700  1.0  0.0829
  C  C208  1  0.572600  0.716700  0.558700  1.0  -0.1503
  C  C209  1  0.320100  0.898700  0.316000  1.0  -0.1861
  C  C210  1  0.320110  0.077000  0.292300  1.0  -0.2039
  C  C211  1  0.521700  0.691700  0.521500  1.0  -0.045
  C  C212  1  0.586600  0.279300  0.309000  1.0  -0.1323
  C  C213  1  0.574200  0.112900  0.346800  1.0  -0.0748
  C  C214  1  0.526090  0.145300  0.350700  1.0  -0.0516
  C  C215  1  0.603800  0.179400  0.325400  1.0  -0.0161
  C  C216  1  0.540400  0.312000  0.315700  1.0  -0.0691
  C  C217  1  0.884500  0.153600  0.721700  1.0  0.6778
  C  C218  1  0.232300  0.603500  0.715100  1.0  0.1707
  C  C219  1  0.233000  0.431700  0.738700  1.0  0.1363
  C  C220  1  0.984450  0.645500  0.529500  1.0  -0.1001
  C  C221  1  0.013720  0.570800  0.576400  1.0  0.2197
  C  C222  1  0.093950  0.505000  0.648300  1.0  0.0964
  C  C223  1  0.068560  0.575100  0.603500  1.0  -0.0979
  C  C224  1  0.897700  0.855300  0.392400  1.0  0.6726
  C  C225  1  0.990300  0.253700  0.664300  1.0  -0.1279
  C  C226  1  0.933200  0.622200  0.493100  1.0  -0.0205
  C  C227  1  0.006300  0.740100  0.521800  1.0  -0.104
  C  C228  1  0.062560  0.431200  0.662300  1.0  -0.1301
  C  C229  1  0.905000  0.690500  0.449100  1.0  -0.0168
  C  C230  1  0.008360  0.431600  0.632600  1.0  0.2185
  C  C231  1  0.151480  0.510000  0.679300  1.0  0.0816
  C  C232  1  0.927400  0.783300  0.441300  1.0  -0.1484
  C  C233  1  0.179900  0.601300  0.684000  1.0  -0.1868
  C  C234  1  0.179890  0.423000  0.707700  1.0  -0.2012
  C  C235  1  0.978300  0.808300  0.478500  1.0  -0.0459
  C  C236  1  0.913400  0.220700  0.691000  1.0  -0.1315
  C  C237  1  0.925800  0.387100  0.653200  1.0  -0.0775
  C  C238  1  0.973910  0.354700  0.649300  1.0  -0.0511
  C  C239  1  0.896200  0.320600  0.674600  1.0  -0.019
  C  C240  1  0.959600  0.188000  0.684300  1.0  -0.0702
  C  C241  1  0.384500  0.653600  0.721700  1.0  0.6778
  C  C242  1  0.732300  0.103500  0.715100  1.0  0.1707
  C  C243  1  0.733000  0.931700  0.738700  1.0  0.1363
  C  C244  1  0.484450  0.145500  0.529500  1.0  -0.1001
  C  C245  1  0.513720  0.070800  0.576400  1.0  0.2197
  C  C246  1  0.593950  0.005000  0.648300  1.0  0.0964
  C  C247  1  0.568560  0.075100  0.603500  1.0  -0.0979
  C  C248  1  0.397700  0.355300  0.392400  1.0  0.6726
  C  C249  1  0.490300  0.753700  0.664300  1.0  -0.1279
  C  C250  1  0.433200  0.122200  0.493100  1.0  -0.0205
  C  C251  1  0.506300  0.240100  0.521800  1.0  -0.104
  C  C252  1  0.562560  0.931200  0.662300  1.0  -0.1301
  C  C253  1  0.405000  0.190500  0.449100  1.0  -0.0168
  C  C254  1  0.508360  0.931600  0.632600  1.0  0.2185
  C  C255  1  0.651480  0.010000  0.679300  1.0  0.0816
  C  C256  1  0.427400  0.283300  0.441300  1.0  -0.1484
  C  C257  1  0.679900  0.101300  0.684000  1.0  -0.1868
  C  C258  1  0.679890  0.923000  0.707700  1.0  -0.2012
  C  C259  1  0.478300  0.308300  0.478500  1.0  -0.0459
  C  C260  1  0.413400  0.720700  0.691000  1.0  -0.1315
  C  C261  1  0.425800  0.887100  0.653200  1.0  -0.0775
  C  C262  1  0.473910  0.854700  0.649300  1.0  -0.0511
  C  C263  1  0.396200  0.820600  0.674600  1.0  -0.019
  C  C264  1  0.459600  0.688000  0.684300  1.0  -0.0702
  C  C265  1  0.884500  0.846400  0.221700  1.0  0.6784
  C  C266  1  0.232300  0.396500  0.215100  1.0  0.1715
  C  C267  1  0.233000  0.568300  0.238700  1.0  0.1362
  C  C268  1  0.984450  0.354500  0.029500  1.0  -0.1014
  C  C269  1  0.013720  0.429200  0.076400  1.0  0.2206
  C  C270  1  0.093950  0.495000  0.148300  1.0  0.097
  C  C271  1  0.068560  0.424900  0.103500  1.0  -0.0981
  C  C272  1  0.897700  0.144700  0.892400  1.0  0.6722
  C  C273  1  0.990300  0.746300  0.164300  1.0  -0.1275
  C  C274  1  0.933200  0.377800  0.993100  1.0  -0.0203
  C  C275  1  0.006300  0.259900  0.021800  1.0  -0.1036
  C  C276  1  0.062560  0.568800  0.162300  1.0  -0.13
  C  C277  1  0.905000  0.309500  0.949100  1.0  -0.0157
  C  C278  1  0.008360  0.568400  0.132600  1.0  0.2184
  C  C279  1  0.151480  0.490000  0.179300  1.0  0.0822
  C  C280  1  0.927400  0.216700  0.941300  1.0  -0.1503
  C  C281  1  0.179900  0.398700  0.184000  1.0  -0.187
  C  C282  1  0.179890  0.577000  0.207700  1.0  -0.2015
  C  C283  1  0.978300  0.191700  0.978500  1.0  -0.0457
  C  C284  1  0.913400  0.779300  0.191000  1.0  -0.1309
  C  C285  1  0.925800  0.612900  0.153200  1.0  -0.077
  C  C286  1  0.973910  0.645300  0.149300  1.0  -0.0522
  C  C287  1  0.896200  0.679400  0.174600  1.0  -0.0177
  C  C288  1  0.959600  0.812000  0.184300  1.0  -0.0683
  C  C289  1  0.384500  0.346400  0.221700  1.0  0.6784
  C  C290  1  0.732300  0.896500  0.215100  1.0  0.1715
  C  C291  1  0.733000  0.068300  0.238700  1.0  0.1362
  C  C292  1  0.484450  0.854500  0.029500  1.0  -0.1014
  C  C293  1  0.513720  0.929200  0.076400  1.0  0.2206
  C  C294  1  0.593950  0.995000  0.148300  1.0  0.097
  C  C295  1  0.568560  0.924900  0.103500  1.0  -0.0981
  C  C296  1  0.397700  0.644700  0.892400  1.0  0.6722
  C  C297  1  0.490300  0.246300  0.164300  1.0  -0.1275
  C  C298  1  0.433200  0.877800  0.993100  1.0  -0.0203
  C  C299  1  0.506300  0.759900  0.021800  1.0  -0.1036
  C  C300  1  0.562560  0.068800  0.162300  1.0  -0.13
  C  C301  1  0.405000  0.809500  0.949100  1.0  -0.0157
  C  C302  1  0.508360  0.068400  0.132600  1.0  0.2184
  C  C303  1  0.651480  0.990000  0.179300  1.0  0.0822
  C  C304  1  0.427400  0.716700  0.941300  1.0  -0.1503
  C  C305  1  0.679900  0.898700  0.184000  1.0  -0.187
  C  C306  1  0.679890  0.077000  0.207700  1.0  -0.2015
  C  C307  1  0.478300  0.691700  0.978500  1.0  -0.0457
  C  C308  1  0.413400  0.279300  0.191000  1.0  -0.1309
  C  C309  1  0.425800  0.112900  0.153200  1.0  -0.077
  C  C310  1  0.473910  0.145300  0.149300  1.0  -0.0522
  C  C311  1  0.396200  0.179400  0.174600  1.0  -0.0177
  C  C312  1  0.459600  0.312000  0.184300  1.0  -0.0683
  N  N313  1  0.740380  0.520200  0.757300  1.0  -0.3652
  N  N314  1  0.016080  0.500100  0.908600  1.0  -0.2844
  N  N315  1  0.240380  0.020200  0.757300  1.0  -0.3652
  N  N316  1  0.516080  0.000100  0.908600  1.0  -0.2844
  N  N317  1  0.740380  0.479800  0.257300  1.0  -0.3647
  N  N318  1  0.016080  0.499900  0.408600  1.0  -0.2844
  N  N319  1  0.240380  0.979800  0.257300  1.0  -0.3647
  N  N320  1  0.516080  0.999900  0.408600  1.0  -0.2844
  N  N321  1  0.259620  0.520200  0.742700  1.0  -0.368
  N  N322  1  0.983920  0.500100  0.591400  1.0  -0.2847
  N  N323  1  0.759620  0.020200  0.742700  1.0  -0.368
  N  N324  1  0.483920  0.000100  0.591400  1.0  -0.2847
  N  N325  1  0.259620  0.479800  0.242700  1.0  -0.3677
  N  N326  1  0.983920  0.499900  0.091400  1.0  -0.2843
  N  N327  1  0.759620  0.979800  0.242700  1.0  -0.3677
  N  N328  1  0.483920  0.999900  0.091400  1.0  -0.2843
  O  O329  1  0.145780  0.828200  0.142100  1.0  -0.6005
  O  O330  1  0.081540  0.941800  0.112400  1.0  -0.6098
  O  O331  1  0.156350  0.185900  0.772300  1.0  -0.6667
  O  O332  1  0.095100  0.069900  0.756800  1.0  -0.6017
  O  O333  1  0.645780  0.328200  0.142100  1.0  -0.6005
  O  O334  1  0.581540  0.441800  0.112400  1.0  -0.6098
  O  O335  1  0.656350  0.685900  0.772300  1.0  -0.6665
  O  O336  1  0.595100  0.569900  0.756800  1.0  -0.6017
  O  O337  1  0.145780  0.171800  0.642100  1.0  -0.6002
  O  O338  1  0.081540  0.058200  0.612400  1.0  -0.6096
  O  O339  1  0.156350  0.814100  0.272300  1.0  -0.6662
  O  O340  1  0.095100  0.930100  0.256800  1.0  -0.6004
  O  O341  1  0.645780  0.671800  0.642100  1.0  -0.6002
  O  O342  1  0.581540  0.558200  0.612400  1.0  -0.6096
  O  O343  1  0.656350  0.314100  0.272300  1.0  -0.666
  O  O344  1  0.595100  0.430100  0.256800  1.0  -0.6004
  O  O345  1  0.854220  0.828200  0.357900  1.0  -0.6059
  O  O346  1  0.918460  0.941800  0.387600  1.0  -0.6097
  O  O347  1  0.843650  0.185900  0.727700  1.0  -0.6654
  O  O348  1  0.904900  0.069900  0.743200  1.0  -0.5992
  O  O349  1  0.354220  0.328200  0.357900  1.0  -0.6059
  O  O350  1  0.418460  0.441800  0.387600  1.0  -0.6097
  O  O351  1  0.343650  0.685900  0.727700  1.0  -0.6658
  O  O352  1  0.404900  0.569900  0.743200  1.0  -0.5992
  O  O353  1  0.854220  0.171800  0.857900  1.0  -0.604
  O  O354  1  0.918460  0.058200  0.887600  1.0  -0.6077
  O  O355  1  0.843650  0.814100  0.227700  1.0  -0.6655
  O  O356  1  0.904900  0.930100  0.243200  1.0  -0.5982
  O  O357  1  0.354220  0.671800  0.857900  1.0  -0.604
  O  O358  1  0.418460  0.558200  0.887600  1.0  -0.6077
  O  O359  1  0.343650  0.314100  0.227700  1.0  -0.6659
  O  O360  1  0.404900  0.430100  0.243200  1.0  -0.5982
