# generated using pymatgen
data_Ni3H142C168(NO6)6
_symmetry_space_group_name_H-M   'P 1'
_cell_length_a   13.70900000
_cell_length_b   17.72200000
_cell_length_c   23.81000000
_cell_angle_alpha   70.74600000
_cell_angle_beta   77.49300000
_cell_angle_gamma   88.40000000
_symmetry_Int_Tables_number   1
_chemical_formula_structural   Ni3H142C168(NO6)6
_chemical_formula_sum   'Ni3 H142 C168 N6 O36'
_cell_volume   5325.56851301
_cell_formula_units_Z   1
loop_
 _symmetry_equiv_pos_site_id
 _symmetry_equiv_pos_as_xyz
  1  'x, y, z'
loop_
 _atom_site_type_symbol
 _atom_site_label
 _atom_site_symmetry_multiplicity
 _atom_site_fract_x
 _atom_site_fract_y
 _atom_site_fract_z
 _atom_site_occupancy
 _atom_site_charge
  Ni  Ni1  1  0.592790  0.849750  0.267760  1.0  0.6578
  Ni  Ni2  1  0.407210  0.150250  0.732240  1.0  0.6607
  Ni  Ni3  1  0.000000  0.000000  0.000000  1.0  0.5925
  H  H4  1  0.200900  0.098000  0.943700  1.0  0.0771
  H  H5  1  0.144200  0.883900  0.059000  1.0  0.0947
  H  H6  1  0.997600  0.720500  0.942500  1.0  0.0945
  H  H7  1  0.995900  0.742300  0.105500  1.0  0.13
  H  H8  1  0.659500  0.747100  0.377900  1.0  0.1018
  H  H9  1  0.828800  0.114400  0.099400  1.0  0.1146
  H  H10  1  0.481000  0.920800  0.032000  1.0  0.107
  H  H11  1  0.532800  0.070700  0.140000  1.0  0.0978
  H  H12  1  0.809200  0.240600  0.034500  1.0  0.1095
  H  H13  1  0.364700  0.093700  0.945700  1.0  0.1138
  H  H14  1  0.514500  0.196900  0.071900  1.0  0.1372
  H  H15  1  0.999800  0.603500  0.146200  1.0  0.1265
  H  H16  1  0.508200  0.743300  0.132800  1.0  0.0968
  H  H17  1  0.773100  0.337000  0.945900  1.0  0.0737
  H  H18  1  0.768000  0.366400  0.002000  1.0  0.0732
  H  H19  1  0.307600  0.871300  0.065100  1.0  0.1244
  H  H20  1  0.928700  0.479700  0.176300  1.0  0.0735
  H  H21  1  0.044600  0.467100  0.167000  1.0  0.0712
  H  H22  1  0.521100  0.647800  0.961300  1.0  0.0896
  H  H23  1  0.541900  0.583400  0.020700  1.0  0.0662
  H  H24  1  0.009300  0.584400  0.982700  1.0  0.1256
  H  H25  1  0.703100  0.257400  0.188100  1.0  0.0924
  H  H26  1  0.739500  0.170200  0.214800  1.0  0.0906
  H  H27  1  0.085400  0.148000  0.143300  1.0  0.0827
  H  H28  1  0.162200  0.221100  0.124400  1.0  0.1071
  H  H29  1  0.215100  0.068200  0.296700  1.0  0.127
  H  H30  1  0.329100  0.965700  0.301400  1.0  0.1072
  H  H31  1  0.459800  0.700600  0.299700  1.0  0.093
  H  H32  1  0.445300  0.849200  0.381700  1.0  0.0804
  H  H33  1  0.612800  0.628900  0.459300  1.0  0.1172
  H  H34  1  0.225600  0.094400  0.122000  1.0  0.128
  H  H35  1  0.562600  0.692800  0.870700  1.0  0.1221
  H  H36  1  0.484800  0.644500  0.854700  1.0  0.1217
  H  H37  1  0.588800  0.673200  0.809700  1.0  0.1096
  H  H38  1  0.431600  0.483700  0.471600  1.0  0.1019
  H  H39  1  0.801800  0.732800  0.097500  1.0  0.0949
  H  H40  1  0.778000  0.415500  0.217100  1.0  0.1187
  H  H41  1  0.717900  0.363800  0.192700  1.0  0.1186
  H  H42  1  0.786500  0.437200  0.146800  1.0  0.1177
  H  H43  1  0.336100  0.991000  0.126300  1.0  0.1048
  H  H44  1  0.497700  0.697800  0.051500  1.0  0.127
  H  H45  1  0.798100  0.687100  0.017600  1.0  0.1068
  H  H46  1  0.417600  0.903300  0.457000  1.0  0.1398
  H  H47  1  0.715400  0.523000  0.032500  1.0  0.1178
  H  H48  1  0.713500  0.430200  0.045900  1.0  0.1233
  H  H49  1  0.614400  0.472100  0.062500  1.0  0.1159
  H  H50  1  0.702900  0.963300  0.307500  1.0  0.0844
  H  H51  1  0.408700  0.581500  0.378600  1.0  0.145
  H  H52  1  0.562700  0.169200  0.237900  1.0  0.1248
  H  H53  1  0.154900  0.409900  0.111700  1.0  0.1205
  H  H54  1  0.192700  0.323700  0.118100  1.0  0.122
  H  H55  1  0.175600  0.354300  0.174100  1.0  0.1338
  H  H56  1  0.920200  0.100000  0.181000  1.0  0.1215
  H  H57  1  0.842100  0.103200  0.238900  1.0  0.1265
  H  H58  1  0.955200  0.091800  0.241100  1.0  0.1201
  H  H59  1  0.619800  0.235000  0.374400  1.0  0.1256
  H  H60  1  0.683800  0.021000  0.382900  1.0  0.1305
  H  H61  1  0.775200  0.386100  0.842900  1.0  0.1233
  H  H62  1  0.678900  0.399400  0.816000  1.0  0.1048
  H  H63  1  0.676400  0.335100  0.880000  1.0  0.1245
  H  H64  1  0.409600  0.117000  0.296800  1.0  0.0983
  H  H65  1  0.595700  0.035600  0.477000  1.0  0.1108
  H  H66  1  0.455900  0.187200  0.432100  1.0  0.122
  H  H67  1  0.227000  0.037600  0.423400  1.0  0.4091
  H  H68  1  0.673200  0.510300  0.771200  1.0  0.0978
  H  H69  1  0.620200  0.590900  0.769600  1.0  0.0982
  H  H70  1  0.367600  0.445800  0.781900  1.0  0.1232
  H  H71  1  0.293400  0.488000  0.698500  1.0  0.1174
  H  H72  1  0.531100  0.637900  0.602600  1.0  0.1235
  H  H73  1  0.605300  0.595700  0.685900  1.0  0.1272
  H  H74  1  0.422600  0.708600  0.556400  1.0  0.354
  H  H75  1  0.799100  0.902000  0.056300  1.0  0.0774
  H  H76  1  0.855800  0.116100  0.941000  1.0  0.0934
  H  H77  1  0.002400  0.279500  0.057500  1.0  0.0945
  H  H78  1  0.004100  0.257700  0.894500  1.0  0.1306
  H  H79  1  0.340500  0.252900  0.622100  1.0  0.1035
  H  H80  1  0.171200  0.885600  0.900600  1.0  0.1142
  H  H81  1  0.519000  0.079200  0.968000  1.0  0.1078
  H  H82  1  0.467200  0.929300  0.860000  1.0  0.0981
  H  H83  1  0.190800  0.759400  0.965500  1.0  0.11
  H  H84  1  0.635300  0.906300  0.054300  1.0  0.1105
  H  H85  1  0.485500  0.803100  0.928100  1.0  0.1374
  H  H86  1  0.000200  0.396500  0.853800  1.0  0.1266
  H  H87  1  0.491800  0.256700  0.867200  1.0  0.0961
  H  H88  1  0.226900  0.663000  0.054100  1.0  0.0743
  H  H89  1  0.232000  0.633600  0.998000  1.0  0.0737
  H  H90  1  0.692400  0.128700  0.934900  1.0  0.1238
  H  H91  1  0.071300  0.520300  0.823700  1.0  0.0733
  H  H92  1  0.955400  0.532900  0.833000  1.0  0.0706
  H  H93  1  0.478900  0.352200  0.038700  1.0  0.0888
  H  H94  1  0.458100  0.416600  0.979300  1.0  0.0652
  H  H95  1  0.990700  0.415600  0.017300  1.0  0.1251
  H  H96  1  0.296900  0.742600  0.811900  1.0  0.0918
  H  H97  1  0.260500  0.829800  0.785200  1.0  0.0899
  H  H98  1  0.914600  0.852000  0.856700  1.0  0.0824
  H  H99  1  0.837800  0.778900  0.875600  1.0  0.1098
  H  H100  1  0.784900  0.931800  0.703300  1.0  0.1291
  H  H101  1  0.670900  0.034300  0.698600  1.0  0.1069
  H  H102  1  0.540200  0.299400  0.700300  1.0  0.092
  H  H103  1  0.554700  0.150800  0.618300  1.0  0.0807
  H  H104  1  0.387200  0.371100  0.540700  1.0  0.1175
  H  H105  1  0.774400  0.905600  0.878000  1.0  0.1274
  H  H106  1  0.437400  0.307200  0.129300  1.0  0.1193
  H  H107  1  0.515200  0.355500  0.145300  1.0  0.1227
  H  H108  1  0.411200  0.326800  0.190300  1.0  0.11
  H  H109  1  0.568400  0.516300  0.528400  1.0  0.1021
  H  H110  1  0.198200  0.267200  0.902500  1.0  0.0939
  H  H111  1  0.222000  0.584500  0.782900  1.0  0.1183
  H  H112  1  0.282100  0.636200  0.807300  1.0  0.121
  H  H113  1  0.213500  0.562800  0.853200  1.0  0.1187
  H  H114  1  0.663900  0.009000  0.873700  1.0  0.104
  H  H115  1  0.502300  0.302200  0.948500  1.0  0.1273
  H  H116  1  0.201900  0.312900  0.982400  1.0  0.1063
  H  H117  1  0.582400  0.096700  0.543000  1.0  0.1404
  H  H118  1  0.284600  0.477000  0.967500  1.0  0.1192
  H  H119  1  0.286500  0.569800  0.954100  1.0  0.1235
  H  H120  1  0.385600  0.527900  0.937500  1.0  0.1164
  H  H121  1  0.297100  0.036700  0.692500  1.0  0.0838
  H  H122  1  0.591300  0.418500  0.621400  1.0  0.1449
  H  H123  1  0.437300  0.830800  0.762100  1.0  0.1238
  H  H124  1  0.845100  0.590100  0.888300  1.0  0.1204
  H  H125  1  0.807300  0.676300  0.881900  1.0  0.1228
  H  H126  1  0.824400  0.645700  0.825900  1.0  0.1322
  H  H127  1  0.079800  0.900000  0.819000  1.0  0.1214
  H  H128  1  0.157900  0.896800  0.761100  1.0  0.1245
  H  H129  1  0.044800  0.908200  0.758900  1.0  0.1199
  H  H130  1  0.380200  0.765000  0.625600  1.0  0.1278
  H  H131  1  0.316200  0.979000  0.617100  1.0  0.13
  H  H132  1  0.224800  0.613900  0.157100  1.0  0.1234
  H  H133  1  0.321100  0.600600  0.184000  1.0  0.1078
  H  H134  1  0.323600  0.664900  0.120000  1.0  0.121
  H  H135  1  0.590400  0.883000  0.703200  1.0  0.0977
  H  H136  1  0.404300  0.964400  0.523000  1.0  0.1069
  H  H137  1  0.544100  0.812800  0.567900  1.0  0.1218
  H  H138  1  0.773000  0.962400  0.576600  1.0  0.405
  H  H139  1  0.326800  0.489700  0.228800  1.0  0.0968
  H  H140  1  0.379800  0.409100  0.230400  1.0  0.0989
  H  H141  1  0.632400  0.554200  0.218100  1.0  0.1229
  H  H142  1  0.706600  0.512000  0.301500  1.0  0.1171
  H  H143  1  0.468900  0.362100  0.397400  1.0  0.1235
  H  H144  1  0.394700  0.404300  0.314100  1.0  0.1267
  H  H145  1  0.577400  0.291400  0.443600  1.0  0.3504
  C  C146  1  0.223000  0.051700  0.969010  1.0  0.1908
  C  C147  1  0.993000  0.745630  0.019300  1.0  -0.0987
  C  C148  1  0.189500  0.926800  0.036200  1.0  0.1823
  C  C149  1  0.986100  0.835220  0.993520  1.0  0.6496
  C  C150  1  0.359800  0.981900  0.005850  1.0  0.1121
  C  C151  1  0.998000  0.697300  0.983630  1.0  -0.0797
  C  C152  1  0.681100  0.079600  0.127030  1.0  -0.1335
  C  C153  1  0.663100  0.230100  0.046700  1.0  0.2854
  C  C154  1  0.695000  0.999100  0.170930  1.0  0.6775
  C  C155  1  0.995900  0.710700  0.081110  1.0  -0.0841
  C  C156  1  0.412800  0.902800  0.219060  1.0  0.7095
  C  C157  1  0.000500  0.581000  0.068820  1.0  0.2655
  C  C158  1  0.607700  0.714100  0.378100  1.0  0.1524
  C  C159  1  0.654700  0.736800  0.125800  1.0  -0.0705
  C  C160  1  0.765200  0.130900  0.094580  1.0  -0.0529
  C  C161  1  0.464000  0.971900  0.011040  1.0  -0.1303
  C  C162  1  0.588900  0.104500  0.118530  1.0  0.0304
  C  C163  1  0.753400  0.206200  0.055300  1.0  -0.1775
  C  C164  1  0.322100  0.049600  0.969640  1.0  -0.1979
  C  C165  1  0.577400  0.180200  0.077900  1.0  -0.1647
  C  C166  1  0.998900  0.627600  0.105190  1.0  -0.2103
  C  C167  1  0.043600  0.322300  0.158300  1.0  0.0815
  C  C168  1  0.610200  0.559900  0.942900  1.0  -0.0116
  C  C169  1  0.566300  0.730200  0.110150  1.0  -0.0236
  C  C170  1  0.662100  0.762300  0.178400  1.0  0.7125
  C  C171  1  0.729700  0.358100  0.974500  1.0  0.0873
  C  C172  1  0.288000  0.918700  0.039940  1.0  -0.2
  C  C173  1  0.984600  0.459000  0.153900  1.0  0.0806
  C  C174  1  0.965200  0.370500  0.165320  1.0  -0.0366
  C  C175  1  0.213000  0.090500  0.208000  1.0  0.2947
  C  C176  1  0.571800  0.614700  0.978800  1.0  0.0595
  C  C177  1  0.003500  0.615800  0.007700  1.0  -0.1553
  C  C178  1  0.649800  0.688600  0.025300  1.0  0.2336
  C  C179  1  0.742200  0.224400  0.215700  1.0  0.0666
  C  C180  1  0.688300  0.436000  0.941000  1.0  -0.1226
  C  C181  1  0.342300  0.967300  0.214230  1.0  -0.1496
  C  C182  1  0.599300  0.574700  0.884700  1.0  0.0051
  C  C183  1  0.109500  0.188400  0.156900  1.0  -0.0397
  C  C184  1  0.240400  0.053000  0.262700  1.0  -0.2161
  C  C185  1  0.626200  0.520600  0.854000  1.0  0.089
  C  C186  1  0.024800  0.240100  0.172210  1.0  -0.0461
  C  C187  1  0.849300  0.257300  0.197600  1.0  -0.043
  C  C188  1  0.307700  0.990900  0.265580  1.0  -0.0404
  C  C189  1  0.490500  0.686400  0.332700  1.0  0.1703
  C  C190  1  0.658100  0.490100  0.971900  1.0  0.1035
  C  C191  1  0.493600  0.885200  0.381400  1.0  0.1765
  C  C192  1  0.581600  0.641200  0.426700  1.0  -0.1518
  C  C193  1  0.513200  0.590000  0.426400  1.0  0.0903
  C  C194  1  0.552300  0.967600  0.429000  1.0  0.0627
  C  C195  1  0.672200  0.449500  0.882900  1.0  0.0748
  C  C196  1  0.246500  0.068400  0.157900  1.0  -0.2534
  C  C197  1  0.554600  0.653800  0.851800  1.0  -0.3524
  C  C198  1  0.482000  0.514400  0.475500  1.0  -0.1087
  C  C199  1  0.740500  0.724000  0.089400  1.0  -0.0914
  C  C200  1  0.779200  0.394100  0.184800  1.0  -0.3494
  C  C201  1  0.312500  0.006100  0.160600  1.0  -0.0066
  C  C202  1  0.927900  0.207600  0.195050  1.0  0.0911
  C  C203  1  0.559100  0.704200  0.060400  1.0  -0.2374
  C  C204  1  0.867800  0.339400  0.181400  1.0  0.0595
  C  C205  1  0.738600  0.698000  0.040300  1.0  -0.2195
  C  C206  1  0.476800  0.915800  0.427300  1.0  -0.1946
  C  C207  1  0.677100  0.477800  0.033700  1.0  -0.352
  C  C208  1  0.644500  0.951600  0.337800  1.0  0.1794
  C  C209  1  0.461000  0.613500  0.379000  1.0  -0.1876
  C  C210  1  0.542900  0.171000  0.277400  1.0  -0.2287
  C  C211  1  0.151700  0.355700  0.138800  1.0  -0.3483
  C  C212  1  0.909700  0.117300  0.215900  1.0  -0.3617
  C  C213  1  0.576600  0.211400  0.359100  1.0  -0.1718
  C  C214  1  0.634100  0.985800  0.383800  1.0  -0.1597
  C  C215  1  0.703600  0.386800  0.852600  1.0  -0.35
  C  C216  1  0.450700  0.143600  0.311300  1.0  -0.0538
  C  C217  1  0.541900  0.004500  0.477400  1.0  -0.1286
  C  C218  1  0.606700  0.201500  0.302300  1.0  0.2873
  C  C219  1  0.477200  0.184200  0.393100  1.0  -0.091
  C  C220  1  0.415100  0.154600  0.368700  1.0  -0.0574
  C  C221  1  0.321600  0.112800  0.410100  1.0  0.4773
  C  C222  1  0.618600  0.534100  0.791900  1.0  0.0718
  C  C223  1  0.400400  0.484300  0.745900  1.0  -0.1529
  C  C224  1  0.355900  0.509600  0.696000  1.0  -0.0303
  C  C225  1  0.404900  0.567200  0.642300  1.0  -0.0378
  C  C226  1  0.498300  0.599400  0.638600  1.0  -0.1853
  C  C227  1  0.542800  0.574100  0.688500  1.0  -0.2477
  C  C228  1  0.493800  0.516500  0.742200  1.0  0.275
  C  C229  1  0.358500  0.608100  0.587200  1.0  0.303
  C  C230  1  0.777000  0.948300  0.030990  1.0  0.1908
  C  C231  1  0.007000  0.254370  0.980700  1.0  -0.0949
  C  C232  1  0.810500  0.073200  0.963800  1.0  0.1821
  C  C233  1  0.013900  0.164780  0.006480  1.0  0.6486
  C  C234  1  0.640200  0.018100  0.994150  1.0  0.108
  C  C235  1  0.002000  0.302700  0.016370  1.0  -0.0819
  C  C236  1  0.318900  0.920400  0.872970  1.0  -0.1332
  C  C237  1  0.336900  0.769900  0.953300  1.0  0.2781
  C  C238  1  0.305000  0.000900  0.829070  1.0  0.6764
  C  C239  1  0.004100  0.289300  0.918890  1.0  -0.0795
  C  C240  1  0.587200  0.097200  0.780940  1.0  0.7024
  C  C241  1  0.999500  0.419000  0.931180  1.0  0.2701
  C  C242  1  0.392300  0.285900  0.621900  1.0  0.1543
  C  C243  1  0.345300  0.263200  0.874200  1.0  -0.0707
  C  C244  1  0.234800  0.869100  0.905420  1.0  -0.0508
  C  C245  1  0.536000  0.028100  0.988960  1.0  -0.1306
  C  C246  1  0.411100  0.895500  0.881470  1.0  0.0304
  C  C247  1  0.246600  0.793800  0.944700  1.0  -0.1722
  C  C248  1  0.677900  0.950400  0.030360  1.0  -0.1992
  C  C249  1  0.422600  0.819800  0.922100  1.0  -0.165
  C  C250  1  0.001100  0.372400  0.894810  1.0  -0.2134
  C  C251  1  0.956400  0.677700  0.841700  1.0  0.0789
  C  C252  1  0.389800  0.440100  0.057100  1.0  -0.0104
  C  C253  1  0.433700  0.269800  0.889850  1.0  -0.0243
  C  C254  1  0.337900  0.237700  0.821600  1.0  0.7138
  C  C255  1  0.270300  0.641900  0.025500  1.0  0.0852
  C  C256  1  0.712000  0.081300  0.960060  1.0  -0.2142
  C  C257  1  0.015400  0.541000  0.846100  1.0  0.0831
  C  C258  1  0.034800  0.629500  0.834680  1.0  -0.0336
  C  C259  1  0.787000  0.909500  0.792000  1.0  0.2902
  C  C260  1  0.428200  0.385300  0.021200  1.0  0.0619
  C  C261  1  0.996500  0.384200  0.992300  1.0  -0.1576
  C  C262  1  0.350200  0.311400  0.974700  1.0  0.2327
  C  C263  1  0.257800  0.775600  0.784300  1.0  0.0657
  C  C264  1  0.311700  0.564000  0.059000  1.0  -0.1182
  C  C265  1  0.657700  0.032700  0.785770  1.0  -0.1468
  C  C266  1  0.400700  0.425300  0.115300  1.0  0.0053
  C  C267  1  0.890500  0.811600  0.843100  1.0  -0.0426
  C  C268  1  0.759600  0.947000  0.737300  1.0  -0.2166
  C  C269  1  0.373800  0.479400  0.146000  1.0  0.0893
  C  C270  1  0.975200  0.759900  0.827790  1.0  -0.0497
  C  C271  1  0.150700  0.742700  0.802400  1.0  -0.0469
  C  C272  1  0.692300  0.009100  0.734420  1.0  -0.0404
  C  C273  1  0.509500  0.313600  0.667300  1.0  0.1669
  C  C274  1  0.341900  0.509900  0.028100  1.0  0.1028
  C  C275  1  0.506400  0.114800  0.618600  1.0  0.1809
  C  C276  1  0.418400  0.358800  0.573300  1.0  -0.1526
  C  C277  1  0.486800  0.410000  0.573600  1.0  0.0964
  C  C278  1  0.447700  0.032400  0.571000  1.0  0.063
  C  C279  1  0.327800  0.550500  0.117100  1.0  0.073
  C  C280  1  0.753500  0.931600  0.842100  1.0  -0.2497
  C  C281  1  0.445400  0.346200  0.148200  1.0  -0.3526
  C  C282  1  0.518000  0.485600  0.524500  1.0  -0.1065
  C  C283  1  0.259500  0.276000  0.910600  1.0  -0.0894
  C  C284  1  0.220800  0.605900  0.815200  1.0  -0.3507
  C  C285  1  0.687500  0.993900  0.839400  1.0  -0.0065
  C  C286  1  0.072100  0.792400  0.804950  1.0  0.088
  C  C287  1  0.440900  0.295800  0.939600  1.0  -0.2422
  C  C288  1  0.132200  0.660600  0.818600  1.0  0.0578
  C  C289  1  0.261400  0.302000  0.959700  1.0  -0.2126
  C  C290  1  0.523200  0.084200  0.572700  1.0  -0.1918
  C  C291  1  0.322900  0.522200  0.966300  1.0  -0.3494
  C  C292  1  0.355500  0.048400  0.662200  1.0  0.183
  C  C293  1  0.539000  0.386500  0.621000  1.0  -0.1854
  C  C294  1  0.457100  0.829000  0.722600  1.0  -0.2314
  C  C295  1  0.848300  0.644300  0.861200  1.0  -0.3471
  C  C296  1  0.090300  0.882700  0.784100  1.0  -0.3614
  C  C297  1  0.423400  0.788600  0.640900  1.0  -0.1741
  C  C298  1  0.365900  0.014200  0.616200  1.0  -0.1625
  C  C299  1  0.296400  0.613200  0.147400  1.0  -0.3507
  C  C300  1  0.549300  0.856400  0.688700  1.0  -0.0436
  C  C301  1  0.458100  0.995500  0.522600  1.0  -0.1284
  C  C302  1  0.393300  0.798500  0.697700  1.0  0.2829
  C  C303  1  0.522800  0.815800  0.606900  1.0  -0.0917
  C  C304  1  0.584900  0.845400  0.631300  1.0  -0.0585
  C  C305  1  0.678400  0.887200  0.589900  1.0  0.4768
  C  C306  1  0.381400  0.465900  0.208100  1.0  0.072
  C  C307  1  0.599600  0.515700  0.254100  1.0  -0.151
  C  C308  1  0.644100  0.490400  0.304000  1.0  -0.0297
  C  C309  1  0.595100  0.432800  0.357700  1.0  -0.0365
  C  C310  1  0.501700  0.400600  0.361400  1.0  -0.1869
  C  C311  1  0.457200  0.425900  0.311500  1.0  -0.2498
  C  C312  1  0.506200  0.483500  0.257800  1.0  0.2746
  C  C313  1  0.641500  0.391900  0.412800  1.0  0.3025
  N  N314  1  0.156100  0.993160  0.001610  1.0  -0.3405
  N  N315  1  0.560000  0.736340  0.333150  1.0  -0.2966
  N  N316  1  0.573900  0.902530  0.335550  1.0  -0.3017
  N  N317  1  0.843900  0.006840  0.998390  1.0  -0.3402
  N  N318  1  0.440000  0.263660  0.666850  1.0  -0.2954
  N  N319  1  0.426100  0.097470  0.664450  1.0  -0.3007
  O  O320  1  0.991070  0.876730  0.025380  1.0  -0.5781
  O  O321  1  0.614500  0.960330  0.203330  1.0  -0.5748
  O  O322  1  0.440100  0.868850  0.266640  1.0  -0.5637
  O  O323  1  0.593000  0.799480  0.199920  1.0  -0.583
  O  O324  1  0.645100  0.303460  0.008300  1.0  -0.249
  O  O325  1  0.448300  0.885680  0.168360  1.0  -0.5439
  O  O326  1  0.977100  0.862050  0.937390  1.0  -0.588
  O  O327  1  0.996700  0.499190  0.089770  1.0  -0.2519
  O  O328  1  0.780700  0.974530  0.174240  1.0  -0.5854
  O  O329  1  0.653600  0.663800  0.977030  1.0  -0.2475
  O  O330  1  0.147900  0.150490  0.211400  1.0  -0.2768
  O  O331  1  0.736200  0.743300  0.201400  1.0  -0.5114
  O  O332  1  0.704800  0.225900  0.276320  1.0  -0.2672
  O  O333  1  0.267700  0.065300  0.393500  1.0  -0.5014
  O  O334  1  0.294400  0.136500  0.458500  1.0  -0.5204
  O  O335  1  0.523900  0.496400  0.796600  1.0  -0.3127
  O  O336  1  0.284200  0.558300  0.592300  1.0  -0.4735
  O  O337  1  0.417600  0.673000  0.542200  1.0  -0.5201
  O  O338  1  0.008930  0.123270  0.974620  1.0  -0.5794
  O  O339  1  0.385500  0.039670  0.796670  1.0  -0.5755
  O  O340  1  0.559900  0.131150  0.733360  1.0  -0.5642
  O  O341  1  0.407000  0.200520  0.800080  1.0  -0.5842
  O  O342  1  0.354900  0.696540  0.991700  1.0  -0.2501
  O  O343  1  0.551700  0.114320  0.831640  1.0  -0.5414
  O  O344  1  0.022900  0.137950  0.062610  1.0  -0.5864
  O  O345  1  0.003300  0.500810  0.910230  1.0  -0.2523
  O  O346  1  0.219300  0.025470  0.825760  1.0  -0.584
  O  O347  1  0.346400  0.336200  0.022970  1.0  -0.2506
  O  O348  1  0.852100  0.849510  0.788600  1.0  -0.2767
  O  O349  1  0.263800  0.256700  0.798600  1.0  -0.5096
  O  O350  1  0.295200  0.774100  0.723680  1.0  -0.2696
  O  O351  1  0.732300  0.934700  0.606500  1.0  -0.5029
  O  O352  1  0.705600  0.863500  0.541500  1.0  -0.5147
  O  O353  1  0.476100  0.503600  0.203400  1.0  -0.3123
  O  O354  1  0.715800  0.441700  0.407700  1.0  -0.4762
  O  O355  1  0.582400  0.327000  0.457800  1.0  -0.5232
