# generated using pymatgen
data_Nd2H5(C3O4)3
_symmetry_space_group_name_H-M   'P 1'
_cell_length_a   10.60260000
_cell_length_b   10.60260000
_cell_length_c   10.97350000
_cell_angle_alpha   78.65950000
_cell_angle_beta   62.55850000
_cell_angle_gamma   108.63400000
_symmetry_Int_Tables_number   1
_chemical_formula_structural   Nd2H5(C3O4)3
_chemical_formula_sum   'Nd4 H10 C18 O24'
_cell_volume   946.69529438
_cell_formula_units_Z   2
loop_
 _symmetry_equiv_pos_site_id
 _symmetry_equiv_pos_as_xyz
  1  'x, y, z'
loop_
 _atom_site_type_symbol
 _atom_site_label
 _atom_site_symmetry_multiplicity
 _atom_site_fract_x
 _atom_site_fract_y
 _atom_site_fract_z
 _atom_site_occupancy
 _atom_site_charge
  Nd  Nd1  1  0.449370  0.635950  0.619840  1.0  2.3444
  Nd  Nd2  1  0.755790  0.069210  0.880160  1.0  2.3441
  Nd  Nd3  1  0.550630  0.364050  0.380160  1.0  2.3439
  Nd  Nd4  1  0.244210  0.930790  0.119840  1.0  2.343
  H  H5  1  0.034900  0.616600  0.689700  1.0  0.1681
  H  H6  1  0.894400  0.512200  0.857800  1.0  0.1687
  H  H7  1  0.806300  0.724600  0.810300  1.0  0.1692
  H  H8  1  0.870000  0.752200  0.642200  1.0  0.1627
  H  H9  1  0.965100  0.383400  0.310300  1.0  0.1695
  H  H10  1  0.105600  0.487800  0.142200  1.0  0.1669
  H  H11  1  0.193700  0.275400  0.189700  1.0  0.1672
  H  H12  1  0.130000  0.247800  0.357800  1.0  0.1631
  H  H13  1  0.701200  0.451200  0.750000  1.0  0.1895
  H  H14  1  0.298800  0.548800  0.250000  1.0  0.1906
  C  C15  1  0.047600  0.430700  0.757300  1.0  0.9474
  C  C16  1  0.007300  0.551700  0.782800  1.0  -0.6074
  C  C17  1  0.095100  0.649800  0.832700  1.0  0.8458
  C  C18  1  0.599500  0.375100  0.625600  1.0  0.7734
  C  C19  1  0.688000  0.804900  0.742700  1.0  0.9478
  C  C20  1  0.834500  0.790100  0.717200  1.0  -0.6086
  C  C21  1  0.982500  0.927800  0.667300  1.0  0.8432
  C  C22  1  0.500700  0.225100  0.874400  1.0  0.7726
  C  C23  1  0.952400  0.569300  0.242700  1.0  0.9481
  C  C24  1  0.992700  0.448300  0.217200  1.0  -0.6081
  C  C25  1  0.904900  0.350200  0.167300  1.0  0.8452
  C  C26  1  0.400500  0.624900  0.374400  1.0  0.775
  C  C27  1  0.312000  0.195100  0.257300  1.0  0.9449
  C  C28  1  0.165500  0.209900  0.282800  1.0  -0.6095
  C  C29  1  0.017500  0.072200  0.332700  1.0  0.8433
  C  C30  1  0.499300  0.774900  0.125600  1.0  0.7707
  C  C31  1  0.624400  0.374400  0.750000  1.0  -0.2764
  C  C32  1  0.375600  0.625600  0.250000  1.0  -0.2756
  O  O33  1  0.184500  0.442700  0.710200  1.0  -0.7517
  O  O34  1  0.932000  0.319200  0.785800  1.0  -0.852
  O  O35  1  0.016100  0.688700  0.927200  1.0  -0.6128
  O  O36  1  0.244800  0.692000  0.774200  1.0  -0.8558
  O  O37  1  0.539400  0.449900  0.591900  1.0  -0.8607
  O  O38  1  0.634300  0.293800  0.558900  1.0  -0.6585
  O  O39  1  0.652900  0.894700  0.789800  1.0  -0.7469
  O  O40  1  0.605000  0.717800  0.714200  1.0  -0.852
  O  O41  1  0.115900  0.943300  0.572800  1.0  -0.6161
  O  O42  1  0.966200  0.019000  0.725800  1.0  -0.8568
  O  O43  1  0.541800  0.131300  0.908100  1.0  -0.8615
  O  O44  1  0.352700  0.193200  0.941100  1.0  -0.6576
  O  O45  1  0.815500  0.557300  0.289800  1.0  -0.7524
  O  O46  1  0.068000  0.680800  0.214200  1.0  -0.8538
  O  O47  1  0.983900  0.311300  0.072800  1.0  -0.6144
  O  O48  1  0.755200  0.308000  0.225800  1.0  -0.8504
  O  O49  1  0.460600  0.550100  0.408100  1.0  -0.8614
  O  O50  1  0.365700  0.706200  0.441100  1.0  -0.6571
  O  O51  1  0.347100  0.105300  0.210200  1.0  -0.7484
  O  O52  1  0.395000  0.282200  0.285800  1.0  -0.8514
  O  O53  1  0.884100  0.056700  0.427200  1.0  -0.6147
  O  O54  1  0.033800  0.981000  0.274200  1.0  -0.855
  O  O55  1  0.458200  0.868700  0.091900  1.0  -0.862
  O  O56  1  0.647300  0.806800  0.058900  1.0  -0.6589
