# generated using pymatgen
data_Nd2(C3O4)3
_symmetry_space_group_name_H-M   'P 1'
_cell_length_a   11.21000000
_cell_length_b   12.38300000
_cell_length_c   13.69600000
_cell_angle_alpha   90.00000000
_cell_angle_beta   93.01000000
_cell_angle_gamma   90.00000000
_symmetry_Int_Tables_number   1
_chemical_formula_structural   Nd2(C3O4)3
_chemical_formula_sum   'Nd8 C36 O48'
_cell_volume   1898.56582915
_cell_formula_units_Z   4
loop_
 _symmetry_equiv_pos_site_id
 _symmetry_equiv_pos_as_xyz
  1  'x, y, z'
loop_
 _atom_site_type_symbol
 _atom_site_label
 _atom_site_symmetry_multiplicity
 _atom_site_fract_x
 _atom_site_fract_y
 _atom_site_fract_z
 _atom_site_occupancy
 _atom_site_charge
  Nd  Nd1  1  0.153710  0.102040  0.033510  1.0  2.3496
  Nd  Nd2  1  0.653710  0.602040  0.533510  1.0  2.3496
  Nd  Nd3  1  0.846290  0.102040  0.466490  1.0  2.3497
  Nd  Nd4  1  0.346290  0.602040  0.966490  1.0  2.3497
  Nd  Nd5  1  0.846290  0.897960  0.966490  1.0  2.3494
  Nd  Nd6  1  0.346290  0.397960  0.466490  1.0  2.3494
  Nd  Nd7  1  0.153710  0.897960  0.533510  1.0  2.3495
  Nd  Nd8  1  0.653710  0.397960  0.033510  1.0  2.3495
  C  C9  1  0.049400  0.951600  0.174300  1.0  0.7628
  C  C10  1  0.318000  0.866500  0.062500  1.0  0.8173
  C  C11  1  0.413400  0.920800  0.130200  1.0  -0.1558
  C  C12  1  0.445800  0.038300  0.108600  1.0  0.7167
  C  C13  1  0.549400  0.451600  0.674300  1.0  0.7628
  C  C14  1  0.818000  0.366500  0.562500  1.0  0.8173
  C  C15  1  0.913400  0.420800  0.630200  1.0  -0.1558
  C  C16  1  0.945800  0.538300  0.608600  1.0  0.7167
  C  C17  1  0.950600  0.951600  0.325700  1.0  0.763
  C  C18  1  0.682000  0.866500  0.437500  1.0  0.8197
  C  C19  1  0.586600  0.920800  0.369800  1.0  -0.1514
  C  C20  1  0.554200  0.038300  0.391400  1.0  0.7171
  C  C21  1  0.450600  0.451600  0.825700  1.0  0.763
  C  C22  1  0.182000  0.366500  0.937500  1.0  0.8197
  C  C23  1  0.086600  0.420800  0.869800  1.0  -0.1514
  C  C24  1  0.054200  0.538300  0.891400  1.0  0.7171
  C  C25  1  0.950600  0.048400  0.825700  1.0  0.7632
  C  C26  1  0.682000  0.133500  0.937500  1.0  0.8165
  C  C27  1  0.586600  0.079200  0.869800  1.0  -0.1537
  C  C28  1  0.554200  0.961700  0.891400  1.0  0.7148
  C  C29  1  0.450600  0.548400  0.325700  1.0  0.7632
  C  C30  1  0.182000  0.633500  0.437500  1.0  0.8165
  C  C31  1  0.086600  0.579200  0.369800  1.0  -0.1537
  C  C32  1  0.054200  0.461700  0.391400  1.0  0.7148
  C  C33  1  0.049400  0.048400  0.674300  1.0  0.7625
  C  C34  1  0.318000  0.133500  0.562500  1.0  0.8157
  C  C35  1  0.413400  0.079200  0.630200  1.0  -0.159
  C  C36  1  0.445800  0.961700  0.608600  1.0  0.7144
  C  C37  1  0.549400  0.548400  0.174300  1.0  0.7625
  C  C38  1  0.818000  0.633500  0.062500  1.0  0.8157
  C  C39  1  0.913400  0.579200  0.130200  1.0  -0.159
  C  C40  1  0.945800  0.461700  0.108600  1.0  0.7144
  C  C41  1  0.000000  0.876200  0.250000  1.0  -0.255
  C  C42  1  0.500000  0.376200  0.750000  1.0  -0.255
  C  C43  1  0.000000  0.123800  0.750000  1.0  -0.2252
  C  C44  1  0.500000  0.623800  0.250000  1.0  -0.2252
  O  O45  1  0.140400  0.007800  0.199000  1.0  -0.6644
  O  O46  1  0.999700  0.959500  0.089800  1.0  -0.8563
  O  O47  1  0.235400  0.918800  0.025400  1.0  -0.683
  O  O48  1  0.338400  0.767800  0.049900  1.0  -0.8324
  O  O49  1  0.361000  0.103300  0.089100  1.0  -0.7883
  O  O50  1  0.550200  0.065600  0.121500  1.0  -0.5465
  O  O51  1  0.640400  0.507800  0.699000  1.0  -0.6644
  O  O52  1  0.499700  0.459500  0.589800  1.0  -0.8563
  O  O53  1  0.735400  0.418800  0.525400  1.0  -0.683
  O  O54  1  0.838400  0.267800  0.549900  1.0  -0.8324
  O  O55  1  0.861000  0.603300  0.589100  1.0  -0.7883
  O  O56  1  0.050200  0.565600  0.621500  1.0  -0.5465
  O  O57  1  0.859600  0.007800  0.301000  1.0  -0.6662
  O  O58  1  0.000300  0.959500  0.410200  1.0  -0.8558
  O  O59  1  0.764600  0.918800  0.474600  1.0  -0.6858
  O  O60  1  0.661600  0.767800  0.450100  1.0  -0.8332
  O  O61  1  0.639000  0.103300  0.410900  1.0  -0.789
  O  O62  1  0.449800  0.065600  0.378500  1.0  -0.5469
  O  O63  1  0.359600  0.507800  0.801000  1.0  -0.6662
  O  O64  1  0.500300  0.459500  0.910200  1.0  -0.8558
  O  O65  1  0.264600  0.418800  0.974600  1.0  -0.6858
  O  O66  1  0.161600  0.267800  0.950100  1.0  -0.8332
  O  O67  1  0.139000  0.603300  0.910900  1.0  -0.789
  O  O68  1  0.949800  0.565600  0.878500  1.0  -0.5469
  O  O69  1  0.859600  0.992200  0.801000  1.0  -0.6624
  O  O70  1  0.000300  0.040500  0.910200  1.0  -0.8536
  O  O71  1  0.764600  0.081200  0.974600  1.0  -0.6857
  O  O72  1  0.661600  0.232200  0.950100  1.0  -0.8327
  O  O73  1  0.639000  0.896700  0.910900  1.0  -0.7872
  O  O74  1  0.449800  0.934400  0.878500  1.0  -0.5455
  O  O75  1  0.359600  0.492200  0.301000  1.0  -0.6624
  O  O76  1  0.500300  0.540500  0.410200  1.0  -0.8536
  O  O77  1  0.264600  0.581200  0.474600  1.0  -0.6857
  O  O78  1  0.161600  0.732200  0.450100  1.0  -0.8327
  O  O79  1  0.139000  0.396700  0.410900  1.0  -0.7872
  O  O80  1  0.949800  0.434400  0.378500  1.0  -0.5455
  O  O81  1  0.140400  0.992200  0.699000  1.0  -0.665
  O  O82  1  0.999700  0.040500  0.589800  1.0  -0.8542
  O  O83  1  0.235400  0.081200  0.525400  1.0  -0.6825
  O  O84  1  0.338400  0.232200  0.549900  1.0  -0.8324
  O  O85  1  0.361000  0.896700  0.589100  1.0  -0.7872
  O  O86  1  0.550200  0.934400  0.621500  1.0  -0.5457
  O  O87  1  0.640400  0.492200  0.199000  1.0  -0.665
  O  O88  1  0.499700  0.540500  0.089800  1.0  -0.8542
  O  O89  1  0.735400  0.581200  0.025400  1.0  -0.6825
  O  O90  1  0.838400  0.732200  0.049900  1.0  -0.8324
  O  O91  1  0.861000  0.396700  0.089100  1.0  -0.7872
  O  O92  1  0.050200  0.434400  0.121500  1.0  -0.5457
