# generated using pymatgen
data_AgH15C11SN4O3
_symmetry_space_group_name_H-M   'P 1'
_cell_length_a   6.44200000
_cell_length_b   8.91000000
_cell_length_c   24.41600000
_cell_angle_alpha   90.00000000
_cell_angle_beta   97.29100000
_cell_angle_gamma   90.00000000
_symmetry_Int_Tables_number   1
_chemical_formula_structural   AgH15C11SN4O3
_chemical_formula_sum   'Ag4 H60 C44 S4 N16 O12'
_cell_volume   1390.10348262
_cell_formula_units_Z   4
loop_
 _symmetry_equiv_pos_site_id
 _symmetry_equiv_pos_as_xyz
  1  'x, y, z'
loop_
 _atom_site_type_symbol
 _atom_site_label
 _atom_site_symmetry_multiplicity
 _atom_site_fract_x
 _atom_site_fract_y
 _atom_site_fract_z
 _atom_site_occupancy
 _atom_site_charge
  Ag  Ag1  1  0.224260  0.502570  0.694220  1.0  0.3807
  Ag  Ag2  1  0.775740  0.002570  0.805780  1.0  0.3849
  Ag  Ag3  1  0.775740  0.497430  0.305780  1.0  0.3848
  Ag  Ag4  1  0.224260  0.997430  0.194220  1.0  0.3804
  H  H5  1  0.577000  0.701300  0.763500  1.0  0.0741
  H  H6  1  0.429300  0.810200  0.726200  1.0  0.0728
  H  H7  1  0.745500  0.493600  0.722000  1.0  0.0764
  H  H8  1  0.705600  0.468800  0.657900  1.0  0.0985
  H  H9  1  0.538000  0.193900  0.494400  1.0  0.1034
  H  H10  1  0.368900  0.774100  0.627800  1.0  0.0682
  H  H11  1  0.477500  0.641400  0.600200  1.0  0.0809
  H  H12  1  0.637100  0.016900  0.435700  1.0  0.0963
  H  H13  1  0.847800  0.648200  0.596000  1.0  0.0855
  H  H14  1  0.980500  0.785200  0.621000  1.0  0.0747
  H  H15  1  0.953100  0.707200  0.759100  1.0  0.0753
  H  H16  1  0.042700  0.820400  0.718900  1.0  0.0712
  H  H17  1  0.760300  0.264200  0.573700  1.0  0.1092
  H  H18  1  0.818600  0.985400  0.662500  1.0  0.0745
  H  H19  1  0.576400  0.985400  0.664800  1.0  0.0774
  H  H20  1  0.423000  0.201300  0.736500  1.0  0.0717
  H  H21  1  0.570700  0.310200  0.773800  1.0  0.072
  H  H22  1  0.254500  0.993600  0.778000  1.0  0.0772
  H  H23  1  0.294400  0.968800  0.842100  1.0  0.0993
  H  H24  1  0.462000  0.693900  0.005600  1.0  0.1031
  H  H25  1  0.631100  0.274100  0.872200  1.0  0.0688
  H  H26  1  0.522500  0.141400  0.899800  1.0  0.0819
  H  H27  1  0.362900  0.516900  0.064300  1.0  0.097
  H  H28  1  0.152200  0.148200  0.904000  1.0  0.0855
  H  H29  1  0.019500  0.285200  0.879000  1.0  0.0748
  H  H30  1  0.046900  0.207200  0.740900  1.0  0.0754
  H  H31  1  0.957300  0.320400  0.781100  1.0  0.0723
  H  H32  1  0.239700  0.764200  0.926300  1.0  0.1092
  H  H33  1  0.181400  0.485400  0.837500  1.0  0.0747
  H  H34  1  0.423600  0.485400  0.835200  1.0  0.0773
  H  H35  1  0.423000  0.298700  0.236500  1.0  0.072
  H  H36  1  0.570700  0.189800  0.273800  1.0  0.0725
  H  H37  1  0.254500  0.506400  0.278000  1.0  0.0779
  H  H38  1  0.294400  0.531200  0.342100  1.0  0.0972
  H  H39  1  0.462000  0.806100  0.505600  1.0  0.1024
  H  H40  1  0.631100  0.225900  0.372200  1.0  0.0682
  H  H41  1  0.522500  0.358600  0.399800  1.0  0.0802
  H  H42  1  0.362900  0.983100  0.564300  1.0  0.0968
  H  H43  1  0.152200  0.351800  0.404000  1.0  0.0849
  H  H44  1  0.019500  0.214800  0.379000  1.0  0.0745
  H  H45  1  0.046900  0.292800  0.240900  1.0  0.0749
  H  H46  1  0.957300  0.179600  0.281100  1.0  0.0721
  H  H47  1  0.239700  0.735800  0.426300  1.0  0.1093
  H  H48  1  0.181400  0.014600  0.337500  1.0  0.0754
  H  H49  1  0.423600  0.014600  0.335200  1.0  0.0779
  H  H50  1  0.577000  0.798700  0.263500  1.0  0.074
  H  H51  1  0.429300  0.689800  0.226200  1.0  0.0735
  H  H52  1  0.745500  0.006400  0.222000  1.0  0.0761
  H  H53  1  0.705600  0.031200  0.157900  1.0  0.0985
  H  H54  1  0.538000  0.306100  0.994400  1.0  0.103
  H  H55  1  0.368900  0.725900  0.127800  1.0  0.0672
  H  H56  1  0.477500  0.858600  0.100200  1.0  0.0816
  H  H57  1  0.637100  0.483100  0.935700  1.0  0.0966
  H  H58  1  0.847800  0.851800  0.096000  1.0  0.0858
  H  H59  1  0.980500  0.714800  0.121000  1.0  0.0745
  H  H60  1  0.953100  0.792800  0.259100  1.0  0.0747
  H  H61  1  0.042700  0.679600  0.218900  1.0  0.0717
  H  H62  1  0.760300  0.235800  0.073700  1.0  0.1097
  H  H63  1  0.818600  0.514600  0.162500  1.0  0.0745
  H  H64  1  0.576400  0.514600  0.164800  1.0  0.0785
  C  C65  1  0.555600  0.750200  0.727800  1.0  0.1055
  C  C66  1  0.995900  0.131600  0.560100  1.0  -0.2405
  C  C67  1  0.721400  0.544600  0.686600  1.0  0.1034
  C  C68  1  0.669500  0.149900  0.501700  1.0  -0.079
  C  C69  1  0.495600  0.714400  0.629900  1.0  0.1027
  C  C70  1  0.729400  0.045000  0.466400  1.0  -0.129
  C  C71  1  0.862400  0.721000  0.625800  1.0  0.1136
  C  C72  1  0.930500  0.977700  0.475600  1.0  0.0718
  C  C73  1  0.924700  0.755900  0.723400  1.0  0.0915
  C  C74  1  0.804200  0.193400  0.549600  1.0  -0.0184
  C  C75  1  0.699600  0.922000  0.667000  1.0  0.1222
  C  C76  1  0.444400  0.250200  0.772200  1.0  0.1048
  C  C77  1  0.004100  0.631600  0.939900  1.0  -0.2381
  C  C78  1  0.278600  0.044600  0.813400  1.0  0.1037
  C  C79  1  0.330500  0.649900  0.998300  1.0  -0.0801
  C  C80  1  0.504400  0.214400  0.870100  1.0  0.1029
  C  C81  1  0.270600  0.545000  0.033600  1.0  -0.1278
  C  C82  1  0.137600  0.221000  0.874200  1.0  0.1157
  C  C83  1  0.069500  0.477700  0.024400  1.0  0.0719
  C  C84  1  0.075300  0.255900  0.776600  1.0  0.0927
  C  C85  1  0.195800  0.693400  0.950400  1.0  -0.0183
  C  C86  1  0.300400  0.422000  0.833000  1.0  0.1225
  C  C87  1  0.444400  0.249800  0.272200  1.0  0.1049
  C  C88  1  0.004100  0.868400  0.439900  1.0  -0.2413
  C  C89  1  0.278600  0.455400  0.313400  1.0  0.1029
  C  C90  1  0.330500  0.850100  0.498300  1.0  -0.0813
  C  C91  1  0.504400  0.285600  0.370100  1.0  0.1025
  C  C92  1  0.270600  0.955000  0.533600  1.0  -0.1279
  C  C93  1  0.137600  0.279000  0.374200  1.0  0.1147
  C  C94  1  0.069500  0.022300  0.524400  1.0  0.0724
  C  C95  1  0.075300  0.244100  0.276600  1.0  0.0926
  C  C96  1  0.195800  0.806600  0.450400  1.0  -0.0157
  C  C97  1  0.300400  0.078000  0.333000  1.0  0.1228
  C  C98  1  0.555600  0.749800  0.227800  1.0  0.1054
  C  C99  1  0.995900  0.368400  0.060100  1.0  -0.2428
  C  C100  1  0.721400  0.955400  0.186600  1.0  0.103
  C  C101  1  0.669500  0.350100  0.001700  1.0  -0.0804
  C  C102  1  0.495600  0.785600  0.129900  1.0  0.1034
  C  C103  1  0.729400  0.455000  0.966400  1.0  -0.1296
  C  C104  1  0.862400  0.779000  0.125800  1.0  0.1141
  C  C105  1  0.930500  0.522300  0.975600  1.0  0.0723
  C  C106  1  0.924700  0.744100  0.223400  1.0  0.0914
  C  C107  1  0.804200  0.306600  0.049600  1.0  -0.0156
  C  C108  1  0.699600  0.578000  0.167000  1.0  0.1224
  S  S109  1  0.158100  0.187500  0.621450  1.0  1.3319
  S  S110  1  0.841900  0.687500  0.878550  1.0  1.3349
  S  S111  1  0.841900  0.812500  0.378550  1.0  1.3344
  S  S112  1  0.158100  0.312500  0.121450  1.0  1.3321
  N  N113  1  0.526600  0.634100  0.683900  1.0  -0.2858
  N  N114  1  0.733700  0.849000  0.722400  1.0  -0.2999
  N  N115  1  0.904500  0.640800  0.679700  1.0  -0.2886
  N  N116  1  0.672100  0.812200  0.622600  1.0  -0.3245
  N  N117  1  0.473400  0.134100  0.816100  1.0  -0.2866
  N  N118  1  0.266300  0.349000  0.777600  1.0  -0.2994
  N  N119  1  0.095500  0.140800  0.820300  1.0  -0.2875
  N  N120  1  0.327900  0.312200  0.877400  1.0  -0.324
  N  N121  1  0.473400  0.365900  0.316100  1.0  -0.2871
  N  N122  1  0.266300  0.151000  0.277600  1.0  -0.3012
  N  N123  1  0.095500  0.359200  0.320300  1.0  -0.2867
  N  N124  1  0.327900  0.187800  0.377400  1.0  -0.3244
  N  N125  1  0.526600  0.865900  0.183900  1.0  -0.2857
  N  N126  1  0.733700  0.651000  0.222400  1.0  -0.3004
  N  N127  1  0.904500  0.859200  0.179700  1.0  -0.2875
  N  N128  1  0.672100  0.687800  0.122600  1.0  -0.3255
  O  O129  1  0.034300  0.298500  0.646800  1.0  -0.6747
  O  O130  1  0.198500  0.055000  0.655600  1.0  -0.6637
  O  O131  1  0.347700  0.251800  0.605100  1.0  -0.6648
  O  O132  1  0.965700  0.798500  0.853200  1.0  -0.675
  O  O133  1  0.801500  0.555000  0.844400  1.0  -0.6634
  O  O134  1  0.652300  0.751800  0.894900  1.0  -0.6636
  O  O135  1  0.965700  0.701500  0.353200  1.0  -0.675
  O  O136  1  0.801500  0.945000  0.344400  1.0  -0.6627
  O  O137  1  0.652300  0.748200  0.394900  1.0  -0.6627
  O  O138  1  0.034300  0.201500  0.146800  1.0  -0.6751
  O  O139  1  0.198500  0.445000  0.155600  1.0  -0.6634
  O  O140  1  0.347700  0.248200  0.105100  1.0  -0.6641
