# generated using pymatgen
data_Co12H72C88N80Cl3
_symmetry_space_group_name_H-M   'P 1'
_cell_length_a   18.70590000
_cell_length_b   18.70590000
_cell_length_c   18.70590000
_cell_angle_alpha   90.00000000
_cell_angle_beta   90.00000000
_cell_angle_gamma   90.00000000
_symmetry_Int_Tables_number   1
_chemical_formula_structural   Co12H72C88N80Cl3
_chemical_formula_sum   'Co12 H72 C88 N80 Cl3'
_cell_volume   6545.39446605
_cell_formula_units_Z   1
loop_
 _symmetry_equiv_pos_site_id
 _symmetry_equiv_pos_as_xyz
  1  'x, y, z'
loop_
 _atom_site_type_symbol
 _atom_site_label
 _atom_site_symmetry_multiplicity
 _atom_site_fract_x
 _atom_site_fract_y
 _atom_site_fract_z
 _atom_site_occupancy
 _atom_site_charge
  Co  Co1  1  0.000000  0.368960  0.500000  1.0  0.8577
  Co  Co2  1  0.000000  0.631040  0.500000  1.0  0.8592
  Co  Co3  1  0.500000  0.000000  0.368960  1.0  0.8593
  Co  Co4  1  0.500000  0.000000  0.631040  1.0  0.858
  Co  Co5  1  0.368960  0.500000  0.000000  1.0  0.8603
  Co  Co6  1  0.631040  0.500000  0.000000  1.0  0.8597
  Co  Co7  1  0.368960  0.000000  0.500000  1.0  0.8603
  Co  Co8  1  0.631040  0.000000  0.500000  1.0  0.8597
  Co  Co9  1  0.000000  0.500000  0.631040  1.0  0.858
  Co  Co10  1  0.000000  0.500000  0.368960  1.0  0.8593
  Co  Co11  1  0.500000  0.368960  0.000000  1.0  0.8577
  Co  Co12  1  0.500000  0.631040  0.000000  1.0  0.8592
  H  H13  1  0.140300  0.288100  0.560700  1.0  0.0918
  H  H14  1  0.859700  0.711900  0.560700  1.0  0.0921
  H  H15  1  0.859700  0.288100  0.439300  1.0  0.092
  H  H16  1  0.140300  0.711900  0.439300  1.0  0.0922
  H  H17  1  0.560700  0.140300  0.288100  1.0  0.0914
  H  H18  1  0.560700  0.859700  0.711900  1.0  0.0914
  H  H19  1  0.439300  0.859700  0.288100  1.0  0.0913
  H  H20  1  0.439300  0.140300  0.711900  1.0  0.0913
  H  H21  1  0.288100  0.560700  0.140300  1.0  0.0906
  H  H22  1  0.711900  0.560700  0.859700  1.0  0.0907
  H  H23  1  0.288100  0.439300  0.859700  1.0  0.0904
  H  H24  1  0.711900  0.439300  0.140300  1.0  0.0903
  H  H25  1  0.288100  0.140300  0.439300  1.0  0.0908
  H  H26  1  0.711900  0.859700  0.439300  1.0  0.091
  H  H27  1  0.288100  0.859700  0.560700  1.0  0.0908
  H  H28  1  0.711900  0.140300  0.560700  1.0  0.0905
  H  H29  1  0.140300  0.560700  0.711900  1.0  0.0914
  H  H30  1  0.859700  0.560700  0.288100  1.0  0.091
  H  H31  1  0.859700  0.439300  0.711900  1.0  0.0906
  H  H32  1  0.140300  0.439300  0.288100  1.0  0.0905
  H  H33  1  0.560700  0.288100  0.859700  1.0  0.0923
  H  H34  1  0.560700  0.711900  0.140300  1.0  0.0926
  H  H35  1  0.439300  0.288100  0.140300  1.0  0.092
  H  H36  1  0.439300  0.711900  0.859700  1.0  0.0922
  H  H37  1  0.859700  0.711900  0.439300  1.0  0.0921
  H  H38  1  0.140300  0.288100  0.439300  1.0  0.0921
  H  H39  1  0.140300  0.711900  0.560700  1.0  0.092
  H  H40  1  0.859700  0.288100  0.560700  1.0  0.0918
  H  H41  1  0.439300  0.859700  0.711900  1.0  0.0915
  H  H42  1  0.439300  0.140300  0.288100  1.0  0.0911
  H  H43  1  0.560700  0.140300  0.711900  1.0  0.0913
  H  H44  1  0.560700  0.859700  0.288100  1.0  0.0915
  H  H45  1  0.711900  0.439300  0.859700  1.0  0.0903
  H  H46  1  0.288100  0.439300  0.140300  1.0  0.0903
  H  H47  1  0.711900  0.560700  0.140300  1.0  0.0907
  H  H48  1  0.288100  0.560700  0.859700  1.0  0.0908
  H  H49  1  0.711900  0.859700  0.560700  1.0  0.0908
  H  H50  1  0.288100  0.140300  0.560700  1.0  0.0906
  H  H51  1  0.711900  0.140300  0.439300  1.0  0.0909
  H  H52  1  0.288100  0.859700  0.439300  1.0  0.0908
  H  H53  1  0.859700  0.439300  0.288100  1.0  0.0906
  H  H54  1  0.140300  0.439300  0.711900  1.0  0.0909
  H  H55  1  0.140300  0.560700  0.288100  1.0  0.091
  H  H56  1  0.859700  0.560700  0.711900  1.0  0.091
  H  H57  1  0.439300  0.711900  0.140300  1.0  0.0924
  H  H58  1  0.439300  0.288100  0.859700  1.0  0.0922
  H  H59  1  0.560700  0.711900  0.859700  1.0  0.0926
  H  H60  1  0.560700  0.288100  0.140300  1.0  0.0921
  H  H61  1  0.238600  0.238600  0.609200  1.0  0.0877
  H  H62  1  0.761400  0.761400  0.609200  1.0  0.0879
  H  H63  1  0.761400  0.238600  0.390800  1.0  0.0877
  H  H64  1  0.238600  0.761400  0.390800  1.0  0.0881
  H  H65  1  0.609200  0.238600  0.238600  1.0  0.0878
  H  H66  1  0.609200  0.761400  0.761400  1.0  0.0884
  H  H67  1  0.390800  0.761400  0.238600  1.0  0.0883
  H  H68  1  0.390800  0.238600  0.761400  1.0  0.0879
  H  H69  1  0.238600  0.609200  0.238600  1.0  0.0881
  H  H70  1  0.761400  0.609200  0.761400  1.0  0.0879
  H  H71  1  0.238600  0.390800  0.761400  1.0  0.0877
  H  H72  1  0.761400  0.390800  0.238600  1.0  0.0875
  H  H73  1  0.238600  0.238600  0.390800  1.0  0.0883
  H  H74  1  0.761400  0.761400  0.390800  1.0  0.0878
  H  H75  1  0.238600  0.761400  0.609200  1.0  0.0882
  H  H76  1  0.761400  0.238600  0.609200  1.0  0.0873
  H  H77  1  0.238600  0.609200  0.761400  1.0  0.0882
  H  H78  1  0.761400  0.609200  0.238600  1.0  0.0879
  H  H79  1  0.761400  0.390800  0.761400  1.0  0.0874
  H  H80  1  0.238600  0.390800  0.238600  1.0  0.0878
  H  H81  1  0.609200  0.238600  0.761400  1.0  0.0882
  H  H82  1  0.609200  0.761400  0.238600  1.0  0.0884
  H  H83  1  0.390800  0.238600  0.238600  1.0  0.0878
  H  H84  1  0.390800  0.761400  0.761400  1.0  0.0884
  C  C85  1  0.128030  0.328840  0.588450  1.0  -0.0196
  C  C86  1  0.871970  0.671160  0.588450  1.0  -0.0202
  C  C87  1  0.871970  0.328840  0.411550  1.0  -0.0183
  C  C88  1  0.128030  0.671160  0.411550  1.0  -0.0202
  C  C89  1  0.328840  0.128030  0.411550  1.0  -0.0179
  C  C90  1  0.671160  0.871970  0.411550  1.0  -0.0181
  C  C91  1  0.328840  0.871970  0.588450  1.0  -0.0185
  C  C92  1  0.671160  0.128030  0.588450  1.0  -0.0195
  C  C93  1  0.871970  0.671160  0.411550  1.0  -0.0198
  C  C94  1  0.128030  0.328840  0.411550  1.0  -0.0182
  C  C95  1  0.128030  0.671160  0.588450  1.0  -0.0202
  C  C96  1  0.871970  0.328840  0.588450  1.0  -0.0192
  C  C97  1  0.671160  0.871970  0.588450  1.0  -0.019
  C  C98  1  0.328840  0.128030  0.588450  1.0  -0.0183
  C  C99  1  0.671160  0.128030  0.411550  1.0  -0.0182
  C  C100  1  0.328840  0.871970  0.411550  1.0  -0.0176
  C  C101  1  0.228800  0.320540  0.679460  1.0  -0.0107
  C  C102  1  0.163800  0.352400  0.647600  1.0  0.0089
  C  C103  1  0.771200  0.679460  0.679460  1.0  -0.0104
  C  C104  1  0.836200  0.647600  0.647600  1.0  0.0091
  C  C105  1  0.771200  0.320540  0.320540  1.0  -0.0103
  C  C106  1  0.836200  0.352400  0.352400  1.0  0.0086
  C  C107  1  0.228800  0.679460  0.320540  1.0  -0.0109
  C  C108  1  0.163800  0.647600  0.352400  1.0  0.0092
  C  C109  1  0.679460  0.228800  0.320540  1.0  -0.0098
  C  C110  1  0.647600  0.163800  0.352400  1.0  0.006
  C  C111  1  0.679460  0.771200  0.679460  1.0  -0.009
  C  C112  1  0.647600  0.836200  0.647600  1.0  0.0064
  C  C113  1  0.320540  0.771200  0.320540  1.0  -0.0095
  C  C114  1  0.352400  0.836200  0.352400  1.0  0.0059
  C  C115  1  0.320540  0.228800  0.679460  1.0  -0.0101
  C  C116  1  0.352400  0.163800  0.647600  1.0  0.0057
  C  C117  1  0.320540  0.679460  0.228800  1.0  -0.0107
  C  C118  1  0.352400  0.647600  0.163800  1.0  0.1324
  C  C119  1  0.679460  0.679460  0.771200  1.0  -0.0104
  C  C120  1  0.647600  0.647600  0.836200  1.0  0.1335
  C  C121  1  0.320540  0.320540  0.771200  1.0  -0.0107
  C  C122  1  0.352400  0.352400  0.836200  1.0  0.1329
  C  C123  1  0.679460  0.320540  0.228800  1.0  -0.0101
  C  C124  1  0.647600  0.352400  0.163800  1.0  0.132
  C  C125  1  0.320540  0.228800  0.320540  1.0  -0.0102
  C  C126  1  0.352400  0.163800  0.352400  1.0  0.0058
  C  C127  1  0.679460  0.771200  0.320540  1.0  -0.0089
  C  C128  1  0.647600  0.836200  0.352400  1.0  0.0063
  C  C129  1  0.320540  0.771200  0.679460  1.0  -0.0094
  C  C130  1  0.352400  0.836200  0.647600  1.0  0.0059
  C  C131  1  0.679460  0.228800  0.679460  1.0  -0.0097
  C  C132  1  0.647600  0.163800  0.647600  1.0  0.0061
  C  C133  1  0.228800  0.679460  0.679460  1.0  -0.0108
  C  C134  1  0.163800  0.647600  0.647600  1.0  0.0092
  C  C135  1  0.771200  0.679460  0.320540  1.0  -0.0105
  C  C136  1  0.836200  0.647600  0.352400  1.0  0.009
  C  C137  1  0.771200  0.320540  0.679460  1.0  -0.0102
  C  C138  1  0.836200  0.352400  0.647600  1.0  0.0087
  C  C139  1  0.228800  0.320540  0.320540  1.0  -0.0107
  C  C140  1  0.163800  0.352400  0.352400  1.0  0.009
  C  C141  1  0.679460  0.320540  0.771200  1.0  -0.0103
  C  C142  1  0.647600  0.352400  0.836200  1.0  0.133
  C  C143  1  0.679460  0.679460  0.228800  1.0  -0.0103
  C  C144  1  0.647600  0.647600  0.163800  1.0  0.1324
  C  C145  1  0.320540  0.320540  0.228800  1.0  -0.0104
  C  C146  1  0.352400  0.352400  0.163800  1.0  0.1319
  C  C147  1  0.320540  0.679460  0.771200  1.0  -0.0109
  C  C148  1  0.352400  0.647600  0.836200  1.0  0.1335
  C  C149  1  0.259700  0.259700  0.650300  1.0  -0.133
  C  C150  1  0.740300  0.740300  0.650300  1.0  -0.1331
  C  C151  1  0.740300  0.259700  0.349700  1.0  -0.1319
  C  C152  1  0.259700  0.740300  0.349700  1.0  -0.1318
  C  C153  1  0.650300  0.259700  0.259700  1.0  -0.1304
  C  C154  1  0.650300  0.740300  0.740300  1.0  -0.1306
  C  C155  1  0.349700  0.740300  0.259700  1.0  -0.1298
  C  C156  1  0.349700  0.259700  0.740300  1.0  -0.1302
  C  C157  1  0.259700  0.650300  0.259700  1.0  -0.1307
  C  C158  1  0.740300  0.650300  0.740300  1.0  -0.1315
  C  C159  1  0.259700  0.349700  0.740300  1.0  -0.1312
  C  C160  1  0.740300  0.349700  0.259700  1.0  -0.1313
  C  C161  1  0.259700  0.259700  0.349700  1.0  -0.1319
  C  C162  1  0.740300  0.740300  0.349700  1.0  -0.1319
  C  C163  1  0.259700  0.740300  0.650300  1.0  -0.1328
  C  C164  1  0.740300  0.259700  0.650300  1.0  -0.1331
  C  C165  1  0.259700  0.650300  0.740300  1.0  -0.131
  C  C166  1  0.740300  0.650300  0.259700  1.0  -0.1305
  C  C167  1  0.740300  0.349700  0.740300  1.0  -0.1313
  C  C168  1  0.259700  0.349700  0.259700  1.0  -0.1305
  C  C169  1  0.650300  0.259700  0.740300  1.0  -0.1309
  C  C170  1  0.650300  0.740300  0.259700  1.0  -0.1306
  C  C171  1  0.349700  0.259700  0.259700  1.0  -0.1303
  C  C172  1  0.349700  0.740300  0.740300  1.0  -0.1304
  N  N173  1  0.073440  0.372290  0.576350  1.0  -0.1891
  N  N174  1  0.411550  0.128030  0.671160  1.0  -0.2026
  N  N175  1  0.926560  0.627710  0.576350  1.0  -0.1893
  N  N176  1  0.588450  0.871970  0.671160  1.0  -0.2038
  N  N177  1  0.926560  0.372290  0.423650  1.0  -0.1885
  N  N178  1  0.588450  0.128030  0.328840  1.0  -0.2025
  N  N179  1  0.073440  0.627710  0.423650  1.0  -0.1888
  N  N180  1  0.411550  0.871970  0.328840  1.0  -0.2016
  N  N181  1  0.576350  0.073440  0.372290  1.0  -0.13
  N  N182  1  0.671160  0.411550  0.128030  1.0  -0.2049
  N  N183  1  0.576350  0.926560  0.627710  1.0  -0.1295
  N  N184  1  0.671160  0.588450  0.871970  1.0  -0.2046
  N  N185  1  0.423650  0.926560  0.372290  1.0  -0.1321
  N  N186  1  0.328840  0.588450  0.128030  1.0  -0.204
  N  N187  1  0.423650  0.073440  0.627710  1.0  -0.1309
  N  N188  1  0.328840  0.411550  0.871970  1.0  -0.204
  N  N189  1  0.372290  0.576350  0.073440  1.0  -0.1308
  N  N190  1  0.627710  0.576350  0.926560  1.0  -0.1308
  N  N191  1  0.372290  0.423650  0.926560  1.0  -0.1313
  N  N192  1  0.627710  0.423650  0.073440  1.0  -0.1308
  N  N193  1  0.372290  0.073440  0.423650  1.0  -0.1888
  N  N194  1  0.128030  0.411550  0.328840  1.0  -0.2021
  N  N195  1  0.627710  0.926560  0.423650  1.0  -0.1889
  N  N196  1  0.871970  0.588450  0.328840  1.0  -0.2016
  N  N197  1  0.372290  0.926560  0.576350  1.0  -0.1892
  N  N198  1  0.128030  0.588450  0.671160  1.0  -0.2027
  N  N199  1  0.627710  0.073440  0.576350  1.0  -0.1891
  N  N200  1  0.871970  0.411550  0.671160  1.0  -0.2028
  N  N201  1  0.073440  0.576350  0.627710  1.0  -0.1305
  N  N202  1  0.411550  0.671160  0.871970  1.0  -0.2056
  N  N203  1  0.926560  0.576350  0.372290  1.0  -0.1308
  N  N204  1  0.588450  0.671160  0.128030  1.0  -0.2062
  N  N205  1  0.926560  0.423650  0.627710  1.0  -0.1312
  N  N206  1  0.588450  0.328840  0.871970  1.0  -0.2055
  N  N207  1  0.073440  0.423650  0.372290  1.0  -0.132
  N  N208  1  0.411550  0.328840  0.128030  1.0  -0.2048
  N  N209  1  0.576350  0.372290  0.926560  1.0  -0.13
  N  N210  1  0.576350  0.627710  0.073440  1.0  -0.1299
  N  N211  1  0.423650  0.372290  0.073440  1.0  -0.1319
  N  N212  1  0.423650  0.627710  0.926560  1.0  -0.132
  N  N213  1  0.926560  0.627710  0.423650  1.0  -0.1889
  N  N214  1  0.588450  0.871970  0.328840  1.0  -0.2027
  N  N215  1  0.073440  0.372290  0.423650  1.0  -0.1884
  N  N216  1  0.411550  0.128030  0.328840  1.0  -0.2023
  N  N217  1  0.073440  0.627710  0.576350  1.0  -0.1891
  N  N218  1  0.411550  0.871970  0.671160  1.0  -0.2028
  N  N219  1  0.926560  0.372290  0.576350  1.0  -0.1894
  N  N220  1  0.588450  0.128030  0.671160  1.0  -0.2045
  N  N221  1  0.423650  0.926560  0.627710  1.0  -0.1315
  N  N222  1  0.328840  0.588450  0.871970  1.0  -0.2049
  N  N223  1  0.423650  0.073440  0.372290  1.0  -0.1316
  N  N224  1  0.328840  0.411550  0.128030  1.0  -0.2051
  N  N225  1  0.576350  0.073440  0.627710  1.0  -0.1291
  N  N226  1  0.671160  0.411550  0.871970  1.0  -0.2057
  N  N227  1  0.576350  0.926560  0.372290  1.0  -0.1303
  N  N228  1  0.671160  0.588450  0.128030  1.0  -0.2056
  N  N229  1  0.627710  0.423650  0.926560  1.0  -0.131
  N  N230  1  0.372290  0.423650  0.073440  1.0  -0.131
  N  N231  1  0.627710  0.576350  0.073440  1.0  -0.1305
  N  N232  1  0.372290  0.576350  0.926560  1.0  -0.1308
  N  N233  1  0.627710  0.926560  0.576350  1.0  -0.1892
  N  N234  1  0.871970  0.588450  0.671160  1.0  -0.2031
  N  N235  1  0.372290  0.073440  0.576350  1.0  -0.1893
  N  N236  1  0.128030  0.411550  0.671160  1.0  -0.2031
  N  N237  1  0.627710  0.073440  0.423650  1.0  -0.1889
  N  N238  1  0.871970  0.411550  0.328840  1.0  -0.2024
  N  N239  1  0.372290  0.926560  0.423650  1.0  -0.1891
  N  N240  1  0.128030  0.588450  0.328840  1.0  -0.2022
  N  N241  1  0.926560  0.423650  0.372290  1.0  -0.1319
  N  N242  1  0.588450  0.328840  0.128030  1.0  -0.2067
  N  N243  1  0.073440  0.423650  0.627710  1.0  -0.1311
  N  N244  1  0.411550  0.328840  0.871970  1.0  -0.2053
  N  N245  1  0.073440  0.576350  0.372290  1.0  -0.1311
  N  N246  1  0.411550  0.671160  0.128030  1.0  -0.2064
  N  N247  1  0.926560  0.576350  0.627710  1.0  -0.1303
  N  N248  1  0.588450  0.671160  0.871970  1.0  -0.2074
  N  N249  1  0.423650  0.627710  0.073440  1.0  -0.1319
  N  N250  1  0.423650  0.372290  0.926560  1.0  -0.1316
  N  N251  1  0.576350  0.627710  0.926560  1.0  -0.1303
  N  N252  1  0.576350  0.372290  0.073440  1.0  -0.13
  Cl  Cl253  1  0.000000  0.500000  0.500000  1.0  -0.1805
  Cl  Cl254  1  0.500000  0.000000  0.500000  1.0  -0.1805
  Cl  Cl255  1  0.500000  0.500000  0.000000  1.0  -0.1805
