# generated using pymatgen
data_Co12H24C40N16ClO4
_symmetry_space_group_name_H-M   'P 1'
_cell_length_a   18.83450000
_cell_length_b   18.83450000
_cell_length_c   18.83450000
_cell_angle_alpha   90.00000000
_cell_angle_beta   90.00000000
_cell_angle_gamma   90.00000000
_symmetry_Int_Tables_number   1
_chemical_formula_structural   Co12H24C40N16ClO4
_chemical_formula_sum   'Co36 H72 C120 N48 Cl3 O12'
_cell_volume   6681.32021116
_cell_formula_units_Z   3
loop_
 _symmetry_equiv_pos_site_id
 _symmetry_equiv_pos_as_xyz
  1  'x, y, z'
loop_
 _atom_site_type_symbol
 _atom_site_label
 _atom_site_symmetry_multiplicity
 _atom_site_fract_x
 _atom_site_fract_y
 _atom_site_fract_z
 _atom_site_occupancy
 _atom_site_charge
  Co  Co1  1  0.368080  0.000000  0.500000  1.0  0.8356
  Co  Co2  1  0.631920  0.000000  0.500000  1.0  0.8353
  Co  Co3  1  0.500000  0.368080  0.000000  1.0  0.834
  Co  Co4  1  0.500000  0.631920  0.000000  1.0  0.8355
  Co  Co5  1  0.000000  0.500000  0.368080  1.0  0.8371
  Co  Co6  1  0.000000  0.500000  0.631920  1.0  0.8365
  Co  Co7  1  0.000000  0.368080  0.500000  1.0  0.834
  Co  Co8  1  0.000000  0.631920  0.500000  1.0  0.8355
  Co  Co9  1  0.368080  0.500000  0.000000  1.0  0.8356
  Co  Co10  1  0.631920  0.500000  0.000000  1.0  0.8353
  Co  Co11  1  0.500000  0.000000  0.631920  1.0  0.8365
  Co  Co12  1  0.500000  0.000000  0.368080  1.0  0.8371
  Co  Co13  1  0.280800  0.156700  0.500000  1.0  0.6605
  Co  Co14  1  0.719200  0.843300  0.500000  1.0  0.6615
  Co  Co15  1  0.719200  0.156700  0.500000  1.0  0.6574
  Co  Co16  1  0.280800  0.843300  0.500000  1.0  0.6648
  Co  Co17  1  0.500000  0.280800  0.156700  1.0  0.661
  Co  Co18  1  0.500000  0.719200  0.843300  1.0  0.6667
  Co  Co19  1  0.500000  0.719200  0.156700  1.0  0.6598
  Co  Co20  1  0.500000  0.280800  0.843300  1.0  0.6678
  Co  Co21  1  0.156700  0.500000  0.280800  1.0  0.6676
  Co  Co22  1  0.843300  0.500000  0.719200  1.0  0.6621
  Co  Co23  1  0.156700  0.500000  0.719200  1.0  0.6598
  Co  Co24  1  0.843300  0.500000  0.280800  1.0  0.6696
  Co  Co25  1  0.156700  0.280800  0.500000  1.0  0.6592
  Co  Co26  1  0.843300  0.719200  0.500000  1.0  0.6602
  Co  Co27  1  0.156700  0.719200  0.500000  1.0  0.6581
  Co  Co28  1  0.843300  0.280800  0.500000  1.0  0.6614
  Co  Co29  1  0.280800  0.500000  0.843300  1.0  0.6723
  Co  Co30  1  0.719200  0.500000  0.156700  1.0  0.6627
  Co  Co31  1  0.719200  0.500000  0.843300  1.0  0.6688
  Co  Co32  1  0.280800  0.500000  0.156700  1.0  0.6656
  Co  Co33  1  0.500000  0.156700  0.719200  1.0  0.6555
  Co  Co34  1  0.500000  0.843300  0.280800  1.0  0.6674
  Co  Co35  1  0.500000  0.156700  0.280800  1.0  0.6638
  Co  Co36  1  0.500000  0.843300  0.719200  1.0  0.6601
  H  H37  1  0.288000  0.141300  0.561700  1.0  0.1124
  H  H38  1  0.712000  0.858700  0.561700  1.0  0.113
  H  H39  1  0.712000  0.141300  0.438300  1.0  0.1122
  H  H40  1  0.288000  0.858700  0.438300  1.0  0.1127
  H  H41  1  0.561700  0.288000  0.141300  1.0  0.1101
  H  H42  1  0.561700  0.712000  0.858700  1.0  0.1087
  H  H43  1  0.438300  0.712000  0.141300  1.0  0.1097
  H  H44  1  0.438300  0.288000  0.858700  1.0  0.1128
  H  H45  1  0.141300  0.561700  0.288000  1.0  0.1135
  H  H46  1  0.858700  0.561700  0.712000  1.0  0.1116
  H  H47  1  0.141300  0.438300  0.712000  1.0  0.1132
  H  H48  1  0.858700  0.438300  0.288000  1.0  0.1122
  H  H49  1  0.141300  0.288000  0.438300  1.0  0.1112
  H  H50  1  0.858700  0.712000  0.438300  1.0  0.1085
  H  H51  1  0.141300  0.712000  0.561700  1.0  0.1102
  H  H52  1  0.858700  0.288000  0.561700  1.0  0.1111
  H  H53  1  0.288000  0.561700  0.858700  1.0  0.1129
  H  H54  1  0.712000  0.561700  0.141300  1.0  0.113
  H  H55  1  0.712000  0.438300  0.858700  1.0  0.1134
  H  H56  1  0.288000  0.438300  0.141300  1.0  0.1124
  H  H57  1  0.561700  0.141300  0.712000  1.0  0.1116
  H  H58  1  0.561700  0.858700  0.288000  1.0  0.1118
  H  H59  1  0.438300  0.141300  0.288000  1.0  0.1135
  H  H60  1  0.438300  0.858700  0.712000  1.0  0.1138
  H  H61  1  0.712000  0.858700  0.438300  1.0  0.1127
  H  H62  1  0.288000  0.141300  0.438300  1.0  0.1119
  H  H63  1  0.288000  0.858700  0.561700  1.0  0.1129
  H  H64  1  0.712000  0.141300  0.561700  1.0  0.1125
  H  H65  1  0.438300  0.712000  0.858700  1.0  0.1106
  H  H66  1  0.438300  0.288000  0.141300  1.0  0.112
  H  H67  1  0.561700  0.288000  0.858700  1.0  0.1109
  H  H68  1  0.561700  0.712000  0.141300  1.0  0.1082
  H  H69  1  0.858700  0.438300  0.712000  1.0  0.1124
  H  H70  1  0.141300  0.438300  0.288000  1.0  0.1137
  H  H71  1  0.858700  0.561700  0.288000  1.0  0.1118
  H  H72  1  0.141300  0.561700  0.712000  1.0  0.1128
  H  H73  1  0.858700  0.712000  0.561700  1.0  0.1088
  H  H74  1  0.141300  0.288000  0.561700  1.0  0.1122
  H  H75  1  0.858700  0.288000  0.438300  1.0  0.1104
  H  H76  1  0.141300  0.712000  0.438300  1.0  0.1099
  H  H77  1  0.712000  0.438300  0.141300  1.0  0.1129
  H  H78  1  0.288000  0.438300  0.858700  1.0  0.1135
  H  H79  1  0.288000  0.561700  0.141300  1.0  0.1122
  H  H80  1  0.712000  0.561700  0.858700  1.0  0.1125
  H  H81  1  0.438300  0.858700  0.288000  1.0  0.1142
  H  H82  1  0.438300  0.141300  0.712000  1.0  0.1134
  H  H83  1  0.561700  0.858700  0.712000  1.0  0.112
  H  H84  1  0.561700  0.141300  0.288000  1.0  0.1112
  H  H85  1  0.390500  0.238500  0.761500  1.0  0.0449
  H  H86  1  0.609500  0.761500  0.761500  1.0  0.045
  H  H87  1  0.609500  0.238500  0.238500  1.0  0.0443
  H  H88  1  0.390500  0.761500  0.238500  1.0  0.0443
  H  H89  1  0.761500  0.390500  0.238500  1.0  0.0444
  H  H90  1  0.761500  0.609500  0.761500  1.0  0.0447
  H  H91  1  0.238500  0.609500  0.238500  1.0  0.0444
  H  H92  1  0.238500  0.390500  0.761500  1.0  0.0454
  H  H93  1  0.238500  0.761500  0.390500  1.0  0.0456
  H  H94  1  0.761500  0.761500  0.609500  1.0  0.0447
  H  H95  1  0.238500  0.238500  0.609500  1.0  0.045
  H  H96  1  0.761500  0.238500  0.390500  1.0  0.0452
  H  H97  1  0.238500  0.390500  0.238500  1.0  0.0451
  H  H98  1  0.761500  0.609500  0.238500  1.0  0.0441
  H  H99  1  0.238500  0.609500  0.761500  1.0  0.0449
  H  H100  1  0.761500  0.390500  0.761500  1.0  0.0448
  H  H101  1  0.390500  0.761500  0.761500  1.0  0.0448
  H  H102  1  0.609500  0.761500  0.238500  1.0  0.0448
  H  H103  1  0.609500  0.238500  0.761500  1.0  0.045
  H  H104  1  0.390500  0.238500  0.238500  1.0  0.0441
  H  H105  1  0.761500  0.238500  0.609500  1.0  0.0445
  H  H106  1  0.761500  0.761500  0.390500  1.0  0.0453
  H  H107  1  0.238500  0.238500  0.390500  1.0  0.0455
  H  H108  1  0.238500  0.761500  0.609500  1.0  0.0453
  C  C109  1  0.328260  0.129030  0.589490  1.0  -0.1154
  C  C110  1  0.671740  0.870970  0.589490  1.0  -0.1131
  C  C111  1  0.671740  0.129030  0.410510  1.0  -0.1148
  C  C112  1  0.328260  0.870970  0.410510  1.0  -0.1131
  C  C113  1  0.589490  0.328260  0.129030  1.0  -0.1155
  C  C114  1  0.589490  0.671740  0.870970  1.0  -0.1142
  C  C115  1  0.410510  0.671740  0.129030  1.0  -0.1162
  C  C116  1  0.410510  0.328260  0.870970  1.0  -0.1152
  C  C117  1  0.129030  0.589490  0.328260  1.0  -0.1141
  C  C118  1  0.870970  0.589490  0.671740  1.0  -0.115
  C  C119  1  0.129030  0.410510  0.671740  1.0  -0.1142
  C  C120  1  0.870970  0.410510  0.328260  1.0  -0.1151
  C  C121  1  0.129030  0.328260  0.410510  1.0  -0.1141
  C  C122  1  0.870970  0.671740  0.410510  1.0  -0.1157
  C  C123  1  0.129030  0.671740  0.589490  1.0  -0.1141
  C  C124  1  0.870970  0.328260  0.589490  1.0  -0.1155
  C  C125  1  0.328260  0.589490  0.870970  1.0  -0.115
  C  C126  1  0.671740  0.589490  0.129030  1.0  -0.1153
  C  C127  1  0.671740  0.410510  0.870970  1.0  -0.1153
  C  C128  1  0.328260  0.410510  0.129030  1.0  -0.1166
  C  C129  1  0.589490  0.129030  0.671740  1.0  -0.1142
  C  C130  1  0.589490  0.870970  0.328260  1.0  -0.1124
  C  C131  1  0.410510  0.129030  0.328260  1.0  -0.115
  C  C132  1  0.410510  0.870970  0.671740  1.0  -0.1131
  C  C133  1  0.671740  0.870970  0.410510  1.0  -0.1131
  C  C134  1  0.328260  0.129030  0.410510  1.0  -0.1155
  C  C135  1  0.328260  0.870970  0.589490  1.0  -0.1135
  C  C136  1  0.671740  0.129030  0.589490  1.0  -0.1146
  C  C137  1  0.410510  0.671740  0.870970  1.0  -0.1151
  C  C138  1  0.410510  0.328260  0.129030  1.0  -0.1165
  C  C139  1  0.589490  0.328260  0.870970  1.0  -0.1146
  C  C140  1  0.589490  0.671740  0.129030  1.0  -0.1153
  C  C141  1  0.870970  0.410510  0.671740  1.0  -0.1154
  C  C142  1  0.129030  0.410510  0.328260  1.0  -0.1147
  C  C143  1  0.870970  0.589490  0.328260  1.0  -0.1148
  C  C144  1  0.129030  0.589490  0.671740  1.0  -0.1139
  C  C145  1  0.870970  0.671740  0.589490  1.0  -0.1153
  C  C146  1  0.129030  0.328260  0.589490  1.0  -0.1146
  C  C147  1  0.870970  0.328260  0.410510  1.0  -0.1156
  C  C148  1  0.129030  0.671740  0.410510  1.0  -0.1142
  C  C149  1  0.671740  0.410510  0.129030  1.0  -0.1165
  C  C150  1  0.328260  0.410510  0.870970  1.0  -0.1158
  C  C151  1  0.328260  0.589490  0.129030  1.0  -0.116
  C  C152  1  0.671740  0.589490  0.870970  1.0  -0.1143
  C  C153  1  0.410510  0.870970  0.328260  1.0  -0.1136
  C  C154  1  0.410510  0.129030  0.671740  1.0  -0.1146
  C  C155  1  0.589490  0.870970  0.671740  1.0  -0.1126
  C  C156  1  0.589490  0.129030  0.328260  1.0  -0.1141
  C  C157  1  0.351550  0.164740  0.648450  1.0  -0.0912
  C  C158  1  0.320050  0.228390  0.679950  1.0  0.0091
  C  C159  1  0.648450  0.835260  0.648450  1.0  -0.0903
  C  C160  1  0.679950  0.771610  0.679950  1.0  0.009
  C  C161  1  0.648450  0.164740  0.351550  1.0  -0.0914
  C  C162  1  0.679950  0.228390  0.320050  1.0  0.0086
  C  C163  1  0.351550  0.835260  0.351550  1.0  -0.0925
  C  C164  1  0.320050  0.771610  0.320050  1.0  0.009
  C  C165  1  0.648450  0.351550  0.164740  1.0  -0.0922
  C  C166  1  0.679950  0.320050  0.228390  1.0  0.0085
  C  C167  1  0.648450  0.648450  0.835260  1.0  -0.0912
  C  C168  1  0.679950  0.679950  0.771610  1.0  0.0089
  C  C169  1  0.351550  0.648450  0.164740  1.0  -0.0926
  C  C170  1  0.320050  0.679950  0.228390  1.0  0.0092
  C  C171  1  0.351550  0.351550  0.835260  1.0  -0.0929
  C  C172  1  0.320050  0.320050  0.771610  1.0  0.0085
  C  C173  1  0.164740  0.648450  0.351550  1.0  -0.0909
  C  C174  1  0.228390  0.679950  0.320050  1.0  0.0083
  C  C175  1  0.835260  0.648450  0.648450  1.0  -0.0903
  C  C176  1  0.771610  0.679950  0.679950  1.0  0.009
  C  C177  1  0.164740  0.351550  0.648450  1.0  -0.0908
  C  C178  1  0.228390  0.320050  0.679950  1.0  0.0082
  C  C179  1  0.835260  0.351550  0.351550  1.0  -0.0921
  C  C180  1  0.771610  0.320050  0.320050  1.0  0.0084
  C  C181  1  0.164740  0.351550  0.351550  1.0  -0.0917
  C  C182  1  0.228390  0.320050  0.320050  1.0  0.008
  C  C183  1  0.835260  0.648450  0.351550  1.0  -0.0915
  C  C184  1  0.771610  0.679950  0.320050  1.0  0.0088
  C  C185  1  0.164740  0.648450  0.648450  1.0  -0.09
  C  C186  1  0.228390  0.679950  0.679950  1.0  0.0085
  C  C187  1  0.835260  0.351550  0.648450  1.0  -0.0909
  C  C188  1  0.771610  0.320050  0.679950  1.0  0.0087
  C  C189  1  0.351550  0.648450  0.835260  1.0  -0.092
  C  C190  1  0.320050  0.679950  0.771610  1.0  0.009
  C  C191  1  0.648450  0.648450  0.164740  1.0  -0.0919
  C  C192  1  0.679950  0.679950  0.228390  1.0  0.0089
  C  C193  1  0.648450  0.351550  0.835260  1.0  -0.0918
  C  C194  1  0.679950  0.320050  0.771610  1.0  0.0083
  C  C195  1  0.351550  0.351550  0.164740  1.0  -0.0932
  C  C196  1  0.320050  0.320050  0.228390  1.0  0.0088
  C  C197  1  0.648450  0.164740  0.648450  1.0  -0.0905
  C  C198  1  0.679950  0.228390  0.679950  1.0  0.0089
  C  C199  1  0.648450  0.835260  0.351550  1.0  -0.0913
  C  C200  1  0.679950  0.771610  0.320050  1.0  0.0088
  C  C201  1  0.351550  0.164740  0.351550  1.0  -0.0923
  C  C202  1  0.320050  0.228390  0.320050  1.0  0.0088
  C  C203  1  0.351550  0.835260  0.648450  1.0  -0.0913
  C  C204  1  0.320050  0.771610  0.679950  1.0  0.0092
  C  C205  1  0.349510  0.259300  0.740700  1.0  -0.1406
  C  C206  1  0.650490  0.740700  0.740700  1.0  -0.1412
  C  C207  1  0.650490  0.259300  0.259300  1.0  -0.141
  C  C208  1  0.349510  0.740700  0.259300  1.0  -0.1402
  C  C209  1  0.740700  0.349510  0.259300  1.0  -0.1401
  C  C210  1  0.740700  0.650490  0.740700  1.0  -0.1395
  C  C211  1  0.259300  0.650490  0.259300  1.0  -0.1396
  C  C212  1  0.259300  0.349510  0.740700  1.0  -0.1407
  C  C213  1  0.259300  0.740700  0.349510  1.0  -0.1404
  C  C214  1  0.740700  0.740700  0.650490  1.0  -0.14
  C  C215  1  0.259300  0.259300  0.650490  1.0  -0.1406
  C  C216  1  0.740700  0.259300  0.349510  1.0  -0.1403
  C  C217  1  0.259300  0.349510  0.259300  1.0  -0.1403
  C  C218  1  0.740700  0.650490  0.259300  1.0  -0.139
  C  C219  1  0.259300  0.650490  0.740700  1.0  -0.14
  C  C220  1  0.740700  0.349510  0.740700  1.0  -0.1405
  C  C221  1  0.349510  0.740700  0.740700  1.0  -0.1405
  C  C222  1  0.650490  0.740700  0.259300  1.0  -0.1408
  C  C223  1  0.650490  0.259300  0.740700  1.0  -0.1413
  C  C224  1  0.349510  0.259300  0.259300  1.0  -0.1405
  C  C225  1  0.740700  0.259300  0.650490  1.0  -0.1401
  C  C226  1  0.740700  0.740700  0.349510  1.0  -0.1402
  C  C227  1  0.259300  0.259300  0.349510  1.0  -0.1406
  C  C228  1  0.259300  0.740700  0.650490  1.0  -0.1402
  N  N229  1  0.371540  0.074060  0.577620  1.0  -0.2563
  N  N230  1  0.628460  0.925940  0.577620  1.0  -0.255
  N  N231  1  0.628460  0.074060  0.422380  1.0  -0.2536
  N  N232  1  0.371540  0.925940  0.422380  1.0  -0.2547
  N  N233  1  0.577620  0.371540  0.074060  1.0  -0.2535
  N  N234  1  0.577620  0.628460  0.925940  1.0  -0.2536
  N  N235  1  0.422380  0.628460  0.074060  1.0  -0.2545
  N  N236  1  0.422380  0.371540  0.925940  1.0  -0.2547
  N  N237  1  0.074060  0.577620  0.371540  1.0  -0.2545
  N  N238  1  0.925940  0.577620  0.628460  1.0  -0.2539
  N  N239  1  0.074060  0.422380  0.628460  1.0  -0.2545
  N  N240  1  0.925940  0.422380  0.371540  1.0  -0.2546
  N  N241  1  0.074060  0.371540  0.422380  1.0  -0.2544
  N  N242  1  0.925940  0.628460  0.422380  1.0  -0.2538
  N  N243  1  0.074060  0.628460  0.577620  1.0  -0.2555
  N  N244  1  0.925940  0.371540  0.577620  1.0  -0.2557
  N  N245  1  0.371540  0.577620  0.925940  1.0  -0.2543
  N  N246  1  0.628460  0.577620  0.074060  1.0  -0.2534
  N  N247  1  0.628460  0.422380  0.925940  1.0  -0.254
  N  N248  1  0.371540  0.422380  0.074060  1.0  -0.2543
  N  N249  1  0.577620  0.074060  0.628460  1.0  -0.2533
  N  N250  1  0.577620  0.925940  0.371540  1.0  -0.254
  N  N251  1  0.422380  0.074060  0.371540  1.0  -0.2547
  N  N252  1  0.422380  0.925940  0.628460  1.0  -0.2544
  N  N253  1  0.628460  0.925940  0.422380  1.0  -0.2542
  N  N254  1  0.371540  0.074060  0.422380  1.0  -0.2537
  N  N255  1  0.371540  0.925940  0.577620  1.0  -0.2558
  N  N256  1  0.628460  0.074060  0.577620  1.0  -0.2555
  N  N257  1  0.422380  0.628460  0.925940  1.0  -0.2547
  N  N258  1  0.422380  0.371540  0.074060  1.0  -0.2546
  N  N259  1  0.577620  0.371540  0.925940  1.0  -0.2538
  N  N260  1  0.577620  0.628460  0.074060  1.0  -0.2533
  N  N261  1  0.925940  0.422380  0.628460  1.0  -0.2538
  N  N262  1  0.074060  0.422380  0.371540  1.0  -0.2549
  N  N263  1  0.925940  0.577620  0.371540  1.0  -0.2545
  N  N264  1  0.074060  0.577620  0.628460  1.0  -0.2544
  N  N265  1  0.925940  0.628460  0.577620  1.0  -0.2558
  N  N266  1  0.074060  0.371540  0.577620  1.0  -0.2557
  N  N267  1  0.925940  0.371540  0.422380  1.0  -0.2538
  N  N268  1  0.074060  0.628460  0.422380  1.0  -0.2544
  N  N269  1  0.628460  0.422380  0.074060  1.0  -0.2529
  N  N270  1  0.371540  0.422380  0.925940  1.0  -0.2547
  N  N271  1  0.371540  0.577620  0.074060  1.0  -0.2546
  N  N272  1  0.628460  0.577620  0.925940  1.0  -0.2539
  N  N273  1  0.422380  0.925940  0.371540  1.0  -0.2554
  N  N274  1  0.422380  0.074060  0.628460  1.0  -0.2541
  N  N275  1  0.577620  0.925940  0.628460  1.0  -0.2533
  N  N276  1  0.577620  0.074060  0.371540  1.0  -0.2538
  Cl  Cl277  1  0.500000  0.000000  0.500000  1.0  -0.2149
  Cl  Cl278  1  0.500000  0.500000  0.000000  1.0  -0.2149
  Cl  Cl279  1  0.000000  0.500000  0.500000  1.0  -0.2149
  O  O280  1  0.173600  0.173600  0.500000  1.0  -0.7215
  O  O281  1  0.826400  0.826400  0.500000  1.0  -0.7158
  O  O282  1  0.826400  0.173600  0.500000  1.0  -0.7229
  O  O283  1  0.173600  0.826400  0.500000  1.0  -0.7134
  O  O284  1  0.500000  0.173600  0.173600  1.0  -0.7243
  O  O285  1  0.500000  0.826400  0.826400  1.0  -0.7156
  O  O286  1  0.500000  0.826400  0.173600  1.0  -0.7217
  O  O287  1  0.500000  0.173600  0.826400  1.0  -0.7283
  O  O288  1  0.173600  0.500000  0.173600  1.0  -0.7258
  O  O289  1  0.826400  0.500000  0.826400  1.0  -0.7301
  O  O290  1  0.173600  0.500000  0.826400  1.0  -0.7229
  O  O291  1  0.826400  0.500000  0.173600  1.0  -0.7299
