# generated using pymatgen
data_NiHC4O3
_symmetry_space_group_name_H-M   'P 1'
_cell_length_a   25.76110000
_cell_length_b   25.76110000
_cell_length_c   6.75650000
_cell_angle_alpha   90.00000000
_cell_angle_beta   90.00000000
_cell_angle_gamma   120.00000000
_symmetry_Int_Tables_number   1
_chemical_formula_structural   NiHC4O3
_chemical_formula_sum   'Ni18 H18 C72 O54'
_cell_volume   3883.12364800
_cell_formula_units_Z   18
loop_
 _symmetry_equiv_pos_site_id
 _symmetry_equiv_pos_as_xyz
  1  'x, y, z'
loop_
 _atom_site_type_symbol
 _atom_site_label
 _atom_site_symmetry_multiplicity
 _atom_site_fract_x
 _atom_site_fract_y
 _atom_site_fract_z
 _atom_site_occupancy
 _atom_site_charge
  Ni  Ni1  1  0.617490  0.648320  0.353700  1.0  0.8628
  Ni  Ni2  1  0.284160  0.981650  0.687030  1.0  0.863
  Ni  Ni3  1  0.950820  0.314990  0.020370  1.0  0.8628
  Ni  Ni4  1  0.351680  0.969170  0.353700  1.0  0.8629
  Ni  Ni5  1  0.018350  0.302500  0.687030  1.0  0.8629
  Ni  Ni6  1  0.685010  0.635840  0.020370  1.0  0.8633
  Ni  Ni7  1  0.030830  0.382510  0.353700  1.0  0.8633
  Ni  Ni8  1  0.697500  0.715840  0.687030  1.0  0.8634
  Ni  Ni9  1  0.364160  0.049180  0.020370  1.0  0.8633
  Ni  Ni10  1  0.382510  0.351680  0.646300  1.0  0.8621
  Ni  Ni11  1  0.049180  0.685010  0.979630  1.0  0.8621
  Ni  Ni12  1  0.715840  0.018350  0.312970  1.0  0.8622
  Ni  Ni13  1  0.648320  0.030830  0.646300  1.0  0.8633
  Ni  Ni14  1  0.314990  0.364160  0.979630  1.0  0.8637
  Ni  Ni15  1  0.981650  0.697500  0.312970  1.0  0.8633
  Ni  Ni16  1  0.969170  0.617490  0.646300  1.0  0.8617
  Ni  Ni17  1  0.635840  0.950820  0.979630  1.0  0.8617
  Ni  Ni18  1  0.302500  0.284160  0.312970  1.0  0.8619
  H  H19  1  0.526500  0.493960  0.323370  1.0  0.1521
  H  H20  1  0.193170  0.827290  0.656700  1.0  0.1521
  H  H21  1  0.859830  0.160630  0.990040  1.0  0.1502
  H  H22  1  0.506040  0.032540  0.323370  1.0  0.1519
  H  H23  1  0.172710  0.365870  0.656700  1.0  0.1519
  H  H24  1  0.839370  0.699210  0.990040  1.0  0.1506
  H  H25  1  0.967460  0.473500  0.323370  1.0  0.1514
  H  H26  1  0.634130  0.806830  0.656700  1.0  0.1514
  H  H27  1  0.300790  0.140170  0.990040  1.0  0.1505
  H  H28  1  0.473500  0.506040  0.676630  1.0  0.1518
  H  H29  1  0.140170  0.839370  0.009960  1.0  0.1505
  H  H30  1  0.806830  0.172710  0.343300  1.0  0.1518
  H  H31  1  0.493960  0.967460  0.676630  1.0  0.1518
  H  H32  1  0.160630  0.300790  0.009960  1.0  0.1507
  H  H33  1  0.827290  0.634130  0.343300  1.0  0.1518
  H  H34  1  0.032540  0.526500  0.676630  1.0  0.1519
  H  H35  1  0.699210  0.859830  0.009960  1.0  0.1511
  H  H36  1  0.365870  0.193170  0.343300  1.0  0.1519
  C  C37  1  0.416610  0.407370  0.249680  1.0  0.585
  C  C38  1  0.460760  0.454090  0.114120  1.0  -0.0988
  C  C39  1  0.556920  0.550360  0.076890  1.0  0.342
  C  C40  1  0.515750  0.498310  0.190870  1.0  -0.0176
  C  C41  1  0.083280  0.740700  0.583010  1.0  0.585
  C  C42  1  0.127430  0.787420  0.447450  1.0  -0.0994
  C  C43  1  0.223590  0.883690  0.410220  1.0  0.342
  C  C44  1  0.182420  0.831640  0.524200  1.0  -0.0176
  C  C45  1  0.749940  0.074040  0.916350  1.0  0.585
  C  C46  1  0.794090  0.120760  0.780790  1.0  -0.0987
  C  C47  1  0.890250  0.217030  0.743560  1.0  0.3422
  C  C48  1  0.849080  0.164980  0.857540  1.0  -0.0256
  C  C49  1  0.592630  0.009240  0.249680  1.0  0.585
  C  C50  1  0.545910  0.006670  0.114120  1.0  -0.0983
  C  C51  1  0.449640  0.006560  0.076890  1.0  0.3401
  C  C52  1  0.501690  0.017440  0.190870  1.0  -0.0213
  C  C53  1  0.259300  0.342570  0.583010  1.0  0.585
  C  C54  1  0.212580  0.340000  0.447450  1.0  -0.0983
  C  C55  1  0.116310  0.339890  0.410220  1.0  0.34
  C  C56  1  0.168360  0.350770  0.524200  1.0  -0.0213
  C  C57  1  0.925960  0.675910  0.916350  1.0  0.585
  C  C58  1  0.879240  0.673340  0.780790  1.0  -0.0989
  C  C59  1  0.782970  0.673230  0.743560  1.0  0.34
  C  C60  1  0.835020  0.684110  0.857540  1.0  -0.0245
  C  C61  1  0.990760  0.583390  0.249680  1.0  0.5847
  C  C62  1  0.993330  0.539240  0.114120  1.0  -0.0989
  C  C63  1  0.993440  0.443080  0.076890  1.0  0.34
  C  C64  1  0.982560  0.484250  0.190870  1.0  -0.0207
  C  C65  1  0.657430  0.916720  0.583010  1.0  0.5847
  C  C66  1  0.660000  0.872570  0.447450  1.0  -0.0989
  C  C67  1  0.660110  0.776410  0.410220  1.0  0.34
  C  C68  1  0.649230  0.817580  0.524200  1.0  -0.0207
  C  C69  1  0.324090  0.250060  0.916350  1.0  0.5847
  C  C70  1  0.326660  0.205910  0.780790  1.0  -0.099
  C  C71  1  0.326770  0.109750  0.743560  1.0  0.34
  C  C72  1  0.315890  0.150920  0.857540  1.0  -0.0239
  C  C73  1  0.583390  0.592630  0.750320  1.0  0.5847
  C  C74  1  0.539240  0.545910  0.885880  1.0  -0.0988
  C  C75  1  0.443080  0.449640  0.923110  1.0  0.3417
  C  C76  1  0.484250  0.501690  0.809130  1.0  -0.0179
  C  C77  1  0.250060  0.925960  0.083650  1.0  0.5847
  C  C78  1  0.205910  0.879240  0.219210  1.0  -0.0988
  C  C79  1  0.109750  0.782970  0.256440  1.0  0.3419
  C  C80  1  0.150920  0.835020  0.142460  1.0  -0.026
  C  C81  1  0.916720  0.259300  0.416990  1.0  0.5847
  C  C82  1  0.872570  0.212580  0.552550  1.0  -0.0993
  C  C83  1  0.776410  0.116310  0.589780  1.0  0.3417
  C  C84  1  0.817580  0.168360  0.475800  1.0  -0.0179
  C  C85  1  0.407370  0.990760  0.750320  1.0  0.586
  C  C86  1  0.454090  0.993330  0.885880  1.0  -0.0989
  C  C87  1  0.550360  0.993440  0.923110  1.0  0.3398
  C  C88  1  0.498310  0.982560  0.809130  1.0  -0.0197
  C  C89  1  0.074040  0.324090  0.083650  1.0  0.586
  C  C90  1  0.120760  0.326660  0.219210  1.0  -0.0996
  C  C91  1  0.217030  0.326770  0.256440  1.0  0.3398
  C  C92  1  0.164980  0.315890  0.142460  1.0  -0.0227
  C  C93  1  0.740700  0.657430  0.416990  1.0  0.5859
  C  C94  1  0.787420  0.660000  0.552550  1.0  -0.0989
  C  C95  1  0.883690  0.660110  0.589780  1.0  0.3398
  C  C96  1  0.831640  0.649230  0.475800  1.0  -0.0197
  C  C97  1  0.009240  0.416610  0.750320  1.0  0.5851
  C  C98  1  0.006670  0.460760  0.885880  1.0  -0.0988
  C  C99  1  0.006560  0.556920  0.923110  1.0  0.3386
  C  C100  1  0.017440  0.515750  0.809130  1.0  -0.0204
  C  C101  1  0.675910  0.749940  0.083650  1.0  0.5851
  C  C102  1  0.673340  0.794090  0.219210  1.0  -0.0988
  C  C103  1  0.673230  0.890250  0.256440  1.0  0.3386
  C  C104  1  0.684110  0.849080  0.142460  1.0  -0.0233
  C  C105  1  0.342570  0.083280  0.416990  1.0  0.5851
  C  C106  1  0.340000  0.127430  0.552550  1.0  -0.0987
  C  C107  1  0.339890  0.223590  0.589780  1.0  0.3386
  C  C108  1  0.350770  0.182420  0.475800  1.0  -0.0204
  O  O109  1  0.436920  0.407460  0.430970  1.0  -0.5845
  O  O110  1  0.367880  0.365290  0.211970  1.0  -0.6255
  O  O111  1  0.611370  0.585520  0.155520  1.0  -0.6085
  O  O112  1  0.103590  0.740790  0.764300  1.0  -0.5843
  O  O113  1  0.034550  0.698620  0.545300  1.0  -0.6255
  O  O114  1  0.278040  0.918850  0.488850  1.0  -0.6085
  O  O115  1  0.770250  0.074130  0.097640  1.0  -0.5843
  O  O116  1  0.701210  0.031960  0.878640  1.0  -0.6255
  O  O117  1  0.944700  0.252190  0.822190  1.0  -0.608
  O  O118  1  0.592540  0.029460  0.430970  1.0  -0.5857
  O  O119  1  0.634710  0.002590  0.211970  1.0  -0.6261
  O  O120  1  0.414480  0.025850  0.155520  1.0  -0.6084
  O  O121  1  0.259210  0.362790  0.764300  1.0  -0.5859
  O  O122  1  0.301380  0.335920  0.545300  1.0  -0.6261
  O  O123  1  0.081150  0.359180  0.488850  1.0  -0.6085
  O  O124  1  0.925870  0.696130  0.097640  1.0  -0.5858
  O  O125  1  0.968040  0.669260  0.878640  1.0  -0.6261
  O  O126  1  0.747810  0.692520  0.822190  1.0  -0.6078
  O  O127  1  0.970540  0.563080  0.430970  1.0  -0.5846
  O  O128  1  0.997410  0.632120  0.211970  1.0  -0.6247
  O  O129  1  0.974150  0.388630  0.155520  1.0  -0.6084
  O  O130  1  0.637210  0.896410  0.764300  1.0  -0.5846
  O  O131  1  0.664080  0.965450  0.545300  1.0  -0.6247
  O  O132  1  0.640820  0.721960  0.488850  1.0  -0.6083
  O  O133  1  0.303870  0.229750  0.097640  1.0  -0.5847
  O  O134  1  0.330740  0.298790  0.878640  1.0  -0.6247
  O  O135  1  0.307480  0.055300  0.822190  1.0  -0.609
  O  O136  1  0.563080  0.592540  0.569030  1.0  -0.5857
  O  O137  1  0.632120  0.634710  0.788030  1.0  -0.626
  O  O138  1  0.388630  0.414480  0.844480  1.0  -0.6077
  O  O139  1  0.229750  0.925870  0.902360  1.0  -0.5856
  O  O140  1  0.298790  0.968040  0.121360  1.0  -0.6258
  O  O141  1  0.055300  0.747810  0.177810  1.0  -0.607
  O  O142  1  0.896410  0.259210  0.235700  1.0  -0.5855
  O  O143  1  0.965450  0.301380  0.454700  1.0  -0.6259
  O  O144  1  0.721960  0.081150  0.511150  1.0  -0.6078
  O  O145  1  0.407460  0.970540  0.569030  1.0  -0.5861
  O  O146  1  0.365290  0.997410  0.788030  1.0  -0.6269
  O  O147  1  0.585520  0.974150  0.844480  1.0  -0.6095
  O  O148  1  0.074130  0.303870  0.902360  1.0  -0.5862
  O  O149  1  0.031960  0.330740  0.121360  1.0  -0.6269
  O  O150  1  0.252190  0.307480  0.177810  1.0  -0.6089
  O  O151  1  0.740790  0.637210  0.235700  1.0  -0.5861
  O  O152  1  0.698620  0.664080  0.454700  1.0  -0.6269
  O  O153  1  0.918850  0.640820  0.511150  1.0  -0.6096
  O  O154  1  0.029460  0.436920  0.569030  1.0  -0.5859
  O  O155  1  0.002590  0.367880  0.788030  1.0  -0.6252
  O  O156  1  0.025850  0.611370  0.844480  1.0  -0.6083
  O  O157  1  0.696130  0.770250  0.902360  1.0  -0.586
  O  O158  1  0.669260  0.701210  0.121360  1.0  -0.6252
  O  O159  1  0.692520  0.944700  0.177810  1.0  -0.609
  O  O160  1  0.362790  0.103590  0.235700  1.0  -0.5859
  O  O161  1  0.335920  0.034550  0.454700  1.0  -0.6252
  O  O162  1  0.359180  0.278040  0.511150  1.0  -0.6084
