# generated using pymatgen
data_Cu6H15C25(NO)10
_symmetry_space_group_name_H-M   'P 1'
_cell_length_a   11.40290000
_cell_length_b   12.99640000
_cell_length_c   23.05700000
_cell_angle_alpha   90.00000000
_cell_angle_beta   90.00000000
_cell_angle_gamma   111.63600000
_symmetry_Int_Tables_number   1
_chemical_formula_structural   Cu6H15C25(NO)10
_chemical_formula_sum   'Cu12 H30 C50 N20 O20'
_cell_volume   3176.22752696
_cell_formula_units_Z   2
loop_
 _symmetry_equiv_pos_site_id
 _symmetry_equiv_pos_as_xyz
  1  'x, y, z'
loop_
 _atom_site_type_symbol
 _atom_site_label
 _atom_site_symmetry_multiplicity
 _atom_site_fract_x
 _atom_site_fract_y
 _atom_site_fract_z
 _atom_site_occupancy
 _atom_site_charge
  Cu  Cu1  1  0.030900  0.409500  0.443090  1.0  0.623
  Cu  Cu2  1  0.779000  0.059900  0.938680  1.0  0.4657
  Cu  Cu3  1  0.718100  0.541200  0.972880  1.0  0.3257
  Cu  Cu4  1  0.107600  0.934200  0.483650  1.0  0.4438
  Cu  Cu5  1  0.415500  0.399500  0.318910  1.0  0.3659
  Cu  Cu6  1  0.513200  0.168500  0.752500  1.0  0.3936
  Cu  Cu7  1  0.530900  0.909500  0.556910  1.0  0.6226
  Cu  Cu8  1  0.279000  0.559900  0.061320  1.0  0.4653
  Cu  Cu9  1  0.218100  0.041200  0.027120  1.0  0.3261
  Cu  Cu10  1  0.607600  0.434200  0.516350  1.0  0.4425
  Cu  Cu11  1  0.915500  0.899500  0.681090  1.0  0.3756
  Cu  Cu12  1  0.013200  0.668500  0.247500  1.0  0.3947
  H  H13  1  0.595400  0.660400  0.900200  1.0  0.098
  H  H14  1  0.927800  0.033900  0.528300  1.0  0.0856
  H  H15  1  0.198100  0.647000  0.380900  1.0  0.1011
  H  H16  1  0.898200  0.196500  0.519500  1.0  0.1054
  H  H17  1  0.195800  0.126200  0.407300  1.0  0.116
  H  H18  1  0.218600  0.819300  0.403900  1.0  0.0873
  H  H19  1  0.070600  0.975700  0.800400  1.0  0.1128
  H  H20  1  0.895900  0.264700  0.018200  1.0  0.0779
  H  H21  1  0.892400  0.766100  0.998000  1.0  0.0687
  H  H22  1  0.652900  0.365800  0.900900  1.0  0.0461
  H  H23  1  0.351900  0.057500  0.649800  1.0  0.0637
  H  H24  1  0.290400  0.065500  0.817100  1.0  0.0982
  H  H25  1  0.607400  0.845500  0.892700  1.0  0.0953
  H  H26  1  0.937800  0.712500  0.515100  1.0  0.0833
  H  H27  1  0.889100  0.441600  0.020400  1.0  0.0867
  H  H28  1  0.095400  0.160400  0.099800  1.0  0.0988
  H  H29  1  0.427800  0.533900  0.471700  1.0  0.0855
  H  H30  1  0.698100  0.147000  0.619100  1.0  0.1011
  H  H31  1  0.398200  0.696500  0.480500  1.0  0.1055
  H  H32  1  0.695800  0.626200  0.592700  1.0  0.1161
  H  H33  1  0.718600  0.319300  0.596100  1.0  0.0886
  H  H34  1  0.570600  0.475700  0.199600  1.0  0.1122
  H  H35  1  0.395900  0.764700  0.981800  1.0  0.0779
  H  H36  1  0.392400  0.266100  0.002000  1.0  0.0691
  H  H37  1  0.152900  0.865800  0.099100  1.0  0.0459
  H  H38  1  0.851900  0.557500  0.350200  1.0  0.0625
  H  H39  1  0.790400  0.565500  0.182900  1.0  0.0982
  H  H40  1  0.107400  0.345500  0.107300  1.0  0.0949
  H  H41  1  0.437800  0.212500  0.484900  1.0  0.0834
  H  H42  1  0.389100  0.941600  0.979600  1.0  0.087
  C  C43  1  0.109000  0.241000  0.425600  1.0  0.101
  C  C44  1  0.631000  0.138000  0.881400  1.0  0.632
  C  C45  1  0.703000  0.241000  0.919700  1.0  -0.071
  C  C46  1  0.975000  0.588000  0.477800  1.0  0.0387
  C  C47  1  0.657000  0.716000  0.920400  1.0  0.0387
  C  C48  1  0.188000  0.321000  0.384600  1.0  0.6054
  C  C49  1  0.975000  0.085000  0.501000  1.0  0.0968
  C  C50  1  0.147000  0.659000  0.409200  1.0  0.0484
  C  C51  1  0.958000  0.183000  0.496500  1.0  0.081
  C  C52  1  0.133000  0.138000  0.429200  1.0  0.0991
  C  C53  1  0.156000  0.760000  0.422300  1.0  0.0825
  C  C54  1  0.128000  0.993000  0.769800  1.0  0.0321
  C  C55  1  0.843000  0.282000  0.992200  1.0  0.1077
  C  C56  1  0.829000  0.777000  0.976700  1.0  0.122
  C  C57  1  0.700000  0.344000  0.927600  1.0  0.1748
  C  C58  1  0.835000  0.880000  0.968600  1.0  -0.0272
  C  C59  1  0.936000  0.981000  0.996800  1.0  0.6369
  C  C60  1  0.889000  0.492000  0.508100  1.0  0.6532
  C  C61  1  0.125000  0.964000  0.610900  1.0  0.5846
  C  C62  1  0.297000  0.042000  0.681200  1.0  0.1297
  C  C63  1  0.261000  0.047000  0.779400  1.0  0.0491
  C  C64  1  0.668000  0.829000  0.913600  1.0  0.1038
  C  C65  1  0.991000  0.698000  0.488500  1.0  0.1504
  C  C66  1  0.177000  0.994000  0.671300  1.0  0.0285
  C  C67  1  0.835000  0.388000  0.995900  1.0  0.0195
  C  C68  1  0.609000  0.741000  0.574400  1.0  0.1097
  C  C69  1  0.131000  0.638000  0.118600  1.0  0.6304
  C  C70  1  0.203000  0.741000  0.080300  1.0  -0.0706
  C  C71  1  0.475000  0.088000  0.522200  1.0  0.0381
  C  C72  1  0.157000  0.216000  0.079600  1.0  0.0386
  C  C73  1  0.688000  0.821000  0.615400  1.0  0.6049
  C  C74  1  0.475000  0.585000  0.499000  1.0  0.0961
  C  C75  1  0.647000  0.159000  0.590800  1.0  0.0471
  C  C76  1  0.458000  0.683000  0.503500  1.0  0.0798
  C  C77  1  0.633000  0.638000  0.570800  1.0  0.0998
  C  C78  1  0.656000  0.260000  0.577700  1.0  0.0832
  C  C79  1  0.628000  0.493000  0.230200  1.0  0.0307
  C  C80  1  0.343000  0.782000  0.007800  1.0  0.1073
  C  C81  1  0.329000  0.277000  0.023300  1.0  0.1214
  C  C82  1  0.200000  0.844000  0.072400  1.0  0.172
  C  C83  1  0.335000  0.380000  0.031400  1.0  -0.027
  C  C84  1  0.436000  0.481000  0.003200  1.0  0.6368
  C  C85  1  0.389000  0.992000  0.491900  1.0  0.6525
  C  C86  1  0.625000  0.464000  0.389100  1.0  0.5841
  C  C87  1  0.797000  0.542000  0.318800  1.0  0.1366
  C  C88  1  0.761000  0.547000  0.220600  1.0  0.048
  C  C89  1  0.168000  0.329000  0.086400  1.0  0.1024
  C  C90  1  0.491000  0.198000  0.511500  1.0  0.1514
  C  C91  1  0.677000  0.494000  0.328700  1.0  0.03
  C  C92  1  0.335000  0.888000  0.004100  1.0  0.0197
  N  N93  1  0.752000  0.411000  0.965900  1.0  -0.1904
  N  N94  1  0.030000  0.262000  0.457900  1.0  -0.2726
  N  N95  1  0.054000  0.564000  0.438700  1.0  -0.3298
  N  N96  1  0.079000  0.783000  0.461800  1.0  -0.3135
  N  N97  1  0.088000  0.967000  0.713200  1.0  -0.2933
  N  N98  1  0.753000  0.901000  0.934300  1.0  -0.2171
  N  N99  1  0.784000  0.212000  0.955300  1.0  -0.293
  N  N100  1  0.736000  0.690000  0.955800  1.0  -0.275
  N  N101  1  0.348000  0.073000  0.734800  1.0  -0.3295
  N  N102  1  0.057000  0.059000  0.467600  1.0  -0.3197
  N  N103  1  0.252000  0.911000  0.034100  1.0  -0.1917
  N  N104  1  0.530000  0.762000  0.542100  1.0  -0.2718
  N  N105  1  0.554000  0.064000  0.561300  1.0  -0.3298
  N  N106  1  0.579000  0.283000  0.538200  1.0  -0.3131
  N  N107  1  0.588000  0.467000  0.286800  1.0  -0.2935
  N  N108  1  0.253000  0.401000  0.065700  1.0  -0.2178
  N  N109  1  0.284000  0.712000  0.044700  1.0  -0.2927
  N  N110  1  0.236000  0.190000  0.044200  1.0  -0.2747
  N  N111  1  0.848000  0.573000  0.265200  1.0  -0.3289
  N  N112  1  0.557000  0.559000  0.532400  1.0  -0.3192
  O  O113  1  0.189000  0.978200  0.568800  1.0  -0.5194
  O  O114  1  0.651500  0.056500  0.881400  1.0  -0.4941
  O  O115  1  0.555000  0.155000  0.843500  1.0  -0.669
  O  O116  1  0.263100  0.304900  0.352500  1.0  -0.517
  O  O117  1  0.174000  0.420000  0.391100  1.0  -0.5888
  O  O118  1  0.900400  0.399300  0.498100  1.0  -0.5771
  O  O119  1  0.921000  0.070000  0.989100  1.0  -0.5571
  O  O120  1  0.023000  0.964000  0.021400  1.0  -0.5749
  O  O121  1  0.810200  0.506600  0.541100  1.0  -0.579
  O  O122  1  0.997600  0.914700  0.605900  1.0  -0.572
  O  O123  1  0.689000  0.478200  0.431200  1.0  -0.5212
  O  O124  1  0.151500  0.556500  0.118600  1.0  -0.495
  O  O125  1  0.055000  0.655000  0.156500  1.0  -0.6681
  O  O126  1  0.763100  0.804900  0.647500  1.0  -0.4971
  O  O127  1  0.674000  0.920000  0.608900  1.0  -0.5846
  O  O128  1  0.400400  0.899300  0.501900  1.0  -0.5771
  O  O129  1  0.421000  0.570000  0.010900  1.0  -0.557
  O  O130  1  0.523000  0.464000  0.978600  1.0  -0.5747
  O  O131  1  0.310200  0.006600  0.458900  1.0  -0.5762
  O  O132  1  0.497600  0.414700  0.394100  1.0  -0.5714
