# generated using pymatgen
data_NiHC4O3
_symmetry_space_group_name_H-M   'P 1'
_cell_length_a   25.75420000
_cell_length_b   25.75420000
_cell_length_c   6.75500000
_cell_angle_alpha   90.00000000
_cell_angle_beta   90.00000000
_cell_angle_gamma   120.00000000
_symmetry_Int_Tables_number   1
_chemical_formula_structural   NiHC4O3
_chemical_formula_sum   'Ni18 H18 C72 O54'
_cell_volume   3880.18214614
_cell_formula_units_Z   18
loop_
 _symmetry_equiv_pos_site_id
 _symmetry_equiv_pos_as_xyz
  1  'x, y, z'
loop_
 _atom_site_type_symbol
 _atom_site_label
 _atom_site_symmetry_multiplicity
 _atom_site_fract_x
 _atom_site_fract_y
 _atom_site_fract_z
 _atom_site_occupancy
 _atom_site_charge
  Ni  Ni1  1  0.618620  0.647870  0.352900  1.0  0.903
  Ni  Ni2  1  0.285290  0.981200  0.686230  1.0  0.9029
  Ni  Ni3  1  0.951950  0.314540  0.019570  1.0  0.9027
  Ni  Ni4  1  0.352130  0.970750  0.352900  1.0  0.9019
  Ni  Ni5  1  0.018800  0.304080  0.686230  1.0  0.9023
  Ni  Ni6  1  0.685460  0.637420  0.019570  1.0  0.9022
  Ni  Ni7  1  0.029250  0.381380  0.352900  1.0  0.9038
  Ni  Ni8  1  0.695920  0.714710  0.686230  1.0  0.9037
  Ni  Ni9  1  0.362580  0.048050  0.019570  1.0  0.9036
  Ni  Ni10  1  0.381380  0.352130  0.647100  1.0  0.9021
  Ni  Ni11  1  0.048050  0.685460  0.980430  1.0  0.9019
  Ni  Ni12  1  0.714710  0.018800  0.313770  1.0  0.9021
  Ni  Ni13  1  0.647870  0.029250  0.647100  1.0  0.9036
  Ni  Ni14  1  0.314540  0.362580  0.980430  1.0  0.9039
  Ni  Ni15  1  0.981200  0.695920  0.313770  1.0  0.904
  Ni  Ni16  1  0.970750  0.618620  0.647100  1.0  0.9014
  Ni  Ni17  1  0.637420  0.951950  0.980430  1.0  0.9012
  Ni  Ni18  1  0.304080  0.285290  0.313770  1.0  0.9013
  H  H19  1  0.528000  0.493240  0.327660  1.0  0.1693
  H  H20  1  0.194670  0.826570  0.660990  1.0  0.1693
  H  H21  1  0.861330  0.159910  0.994330  1.0  0.1699
  H  H22  1  0.506760  0.034760  0.327660  1.0  0.1693
  H  H23  1  0.173430  0.368090  0.660990  1.0  0.1693
  H  H24  1  0.840090  0.701430  0.994330  1.0  0.1687
  H  H25  1  0.965240  0.472000  0.327660  1.0  0.1686
  H  H26  1  0.631910  0.805330  0.660990  1.0  0.1686
  H  H27  1  0.298570  0.138670  0.994330  1.0  0.1685
  H  H28  1  0.472000  0.506760  0.672340  1.0  0.1698
  H  H29  1  0.138670  0.840090  0.005670  1.0  0.1709
  H  H30  1  0.805330  0.173430  0.339010  1.0  0.1698
  H  H31  1  0.493240  0.965240  0.672340  1.0  0.1701
  H  H32  1  0.159910  0.298570  0.005670  1.0  0.1695
  H  H33  1  0.826570  0.631910  0.339010  1.0  0.1701
  H  H34  1  0.034760  0.528000  0.672340  1.0  0.1696
  H  H35  1  0.701430  0.861330  0.005670  1.0  0.1694
  H  H36  1  0.368090  0.194670  0.339010  1.0  0.1696
  C  C37  1  0.417740  0.407260  0.255160  1.0  0.6294
  C  C38  1  0.462250  0.453230  0.118480  1.0  -0.093
  C  C39  1  0.559040  0.548740  0.079100  1.0  0.2613
  C  C40  1  0.517430  0.497290  0.194570  1.0  -0.016
  C  C41  1  0.084410  0.740590  0.588490  1.0  0.6294
  C  C42  1  0.128920  0.786560  0.451810  1.0  -0.093
  C  C43  1  0.225710  0.882070  0.412430  1.0  0.2613
  C  C44  1  0.184100  0.830620  0.527900  1.0  -0.016
  C  C45  1  0.751070  0.073930  0.921830  1.0  0.6294
  C  C46  1  0.795580  0.119900  0.785150  1.0  -0.093
  C  C47  1  0.892370  0.215410  0.745770  1.0  0.2614
  C  C48  1  0.850760  0.163960  0.861240  1.0  -0.0205
  C  C49  1  0.592740  0.010480  0.255160  1.0  0.6276
  C  C50  1  0.546770  0.009020  0.118480  1.0  -0.0929
  C  C51  1  0.451260  0.010300  0.079100  1.0  0.2599
  C  C52  1  0.502710  0.020140  0.194570  1.0  -0.0188
  C  C53  1  0.259410  0.343810  0.588490  1.0  0.6276
  C  C54  1  0.213440  0.342350  0.451810  1.0  -0.0929
  C  C55  1  0.117930  0.343630  0.412430  1.0  0.2599
  C  C56  1  0.169380  0.353470  0.527900  1.0  -0.0188
  C  C57  1  0.926070  0.677150  0.921830  1.0  0.6275
  C  C58  1  0.880100  0.675690  0.785150  1.0  -0.0929
  C  C59  1  0.784590  0.676970  0.745770  1.0  0.2598
  C  C60  1  0.836040  0.686810  0.861240  1.0  -0.0215
  C  C61  1  0.989520  0.582260  0.255160  1.0  0.6292
  C  C62  1  0.990980  0.537750  0.118480  1.0  -0.0939
  C  C63  1  0.989700  0.440960  0.079100  1.0  0.2587
  C  C64  1  0.979860  0.482570  0.194570  1.0  -0.0194
  C  C65  1  0.656190  0.915590  0.588490  1.0  0.6291
  C  C66  1  0.657650  0.871080  0.451810  1.0  -0.0939
  C  C67  1  0.656370  0.774290  0.412430  1.0  0.2587
  C  C68  1  0.646530  0.815900  0.527900  1.0  -0.0194
  C  C69  1  0.322850  0.248930  0.921830  1.0  0.6292
  C  C70  1  0.324310  0.204420  0.785150  1.0  -0.0939
  C  C71  1  0.323030  0.107630  0.745770  1.0  0.2587
  C  C72  1  0.313190  0.149240  0.861240  1.0  -0.0234
  C  C73  1  0.582260  0.592740  0.744840  1.0  0.6292
  C  C74  1  0.537750  0.546770  0.881520  1.0  -0.0926
  C  C75  1  0.440960  0.451260  0.920900  1.0  0.2633
  C  C76  1  0.482570  0.502710  0.805430  1.0  -0.0216
  C  C77  1  0.248930  0.926070  0.078170  1.0  0.6292
  C  C78  1  0.204420  0.880100  0.214850  1.0  -0.0926
  C  C79  1  0.107630  0.784590  0.254230  1.0  0.2634
  C  C80  1  0.149240  0.836040  0.138760  1.0  -0.0249
  C  C81  1  0.915590  0.259410  0.411510  1.0  0.6292
  C  C82  1  0.871080  0.213440  0.548190  1.0  -0.0926
  C  C83  1  0.774290  0.117930  0.587570  1.0  0.2633
  C  C84  1  0.815900  0.169380  0.472100  1.0  -0.0216
  C  C85  1  0.407260  0.989520  0.744840  1.0  0.629
  C  C86  1  0.453230  0.990980  0.881520  1.0  -0.0926
  C  C87  1  0.548740  0.989700  0.920900  1.0  0.2639
  C  C88  1  0.497290  0.979860  0.805430  1.0  -0.0239
  C  C89  1  0.073930  0.322850  0.078170  1.0  0.6289
  C  C90  1  0.119900  0.324310  0.214850  1.0  -0.0926
  C  C91  1  0.215410  0.323030  0.254230  1.0  0.2638
  C  C92  1  0.163960  0.313190  0.138760  1.0  -0.0261
  C  C93  1  0.740590  0.656190  0.411510  1.0  0.629
  C  C94  1  0.786560  0.657650  0.548190  1.0  -0.0926
  C  C95  1  0.882070  0.656370  0.587570  1.0  0.2639
  C  C96  1  0.830620  0.646530  0.472100  1.0  -0.0239
  C  C97  1  0.010480  0.417740  0.744840  1.0  0.6283
  C  C98  1  0.009020  0.462250  0.881520  1.0  -0.0942
  C  C99  1  0.010300  0.559040  0.920900  1.0  0.262
  C  C100  1  0.020140  0.517430  0.805430  1.0  -0.0248
  C  C101  1  0.677150  0.751070  0.078170  1.0  0.6283
  C  C102  1  0.675690  0.795580  0.214850  1.0  -0.0942
  C  C103  1  0.676970  0.892370  0.254230  1.0  0.2621
  C  C104  1  0.686810  0.850760  0.138760  1.0  -0.0283
  C  C105  1  0.343810  0.084410  0.411510  1.0  0.6282
  C  C106  1  0.342350  0.128920  0.548190  1.0  -0.0942
  C  C107  1  0.343630  0.225710  0.587570  1.0  0.262
  C  C108  1  0.353470  0.184100  0.472100  1.0  -0.0248
  O  O109  1  0.437860  0.407710  0.437050  1.0  -0.5707
  O  O110  1  0.368790  0.365410  0.218200  1.0  -0.6425
  O  O111  1  0.613560  0.583690  0.157510  1.0  -0.6334
  O  O112  1  0.104530  0.741040  0.770380  1.0  -0.5708
  O  O113  1  0.035460  0.698740  0.551530  1.0  -0.6426
  O  O114  1  0.280230  0.917020  0.490840  1.0  -0.6334
  O  O115  1  0.771190  0.074380  0.103720  1.0  -0.5707
  O  O116  1  0.702120  0.032080  0.884870  1.0  -0.6426
  O  O117  1  0.946890  0.250360  0.824180  1.0  -0.6334
  O  O118  1  0.592290  0.030150  0.437050  1.0  -0.5713
  O  O119  1  0.634590  0.003380  0.218200  1.0  -0.6435
  O  O120  1  0.416310  0.029870  0.157510  1.0  -0.6353
  O  O121  1  0.258960  0.363480  0.770380  1.0  -0.5714
  O  O122  1  0.301260  0.336710  0.551530  1.0  -0.6435
  O  O123  1  0.082980  0.363200  0.490840  1.0  -0.6354
  O  O124  1  0.925620  0.696820  0.103720  1.0  -0.5714
  O  O125  1  0.967920  0.670050  0.884870  1.0  -0.6422
  O  O126  1  0.749640  0.696540  0.824180  1.0  -0.6353
  O  O127  1  0.969850  0.562140  0.437050  1.0  -0.5714
  O  O128  1  0.996620  0.631210  0.218200  1.0  -0.6394
  O  O129  1  0.970130  0.386440  0.157510  1.0  -0.6335
  O  O130  1  0.636520  0.895470  0.770380  1.0  -0.5716
  O  O131  1  0.663290  0.964540  0.551530  1.0  -0.6394
  O  O132  1  0.636800  0.719770  0.490840  1.0  -0.6335
  O  O133  1  0.303180  0.228810  0.103720  1.0  -0.5714
  O  O134  1  0.329950  0.297880  0.884870  1.0  -0.6406
  O  O135  1  0.303460  0.053110  0.824180  1.0  -0.6338
  O  O136  1  0.562140  0.592290  0.562950  1.0  -0.5709
  O  O137  1  0.631210  0.634590  0.781800  1.0  -0.6416
  O  O138  1  0.386440  0.416310  0.842490  1.0  -0.6331
  O  O139  1  0.228810  0.925620  0.896280  1.0  -0.5709
  O  O140  1  0.297880  0.967920  0.115130  1.0  -0.6417
  O  O141  1  0.053110  0.749640  0.175820  1.0  -0.6332
  O  O142  1  0.895470  0.258960  0.229620  1.0  -0.5711
  O  O143  1  0.964540  0.301260  0.448470  1.0  -0.6417
  O  O144  1  0.719770  0.082980  0.509160  1.0  -0.6331
  O  O145  1  0.407710  0.969850  0.562950  1.0  -0.5724
  O  O146  1  0.365410  0.996620  0.781800  1.0  -0.6435
  O  O147  1  0.583690  0.970130  0.842490  1.0  -0.6349
  O  O148  1  0.074380  0.303180  0.896280  1.0  -0.5725
  O  O149  1  0.032080  0.329950  0.115130  1.0  -0.6423
  O  O150  1  0.250360  0.303460  0.175820  1.0  -0.6349
  O  O151  1  0.741040  0.636520  0.229620  1.0  -0.5725
  O  O152  1  0.698740  0.663290  0.448470  1.0  -0.6435
  O  O153  1  0.917020  0.636800  0.509160  1.0  -0.6349
  O  O154  1  0.030150  0.437860  0.562950  1.0  -0.5713
  O  O155  1  0.003380  0.368790  0.781800  1.0  -0.6399
  O  O156  1  0.029870  0.613560  0.842490  1.0  -0.6344
  O  O157  1  0.696820  0.771190  0.896280  1.0  -0.5713
  O  O158  1  0.670050  0.702120  0.115130  1.0  -0.6411
  O  O159  1  0.696540  0.946890  0.175820  1.0  -0.6347
  O  O160  1  0.363480  0.104530  0.229620  1.0  -0.5715
  O  O161  1  0.336710  0.035460  0.448470  1.0  -0.6399
  O  O162  1  0.363200  0.280230  0.509160  1.0  -0.6344
