# generated using pymatgen
data_Cu2H14C17(N5O2)2
_symmetry_space_group_name_H-M   'P 1'
_cell_length_a   28.63150000
_cell_length_b   9.27430000
_cell_length_c   9.28330000
_cell_angle_alpha   90.00000000
_cell_angle_beta   116.61500000
_cell_angle_gamma   90.00000000
_symmetry_Int_Tables_number   1
_chemical_formula_structural   Cu2H14C17(N5O2)2
_chemical_formula_sum   'Cu8 H56 C68 N40 O16'
_cell_volume   2203.85547644
_cell_formula_units_Z   4
loop_
 _symmetry_equiv_pos_site_id
 _symmetry_equiv_pos_as_xyz
  1  'x, y, z'
loop_
 _atom_site_type_symbol
 _atom_site_label
 _atom_site_symmetry_multiplicity
 _atom_site_fract_x
 _atom_site_fract_y
 _atom_site_fract_z
 _atom_site_occupancy
 _atom_site_charge
  Cu  Cu1  1  0.187640  0.826900  0.310300  1.0  0.7836
  Cu  Cu2  1  0.687640  0.326900  0.310300  1.0  0.7836
  Cu  Cu3  1  0.812360  0.826900  0.189700  1.0  0.7831
  Cu  Cu4  1  0.312360  0.326900  0.189700  1.0  0.7831
  Cu  Cu5  1  0.812360  0.173100  0.689700  1.0  0.7828
  Cu  Cu6  1  0.312360  0.673100  0.689700  1.0  0.7828
  Cu  Cu7  1  0.187640  0.173100  0.810300  1.0  0.783
  Cu  Cu8  1  0.687640  0.673100  0.810300  1.0  0.783
  H  H9  1  0.114710  0.821050  0.401410  1.0  0.064
  H  H10  1  0.052660  0.690300  0.446490  1.0  0.1324
  H  H11  1  0.097780  0.332500  0.283530  1.0  0.1232
  H  H12  1  0.158350  0.475300  0.243730  1.0  0.074
  H  H13  1  0.047510  0.347960  0.489060  1.0  0.0971
  H  H14  1  0.005760  0.470110  0.411950  1.0  0.0916
  H  H15  1  0.024110  0.253800  0.231200  1.0  0.082
  H  H16  1  0.614710  0.321050  0.401410  1.0  0.064
  H  H17  1  0.552660  0.190300  0.446490  1.0  0.1324
  H  H18  1  0.597780  0.832500  0.283530  1.0  0.1232
  H  H19  1  0.658350  0.975300  0.243730  1.0  0.074
  H  H20  1  0.547510  0.847960  0.489060  1.0  0.0971
  H  H21  1  0.505760  0.970110  0.411950  1.0  0.0916
  H  H22  1  0.524110  0.753800  0.231200  1.0  0.082
  H  H23  1  0.885290  0.821050  0.098590  1.0  0.0645
  H  H24  1  0.947340  0.690300  0.053510  1.0  0.1323
  H  H25  1  0.902220  0.332500  0.216470  1.0  0.1229
  H  H26  1  0.841650  0.475300  0.256270  1.0  0.0742
  H  H27  1  0.952490  0.347960  0.010940  1.0  0.096
  H  H28  1  0.994240  0.470110  0.088050  1.0  0.091
  H  H29  1  0.975890  0.253800  0.268800  1.0  0.0834
  H  H30  1  0.385290  0.321050  0.098590  1.0  0.0645
  H  H31  1  0.447340  0.190300  0.053510  1.0  0.1323
  H  H32  1  0.402220  0.832500  0.216470  1.0  0.1229
  H  H33  1  0.341650  0.975300  0.256270  1.0  0.0742
  H  H34  1  0.452490  0.847960  0.010940  1.0  0.096
  H  H35  1  0.494240  0.970110  0.088050  1.0  0.091
  H  H36  1  0.475890  0.753800  0.268800  1.0  0.0834
  H  H37  1  0.885290  0.178950  0.598590  1.0  0.0645
  H  H38  1  0.947340  0.309700  0.553510  1.0  0.1313
  H  H39  1  0.902220  0.667500  0.716470  1.0  0.1244
  H  H40  1  0.841650  0.524700  0.756270  1.0  0.0742
  H  H41  1  0.952490  0.652040  0.510940  1.0  0.0973
  H  H42  1  0.994240  0.529890  0.588050  1.0  0.092
  H  H43  1  0.975890  0.746200  0.768800  1.0  0.0819
  H  H44  1  0.385290  0.678950  0.598590  1.0  0.0645
  H  H45  1  0.447340  0.809700  0.553510  1.0  0.1313
  H  H46  1  0.402220  0.167500  0.716470  1.0  0.1244
  H  H47  1  0.341650  0.024700  0.756270  1.0  0.0742
  H  H48  1  0.452490  0.152040  0.510940  1.0  0.0973
  H  H49  1  0.494240  0.029890  0.588050  1.0  0.092
  H  H50  1  0.475890  0.246200  0.768800  1.0  0.0819
  H  H51  1  0.114710  0.178950  0.901410  1.0  0.0645
  H  H52  1  0.052660  0.309700  0.946490  1.0  0.1313
  H  H53  1  0.097780  0.667500  0.783530  1.0  0.1248
  H  H54  1  0.158350  0.524700  0.743730  1.0  0.0739
  H  H55  1  0.047510  0.652040  0.989060  1.0  0.0956
  H  H56  1  0.005760  0.529890  0.911950  1.0  0.0921
  H  H57  1  0.024110  0.746200  0.731200  1.0  0.0827
  H  H58  1  0.614710  0.678950  0.901410  1.0  0.0645
  H  H59  1  0.552660  0.809700  0.946490  1.0  0.1313
  H  H60  1  0.597780  0.167500  0.783530  1.0  0.1248
  H  H61  1  0.658350  0.024700  0.743730  1.0  0.0739
  H  H62  1  0.547510  0.152040  0.989060  1.0  0.0956
  H  H63  1  0.505760  0.029890  0.911950  1.0  0.0921
  H  H64  1  0.524110  0.246200  0.731200  1.0  0.0827
  C  C65  1  0.148200  0.084400  0.480500  1.0  0.66
  C  C66  1  0.192800  0.986400  0.576700  1.0  0.2042
  C  C67  1  0.111000  0.719800  0.377200  1.0  0.1478
  C  C68  1  0.074000  0.643800  0.404700  1.0  -0.2405
  C  C69  1  0.069170  0.497400  0.368900  1.0  0.1031
  C  C70  1  0.100700  0.433500  0.308600  1.0  -0.2293
  C  C71  1  0.136600  0.519300  0.285400  1.0  0.1573
  C  C72  1  0.029730  0.407700  0.395700  1.0  -0.1973
  C  C73  1  0.648200  0.584400  0.480500  1.0  0.66
  C  C74  1  0.692800  0.486400  0.576700  1.0  0.2042
  C  C75  1  0.611000  0.219800  0.377200  1.0  0.1478
  C  C76  1  0.574000  0.143800  0.404700  1.0  -0.2405
  C  C77  1  0.569170  0.997400  0.368900  1.0  0.1031
  C  C78  1  0.600700  0.933500  0.308600  1.0  -0.2293
  C  C79  1  0.636600  0.019300  0.285400  1.0  0.1573
  C  C80  1  0.529730  0.907700  0.395700  1.0  -0.1973
  C  C81  1  0.851800  0.084400  0.019500  1.0  0.6618
  C  C82  1  0.807200  0.986400  0.923300  1.0  0.2035
  C  C83  1  0.889000  0.719800  0.122800  1.0  0.1477
  C  C84  1  0.926000  0.643800  0.095300  1.0  -0.238
  C  C85  1  0.930830  0.497400  0.131100  1.0  0.1016
  C  C86  1  0.899300  0.433500  0.191400  1.0  -0.2301
  C  C87  1  0.863400  0.519300  0.214600  1.0  0.1572
  C  C88  1  0.970270  0.407700  0.104300  1.0  -0.1948
  C  C89  1  0.351800  0.584400  0.019500  1.0  0.6618
  C  C90  1  0.307200  0.486400  0.923300  1.0  0.2035
  C  C91  1  0.389000  0.219800  0.122800  1.0  0.1477
  C  C92  1  0.426000  0.143800  0.095300  1.0  -0.238
  C  C93  1  0.430830  0.997400  0.131100  1.0  0.1016
  C  C94  1  0.399300  0.933500  0.191400  1.0  -0.2301
  C  C95  1  0.363400  0.019300  0.214600  1.0  0.1572
  C  C96  1  0.470270  0.907700  0.104300  1.0  -0.1948
  C  C97  1  0.851800  0.915600  0.519500  1.0  0.6615
  C  C98  1  0.807200  0.013600  0.423300  1.0  0.204
  C  C99  1  0.889000  0.280200  0.622800  1.0  0.1485
  C  C100  1  0.926000  0.356200  0.595300  1.0  -0.2374
  C  C101  1  0.930830  0.502600  0.631100  1.0  0.1025
  C  C102  1  0.899300  0.566500  0.691400  1.0  -0.2303
  C  C103  1  0.863400  0.480700  0.714600  1.0  0.1566
  C  C104  1  0.970270  0.592300  0.604300  1.0  -0.1951
  C  C105  1  0.351800  0.415600  0.519500  1.0  0.6615
  C  C106  1  0.307200  0.513600  0.423300  1.0  0.204
  C  C107  1  0.389000  0.780200  0.622800  1.0  0.1485
  C  C108  1  0.426000  0.856200  0.595300  1.0  -0.2374
  C  C109  1  0.430830  0.002600  0.631100  1.0  0.1025
  C  C110  1  0.399300  0.066500  0.691400  1.0  -0.2303
  C  C111  1  0.363400  0.980700  0.714600  1.0  0.1566
  C  C112  1  0.470270  0.092300  0.604300  1.0  -0.1951
  C  C113  1  0.148200  0.915600  0.980500  1.0  0.66
  C  C114  1  0.192800  0.013600  0.076700  1.0  0.2049
  C  C115  1  0.111000  0.280200  0.877200  1.0  0.149
  C  C116  1  0.074000  0.356200  0.904700  1.0  -0.2395
  C  C117  1  0.069170  0.502600  0.868900  1.0  0.1035
  C  C118  1  0.100700  0.566500  0.808600  1.0  -0.2293
  C  C119  1  0.136600  0.480700  0.785400  1.0  0.157
  C  C120  1  0.029730  0.592300  0.895700  1.0  -0.197
  C  C121  1  0.648200  0.415600  0.980500  1.0  0.66
  C  C122  1  0.692800  0.513600  0.076700  1.0  0.2049
  C  C123  1  0.611000  0.780200  0.877200  1.0  0.149
  C  C124  1  0.574000  0.856200  0.904700  1.0  -0.2395
  C  C125  1  0.569170  0.002600  0.868900  1.0  0.1035
  C  C126  1  0.600700  0.066500  0.808600  1.0  -0.2293
  C  C127  1  0.636600  0.980700  0.785400  1.0  0.157
  C  C128  1  0.529730  0.092300  0.895700  1.0  -0.197
  C  C129  1  0.000000  0.313600  0.250000  1.0  -0.1312
  C  C130  1  0.500000  0.813600  0.250000  1.0  -0.1312
  C  C131  1  0.000000  0.686400  0.750000  1.0  -0.135
  C  C132  1  0.500000  0.186400  0.750000  1.0  -0.135
  N  N133  1  0.220800  0.011000  0.732900  1.0  -0.202
  N  N134  1  0.257700  0.908200  0.788400  1.0  -0.1229
  N  N135  1  0.251200  0.824700  0.665200  1.0  -0.0047
  N  N136  1  0.210900  0.872200  0.532600  1.0  -0.2584
  N  N137  1  0.142200  0.661400  0.318900  1.0  -0.311
  N  N138  1  0.720800  0.511000  0.732900  1.0  -0.202
  N  N139  1  0.757700  0.408200  0.788400  1.0  -0.1229
  N  N140  1  0.751200  0.324700  0.665200  1.0  -0.0047
  N  N141  1  0.710900  0.372200  0.532600  1.0  -0.2584
  N  N142  1  0.642200  0.161400  0.318900  1.0  -0.311
  N  N143  1  0.779200  0.011000  0.767100  1.0  -0.2023
  N  N144  1  0.742300  0.908200  0.711600  1.0  -0.1205
  N  N145  1  0.748800  0.824700  0.834800  1.0  -0.0046
  N  N146  1  0.789100  0.872200  0.967400  1.0  -0.2573
  N  N147  1  0.857800  0.661400  0.181100  1.0  -0.31
  N  N148  1  0.279200  0.511000  0.767100  1.0  -0.2023
  N  N149  1  0.242300  0.408200  0.711600  1.0  -0.1205
  N  N150  1  0.248800  0.324700  0.834800  1.0  -0.0046
  N  N151  1  0.289100  0.372200  0.967400  1.0  -0.2573
  N  N152  1  0.357800  0.161400  0.181100  1.0  -0.31
  N  N153  1  0.779200  0.989000  0.267100  1.0  -0.2026
  N  N154  1  0.742300  0.091800  0.211600  1.0  -0.1198
  N  N155  1  0.748800  0.175300  0.334800  1.0  -0.0046
  N  N156  1  0.789100  0.127800  0.467400  1.0  -0.2575
  N  N157  1  0.857800  0.338600  0.681100  1.0  -0.3097
  N  N158  1  0.279200  0.489000  0.267100  1.0  -0.2026
  N  N159  1  0.242300  0.591800  0.211600  1.0  -0.1198
  N  N160  1  0.248800  0.675300  0.334800  1.0  -0.0046
  N  N161  1  0.289100  0.627800  0.467400  1.0  -0.2575
  N  N162  1  0.357800  0.838600  0.681100  1.0  -0.3097
  N  N163  1  0.220800  0.989000  0.232900  1.0  -0.2017
  N  N164  1  0.257700  0.091800  0.288400  1.0  -0.1228
  N  N165  1  0.251200  0.175300  0.165200  1.0  -0.0058
  N  N166  1  0.210900  0.127800  0.032600  1.0  -0.2587
  N  N167  1  0.142200  0.338600  0.818900  1.0  -0.3111
  N  N168  1  0.720800  0.489000  0.232900  1.0  -0.2017
  N  N169  1  0.757700  0.591800  0.288400  1.0  -0.1228
  N  N170  1  0.751200  0.675300  0.165200  1.0  -0.0058
  N  N171  1  0.710900  0.627800  0.032600  1.0  -0.2587
  N  N172  1  0.642200  0.838600  0.818900  1.0  -0.3111
  O  O173  1  0.127100  0.066400  0.334000  1.0  -0.5175
  O  O174  1  0.137200  0.176000  0.562100  1.0  -0.5751
  O  O175  1  0.627100  0.566400  0.334000  1.0  -0.5175
  O  O176  1  0.637200  0.676000  0.562100  1.0  -0.5751
  O  O177  1  0.872900  0.066400  0.166000  1.0  -0.5168
  O  O178  1  0.862800  0.176000  0.937900  1.0  -0.5753
  O  O179  1  0.372900  0.566400  0.166000  1.0  -0.5168
  O  O180  1  0.362800  0.676000  0.937900  1.0  -0.5753
  O  O181  1  0.872900  0.933600  0.666000  1.0  -0.5174
  O  O182  1  0.862800  0.824000  0.437900  1.0  -0.5756
  O  O183  1  0.372900  0.433600  0.666000  1.0  -0.5174
  O  O184  1  0.362800  0.324000  0.437900  1.0  -0.5756
  O  O185  1  0.127100  0.933600  0.834000  1.0  -0.5177
  O  O186  1  0.137200  0.824000  0.062100  1.0  -0.5752
  O  O187  1  0.627100  0.433600  0.834000  1.0  -0.5177
  O  O188  1  0.637200  0.324000  0.062100  1.0  -0.5752
