# generated using pymatgen
data_Cu6H15C25(NO)10
_symmetry_space_group_name_H-M   'P 1'
_cell_length_a   11.40950000
_cell_length_b   12.99480000
_cell_length_c   23.10300000
_cell_angle_alpha   90.00000000
_cell_angle_beta   90.00000000
_cell_angle_gamma   111.62800000
_symmetry_Int_Tables_number   1
_chemical_formula_structural   Cu6H15C25(NO)10
_chemical_formula_sum   'Cu12 H30 C50 N20 O20'
_cell_volume   3184.19062178
_cell_formula_units_Z   2
loop_
 _symmetry_equiv_pos_site_id
 _symmetry_equiv_pos_as_xyz
  1  'x, y, z'
loop_
 _atom_site_type_symbol
 _atom_site_label
 _atom_site_symmetry_multiplicity
 _atom_site_fract_x
 _atom_site_fract_y
 _atom_site_fract_z
 _atom_site_occupancy
 _atom_site_charge
  Cu  Cu1  1  0.444500  0.964800  0.556700  1.0  0.6169
  Cu  Cu2  1  0.695700  0.314000  0.061400  1.0  0.5247
  Cu  Cu3  1  0.755400  0.832400  0.028000  1.0  0.3097
  Cu  Cu4  1  0.365700  0.439400  0.515000  1.0  0.518
  Cu  Cu5  1  0.058000  0.974800  0.680780  1.0  0.417
  Cu  Cu6  1  0.960900  0.207400  0.246800  1.0  0.3876
  Cu  Cu7  1  0.944500  0.464800  0.443300  1.0  0.6173
  Cu  Cu8  1  0.195700  0.814000  0.938600  1.0  0.5245
  Cu  Cu9  1  0.255400  0.332400  0.972000  1.0  0.3099
  Cu  Cu10  1  0.865700  0.939400  0.485000  1.0  0.5187
  Cu  Cu11  1  0.558000  0.474800  0.319220  1.0  0.3847
  Cu  Cu12  1  0.460900  0.707400  0.753200  1.0  0.3879
  H  H13  1  0.278100  0.726200  0.614800  1.0  0.0957
  H  H14  1  0.574800  0.175400  0.480700  1.0  0.1081
  H  H15  1  0.827900  0.014600  0.103200  1.0  0.0933
  H  H16  1  0.186600  0.309400  0.180500  1.0  0.1133
  H  H17  1  0.594200  0.935200  0.973200  1.0  0.0945
  H  H18  1  0.567800  0.106200  0.985100  1.0  0.089
  H  H19  1  0.264000  0.556300  0.595200  1.0  0.0875
  H  H20  1  0.548700  0.666667  0.488800  1.0  0.0805
  H  H21  1  0.541800  0.332000  0.472900  1.0  0.0732
  H  H22  1  0.279700  0.239900  0.590400  1.0  0.1013
  H  H23  1  0.860300  0.527700  0.113300  1.0  0.1046
  H  H24  1  0.885000  0.709800  0.098700  1.0  0.0995
  H  H25  1  0.400100  0.414800  0.202500  1.0  0.0886
  H  H26  1  0.596400  0.614200  0.993500  1.0  0.0926
  H  H27  1  0.114400  0.319200  0.347100  1.0  0.0484
  H  H28  1  0.778100  0.226200  0.385200  1.0  0.0961
  H  H29  1  0.074800  0.675400  0.519300  1.0  0.1082
  H  H30  1  0.327900  0.514600  0.896800  1.0  0.0931
  H  H31  1  0.686600  0.809400  0.819500  1.0  0.1147
  H  H32  1  0.094200  0.435200  0.026800  1.0  0.0949
  H  H33  1  0.067800  0.606200  0.014900  1.0  0.0887
  H  H34  1  0.764000  0.056300  0.404800  1.0  0.0863
  H  H35  1  0.048700  0.166600  0.511200  1.0  0.0816
  H  H36  1  0.041800  0.832000  0.527100  1.0  0.073
  H  H37  1  0.779700  0.739900  0.409600  1.0  0.1015
  H  H38  1  0.360300  0.027700  0.886700  1.0  0.1041
  H  H39  1  0.385000  0.209800  0.901300  1.0  0.0993
  H  H40  1  0.900100  0.914800  0.797500  1.0  0.0893
  H  H41  1  0.096400  0.114200  0.006500  1.0  0.093
  H  H42  1  0.614400  0.819200  0.652900  1.0  0.0511
  C  C43  1  0.539000  0.394000  0.004100  1.0  0.58
  C  C44  1  0.334000  0.716000  0.588300  1.0  0.0684
  C  C45  1  0.500000  0.787000  0.519700  1.0  -0.0118
  C  C46  1  0.516000  0.188000  0.504400  1.0  0.0763
  C  C47  1  0.840000  0.230000  0.120800  1.0  0.6168
  C  C48  1  0.780000  0.142000  0.081800  1.0  -0.028
  C  C49  1  0.781000  0.038000  0.076900  1.0  0.1304
  C  C50  1  0.213000  0.329000  0.218400  1.0  0.0119
  C  C51  1  0.640000  0.987000  0.000800  1.0  0.0285
  C  C52  1  0.626000  0.090000  0.007500  1.0  0.1032
  C  C53  1  0.325000  0.614000  0.576200  1.0  0.0794
  C  C54  1  0.490000  0.679000  0.512800  1.0  0.1505
  C  C55  1  0.493000  0.282000  0.500500  1.0  0.0897
  C  C56  1  0.343000  0.232000  0.567500  1.0  0.0982
  C  C57  1  0.353000  0.406000  0.391100  1.0  0.6492
  C  C58  1  0.294000  0.375000  0.333800  1.0  -0.0074
  C  C59  1  0.642000  0.493000  0.034000  1.0  0.0229
  C  C60  1  0.587000  0.885000  0.491800  1.0  0.6644
  C  C61  1  0.807000  0.545000  0.088100  1.0  0.081
  C  C62  1  0.820000  0.654000  0.079900  1.0  0.0498
  C  C63  1  0.342000  0.388000  0.232400  1.0  0.071
  C  C64  1  0.651000  0.601000  0.019600  1.0  0.1085
  C  C65  1  0.174000  0.331000  0.317700  1.0  0.133
  C  C66  1  0.367000  0.134000  0.571000  1.0  0.0058
  C  C67  1  0.279000  0.045000  0.614800  1.0  0.6306
  C  C68  1  0.039000  0.894000  0.995900  1.0  0.5801
  C  C69  1  0.834000  0.216000  0.411700  1.0  0.0663
  C  C70  1  0.000000  0.287000  0.480300  1.0  -0.0114
  C  C71  1  0.016000  0.688000  0.495600  1.0  0.0775
  C  C72  1  0.340000  0.730000  0.879200  1.0  0.6188
  C  C73  1  0.280000  0.642000  0.918200  1.0  -0.029
  C  C74  1  0.281000  0.538000  0.923100  1.0  0.1299
  C  C75  1  0.713000  0.829000  0.781600  1.0  0.0125
  C  C76  1  0.140000  0.487000  0.999200  1.0  0.0299
  C  C77  1  0.126000  0.590000  0.992500  1.0  0.1036
  C  C78  1  0.825000  0.114000  0.423800  1.0  0.0778
  C  C79  1  0.990000  0.179000  0.487200  1.0  0.1516
  C  C80  1  0.993000  0.782000  0.499500  1.0  0.0895
  C  C81  1  0.843000  0.732000  0.432500  1.0  0.0976
  C  C82  1  0.853000  0.906000  0.608900  1.0  0.6605
  C  C83  1  0.794000  0.875000  0.666200  1.0  -0.009
  C  C84  1  0.142000  0.993000  0.966000  1.0  0.0234
  C  C85  1  0.087000  0.385000  0.508200  1.0  0.6638
  C  C86  1  0.307000  0.045000  0.911900  1.0  0.0822
  C  C87  1  0.320000  0.154000  0.920100  1.0  0.0495
  C  C88  1  0.842000  0.888000  0.767600  1.0  0.0728
  C  C89  1  0.151000  0.101000  0.980400  1.0  0.1102
  C  C90  1  0.674000  0.831000  0.682300  1.0  0.1327
  C  C91  1  0.867000  0.634000  0.429000  1.0  0.0033
  C  C92  1  0.779000  0.545000  0.385200  1.0  0.6316
  N  N93  1  0.742000  0.681000  0.045100  1.0  -0.2594
  N  N94  1  0.128000  0.301000  0.264200  1.0  -0.3163
  N  N95  1  0.717000  0.969000  0.035500  1.0  -0.2518
  N  N96  1  0.423000  0.809000  0.563500  1.0  -0.3252
  N  N97  1  0.451000  0.113000  0.543300  1.0  -0.2661
  N  N98  1  0.383000  0.406000  0.286100  1.0  -0.3061
  N  N99  1  0.412000  0.318000  0.530400  1.0  -0.3024
  N  N100  1  0.722000  0.470000  0.061300  1.0  -0.2064
  N  N101  1  0.698000  0.167000  0.045500  1.0  -0.3154
  N  N102  1  0.402000  0.589000  0.537400  1.0  -0.3197
  N  N103  1  0.242000  0.181000  0.954900  1.0  -0.2594
  N  N104  1  0.628000  0.801000  0.735800  1.0  -0.3148
  N  N105  1  0.217000  0.469000  0.964500  1.0  -0.2518
  N  N106  1  0.923000  0.309000  0.436500  1.0  -0.3251
  N  N107  1  0.951000  0.613000  0.456700  1.0  -0.267
  N  N108  1  0.883000  0.906000  0.713900  1.0  -0.3071
  N  N109  1  0.912000  0.818000  0.469600  1.0  -0.3034
  N  N110  1  0.222000  0.970000  0.938700  1.0  -0.2069
  N  N111  1  0.198000  0.667000  0.954500  1.0  -0.3155
  N  N112  1  0.902000  0.089000  0.462600  1.0  -0.3203
  O  O113  1  0.449000  0.409000  0.979500  1.0  -0.5821
  O  O114  1  0.555000  0.299000  0.012600  1.0  -0.5589
  O  O115  1  0.923000  0.217000  0.156800  1.0  -0.6436
  O  O116  1  0.824000  0.319000  0.118000  1.0  -0.5425
  O  O117  1  0.473000  0.458000  0.394500  1.0  -0.5558
  O  O118  1  0.278000  0.395000  0.430800  1.0  -0.54
  O  O119  1  0.210800  0.064800  0.645600  1.0  -0.4634
  O  O120  1  0.303800  0.956800  0.608100  1.0  -0.6183
  O  O121  1  0.660400  0.867800  0.459300  1.0  -0.5913
  O  O122  1  0.579000  0.975000  0.503000  1.0  -0.569
  O  O123  1  0.949000  0.909000  0.020500  1.0  -0.585
  O  O124  1  0.055000  0.799000  0.987400  1.0  -0.5588
  O  O125  1  0.423000  0.717000  0.843200  1.0  -0.6437
  O  O126  1  0.324000  0.819000  0.882000  1.0  -0.5422
  O  O127  1  0.973000  0.958000  0.605500  1.0  -0.5558
  O  O128  1  0.778000  0.895000  0.569200  1.0  -0.5384
  O  O129  1  0.710800  0.564800  0.354400  1.0  -0.4717
  O  O130  1  0.803800  0.456800  0.391900  1.0  -0.6189
  O  O131  1  0.160400  0.367800  0.540700  1.0  -0.5907
  O  O132  1  0.079000  0.475000  0.497000  1.0  -0.5701
