# generated using pymatgen
data_NiHC4O3
_symmetry_space_group_name_H-M   'P 1'
_cell_length_a   25.75220000
_cell_length_b   25.75220000
_cell_length_c   6.75760000
_cell_angle_alpha   90.00000000
_cell_angle_beta   90.00000000
_cell_angle_gamma   120.00000000
_symmetry_Int_Tables_number   1
_chemical_formula_structural   NiHC4O3
_chemical_formula_sum   'Ni18 H18 C72 O54'
_cell_volume   3881.07277154
_cell_formula_units_Z   18
loop_
 _symmetry_equiv_pos_site_id
 _symmetry_equiv_pos_as_xyz
  1  'x, y, z'
loop_
 _atom_site_type_symbol
 _atom_site_label
 _atom_site_symmetry_multiplicity
 _atom_site_fract_x
 _atom_site_fract_y
 _atom_site_fract_z
 _atom_site_occupancy
 _atom_site_charge
  Ni  Ni1  1  0.618990  0.647710  0.353200  1.0  0.9101
  Ni  Ni2  1  0.285660  0.981040  0.686530  1.0  0.9101
  Ni  Ni3  1  0.952320  0.314380  0.019870  1.0  0.9097
  Ni  Ni4  1  0.352290  0.971280  0.353200  1.0  0.9087
  Ni  Ni5  1  0.018960  0.304610  0.686530  1.0  0.9091
  Ni  Ni6  1  0.685620  0.637950  0.019870  1.0  0.9091
  Ni  Ni7  1  0.028720  0.381010  0.353200  1.0  0.9116
  Ni  Ni8  1  0.695390  0.714340  0.686530  1.0  0.9112
  Ni  Ni9  1  0.362050  0.047680  0.019870  1.0  0.9116
  Ni  Ni10  1  0.381010  0.352290  0.646800  1.0  0.9089
  Ni  Ni11  1  0.047680  0.685620  0.980130  1.0  0.9085
  Ni  Ni12  1  0.714340  0.018960  0.313470  1.0  0.9089
  Ni  Ni13  1  0.647710  0.028720  0.646800  1.0  0.9104
  Ni  Ni14  1  0.314380  0.362050  0.980130  1.0  0.9108
  Ni  Ni15  1  0.981040  0.695390  0.313470  1.0  0.9108
  Ni  Ni16  1  0.971280  0.618990  0.646800  1.0  0.9087
  Ni  Ni17  1  0.637950  0.952320  0.980130  1.0  0.9087
  Ni  Ni18  1  0.304610  0.285660  0.313470  1.0  0.9083
  H  H19  1  0.528840  0.491910  0.326070  1.0  0.1739
  H  H20  1  0.195510  0.825240  0.659400  1.0  0.1739
  H  H21  1  0.862170  0.158580  0.992740  1.0  0.1748
  H  H22  1  0.508090  0.036930  0.326070  1.0  0.1732
  H  H23  1  0.174760  0.370260  0.659400  1.0  0.1732
  H  H24  1  0.841420  0.703600  0.992740  1.0  0.1732
  H  H25  1  0.963070  0.471160  0.326070  1.0  0.1725
  H  H26  1  0.629740  0.804490  0.659400  1.0  0.1725
  H  H27  1  0.296400  0.137830  0.992740  1.0  0.1734
  H  H28  1  0.471160  0.508090  0.673930  1.0  0.1743
  H  H29  1  0.137830  0.841420  0.007260  1.0  0.1754
  H  H30  1  0.804490  0.174760  0.340600  1.0  0.1743
  H  H31  1  0.491910  0.963070  0.673930  1.0  0.1741
  H  H32  1  0.158580  0.296400  0.007260  1.0  0.174
  H  H33  1  0.825240  0.629740  0.340600  1.0  0.1741
  H  H34  1  0.036930  0.528840  0.673930  1.0  0.1737
  H  H35  1  0.703600  0.862170  0.007260  1.0  0.1743
  H  H36  1  0.370260  0.195510  0.340600  1.0  0.1737
  C  C37  1  0.418150  0.406860  0.253760  1.0  0.6304
  C  C38  1  0.462560  0.453300  0.118060  1.0  -0.1148
  C  C39  1  0.559670  0.548570  0.080320  1.0  0.2447
  C  C40  1  0.518050  0.496700  0.194140  1.0  -0.01
  C  C41  1  0.084820  0.740190  0.587090  1.0  0.6303
  C  C42  1  0.129230  0.786630  0.451390  1.0  -0.1148
  C  C43  1  0.226340  0.881900  0.413650  1.0  0.2447
  C  C44  1  0.184720  0.830030  0.527470  1.0  -0.01
  C  C45  1  0.751480  0.073530  0.920430  1.0  0.6304
  C  C46  1  0.795890  0.119970  0.784730  1.0  -0.1148
  C  C47  1  0.893000  0.215240  0.746990  1.0  0.2447
  C  C48  1  0.851380  0.163370  0.860810  1.0  -0.0126
  C  C49  1  0.593140  0.011290  0.253760  1.0  0.6293
  C  C50  1  0.546700  0.009260  0.118060  1.0  -0.1151
  C  C51  1  0.451430  0.011100  0.080320  1.0  0.2449
  C  C52  1  0.503300  0.021350  0.194140  1.0  -0.0153
  C  C53  1  0.259810  0.344620  0.587090  1.0  0.6293
  C  C54  1  0.213370  0.342590  0.451390  1.0  -0.1151
  C  C55  1  0.118100  0.344430  0.413650  1.0  0.2446
  C  C56  1  0.169970  0.354680  0.527470  1.0  -0.0153
  C  C57  1  0.926470  0.677960  0.920430  1.0  0.6292
  C  C58  1  0.880030  0.675930  0.784730  1.0  -0.1149
  C  C59  1  0.784760  0.677770  0.746990  1.0  0.245
  C  C60  1  0.836630  0.688020  0.860810  1.0  -0.0142
  C  C61  1  0.988710  0.581850  0.253760  1.0  0.6305
  C  C62  1  0.990740  0.537440  0.118060  1.0  -0.1155
  C  C63  1  0.988900  0.440330  0.080320  1.0  0.2441
  C  C64  1  0.978650  0.481950  0.194140  1.0  -0.0155
  C  C65  1  0.655380  0.915180  0.587090  1.0  0.6304
  C  C66  1  0.657410  0.870770  0.451390  1.0  -0.1154
  C  C67  1  0.655570  0.773660  0.413650  1.0  0.2442
  C  C68  1  0.645320  0.815280  0.527470  1.0  -0.0155
  C  C69  1  0.322040  0.248520  0.920430  1.0  0.6305
  C  C70  1  0.324070  0.204110  0.784730  1.0  -0.1156
  C  C71  1  0.322230  0.107000  0.746990  1.0  0.2438
  C  C72  1  0.311980  0.148620  0.860810  1.0  -0.0168
  C  C73  1  0.581850  0.593140  0.746240  1.0  0.6307
  C  C74  1  0.537440  0.546700  0.881940  1.0  -0.1149
  C  C75  1  0.440330  0.451430  0.919680  1.0  0.2447
  C  C76  1  0.481950  0.503300  0.805860  1.0  -0.01
  C  C77  1  0.248520  0.926470  0.079570  1.0  0.6307
  C  C78  1  0.204110  0.880030  0.215270  1.0  -0.1149
  C  C79  1  0.107000  0.784760  0.253010  1.0  0.2447
  C  C80  1  0.148620  0.836630  0.139190  1.0  -0.0145
  C  C81  1  0.915180  0.259810  0.412910  1.0  0.6307
  C  C82  1  0.870770  0.213370  0.548610  1.0  -0.1149
  C  C83  1  0.773660  0.118100  0.586350  1.0  0.2447
  C  C84  1  0.815280  0.169970  0.472530  1.0  -0.01
  C  C85  1  0.406860  0.988710  0.746240  1.0  0.6307
  C  C86  1  0.453300  0.990740  0.881940  1.0  -0.1146
  C  C87  1  0.548570  0.988900  0.919680  1.0  0.2473
  C  C88  1  0.496700  0.978650  0.805860  1.0  -0.0159
  C  C89  1  0.073530  0.322040  0.079570  1.0  0.6307
  C  C90  1  0.119970  0.324070  0.215270  1.0  -0.1144
  C  C91  1  0.215240  0.322230  0.253010  1.0  0.2474
  C  C92  1  0.163370  0.311980  0.139190  1.0  -0.014
  C  C93  1  0.740190  0.655380  0.412910  1.0  0.6307
  C  C94  1  0.786630  0.657410  0.548610  1.0  -0.1146
  C  C95  1  0.881900  0.655570  0.586350  1.0  0.2469
  C  C96  1  0.830030  0.645320  0.472530  1.0  -0.0159
  C  C97  1  0.011290  0.418150  0.746240  1.0  0.6301
  C  C98  1  0.009260  0.462560  0.881940  1.0  -0.1163
  C  C99  1  0.011100  0.559670  0.919680  1.0  0.2439
  C  C100  1  0.021350  0.518050  0.805860  1.0  -0.0165
  C  C101  1  0.677960  0.751480  0.079570  1.0  0.6301
  C  C102  1  0.675930  0.795890  0.215270  1.0  -0.1164
  C  C103  1  0.677770  0.893000  0.253010  1.0  0.2436
  C  C104  1  0.688020  0.851380  0.139190  1.0  -0.0175
  C  C105  1  0.344620  0.084820  0.412910  1.0  0.6301
  C  C106  1  0.342590  0.129230  0.548610  1.0  -0.1162
  C  C107  1  0.344430  0.226340  0.586350  1.0  0.2439
  C  C108  1  0.354680  0.184720  0.472530  1.0  -0.0165
  O  O109  1  0.438610  0.406240  0.434230  1.0  -0.5664
  O  O110  1  0.368970  0.365440  0.216570  1.0  -0.6367
  O  O111  1  0.614440  0.582810  0.157980  1.0  -0.6247
  O  O112  1  0.105280  0.739570  0.767560  1.0  -0.5664
  O  O113  1  0.035640  0.698770  0.549900  1.0  -0.6367
  O  O114  1  0.281110  0.916140  0.491310  1.0  -0.6248
  O  O115  1  0.771940  0.072910  0.100900  1.0  -0.5664
  O  O116  1  0.702300  0.032110  0.883240  1.0  -0.6365
  O  O117  1  0.947770  0.249480  0.824650  1.0  -0.6248
  O  O118  1  0.593760  0.032370  0.434230  1.0  -0.5667
  O  O119  1  0.634560  0.003530  0.216570  1.0  -0.6349
  O  O120  1  0.417190  0.031630  0.157980  1.0  -0.6269
  O  O121  1  0.260430  0.365700  0.767560  1.0  -0.5667
  O  O122  1  0.301230  0.336860  0.549900  1.0  -0.635
  O  O123  1  0.083860  0.364960  0.491310  1.0  -0.6269
  O  O124  1  0.927090  0.699040  0.100900  1.0  -0.5667
  O  O125  1  0.967890  0.670200  0.883240  1.0  -0.636
  O  O126  1  0.750520  0.698300  0.824650  1.0  -0.627
  O  O127  1  0.967630  0.561390  0.434230  1.0  -0.5666
  O  O128  1  0.996470  0.631030  0.216570  1.0  -0.6356
  O  O129  1  0.968370  0.385560  0.157980  1.0  -0.6253
  O  O130  1  0.634300  0.894720  0.767560  1.0  -0.5666
  O  O131  1  0.663140  0.964360  0.549900  1.0  -0.6357
  O  O132  1  0.635040  0.718890  0.491310  1.0  -0.6252
  O  O133  1  0.300960  0.228060  0.100900  1.0  -0.5665
  O  O134  1  0.329800  0.297700  0.883240  1.0  -0.6347
  O  O135  1  0.301700  0.052230  0.824650  1.0  -0.6251
  O  O136  1  0.561390  0.593760  0.565770  1.0  -0.5675
  O  O137  1  0.631030  0.634560  0.783430  1.0  -0.6369
  O  O138  1  0.385560  0.417190  0.842020  1.0  -0.6247
  O  O139  1  0.228060  0.927090  0.899100  1.0  -0.5675
  O  O140  1  0.297700  0.967890  0.116760  1.0  -0.6365
  O  O141  1  0.052230  0.750520  0.175350  1.0  -0.6249
  O  O142  1  0.894720  0.260430  0.232440  1.0  -0.5675
  O  O143  1  0.964360  0.301230  0.450100  1.0  -0.6369
  O  O144  1  0.718890  0.083860  0.508690  1.0  -0.6248
  O  O145  1  0.406240  0.967630  0.565770  1.0  -0.5683
  O  O146  1  0.365440  0.996470  0.783430  1.0  -0.6363
  O  O147  1  0.582810  0.968370  0.842020  1.0  -0.6275
  O  O148  1  0.072910  0.300960  0.899100  1.0  -0.5683
  O  O149  1  0.032110  0.329800  0.116760  1.0  -0.6374
  O  O150  1  0.249480  0.301700  0.175350  1.0  -0.6275
  O  O151  1  0.739570  0.634300  0.232440  1.0  -0.5683
  O  O152  1  0.698770  0.663140  0.450100  1.0  -0.6363
  O  O153  1  0.916140  0.635040  0.508690  1.0  -0.6275
  O  O154  1  0.032370  0.438610  0.565770  1.0  -0.5678
  O  O155  1  0.003530  0.368970  0.783430  1.0  -0.6357
  O  O156  1  0.031630  0.614440  0.842020  1.0  -0.627
  O  O157  1  0.699040  0.771940  0.899100  1.0  -0.5678
  O  O158  1  0.670200  0.702300  0.116760  1.0  -0.635
  O  O159  1  0.698300  0.947770  0.175350  1.0  -0.6268
  O  O160  1  0.365700  0.105280  0.232440  1.0  -0.5678
  O  O161  1  0.336860  0.035640  0.450100  1.0  -0.6357
  O  O162  1  0.364960  0.281110  0.508690  1.0  -0.627
