# generated using pymatgen
data_Cu2H14C17(N5O2)2
_symmetry_space_group_name_H-M   'P 1'
_cell_length_a   28.68410000
_cell_length_b   9.26550000
_cell_length_c   9.30050000
_cell_angle_alpha   90.00000000
_cell_angle_beta   116.36900000
_cell_angle_gamma   90.00000000
_symmetry_Int_Tables_number   1
_chemical_formula_structural   Cu2H14C17(N5O2)2
_chemical_formula_sum   'Cu8 H56 C68 N40 O16'
_cell_volume   2214.63023889
_cell_formula_units_Z   4
loop_
 _symmetry_equiv_pos_site_id
 _symmetry_equiv_pos_as_xyz
  1  'x, y, z'
loop_
 _atom_site_type_symbol
 _atom_site_label
 _atom_site_symmetry_multiplicity
 _atom_site_fract_x
 _atom_site_fract_y
 _atom_site_fract_z
 _atom_site_occupancy
 _atom_site_charge
  Cu  Cu1  1  0.188000  0.829200  0.314000  1.0  0.7169
  Cu  Cu2  1  0.688000  0.329200  0.314000  1.0  0.7169
  Cu  Cu3  1  0.812000  0.829200  0.186000  1.0  0.7162
  Cu  Cu4  1  0.312000  0.329200  0.186000  1.0  0.7162
  Cu  Cu5  1  0.812000  0.170800  0.686000  1.0  0.716
  Cu  Cu6  1  0.312000  0.670800  0.686000  1.0  0.716
  Cu  Cu7  1  0.188000  0.170800  0.814000  1.0  0.7168
  Cu  Cu8  1  0.688000  0.670800  0.814000  1.0  0.7168
  H  H9  1  0.116170  0.821140  0.405820  1.0  0.0638
  H  H10  1  0.053370  0.692110  0.448510  1.0  0.134
  H  H11  1  0.097400  0.332920  0.284220  1.0  0.1209
  H  H12  1  0.158780  0.474050  0.246850  1.0  0.0788
  H  H13  1  0.046470  0.350310  0.488500  1.0  0.0999
  H  H14  1  0.005310  0.473250  0.410380  1.0  0.099
  H  H15  1  0.024170  0.256000  0.231700  1.0  0.0908
  H  H16  1  0.616170  0.321140  0.405820  1.0  0.0638
  H  H17  1  0.553370  0.192110  0.448510  1.0  0.134
  H  H18  1  0.597400  0.832920  0.284220  1.0  0.1209
  H  H19  1  0.658780  0.974050  0.246850  1.0  0.0788
  H  H20  1  0.546470  0.850310  0.488500  1.0  0.0999
  H  H21  1  0.505310  0.973250  0.410380  1.0  0.099
  H  H22  1  0.524170  0.756000  0.231700  1.0  0.0908
  H  H23  1  0.883830  0.821140  0.094180  1.0  0.0643
  H  H24  1  0.946630  0.692110  0.051490  1.0  0.1341
  H  H25  1  0.902600  0.332920  0.215780  1.0  0.1215
  H  H26  1  0.841220  0.474050  0.253150  1.0  0.0791
  H  H27  1  0.953530  0.350310  0.011500  1.0  0.0989
  H  H28  1  0.994690  0.473250  0.089620  1.0  0.0991
  H  H29  1  0.975830  0.256000  0.268300  1.0  0.0925
  H  H30  1  0.383830  0.321140  0.094180  1.0  0.0643
  H  H31  1  0.446630  0.192110  0.051490  1.0  0.1341
  H  H32  1  0.402600  0.832920  0.215780  1.0  0.1215
  H  H33  1  0.341220  0.974050  0.253150  1.0  0.0791
  H  H34  1  0.453530  0.850310  0.011500  1.0  0.0989
  H  H35  1  0.494690  0.973250  0.089620  1.0  0.0991
  H  H36  1  0.475830  0.756000  0.268300  1.0  0.0925
  H  H37  1  0.883830  0.178860  0.594180  1.0  0.064
  H  H38  1  0.946630  0.307890  0.551490  1.0  0.1335
  H  H39  1  0.902600  0.667080  0.715780  1.0  0.122
  H  H40  1  0.841220  0.525950  0.753150  1.0  0.0792
  H  H41  1  0.953530  0.649690  0.511500  1.0  0.1001
  H  H42  1  0.994690  0.526750  0.589620  1.0  0.0997
  H  H43  1  0.975830  0.744000  0.768300  1.0  0.0924
  H  H44  1  0.383830  0.678860  0.594180  1.0  0.064
  H  H45  1  0.446630  0.807890  0.551490  1.0  0.1335
  H  H46  1  0.402600  0.167080  0.715780  1.0  0.122
  H  H47  1  0.341220  0.025950  0.753150  1.0  0.0792
  H  H48  1  0.453530  0.149690  0.511500  1.0  0.1001
  H  H49  1  0.494690  0.026750  0.589620  1.0  0.0997
  H  H50  1  0.475830  0.244000  0.768300  1.0  0.0924
  H  H51  1  0.116170  0.178860  0.905820  1.0  0.0642
  H  H52  1  0.053370  0.307890  0.948510  1.0  0.1336
  H  H53  1  0.097400  0.667080  0.784220  1.0  0.1218
  H  H54  1  0.158780  0.525950  0.746850  1.0  0.0792
  H  H55  1  0.046470  0.649690  0.988500  1.0  0.0982
  H  H56  1  0.005310  0.526750  0.910380  1.0  0.099
  H  H57  1  0.024170  0.744000  0.731700  1.0  0.0926
  H  H58  1  0.616170  0.678860  0.905820  1.0  0.0642
  H  H59  1  0.553370  0.807890  0.948510  1.0  0.1336
  H  H60  1  0.597400  0.167080  0.784220  1.0  0.1218
  H  H61  1  0.658780  0.025950  0.746850  1.0  0.0792
  H  H62  1  0.546470  0.149690  0.988500  1.0  0.0982
  H  H63  1  0.505310  0.026750  0.910380  1.0  0.099
  H  H64  1  0.524170  0.244000  0.731700  1.0  0.0926
  C  C65  1  0.149100  0.086900  0.484800  1.0  0.6637
  C  C66  1  0.193300  0.988500  0.581300  1.0  0.2018
  C  C67  1  0.112100  0.720000  0.380800  1.0  0.1516
  C  C68  1  0.074600  0.645000  0.406900  1.0  -0.2343
  C  C69  1  0.069240  0.498700  0.369900  1.0  0.1038
  C  C70  1  0.100700  0.433900  0.310000  1.0  -0.237
  C  C71  1  0.137100  0.518700  0.288300  1.0  0.1579
  C  C72  1  0.029290  0.410000  0.395260  1.0  -0.1967
  C  C73  1  0.649100  0.586900  0.484800  1.0  0.6637
  C  C74  1  0.693300  0.488500  0.581300  1.0  0.2018
  C  C75  1  0.612100  0.220000  0.380800  1.0  0.1516
  C  C76  1  0.574600  0.145000  0.406900  1.0  -0.2343
  C  C77  1  0.569240  0.998700  0.369900  1.0  0.1038
  C  C78  1  0.600700  0.933900  0.310000  1.0  -0.237
  C  C79  1  0.637100  0.018700  0.288300  1.0  0.1579
  C  C80  1  0.529290  0.910000  0.395260  1.0  -0.1967
  C  C81  1  0.850900  0.086900  0.015200  1.0  0.6653
  C  C82  1  0.806700  0.988500  0.918700  1.0  0.2013
  C  C83  1  0.887900  0.720000  0.119200  1.0  0.1517
  C  C84  1  0.925400  0.645000  0.093100  1.0  -0.2328
  C  C85  1  0.930760  0.498700  0.130100  1.0  0.102
  C  C86  1  0.899300  0.433900  0.190000  1.0  -0.2381
  C  C87  1  0.862900  0.518700  0.211700  1.0  0.1564
  C  C88  1  0.970710  0.410000  0.104740  1.0  -0.194
  C  C89  1  0.350900  0.586900  0.015200  1.0  0.6653
  C  C90  1  0.306700  0.488500  0.918700  1.0  0.2013
  C  C91  1  0.387900  0.220000  0.119200  1.0  0.1517
  C  C92  1  0.425400  0.145000  0.093100  1.0  -0.2328
  C  C93  1  0.430760  0.998700  0.130100  1.0  0.102
  C  C94  1  0.399300  0.933900  0.190000  1.0  -0.2381
  C  C95  1  0.362900  0.018700  0.211700  1.0  0.1564
  C  C96  1  0.470710  0.910000  0.104740  1.0  -0.194
  C  C97  1  0.850900  0.913100  0.515200  1.0  0.6648
  C  C98  1  0.806700  0.011500  0.418700  1.0  0.2017
  C  C99  1  0.887900  0.280000  0.619200  1.0  0.1516
  C  C100  1  0.925400  0.355000  0.593100  1.0  -0.2324
  C  C101  1  0.930760  0.501300  0.630100  1.0  0.1026
  C  C102  1  0.899300  0.566100  0.690000  1.0  -0.2382
  C  C103  1  0.862900  0.481300  0.711700  1.0  0.1563
  C  C104  1  0.970710  0.590000  0.604740  1.0  -0.1944
  C  C105  1  0.350900  0.413100  0.515200  1.0  0.6648
  C  C106  1  0.306700  0.511500  0.418700  1.0  0.2017
  C  C107  1  0.387900  0.780000  0.619200  1.0  0.1516
  C  C108  1  0.425400  0.855000  0.593100  1.0  -0.2324
  C  C109  1  0.430760  0.001300  0.630100  1.0  0.1026
  C  C110  1  0.399300  0.066100  0.690000  1.0  -0.2382
  C  C111  1  0.362900  0.981300  0.711700  1.0  0.1563
  C  C112  1  0.470710  0.090000  0.604740  1.0  -0.1944
  C  C113  1  0.149100  0.913100  0.984800  1.0  0.6636
  C  C114  1  0.193300  0.011500  0.081300  1.0  0.2026
  C  C115  1  0.112100  0.280000  0.880800  1.0  0.1521
  C  C116  1  0.074600  0.355000  0.906900  1.0  -0.2333
  C  C117  1  0.069240  0.501300  0.869900  1.0  0.1041
  C  C118  1  0.100700  0.566100  0.810000  1.0  -0.2373
  C  C119  1  0.137100  0.481300  0.788300  1.0  0.1579
  C  C120  1  0.029290  0.590000  0.895260  1.0  -0.196
  C  C121  1  0.649100  0.413100  0.984800  1.0  0.6636
  C  C122  1  0.693300  0.511500  0.081300  1.0  0.2026
  C  C123  1  0.612100  0.780000  0.880800  1.0  0.1521
  C  C124  1  0.574600  0.855000  0.906900  1.0  -0.2333
  C  C125  1  0.569240  0.001300  0.869900  1.0  0.1041
  C  C126  1  0.600700  0.066100  0.810000  1.0  -0.2373
  C  C127  1  0.637100  0.981300  0.788300  1.0  0.1579
  C  C128  1  0.529290  0.090000  0.895260  1.0  -0.196
  C  C129  1  0.000000  0.315900  0.250000  1.0  -0.1314
  C  C130  1  0.500000  0.815900  0.250000  1.0  -0.1314
  C  C131  1  0.000000  0.684100  0.750000  1.0  -0.1349
  C  C132  1  0.500000  0.184100  0.750000  1.0  -0.1349
  N  N133  1  0.220400  0.012500  0.737200  1.0  -0.2093
  N  N134  1  0.257100  0.909600  0.793200  1.0  -0.1177
  N  N135  1  0.251300  0.826500  0.670600  1.0  -0.0002
  N  N136  1  0.211700  0.874500  0.537900  1.0  -0.2159
  N  N137  1  0.143200  0.660700  0.322900  1.0  -0.3092
  N  N138  1  0.720400  0.512500  0.737200  1.0  -0.2093
  N  N139  1  0.757100  0.409600  0.793200  1.0  -0.1177
  N  N140  1  0.751300  0.326500  0.670600  1.0  -0.0002
  N  N141  1  0.711700  0.374500  0.537900  1.0  -0.2159
  N  N142  1  0.643200  0.160700  0.322900  1.0  -0.3092
  N  N143  1  0.779600  0.012500  0.762800  1.0  -0.2101
  N  N144  1  0.742900  0.909600  0.706800  1.0  -0.1164
  N  N145  1  0.748700  0.826500  0.829400  1.0  -0.0
  N  N146  1  0.788300  0.874500  0.962100  1.0  -0.2139
  N  N147  1  0.856800  0.660700  0.177100  1.0  -0.3081
  N  N148  1  0.279600  0.512500  0.762800  1.0  -0.2101
  N  N149  1  0.242900  0.409600  0.706800  1.0  -0.1164
  N  N150  1  0.248700  0.326500  0.829400  1.0  -0.0
  N  N151  1  0.288300  0.374500  0.962100  1.0  -0.2139
  N  N152  1  0.356800  0.160700  0.177100  1.0  -0.3081
  N  N153  1  0.779600  0.987500  0.262800  1.0  -0.2103
  N  N154  1  0.742900  0.090400  0.206800  1.0  -0.116
  N  N155  1  0.748700  0.173500  0.329400  1.0  0.0006
  N  N156  1  0.788300  0.125500  0.462100  1.0  -0.2138
  N  N157  1  0.856800  0.339300  0.677100  1.0  -0.3079
  N  N158  1  0.279600  0.487500  0.262800  1.0  -0.2103
  N  N159  1  0.242900  0.590400  0.206800  1.0  -0.116
  N  N160  1  0.248700  0.673500  0.329400  1.0  0.0006
  N  N161  1  0.288300  0.625500  0.462100  1.0  -0.2138
  N  N162  1  0.356800  0.839300  0.677100  1.0  -0.3079
  N  N163  1  0.220400  0.987500  0.237200  1.0  -0.2089
  N  N164  1  0.257100  0.090400  0.293200  1.0  -0.118
  N  N165  1  0.251300  0.173500  0.170600  1.0  -0.0008
  N  N166  1  0.211700  0.125500  0.037900  1.0  -0.2158
  N  N167  1  0.143200  0.339300  0.822900  1.0  -0.3095
  N  N168  1  0.720400  0.487500  0.237200  1.0  -0.2089
  N  N169  1  0.757100  0.590400  0.293200  1.0  -0.118
  N  N170  1  0.751300  0.673500  0.170600  1.0  -0.0008
  N  N171  1  0.711700  0.625500  0.037900  1.0  -0.2158
  N  N172  1  0.643200  0.839300  0.822900  1.0  -0.3095
  O  O173  1  0.128400  0.070300  0.338400  1.0  -0.527
  O  O174  1  0.137900  0.178000  0.566800  1.0  -0.5728
  O  O175  1  0.628400  0.570300  0.338400  1.0  -0.527
  O  O176  1  0.637900  0.678000  0.566800  1.0  -0.5728
  O  O177  1  0.871600  0.070300  0.161600  1.0  -0.5277
  O  O178  1  0.862100  0.178000  0.933200  1.0  -0.5732
  O  O179  1  0.371600  0.570300  0.161600  1.0  -0.5277
  O  O180  1  0.362100  0.678000  0.933200  1.0  -0.5732
  O  O181  1  0.871600  0.929700  0.661600  1.0  -0.5282
  O  O182  1  0.862100  0.822000  0.433200  1.0  -0.5734
  O  O183  1  0.371600  0.429700  0.661600  1.0  -0.5282
  O  O184  1  0.362100  0.322000  0.433200  1.0  -0.5734
  O  O185  1  0.128400  0.929700  0.838400  1.0  -0.5273
  O  O186  1  0.137900  0.822000  0.066800  1.0  -0.573
  O  O187  1  0.628400  0.429700  0.838400  1.0  -0.5273
  O  O188  1  0.637900  0.322000  0.066800  1.0  -0.573
