# generated using pymatgen
data_Cu2H14C17(N5O2)2
_symmetry_space_group_name_H-M   'P 1'
_cell_length_a   28.74440000
_cell_length_b   9.26720000
_cell_length_c   9.32950000
_cell_angle_alpha   90.00000000
_cell_angle_beta   116.09700000
_cell_angle_gamma   90.00000000
_symmetry_Int_Tables_number   1
_chemical_formula_structural   Cu2H14C17(N5O2)2
_chemical_formula_sum   'Cu8 H56 C68 N40 O16'
_cell_volume   2231.82924806
_cell_formula_units_Z   4
loop_
 _symmetry_equiv_pos_site_id
 _symmetry_equiv_pos_as_xyz
  1  'x, y, z'
loop_
 _atom_site_type_symbol
 _atom_site_label
 _atom_site_symmetry_multiplicity
 _atom_site_fract_x
 _atom_site_fract_y
 _atom_site_fract_z
 _atom_site_occupancy
 _atom_site_charge
  Cu  Cu1  1  0.187820  0.830700  0.313700  1.0  0.7988
  Cu  Cu2  1  0.687820  0.330700  0.313700  1.0  0.7988
  Cu  Cu3  1  0.812180  0.830700  0.186300  1.0  0.7983
  Cu  Cu4  1  0.312180  0.330700  0.186300  1.0  0.7983
  Cu  Cu5  1  0.812180  0.169300  0.686300  1.0  0.7985
  Cu  Cu6  1  0.312180  0.669300  0.686300  1.0  0.7985
  Cu  Cu7  1  0.187820  0.169300  0.813700  1.0  0.7987
  Cu  Cu8  1  0.687820  0.669300  0.813700  1.0  0.7987
  H  H9  1  0.114280  0.820930  0.408720  1.0  0.0766
  H  H10  1  0.050950  0.690640  0.446850  1.0  0.1302
  H  H11  1  0.098310  0.331910  0.292050  1.0  0.1228
  H  H12  1  0.160120  0.474280  0.258940  1.0  0.0766
  H  H13  1  0.044840  0.348100  0.487940  1.0  0.0955
  H  H14  1  0.003820  0.470560  0.408660  1.0  0.0904
  H  H15  1  0.024540  0.253900  0.233800  1.0  0.0777
  H  H16  1  0.614280  0.320930  0.408720  1.0  0.0766
  H  H17  1  0.550950  0.190640  0.446850  1.0  0.1302
  H  H18  1  0.598310  0.831910  0.292050  1.0  0.1228
  H  H19  1  0.660120  0.974280  0.258940  1.0  0.0766
  H  H20  1  0.544840  0.848100  0.487940  1.0  0.0955
  H  H21  1  0.503820  0.970560  0.408660  1.0  0.0904
  H  H22  1  0.524540  0.753900  0.233800  1.0  0.0777
  H  H23  1  0.885720  0.820930  0.091280  1.0  0.0766
  H  H24  1  0.949050  0.690640  0.053150  1.0  0.1302
  H  H25  1  0.901690  0.331910  0.207950  1.0  0.1224
  H  H26  1  0.839880  0.474280  0.241060  1.0  0.0768
  H  H27  1  0.955160  0.348100  0.012060  1.0  0.0942
  H  H28  1  0.996180  0.470560  0.091340  1.0  0.0904
  H  H29  1  0.975460  0.253900  0.266200  1.0  0.079
  H  H30  1  0.385720  0.320930  0.091280  1.0  0.0766
  H  H31  1  0.449050  0.190640  0.053150  1.0  0.1302
  H  H32  1  0.401690  0.831910  0.207950  1.0  0.1224
  H  H33  1  0.339880  0.974280  0.241060  1.0  0.0768
  H  H34  1  0.455160  0.848100  0.012060  1.0  0.0942
  H  H35  1  0.496180  0.970560  0.091340  1.0  0.0904
  H  H36  1  0.475460  0.753900  0.266200  1.0  0.079
  H  H37  1  0.885720  0.179070  0.591280  1.0  0.0762
  H  H38  1  0.949050  0.309360  0.553150  1.0  0.129
  H  H39  1  0.901690  0.668090  0.707950  1.0  0.1236
  H  H40  1  0.839880  0.525720  0.741060  1.0  0.0769
  H  H41  1  0.955160  0.651900  0.512060  1.0  0.0962
  H  H42  1  0.996180  0.529440  0.591340  1.0  0.0906
  H  H43  1  0.975460  0.746100  0.766200  1.0  0.0781
  H  H44  1  0.385720  0.679070  0.591280  1.0  0.0762
  H  H45  1  0.449050  0.809360  0.553150  1.0  0.129
  H  H46  1  0.401690  0.168090  0.707950  1.0  0.1236
  H  H47  1  0.339880  0.025720  0.741060  1.0  0.0769
  H  H48  1  0.455160  0.151900  0.512060  1.0  0.0962
  H  H49  1  0.496180  0.029440  0.591340  1.0  0.0906
  H  H50  1  0.475460  0.246100  0.766200  1.0  0.0781
  H  H51  1  0.114280  0.179070  0.908720  1.0  0.0768
  H  H52  1  0.050950  0.309360  0.946850  1.0  0.1289
  H  H53  1  0.098310  0.668090  0.792050  1.0  0.1239
  H  H54  1  0.160120  0.525720  0.758940  1.0  0.0769
  H  H55  1  0.044840  0.651900  0.987940  1.0  0.094
  H  H56  1  0.003820  0.529440  0.908660  1.0  0.0904
  H  H57  1  0.024540  0.746100  0.733800  1.0  0.0786
  H  H58  1  0.614280  0.679070  0.908720  1.0  0.0768
  H  H59  1  0.550950  0.809360  0.946850  1.0  0.1289
  H  H60  1  0.598310  0.168090  0.792050  1.0  0.1239
  H  H61  1  0.660120  0.025720  0.758940  1.0  0.0769
  H  H62  1  0.544840  0.151900  0.987940  1.0  0.094
  H  H63  1  0.503820  0.029440  0.908660  1.0  0.0904
  H  H64  1  0.524540  0.246100  0.733800  1.0  0.0786
  C  C65  1  0.149300  0.088600  0.490600  1.0  0.6289
  C  C66  1  0.193000  0.988700  0.584000  1.0  0.1903
  C  C67  1  0.110800  0.719600  0.384700  1.0  0.1527
  C  C68  1  0.073000  0.643900  0.408000  1.0  -0.2418
  C  C69  1  0.068430  0.497300  0.372500  1.0  0.1242
  C  C70  1  0.101000  0.433000  0.316800  1.0  -0.2327
  C  C71  1  0.137600  0.518600  0.297600  1.0  0.1533
  C  C72  1  0.028170  0.407800  0.395060  1.0  -0.1983
  C  C73  1  0.649300  0.588600  0.490600  1.0  0.6289
  C  C74  1  0.693000  0.488700  0.584000  1.0  0.1903
  C  C75  1  0.610800  0.219600  0.384700  1.0  0.1527
  C  C76  1  0.573000  0.143900  0.408000  1.0  -0.2418
  C  C77  1  0.568430  0.997300  0.372500  1.0  0.1242
  C  C78  1  0.601000  0.933000  0.316800  1.0  -0.2327
  C  C79  1  0.637600  0.018600  0.297600  1.0  0.1533
  C  C80  1  0.528170  0.907800  0.395060  1.0  -0.1983
  C  C81  1  0.850700  0.088600  0.009400  1.0  0.6302
  C  C82  1  0.807000  0.988700  0.916000  1.0  0.1907
  C  C83  1  0.889200  0.719600  0.115300  1.0  0.1535
  C  C84  1  0.927000  0.643900  0.092000  1.0  -0.2387
  C  C85  1  0.931570  0.497300  0.127500  1.0  0.1221
  C  C86  1  0.899000  0.433000  0.183200  1.0  -0.2321
  C  C87  1  0.862400  0.518600  0.202400  1.0  0.1535
  C  C88  1  0.971830  0.407800  0.104940  1.0  -0.1952
  C  C89  1  0.350700  0.588600  0.009400  1.0  0.6302
  C  C90  1  0.307000  0.488700  0.916000  1.0  0.1907
  C  C91  1  0.389200  0.219600  0.115300  1.0  0.1535
  C  C92  1  0.427000  0.143900  0.092000  1.0  -0.2387
  C  C93  1  0.431570  0.997300  0.127500  1.0  0.1221
  C  C94  1  0.399000  0.933000  0.183200  1.0  -0.2321
  C  C95  1  0.362400  0.018600  0.202400  1.0  0.1535
  C  C96  1  0.471830  0.907800  0.104940  1.0  -0.1952
  C  C97  1  0.850700  0.911400  0.509400  1.0  0.6299
  C  C98  1  0.807000  0.011300  0.416000  1.0  0.191
  C  C99  1  0.889200  0.280400  0.615300  1.0  0.1524
  C  C100  1  0.927000  0.356100  0.592000  1.0  -0.2393
  C  C101  1  0.931570  0.502700  0.627500  1.0  0.1224
  C  C102  1  0.899000  0.567000  0.683200  1.0  -0.2324
  C  C103  1  0.862400  0.481400  0.702400  1.0  0.1534
  C  C104  1  0.971830  0.592200  0.604940  1.0  -0.1959
  C  C105  1  0.350700  0.411400  0.509400  1.0  0.6299
  C  C106  1  0.307000  0.511300  0.416000  1.0  0.191
  C  C107  1  0.389200  0.780400  0.615300  1.0  0.1524
  C  C108  1  0.427000  0.856100  0.592000  1.0  -0.2393
  C  C109  1  0.431570  0.002700  0.627500  1.0  0.1224
  C  C110  1  0.399000  0.067000  0.683200  1.0  -0.2324
  C  C111  1  0.362400  0.981400  0.702400  1.0  0.1534
  C  C112  1  0.471830  0.092200  0.604940  1.0  -0.1959
  C  C113  1  0.149300  0.911400  0.990600  1.0  0.629
  C  C114  1  0.193000  0.011300  0.084000  1.0  0.1911
  C  C115  1  0.110800  0.280400  0.884700  1.0  0.1524
  C  C116  1  0.073000  0.356100  0.908000  1.0  -0.2412
  C  C117  1  0.068430  0.502700  0.872500  1.0  0.1242
  C  C118  1  0.101000  0.567000  0.816800  1.0  -0.2329
  C  C119  1  0.137600  0.481400  0.797600  1.0  0.1531
  C  C120  1  0.028170  0.592200  0.895060  1.0  -0.198
  C  C121  1  0.649300  0.411400  0.990600  1.0  0.629
  C  C122  1  0.693000  0.511300  0.084000  1.0  0.1911
  C  C123  1  0.610800  0.780400  0.884700  1.0  0.1524
  C  C124  1  0.573000  0.856100  0.908000  1.0  -0.2412
  C  C125  1  0.568430  0.002700  0.872500  1.0  0.1242
  C  C126  1  0.601000  0.067000  0.816800  1.0  -0.2329
  C  C127  1  0.637600  0.981400  0.797600  1.0  0.1531
  C  C128  1  0.528170  0.092200  0.895060  1.0  -0.198
  C  C129  1  0.000000  0.313700  0.250000  1.0  -0.1328
  C  C130  1  0.500000  0.813700  0.250000  1.0  -0.1328
  C  C131  1  0.000000  0.686300  0.750000  1.0  -0.1357
  C  C132  1  0.500000  0.186300  0.750000  1.0  -0.1357
  N  N133  1  0.219600  0.008800  0.739800  1.0  -0.2225
  N  N134  1  0.255900  0.905300  0.792800  1.0  -0.1255
  N  N135  1  0.250500  0.825800  0.668500  1.0  -0.0081
  N  N136  1  0.211400  0.876600  0.537700  1.0  -0.2461
  N  N137  1  0.143000  0.660800  0.330800  1.0  -0.3165
  N  N138  1  0.719600  0.508800  0.739800  1.0  -0.2225
  N  N139  1  0.755900  0.405300  0.792800  1.0  -0.1255
  N  N140  1  0.750500  0.325800  0.668500  1.0  -0.0081
  N  N141  1  0.711400  0.376600  0.537700  1.0  -0.2461
  N  N142  1  0.643000  0.160800  0.330800  1.0  -0.3165
  N  N143  1  0.780400  0.008800  0.760200  1.0  -0.2236
  N  N144  1  0.744100  0.905300  0.707200  1.0  -0.1237
  N  N145  1  0.749500  0.825800  0.831500  1.0  -0.007
  N  N146  1  0.788600  0.876600  0.962300  1.0  -0.245
  N  N147  1  0.857000  0.660800  0.169200  1.0  -0.3159
  N  N148  1  0.280400  0.508800  0.760200  1.0  -0.2236
  N  N149  1  0.244100  0.405300  0.707200  1.0  -0.1237
  N  N150  1  0.249500  0.325800  0.831500  1.0  -0.007
  N  N151  1  0.288600  0.376600  0.962300  1.0  -0.245
  N  N152  1  0.357000  0.160800  0.169200  1.0  -0.3159
  N  N153  1  0.780400  0.991200  0.260200  1.0  -0.2235
  N  N154  1  0.744100  0.094700  0.207200  1.0  -0.123
  N  N155  1  0.749500  0.174200  0.331500  1.0  -0.0065
  N  N156  1  0.788600  0.123400  0.462300  1.0  -0.2449
  N  N157  1  0.857000  0.339200  0.669200  1.0  -0.3158
  N  N158  1  0.280400  0.491200  0.260200  1.0  -0.2235
  N  N159  1  0.244100  0.594700  0.207200  1.0  -0.123
  N  N160  1  0.249500  0.674200  0.331500  1.0  -0.0065
  N  N161  1  0.288600  0.623400  0.462300  1.0  -0.2449
  N  N162  1  0.357000  0.839200  0.669200  1.0  -0.3158
  N  N163  1  0.219600  0.991200  0.239800  1.0  -0.2219
  N  N164  1  0.255900  0.094700  0.292800  1.0  -0.1256
  N  N165  1  0.250500  0.174200  0.168500  1.0  -0.0083
  N  N166  1  0.211400  0.123400  0.037700  1.0  -0.2459
  N  N167  1  0.143000  0.339200  0.830800  1.0  -0.3168
  N  N168  1  0.719600  0.491200  0.239800  1.0  -0.2219
  N  N169  1  0.755900  0.594700  0.292800  1.0  -0.1256
  N  N170  1  0.750500  0.674200  0.168500  1.0  -0.0083
  N  N171  1  0.711400  0.623400  0.037700  1.0  -0.2459
  N  N172  1  0.643000  0.839200  0.830800  1.0  -0.3168
  O  O173  1  0.128200  0.073000  0.344900  1.0  -0.5072
  O  O174  1  0.139000  0.179900  0.574200  1.0  -0.5585
  O  O175  1  0.628200  0.573000  0.344900  1.0  -0.5072
  O  O176  1  0.639000  0.679900  0.574200  1.0  -0.5585
  O  O177  1  0.871800  0.073000  0.155100  1.0  -0.5056
  O  O178  1  0.861000  0.179900  0.925800  1.0  -0.5582
  O  O179  1  0.371800  0.573000  0.155100  1.0  -0.5056
  O  O180  1  0.361000  0.679900  0.925800  1.0  -0.5582
  O  O181  1  0.871800  0.927000  0.655100  1.0  -0.5059
  O  O182  1  0.861000  0.820100  0.425800  1.0  -0.5584
  O  O183  1  0.371800  0.427000  0.655100  1.0  -0.5059
  O  O184  1  0.361000  0.320100  0.425800  1.0  -0.5584
  O  O185  1  0.128200  0.927000  0.844900  1.0  -0.5065
  O  O186  1  0.139000  0.820100  0.074200  1.0  -0.5587
  O  O187  1  0.628200  0.427000  0.844900  1.0  -0.5065
  O  O188  1  0.639000  0.320100  0.074200  1.0  -0.5587
