# generated using pymatgen
data_Cd3H10C24(NO4)3
_symmetry_space_group_name_H-M   'P 1'
_cell_length_a   21.78990000
_cell_length_b   16.63370000
_cell_length_c   13.51490000
_cell_angle_alpha   90.00000000
_cell_angle_beta   93.81600000
_cell_angle_gamma   90.00000000
_symmetry_Int_Tables_number   1
_chemical_formula_structural   Cd3H10C24(NO4)3
_chemical_formula_sum   'Cd12 H40 C96 N12 O48'
_cell_volume   4887.57015914
_cell_formula_units_Z   4
loop_
 _symmetry_equiv_pos_site_id
 _symmetry_equiv_pos_as_xyz
  1  'x, y, z'
loop_
 _atom_site_type_symbol
 _atom_site_label
 _atom_site_symmetry_multiplicity
 _atom_site_fract_x
 _atom_site_fract_y
 _atom_site_fract_z
 _atom_site_occupancy
 _atom_site_charge
  Cd  Cd1  1  0.643320  0.249550  0.266970  1.0  1.0585
  Cd  Cd2  1  0.143320  0.749550  0.266970  1.0  1.0585
  Cd  Cd3  1  0.356680  0.249550  0.233030  1.0  1.0642
  Cd  Cd4  1  0.856680  0.749550  0.233030  1.0  1.0642
  Cd  Cd5  1  0.356680  0.750450  0.733030  1.0  1.0589
  Cd  Cd6  1  0.856680  0.250450  0.733030  1.0  1.0589
  Cd  Cd7  1  0.643320  0.750450  0.766970  1.0  1.0638
  Cd  Cd8  1  0.143320  0.250450  0.766970  1.0  1.0638
  Cd  Cd9  1  0.500000  0.132710  0.250000  1.0  0.9904
  Cd  Cd10  1  0.000000  0.632710  0.250000  1.0  0.9904
  Cd  Cd11  1  0.500000  0.867290  0.750000  1.0  0.9907
  Cd  Cd12  1  0.000000  0.367290  0.750000  1.0  0.9907
  H  H13  1  0.575700  0.980800  0.529800  1.0  0.1337
  H  H14  1  0.723700  0.011400  0.717900  1.0  0.1282
  H  H15  1  0.682900  0.176200  0.508200  1.0  0.1286
  H  H16  1  0.608600  0.464100  0.251400  1.0  0.1412
  H  H17  1  0.553600  0.582200  0.249400  1.0  0.1256
  H  H18  1  0.075700  0.480800  0.529800  1.0  0.1337
  H  H19  1  0.223700  0.511400  0.717900  1.0  0.1282
  H  H20  1  0.182900  0.676200  0.508200  1.0  0.1286
  H  H21  1  0.108600  0.964100  0.251400  1.0  0.1412
  H  H22  1  0.053600  0.082200  0.249400  1.0  0.1256
  H  H23  1  0.424300  0.980800  0.970200  1.0  0.1343
  H  H24  1  0.276300  0.011400  0.782100  1.0  0.1278
  H  H25  1  0.317100  0.176200  0.991800  1.0  0.1286
  H  H26  1  0.391400  0.464100  0.248600  1.0  0.1434
  H  H27  1  0.446400  0.582200  0.250600  1.0  0.1257
  H  H28  1  0.924300  0.480800  0.970200  1.0  0.1343
  H  H29  1  0.776300  0.511400  0.782100  1.0  0.1278
  H  H30  1  0.817100  0.676200  0.991800  1.0  0.1286
  H  H31  1  0.891400  0.964100  0.248600  1.0  0.1434
  H  H32  1  0.946400  0.082200  0.250600  1.0  0.1257
  H  H33  1  0.424300  0.019200  0.470200  1.0  0.1339
  H  H34  1  0.276300  0.988600  0.282100  1.0  0.1277
  H  H35  1  0.317100  0.823800  0.491800  1.0  0.1286
  H  H36  1  0.391400  0.535900  0.748600  1.0  0.1414
  H  H37  1  0.446400  0.417800  0.750600  1.0  0.1262
  H  H38  1  0.924300  0.519200  0.470200  1.0  0.1339
  H  H39  1  0.776300  0.488600  0.282100  1.0  0.1277
  H  H40  1  0.817100  0.323800  0.491800  1.0  0.1286
  H  H41  1  0.891400  0.035900  0.748600  1.0  0.1414
  H  H42  1  0.946400  0.917800  0.750600  1.0  0.1262
  H  H43  1  0.575700  0.019200  0.029800  1.0  0.1338
  H  H44  1  0.723700  0.988600  0.217900  1.0  0.128
  H  H45  1  0.682900  0.823800  0.008200  1.0  0.1285
  H  H46  1  0.608600  0.535900  0.751400  1.0  0.1432
  H  H47  1  0.553600  0.417800  0.749400  1.0  0.1263
  H  H48  1  0.075700  0.519200  0.029800  1.0  0.1338
  H  H49  1  0.223700  0.488600  0.217900  1.0  0.128
  H  H50  1  0.182900  0.323800  0.008200  1.0  0.1285
  H  H51  1  0.108600  0.035900  0.751400  1.0  0.1432
  H  H52  1  0.053600  0.917800  0.749400  1.0  0.1263
  C  C53  1  0.584570  0.111100  0.414700  1.0  0.745
  C  C54  1  0.636000  0.904600  0.679900  1.0  0.7413
  C  C55  1  0.767700  0.149600  0.654900  1.0  0.7197
  C  C56  1  0.624310  0.082500  0.504700  1.0  -0.1203
  C  C57  1  0.610050  0.010600  0.552000  1.0  0.0426
  C  C58  1  0.647780  0.984300  0.632600  1.0  -0.153
  C  C59  1  0.698300  0.029600  0.664600  1.0  0.0605
  C  C60  1  0.712180  0.101500  0.619500  1.0  -0.1391
  C  C61  1  0.674400  0.127800  0.539000  1.0  0.0361
  C  C62  1  0.531400  0.391800  0.250900  1.0  0.1089
  C  C63  1  0.565900  0.464100  0.250900  1.0  -0.1231
  C  C64  1  0.532900  0.533300  0.250000  1.0  -0.0775
  C  C65  1  0.084570  0.611100  0.414700  1.0  0.745
  C  C66  1  0.136000  0.404600  0.679900  1.0  0.7413
  C  C67  1  0.267700  0.649600  0.654900  1.0  0.7197
  C  C68  1  0.124310  0.582500  0.504700  1.0  -0.1203
  C  C69  1  0.110050  0.510600  0.552000  1.0  0.0426
  C  C70  1  0.147780  0.484300  0.632600  1.0  -0.153
  C  C71  1  0.198300  0.529600  0.664600  1.0  0.0605
  C  C72  1  0.212180  0.601500  0.619500  1.0  -0.1391
  C  C73  1  0.174400  0.627800  0.539000  1.0  0.0361
  C  C74  1  0.031400  0.891800  0.250900  1.0  0.1089
  C  C75  1  0.065900  0.964100  0.250900  1.0  -0.1231
  C  C76  1  0.032900  0.033300  0.250000  1.0  -0.0775
  C  C77  1  0.415430  0.111100  0.085300  1.0  0.7456
  C  C78  1  0.364000  0.904600  0.820100  1.0  0.7399
  C  C79  1  0.232300  0.149600  0.845100  1.0  0.7184
  C  C80  1  0.375690  0.082500  0.995300  1.0  -0.1208
  C  C81  1  0.389950  0.010600  0.948000  1.0  0.0429
  C  C82  1  0.352220  0.984300  0.867400  1.0  -0.1532
  C  C83  1  0.301700  0.029600  0.835400  1.0  0.0595
  C  C84  1  0.287820  0.101500  0.880500  1.0  -0.1392
  C  C85  1  0.325600  0.127800  0.961000  1.0  0.0366
  C  C86  1  0.468600  0.391800  0.249100  1.0  0.1086
  C  C87  1  0.434100  0.464100  0.249100  1.0  -0.1258
  C  C88  1  0.467100  0.533300  0.250000  1.0  -0.0799
  C  C89  1  0.915430  0.611100  0.085300  1.0  0.7456
  C  C90  1  0.864000  0.404600  0.820100  1.0  0.7399
  C  C91  1  0.732300  0.649600  0.845100  1.0  0.7184
  C  C92  1  0.875690  0.582500  0.995300  1.0  -0.1208
  C  C93  1  0.889950  0.510600  0.948000  1.0  0.0429
  C  C94  1  0.852220  0.484300  0.867400  1.0  -0.1532
  C  C95  1  0.801700  0.529600  0.835400  1.0  0.0595
  C  C96  1  0.787820  0.601500  0.880500  1.0  -0.1392
  C  C97  1  0.825600  0.627800  0.961000  1.0  0.0366
  C  C98  1  0.968600  0.891800  0.249100  1.0  0.1086
  C  C99  1  0.934100  0.964100  0.249100  1.0  -0.1258
  C  C100  1  0.967100  0.033300  0.250000  1.0  -0.0799
  C  C101  1  0.415430  0.888900  0.585300  1.0  0.7452
  C  C102  1  0.364000  0.095400  0.320100  1.0  0.7403
  C  C103  1  0.232300  0.850400  0.345100  1.0  0.7186
  C  C104  1  0.375690  0.917500  0.495300  1.0  -0.1208
  C  C105  1  0.389950  0.989400  0.448000  1.0  0.0424
  C  C106  1  0.352220  0.015700  0.367400  1.0  -0.1529
  C  C107  1  0.301700  0.970400  0.335400  1.0  0.0593
  C  C108  1  0.287820  0.898500  0.380500  1.0  -0.1399
  C  C109  1  0.325600  0.872200  0.461000  1.0  0.0368
  C  C110  1  0.468600  0.608200  0.749100  1.0  0.1086
  C  C111  1  0.434100  0.535900  0.749100  1.0  -0.1251
  C  C112  1  0.467100  0.466700  0.750000  1.0  -0.0792
  C  C113  1  0.915430  0.388900  0.585300  1.0  0.7452
  C  C114  1  0.864000  0.595400  0.320100  1.0  0.7403
  C  C115  1  0.732300  0.350400  0.345100  1.0  0.7186
  C  C116  1  0.875690  0.417500  0.495300  1.0  -0.1208
  C  C117  1  0.889950  0.489400  0.448000  1.0  0.0424
  C  C118  1  0.852220  0.515700  0.367400  1.0  -0.1529
  C  C119  1  0.801700  0.470400  0.335400  1.0  0.0593
  C  C120  1  0.787820  0.398500  0.380500  1.0  -0.1399
  C  C121  1  0.825600  0.372200  0.461000  1.0  0.0368
  C  C122  1  0.968600  0.108200  0.749100  1.0  0.1086
  C  C123  1  0.934100  0.035900  0.749100  1.0  -0.1251
  C  C124  1  0.967100  0.966700  0.750000  1.0  -0.0792
  C  C125  1  0.584570  0.888900  0.914700  1.0  0.745
  C  C126  1  0.636000  0.095400  0.179900  1.0  0.741
  C  C127  1  0.767700  0.850400  0.154900  1.0  0.7199
  C  C128  1  0.624310  0.917500  0.004700  1.0  -0.1204
  C  C129  1  0.610050  0.989400  0.052000  1.0  0.0425
  C  C130  1  0.647780  0.015700  0.132600  1.0  -0.1529
  C  C131  1  0.698300  0.970400  0.164600  1.0  0.0601
  C  C132  1  0.712180  0.898500  0.119500  1.0  -0.1395
  C  C133  1  0.674400  0.872200  0.039000  1.0  0.0365
  C  C134  1  0.531400  0.608200  0.750900  1.0  0.109
  C  C135  1  0.565900  0.535900  0.750900  1.0  -0.1227
  C  C136  1  0.532900  0.466700  0.750000  1.0  -0.0823
  C  C137  1  0.084570  0.388900  0.914700  1.0  0.745
  C  C138  1  0.136000  0.595400  0.179900  1.0  0.741
  C  C139  1  0.267700  0.350400  0.154900  1.0  0.7199
  C  C140  1  0.124310  0.417500  0.004700  1.0  -0.1204
  C  C141  1  0.110050  0.489400  0.052000  1.0  0.0425
  C  C142  1  0.147780  0.515700  0.132600  1.0  -0.1529
  C  C143  1  0.198300  0.470400  0.164600  1.0  0.0601
  C  C144  1  0.212180  0.398500  0.119500  1.0  -0.1395
  C  C145  1  0.174400  0.372200  0.039000  1.0  0.0365
  C  C146  1  0.031400  0.108200  0.750900  1.0  0.109
  C  C147  1  0.065900  0.035900  0.750900  1.0  -0.1227
  C  C148  1  0.032900  0.966700  0.750000  1.0  -0.0823
  N  N149  1  0.550480  0.314300  0.251100  1.0  -0.313
  N  N150  1  0.050480  0.814300  0.251100  1.0  -0.313
  N  N151  1  0.449520  0.314300  0.248900  1.0  -0.3127
  N  N152  1  0.949520  0.814300  0.248900  1.0  -0.3127
  N  N153  1  0.449520  0.685700  0.748900  1.0  -0.3108
  N  N154  1  0.949520  0.185700  0.748900  1.0  -0.3108
  N  N155  1  0.550480  0.685700  0.751100  1.0  -0.3123
  N  N156  1  0.050480  0.185700  0.751100  1.0  -0.3123
  N  N157  1  0.500000  0.270400  0.250000  1.0  -0.0632
  N  N158  1  0.000000  0.770400  0.250000  1.0  -0.0632
  N  N159  1  0.500000  0.729600  0.750000  1.0  -0.0622
  N  N160  1  0.000000  0.229600  0.750000  1.0  -0.0622
  O  O161  1  0.589950  0.182900  0.389400  1.0  -0.6671
  O  O162  1  0.548670  0.062100  0.372700  1.0  -0.5583
  O  O163  1  0.586080  0.868800  0.659300  1.0  -0.692
  O  O164  1  0.678200  0.875400  0.735900  1.0  -0.5722
  O  O165  1  0.805880  0.116800  0.715400  1.0  -0.6488
  O  O166  1  0.773640  0.218400  0.625800  1.0  -0.5679
  O  O167  1  0.089950  0.682900  0.389400  1.0  -0.6671
  O  O168  1  0.048670  0.562100  0.372700  1.0  -0.5583
  O  O169  1  0.086080  0.368800  0.659300  1.0  -0.692
  O  O170  1  0.178200  0.375400  0.735900  1.0  -0.5722
  O  O171  1  0.305880  0.616800  0.715400  1.0  -0.6488
  O  O172  1  0.273640  0.718400  0.625800  1.0  -0.5679
  O  O173  1  0.410050  0.182900  0.110600  1.0  -0.6666
  O  O174  1  0.451330  0.062100  0.127300  1.0  -0.5583
  O  O175  1  0.413920  0.868800  0.840700  1.0  -0.6904
  O  O176  1  0.321800  0.875400  0.764100  1.0  -0.5717
  O  O177  1  0.194120  0.116800  0.784600  1.0  -0.6515
  O  O178  1  0.226360  0.218400  0.874200  1.0  -0.567
  O  O179  1  0.910050  0.682900  0.110600  1.0  -0.6666
  O  O180  1  0.951330  0.562100  0.127300  1.0  -0.5583
  O  O181  1  0.913920  0.368800  0.840700  1.0  -0.6904
  O  O182  1  0.821800  0.375400  0.764100  1.0  -0.5717
  O  O183  1  0.694120  0.616800  0.784600  1.0  -0.6515
  O  O184  1  0.726360  0.718400  0.874200  1.0  -0.567
  O  O185  1  0.410050  0.817100  0.610600  1.0  -0.6692
  O  O186  1  0.451330  0.937900  0.627300  1.0  -0.559
  O  O187  1  0.413920  0.131200  0.340700  1.0  -0.691
  O  O188  1  0.321800  0.124600  0.264100  1.0  -0.5719
  O  O189  1  0.194120  0.883200  0.284600  1.0  -0.6507
  O  O190  1  0.226360  0.781600  0.374200  1.0  -0.5685
  O  O191  1  0.910050  0.317100  0.610600  1.0  -0.6692
  O  O192  1  0.951330  0.437900  0.627300  1.0  -0.559
  O  O193  1  0.913920  0.631200  0.340700  1.0  -0.691
  O  O194  1  0.821800  0.624600  0.264100  1.0  -0.5719
  O  O195  1  0.694120  0.383200  0.284600  1.0  -0.6507
  O  O196  1  0.726360  0.281600  0.374200  1.0  -0.5685
  O  O197  1  0.589950  0.817100  0.889400  1.0  -0.6689
  O  O198  1  0.548670  0.937900  0.872700  1.0  -0.5587
  O  O199  1  0.586080  0.131200  0.159300  1.0  -0.6909
  O  O200  1  0.678200  0.124600  0.235900  1.0  -0.5721
  O  O201  1  0.805880  0.883200  0.215400  1.0  -0.6487
  O  O202  1  0.773640  0.781600  0.125800  1.0  -0.5685
  O  O203  1  0.089950  0.317100  0.889400  1.0  -0.6689
  O  O204  1  0.048670  0.437900  0.872700  1.0  -0.5587
  O  O205  1  0.086080  0.631200  0.159300  1.0  -0.6909
  O  O206  1  0.178200  0.624600  0.235900  1.0  -0.5721
  O  O207  1  0.305880  0.383200  0.215400  1.0  -0.6487
  O  O208  1  0.273640  0.281600  0.125800  1.0  -0.5685
