# generated using pymatgen
data_CuH8(C5N3)2
_symmetry_space_group_name_H-M   'P 1'
_cell_length_a   23.73900000
_cell_length_b   7.07240000
_cell_length_c   11.54050000
_cell_angle_alpha   90.00000000
_cell_angle_beta   90.00000000
_cell_angle_gamma   90.00000000
_symmetry_Int_Tables_number   1
_chemical_formula_structural   CuH8(C5N3)2
_chemical_formula_sum   'Cu4 H32 C40 N24'
_cell_volume   1937.55420540
_cell_formula_units_Z   4
loop_
 _symmetry_equiv_pos_site_id
 _symmetry_equiv_pos_as_xyz
  1  'x, y, z'
loop_
 _atom_site_type_symbol
 _atom_site_label
 _atom_site_symmetry_multiplicity
 _atom_site_fract_x
 _atom_site_fract_y
 _atom_site_fract_z
 _atom_site_occupancy
 _atom_site_charge
  Cu  Cu1  1  0.500000  0.000000  0.500000  1.0  0.3375
  Cu  Cu2  1  0.000000  0.500000  0.000000  1.0  0.3375
  Cu  Cu3  1  0.500000  0.500000  0.500000  1.0  0.3375
  Cu  Cu4  1  0.000000  0.000000  0.000000  1.0  0.3375
  H  H5  1  0.380500  0.968900  0.366600  1.0  0.1218
  H  H6  1  0.296500  0.972400  0.282400  1.0  0.1141
  H  H7  1  0.880500  0.468900  0.866600  1.0  0.1218
  H  H8  1  0.796500  0.472400  0.782400  1.0  0.1141
  H  H9  1  0.619500  0.531100  0.366600  1.0  0.1222
  H  H10  1  0.703500  0.527600  0.282400  1.0  0.1146
  H  H11  1  0.119500  0.031100  0.866600  1.0  0.1222
  H  H12  1  0.203500  0.027600  0.782400  1.0  0.1146
  H  H13  1  0.619500  0.468900  0.633400  1.0  0.1222
  H  H14  1  0.703500  0.472400  0.717600  1.0  0.114
  H  H15  1  0.119500  0.968900  0.133400  1.0  0.1222
  H  H16  1  0.203500  0.972400  0.217600  1.0  0.114
  H  H17  1  0.380500  0.031100  0.633400  1.0  0.1223
  H  H18  1  0.296500  0.027600  0.717600  1.0  0.1142
  H  H19  1  0.880500  0.531100  0.133400  1.0  0.1223
  H  H20  1  0.796500  0.527600  0.217600  1.0  0.1142
  H  H21  1  0.619500  0.031100  0.633400  1.0  0.1224
  H  H22  1  0.703500  0.027600  0.717600  1.0  0.1144
  H  H23  1  0.119500  0.531100  0.133400  1.0  0.1224
  H  H24  1  0.203500  0.527600  0.217600  1.0  0.1144
  H  H25  1  0.380500  0.468900  0.633400  1.0  0.1219
  H  H26  1  0.296500  0.472400  0.717600  1.0  0.114
  H  H27  1  0.880500  0.968900  0.133400  1.0  0.1219
  H  H28  1  0.796500  0.972400  0.217600  1.0  0.114
  H  H29  1  0.380500  0.531100  0.366600  1.0  0.1223
  H  H30  1  0.296500  0.527600  0.282400  1.0  0.1144
  H  H31  1  0.880500  0.031100  0.866600  1.0  0.1223
  H  H32  1  0.796500  0.027600  0.782400  1.0  0.1144
  H  H33  1  0.619500  0.968900  0.366600  1.0  0.1219
  H  H34  1  0.703500  0.972400  0.282400  1.0  0.1142
  H  H35  1  0.119500  0.468900  0.866600  1.0  0.1219
  H  H36  1  0.203500  0.472400  0.782400  1.0  0.1142
  C  C37  1  0.391540  0.096800  0.377600  1.0  -0.0181
  C  C38  1  0.277600  0.089400  0.271400  1.0  -0.1597
  C  C39  1  0.891540  0.596800  0.877600  1.0  -0.0181
  C  C40  1  0.777600  0.589400  0.771400  1.0  -0.1601
  C  C41  1  0.608460  0.403200  0.377600  1.0  -0.019
  C  C42  1  0.722400  0.410600  0.271400  1.0  -0.1601
  C  C43  1  0.108460  0.903200  0.877600  1.0  -0.019
  C  C44  1  0.222400  0.910600  0.771400  1.0  -0.1601
  C  C45  1  0.608460  0.596800  0.622400  1.0  -0.019
  C  C46  1  0.722400  0.589400  0.728600  1.0  -0.1617
  C  C47  1  0.108460  0.096800  0.122400  1.0  -0.019
  C  C48  1  0.222400  0.089400  0.228600  1.0  -0.1617
  C  C49  1  0.391540  0.903200  0.622400  1.0  -0.0203
  C  C50  1  0.277600  0.910600  0.728600  1.0  -0.1604
  C  C51  1  0.891540  0.403200  0.122400  1.0  -0.0203
  C  C52  1  0.777600  0.410600  0.228600  1.0  -0.1604
  C  C53  1  0.722400  0.910600  0.728600  1.0  -0.1601
  C  C54  1  0.222400  0.410600  0.228600  1.0  -0.1613
  C  C55  1  0.277600  0.589400  0.728600  1.0  -0.1598
  C  C56  1  0.777600  0.089400  0.228600  1.0  -0.1598
  C  C57  1  0.277600  0.410600  0.271400  1.0  -0.1597
  C  C58  1  0.777600  0.910600  0.771400  1.0  -0.1597
  C  C59  1  0.722400  0.089400  0.271400  1.0  -0.1606
  C  C60  1  0.222400  0.589400  0.771400  1.0  -0.161
  C  C61  1  0.304300  0.250000  0.297000  1.0  0.0805
  C  C62  1  0.361400  0.250000  0.349300  1.0  0.1447
  C  C63  1  0.804300  0.750000  0.797000  1.0  0.0805
  C  C64  1  0.861400  0.750000  0.849300  1.0  0.1447
  C  C65  1  0.695700  0.250000  0.297000  1.0  0.0805
  C  C66  1  0.638600  0.250000  0.349300  1.0  0.145
  C  C67  1  0.195700  0.750000  0.797000  1.0  0.0805
  C  C68  1  0.138600  0.750000  0.849300  1.0  0.145
  C  C69  1  0.695700  0.750000  0.703000  1.0  0.0813
  C  C70  1  0.638600  0.750000  0.650700  1.0  0.1452
  C  C71  1  0.195700  0.250000  0.203000  1.0  0.0813
  C  C72  1  0.138600  0.250000  0.150700  1.0  0.1452
  C  C73  1  0.304300  0.750000  0.703000  1.0  0.081
  C  C74  1  0.361400  0.750000  0.650700  1.0  0.1459
  C  C75  1  0.804300  0.250000  0.203000  1.0  0.081
  C  C76  1  0.861400  0.250000  0.150700  1.0  0.1459
  N  N77  1  0.440390  0.156500  0.424400  1.0  -0.2069
  N  N78  1  0.391540  0.403200  0.377600  1.0  -0.2032
  N  N79  1  0.940390  0.656500  0.924400  1.0  -0.2069
  N  N80  1  0.891540  0.903200  0.877600  1.0  -0.2032
  N  N81  1  0.559610  0.343500  0.424400  1.0  -0.2018
  N  N82  1  0.608460  0.096800  0.377600  1.0  -0.2018
  N  N83  1  0.059610  0.843500  0.924400  1.0  -0.2018
  N  N84  1  0.108460  0.596800  0.877600  1.0  -0.2018
  N  N85  1  0.559610  0.656500  0.575600  1.0  -0.2027
  N  N86  1  0.608460  0.903200  0.622400  1.0  -0.2052
  N  N87  1  0.059610  0.156500  0.075600  1.0  -0.2027
  N  N88  1  0.108460  0.403200  0.122400  1.0  -0.2052
  N  N89  1  0.440390  0.843500  0.575600  1.0  -0.2035
  N  N90  1  0.391540  0.596800  0.622400  1.0  -0.2041
  N  N91  1  0.940390  0.343500  0.075600  1.0  -0.2035
  N  N92  1  0.891540  0.096800  0.122400  1.0  -0.2041
  N  N93  1  0.559610  0.843500  0.575600  1.0  -0.1185
  N  N94  1  0.059610  0.343500  0.075600  1.0  -0.1202
  N  N95  1  0.440390  0.656500  0.575600  1.0  -0.1214
  N  N96  1  0.940390  0.156500  0.075600  1.0  -0.1214
  N  N97  1  0.440390  0.343500  0.424400  1.0  -0.121
  N  N98  1  0.940390  0.843500  0.924400  1.0  -0.121
  N  N99  1  0.559610  0.156500  0.424400  1.0  -0.1196
  N  N100  1  0.059610  0.656500  0.924400  1.0  -0.1197
