# generated using pymatgen
data_CuH8(C5N3)2
_symmetry_space_group_name_H-M   'P 1'
_cell_length_a   24.56100000
_cell_length_b   6.98600000
_cell_length_c   9.13330000
_cell_angle_alpha   90.00000000
_cell_angle_beta   90.00000000
_cell_angle_gamma   90.00000000
_symmetry_Int_Tables_number   1
_chemical_formula_structural   CuH8(C5N3)2
_chemical_formula_sum   'Cu4 H32 C40 N24'
_cell_volume   1567.12034736
_cell_formula_units_Z   4
loop_
 _symmetry_equiv_pos_site_id
 _symmetry_equiv_pos_as_xyz
  1  'x, y, z'
loop_
 _atom_site_type_symbol
 _atom_site_label
 _atom_site_symmetry_multiplicity
 _atom_site_fract_x
 _atom_site_fract_y
 _atom_site_fract_z
 _atom_site_occupancy
 _atom_site_charge
  Cu  Cu1  1  0.500000  0.000000  0.500000  1.0  0.3823
  Cu  Cu2  1  0.000000  0.500000  0.000000  1.0  0.3823
  Cu  Cu3  1  0.500000  0.500000  0.500000  1.0  0.3823
  Cu  Cu4  1  0.000000  0.000000  0.000000  1.0  0.3823
  H  H5  1  0.383200  0.964600  0.659100  1.0  0.1153
  H  H6  1  0.296000  0.967100  0.723900  1.0  0.1114
  H  H7  1  0.883200  0.464600  0.159100  1.0  0.1153
  H  H8  1  0.796000  0.467100  0.223900  1.0  0.1114
  H  H9  1  0.616800  0.535400  0.659100  1.0  0.1156
  H  H10  1  0.704000  0.532900  0.723900  1.0  0.1101
  H  H11  1  0.116800  0.035400  0.159100  1.0  0.1156
  H  H12  1  0.204000  0.032900  0.223900  1.0  0.1101
  H  H13  1  0.616800  0.464600  0.340900  1.0  0.1147
  H  H14  1  0.704000  0.467100  0.276100  1.0  0.1112
  H  H15  1  0.116800  0.964600  0.840900  1.0  0.1147
  H  H16  1  0.204000  0.967100  0.776100  1.0  0.1112
  H  H17  1  0.383200  0.035400  0.340900  1.0  0.1153
  H  H18  1  0.296000  0.032900  0.276100  1.0  0.111
  H  H19  1  0.883200  0.535400  0.840900  1.0  0.1153
  H  H20  1  0.796000  0.532900  0.776100  1.0  0.111
  H  H21  1  0.616800  0.035400  0.340900  1.0  0.1152
  H  H22  1  0.704000  0.032900  0.276100  1.0  0.1104
  H  H23  1  0.116800  0.535400  0.840900  1.0  0.1152
  H  H24  1  0.204000  0.532900  0.776100  1.0  0.1104
  H  H25  1  0.383200  0.464600  0.340900  1.0  0.115
  H  H26  1  0.296000  0.467100  0.276100  1.0  0.111
  H  H27  1  0.883200  0.964600  0.840900  1.0  0.115
  H  H28  1  0.796000  0.967100  0.776100  1.0  0.111
  H  H29  1  0.383200  0.535400  0.659100  1.0  0.1157
  H  H30  1  0.296000  0.532900  0.723900  1.0  0.1098
  H  H31  1  0.883200  0.035400  0.159100  1.0  0.1157
  H  H32  1  0.796000  0.032900  0.223900  1.0  0.1098
  H  H33  1  0.616800  0.964600  0.659100  1.0  0.1151
  H  H34  1  0.704000  0.967100  0.723900  1.0  0.1108
  H  H35  1  0.116800  0.464600  0.159100  1.0  0.1151
  H  H36  1  0.204000  0.467100  0.223900  1.0  0.1108
  C  C37  1  0.394170  0.094100  0.647300  1.0  -0.043
  C  C38  1  0.277700  0.086000  0.734100  1.0  -0.1442
  C  C39  1  0.894170  0.594100  0.147300  1.0  -0.043
  C  C40  1  0.777700  0.586000  0.234100  1.0  -0.1437
  C  C41  1  0.605830  0.405900  0.647300  1.0  -0.0433
  C  C42  1  0.722300  0.414000  0.734100  1.0  -0.1454
  C  C43  1  0.105830  0.905900  0.147300  1.0  -0.0433
  C  C44  1  0.222300  0.914000  0.234100  1.0  -0.1454
  C  C45  1  0.605830  0.594100  0.352700  1.0  -0.0406
  C  C46  1  0.722300  0.586000  0.265900  1.0  -0.146
  C  C47  1  0.105830  0.094100  0.852700  1.0  -0.0406
  C  C48  1  0.222300  0.086000  0.765900  1.0  -0.146
  C  C49  1  0.394170  0.905900  0.352700  1.0  -0.0405
  C  C50  1  0.277700  0.914000  0.265900  1.0  -0.1451
  C  C51  1  0.894170  0.405900  0.852700  1.0  -0.0405
  C  C52  1  0.777700  0.414000  0.765900  1.0  -0.1451
  C  C53  1  0.722300  0.914000  0.265900  1.0  -0.1466
  C  C54  1  0.222300  0.414000  0.765900  1.0  -0.1466
  C  C55  1  0.277700  0.586000  0.265900  1.0  -0.1449
  C  C56  1  0.777700  0.086000  0.765900  1.0  -0.1448
  C  C57  1  0.277700  0.414000  0.734100  1.0  -0.1441
  C  C58  1  0.777700  0.914000  0.234100  1.0  -0.1441
  C  C59  1  0.722300  0.086000  0.734100  1.0  -0.1452
  C  C60  1  0.222300  0.586000  0.234100  1.0  -0.1452
  C  C61  1  0.363900  0.250000  0.677200  1.0  0.1294
  C  C62  1  0.306000  0.250000  0.717400  1.0  0.0753
  C  C63  1  0.863900  0.750000  0.177200  1.0  0.1294
  C  C64  1  0.806000  0.750000  0.217400  1.0  0.0753
  C  C65  1  0.636100  0.250000  0.677200  1.0  0.1305
  C  C66  1  0.694000  0.250000  0.717400  1.0  0.0741
  C  C67  1  0.136100  0.750000  0.177200  1.0  0.1305
  C  C68  1  0.194000  0.750000  0.217400  1.0  0.0741
  C  C69  1  0.636100  0.750000  0.322800  1.0  0.1281
  C  C70  1  0.694000  0.750000  0.282600  1.0  0.0744
  C  C71  1  0.136100  0.250000  0.822800  1.0  0.1281
  C  C72  1  0.194000  0.250000  0.782600  1.0  0.0744
  C  C73  1  0.363900  0.750000  0.322800  1.0  0.1256
  C  C74  1  0.306000  0.750000  0.282600  1.0  0.0757
  C  C75  1  0.863900  0.250000  0.822800  1.0  0.1256
  C  C76  1  0.806000  0.250000  0.782600  1.0  0.0757
  N  N77  1  0.442340  0.154300  0.598200  1.0  -0.2258
  N  N78  1  0.394170  0.405900  0.647300  1.0  -0.1458
  N  N79  1  0.942340  0.654300  0.098200  1.0  -0.2258
  N  N80  1  0.894170  0.905900  0.147300  1.0  -0.1458
  N  N81  1  0.557660  0.345700  0.598200  1.0  -0.226
  N  N82  1  0.605830  0.094100  0.647300  1.0  -0.1444
  N  N83  1  0.057660  0.845700  0.098200  1.0  -0.226
  N  N84  1  0.105830  0.594100  0.147300  1.0  -0.1444
  N  N85  1  0.557660  0.654300  0.401800  1.0  -0.227
  N  N86  1  0.605830  0.905900  0.352700  1.0  -0.1464
  N  N87  1  0.057660  0.154300  0.901800  1.0  -0.227
  N  N88  1  0.105830  0.405900  0.852700  1.0  -0.1464
  N  N89  1  0.442340  0.845700  0.401800  1.0  -0.2264
  N  N90  1  0.394170  0.594100  0.352700  1.0  -0.1465
  N  N91  1  0.942340  0.345700  0.901800  1.0  -0.2264
  N  N92  1  0.894170  0.094100  0.852700  1.0  -0.1465
  N  N93  1  0.557660  0.845700  0.401800  1.0  -0.141
  N  N94  1  0.057660  0.345700  0.901800  1.0  -0.141
  N  N95  1  0.442340  0.654300  0.401800  1.0  -0.1434
  N  N96  1  0.942340  0.154300  0.901800  1.0  -0.1434
  N  N97  1  0.442340  0.345700  0.598200  1.0  -0.1424
  N  N98  1  0.942340  0.845700  0.098200  1.0  -0.1423
  N  N99  1  0.557660  0.154300  0.598200  1.0  -0.1415
  N  N100  1  0.057660  0.654300  0.098200  1.0  -0.1416
