# generated using pymatgen
data_CuH8(C5N3)2
_symmetry_space_group_name_H-M   'P 1'
_cell_length_a   22.53800000
_cell_length_b   7.04400000
_cell_length_c   13.77200000
_cell_angle_alpha   90.00000000
_cell_angle_beta   90.00000000
_cell_angle_gamma   90.00000000
_symmetry_Int_Tables_number   1
_chemical_formula_structural   CuH8(C5N3)2
_chemical_formula_sum   'Cu4 H32 C40 N24'
_cell_volume   2186.41065878
_cell_formula_units_Z   4
loop_
 _symmetry_equiv_pos_site_id
 _symmetry_equiv_pos_as_xyz
  1  'x, y, z'
loop_
 _atom_site_type_symbol
 _atom_site_label
 _atom_site_symmetry_multiplicity
 _atom_site_fract_x
 _atom_site_fract_y
 _atom_site_fract_z
 _atom_site_occupancy
 _atom_site_charge
  Cu  Cu1  1  0.000000  0.500000  0.000000  1.0  0.3725
  Cu  Cu2  1  0.500000  0.000000  0.500000  1.0  0.3725
  Cu  Cu3  1  0.000000  0.000000  0.000000  1.0  0.3725
  Cu  Cu4  1  0.500000  0.500000  0.500000  1.0  0.3725
  H  H5  1  0.878300  0.533100  0.878200  1.0  0.1132
  H  H6  1  0.793400  0.530400  0.796000  1.0  0.1107
  H  H7  1  0.378300  0.033100  0.378200  1.0  0.1132
  H  H8  1  0.293400  0.030400  0.296000  1.0  0.1107
  H  H9  1  0.121700  0.966900  0.878200  1.0  0.1131
  H  H10  1  0.206600  0.969600  0.796000  1.0  0.1111
  H  H11  1  0.621700  0.466900  0.378200  1.0  0.1131
  H  H12  1  0.706600  0.469600  0.296000  1.0  0.1111
  H  H13  1  0.121700  0.033100  0.121800  1.0  0.1132
  H  H14  1  0.206600  0.030400  0.204000  1.0  0.1116
  H  H15  1  0.621700  0.533100  0.621800  1.0  0.1132
  H  H16  1  0.706600  0.530400  0.704000  1.0  0.1116
  H  H17  1  0.878300  0.466900  0.121800  1.0  0.1133
  H  H18  1  0.793400  0.469600  0.204000  1.0  0.1111
  H  H19  1  0.378300  0.966900  0.621800  1.0  0.1133
  H  H20  1  0.293400  0.969600  0.704000  1.0  0.1111
  H  H21  1  0.121700  0.466900  0.121800  1.0  0.1134
  H  H22  1  0.206600  0.469600  0.204000  1.0  0.1113
  H  H23  1  0.621700  0.966900  0.621800  1.0  0.1134
  H  H24  1  0.706600  0.969600  0.704000  1.0  0.1113
  H  H25  1  0.878300  0.033100  0.121800  1.0  0.1133
  H  H26  1  0.793400  0.030400  0.204000  1.0  0.1112
  H  H27  1  0.378300  0.533100  0.621800  1.0  0.1133
  H  H28  1  0.293400  0.530400  0.704000  1.0  0.1112
  H  H29  1  0.878300  0.966900  0.878200  1.0  0.113
  H  H30  1  0.793400  0.969600  0.796000  1.0  0.111
  H  H31  1  0.378300  0.466900  0.378200  1.0  0.113
  H  H32  1  0.293400  0.469600  0.296000  1.0  0.111
  H  H33  1  0.121700  0.533100  0.878200  1.0  0.1132
  H  H34  1  0.206600  0.530400  0.796000  1.0  0.111
  H  H35  1  0.621700  0.033100  0.378200  1.0  0.1132
  H  H36  1  0.706600  0.030400  0.296000  1.0  0.111
  C  C37  1  0.889370  0.404600  0.888700  1.0  -0.0066
  C  C38  1  0.776400  0.412500  0.777300  1.0  -0.1387
  C  C39  1  0.389370  0.904600  0.388700  1.0  -0.0066
  C  C40  1  0.276400  0.912500  0.277300  1.0  -0.1387
  C  C41  1  0.110630  0.095400  0.888700  1.0  -0.0062
  C  C42  1  0.223600  0.087500  0.777300  1.0  -0.1401
  C  C43  1  0.610630  0.595400  0.388700  1.0  -0.0062
  C  C44  1  0.723600  0.587500  0.277300  1.0  -0.1401
  C  C45  1  0.110630  0.904600  0.111300  1.0  -0.0076
  C  C46  1  0.223600  0.912500  0.222700  1.0  -0.1388
  C  C47  1  0.610630  0.404600  0.611300  1.0  -0.0076
  C  C48  1  0.723600  0.412500  0.722700  1.0  -0.1406
  C  C49  1  0.889370  0.595400  0.111300  1.0  -0.007
  C  C50  1  0.776400  0.587500  0.222700  1.0  -0.1402
  C  C51  1  0.389370  0.095400  0.611300  1.0  -0.007
  C  C52  1  0.276400  0.087500  0.722700  1.0  -0.1382
  C  C53  1  0.223600  0.587500  0.222700  1.0  -0.1392
  C  C54  1  0.723600  0.087500  0.722700  1.0  -0.1392
  C  C55  1  0.776400  0.912500  0.222700  1.0  -0.1376
  C  C56  1  0.276400  0.412500  0.722700  1.0  -0.1376
  C  C57  1  0.776400  0.087500  0.777300  1.0  -0.1374
  C  C58  1  0.276400  0.587500  0.277300  1.0  -0.1385
  C  C59  1  0.223600  0.412500  0.777300  1.0  -0.139
  C  C60  1  0.723600  0.912500  0.277300  1.0  -0.1381
  C  C61  1  0.803500  0.250000  0.803800  1.0  0.0629
  C  C62  1  0.859300  0.250000  0.858400  1.0  0.089
  C  C63  1  0.303500  0.750000  0.303800  1.0  0.0629
  C  C64  1  0.359300  0.750000  0.358400  1.0  0.089
  C  C65  1  0.196500  0.250000  0.803800  1.0  0.0629
  C  C66  1  0.140700  0.250000  0.858400  1.0  0.0898
  C  C67  1  0.696500  0.750000  0.303800  1.0  0.0629
  C  C68  1  0.640700  0.750000  0.358400  1.0  0.0898
  C  C69  1  0.196500  0.750000  0.196200  1.0  0.0635
  C  C70  1  0.140700  0.750000  0.141600  1.0  0.0899
  C  C71  1  0.696500  0.250000  0.696200  1.0  0.0635
  C  C72  1  0.640700  0.250000  0.641600  1.0  0.0899
  C  C73  1  0.803500  0.750000  0.196200  1.0  0.0633
  C  C74  1  0.859300  0.750000  0.141600  1.0  0.0893
  C  C75  1  0.303500  0.250000  0.696200  1.0  0.0633
  C  C76  1  0.359300  0.250000  0.641600  1.0  0.0893
  N  N77  1  0.937580  0.344300  0.936100  1.0  -0.1991
  N  N78  1  0.889370  0.095400  0.888700  1.0  -0.1826
  N  N79  1  0.437580  0.844300  0.436100  1.0  -0.1991
  N  N80  1  0.389370  0.595400  0.388700  1.0  -0.1826
  N  N81  1  0.062420  0.155700  0.936100  1.0  -0.1994
  N  N82  1  0.110630  0.404600  0.888700  1.0  -0.1832
  N  N83  1  0.562420  0.655700  0.436100  1.0  -0.1994
  N  N84  1  0.610630  0.904600  0.388700  1.0  -0.1832
  N  N85  1  0.062420  0.844300  0.063900  1.0  -0.1981
  N  N86  1  0.110630  0.595400  0.111300  1.0  -0.1831
  N  N87  1  0.562420  0.344300  0.563900  1.0  -0.1981
  N  N88  1  0.610630  0.095400  0.611300  1.0  -0.1831
  N  N89  1  0.937580  0.655700  0.063900  1.0  -0.1989
  N  N90  1  0.889370  0.904600  0.111300  1.0  -0.1837
  N  N91  1  0.437580  0.155700  0.563900  1.0  -0.1989
  N  N92  1  0.389370  0.404600  0.611300  1.0  -0.1837
  N  N93  1  0.062420  0.655700  0.063900  1.0  -0.1209
  N  N94  1  0.562420  0.155700  0.563900  1.0  -0.1209
  N  N95  1  0.937580  0.844300  0.063900  1.0  -0.1203
  N  N96  1  0.437580  0.344300  0.563900  1.0  -0.1203
  N  N97  1  0.937580  0.155700  0.936100  1.0  -0.1214
  N  N98  1  0.437580  0.655700  0.436100  1.0  -0.1214
  N  N99  1  0.062420  0.344300  0.936100  1.0  -0.1212
  N  N100  1  0.562420  0.844300  0.436100  1.0  -0.1212
