# generated using pymatgen
data_CaCuH4C12(SO4)2
_symmetry_space_group_name_H-M   'P 1'
_cell_length_a   17.00930000
_cell_length_b   11.99390000
_cell_length_c   25.03170000
_cell_angle_alpha   90.00000000
_cell_angle_beta   92.91100000
_cell_angle_gamma   90.00000000
_symmetry_Int_Tables_number   1
_chemical_formula_structural   CaCuH4C12(SO4)2
_chemical_formula_sum   'Ca8 Cu8 H32 C96 S16 O64'
_cell_volume   5100.07362317
_cell_formula_units_Z   8
loop_
 _symmetry_equiv_pos_site_id
 _symmetry_equiv_pos_as_xyz
  1  'x, y, z'
loop_
 _atom_site_type_symbol
 _atom_site_label
 _atom_site_symmetry_multiplicity
 _atom_site_fract_x
 _atom_site_fract_y
 _atom_site_fract_z
 _atom_site_occupancy
 _atom_site_charge
  Ca  Ca1  1  0.500000  0.359000  0.250000  1.0  1.6566
  Ca  Ca2  1  0.000000  0.859000  0.250000  1.0  1.6566
  Ca  Ca3  1  0.500000  0.641000  0.750000  1.0  1.6585
  Ca  Ca4  1  0.000000  0.141000  0.750000  1.0  1.6585
  Ca  Ca5  1  0.000000  0.500000  0.000000  1.0  1.6394
  Ca  Ca6  1  0.500000  0.000000  0.000000  1.0  1.6394
  Ca  Ca7  1  0.000000  0.500000  0.500000  1.0  1.6394
  Ca  Ca8  1  0.500000  0.000000  0.500000  1.0  1.6394
  Cu  Cu9  1  0.046410  0.695130  0.121470  1.0  1.0222
  Cu  Cu10  1  0.546410  0.195130  0.121470  1.0  1.0222
  Cu  Cu11  1  0.953590  0.695130  0.378530  1.0  1.0224
  Cu  Cu12  1  0.453590  0.195130  0.378530  1.0  1.0224
  Cu  Cu13  1  0.953590  0.304870  0.878530  1.0  1.0225
  Cu  Cu14  1  0.453590  0.804870  0.878530  1.0  1.0225
  Cu  Cu15  1  0.046410  0.304870  0.621470  1.0  1.0222
  Cu  Cu16  1  0.546410  0.804870  0.621470  1.0  1.0222
  H  H17  1  0.338900  0.343700  0.017400  1.0  0.12
  H  H18  1  0.218400  0.452300  0.003400  1.0  0.0984
  H  H19  1  0.851500  0.580800  0.218000  1.0  0.1114
  H  H20  1  0.727100  0.486900  0.237700  1.0  0.1207
  H  H21  1  0.838900  0.843700  0.017400  1.0  0.12
  H  H22  1  0.718400  0.952300  0.003400  1.0  0.0984
  H  H23  1  0.351500  0.080800  0.218000  1.0  0.1114
  H  H24  1  0.227100  0.986900  0.237700  1.0  0.1207
  H  H25  1  0.661100  0.343700  0.482600  1.0  0.1207
  H  H26  1  0.781600  0.452300  0.496600  1.0  0.0985
  H  H27  1  0.148500  0.580800  0.282000  1.0  0.1117
  H  H28  1  0.272900  0.486900  0.262300  1.0  0.12
  H  H29  1  0.161100  0.843700  0.482600  1.0  0.1207
  H  H30  1  0.281600  0.952300  0.496600  1.0  0.0985
  H  H31  1  0.648500  0.080800  0.282000  1.0  0.1117
  H  H32  1  0.772900  0.986900  0.262300  1.0  0.12
  H  H33  1  0.661100  0.656300  0.982600  1.0  0.1206
  H  H34  1  0.781600  0.547700  0.996600  1.0  0.0989
  H  H35  1  0.148500  0.419200  0.782000  1.0  0.1116
  H  H36  1  0.272900  0.513100  0.762300  1.0  0.1203
  H  H37  1  0.161100  0.156300  0.982600  1.0  0.1206
  H  H38  1  0.281600  0.047700  0.996600  1.0  0.0989
  H  H39  1  0.648500  0.919200  0.782000  1.0  0.1116
  H  H40  1  0.772900  0.013100  0.762300  1.0  0.1203
  H  H41  1  0.338900  0.656300  0.517400  1.0  0.1199
  H  H42  1  0.218400  0.547700  0.503400  1.0  0.0984
  H  H43  1  0.851500  0.419200  0.718000  1.0  0.1125
  H  H44  1  0.727100  0.513100  0.737700  1.0  0.121
  H  H45  1  0.838900  0.156300  0.517400  1.0  0.1199
  H  H46  1  0.718400  0.047700  0.503400  1.0  0.0984
  H  H47  1  0.351500  0.919200  0.718000  1.0  0.1125
  H  H48  1  0.227100  0.013100  0.737700  1.0  0.121
  C  C49  1  0.416600  0.335400  0.122000  1.0  0.7076
  C  C50  1  0.917000  0.549100  0.117600  1.0  0.7043
  C  C51  1  0.219200  0.485600  0.081800  1.0  -0.1298
  C  C52  1  0.148200  0.552500  0.089700  1.0  0.6837
  C  C53  1  0.845700  0.507100  0.145100  1.0  -0.2041
  C  C54  1  0.344700  0.382000  0.096700  1.0  -0.2081
  C  C55  1  0.314900  0.381200  0.044800  1.0  -0.0634
  C  C56  1  0.646700  0.345500  0.157800  1.0  0.6145
  C  C57  1  0.244400  0.442700  0.036700  1.0  -0.0611
  C  C58  1  0.720900  0.415000  0.163700  1.0  -0.1814
  C  C59  1  0.823600  0.534000  0.194400  1.0  -0.0753
  C  C60  1  0.751300  0.479000  0.205400  1.0  -0.0663
  C  C61  1  0.916600  0.835400  0.122000  1.0  0.7055
  C  C62  1  0.417000  0.049100  0.117600  1.0  0.7047
  C  C63  1  0.719200  0.985600  0.081800  1.0  -0.1298
  C  C64  1  0.648200  0.052500  0.089700  1.0  0.6835
  C  C65  1  0.345700  0.007100  0.145100  1.0  -0.2041
  C  C66  1  0.844700  0.882000  0.096700  1.0  -0.2081
  C  C67  1  0.814900  0.881200  0.044800  1.0  -0.0634
  C  C68  1  0.146700  0.845500  0.157800  1.0  0.6145
  C  C69  1  0.744400  0.942700  0.036700  1.0  -0.0611
  C  C70  1  0.220900  0.915000  0.163700  1.0  -0.1814
  C  C71  1  0.323600  0.034000  0.194400  1.0  -0.0753
  C  C72  1  0.251300  0.979000  0.205400  1.0  -0.0663
  C  C73  1  0.583400  0.335400  0.378000  1.0  0.7064
  C  C74  1  0.083000  0.549100  0.382400  1.0  0.7041
  C  C75  1  0.780800  0.485600  0.418200  1.0  -0.1316
  C  C76  1  0.851800  0.552500  0.410300  1.0  0.6846
  C  C77  1  0.154300  0.507100  0.354900  1.0  -0.2042
  C  C78  1  0.655300  0.382000  0.403300  1.0  -0.2078
  C  C79  1  0.685100  0.381200  0.455200  1.0  -0.064
  C  C80  1  0.353300  0.345500  0.342200  1.0  0.6159
  C  C81  1  0.755600  0.442700  0.463300  1.0  -0.0618
  C  C82  1  0.279100  0.415000  0.336300  1.0  -0.1809
  C  C83  1  0.176400  0.534000  0.305600  1.0  -0.0749
  C  C84  1  0.248700  0.479000  0.294600  1.0  -0.0662
  C  C85  1  0.083400  0.835400  0.378000  1.0  0.7042
  C  C86  1  0.583000  0.049100  0.382400  1.0  0.7047
  C  C87  1  0.280800  0.985600  0.418200  1.0  -0.1316
  C  C88  1  0.351800  0.052500  0.410300  1.0  0.6845
  C  C89  1  0.654300  0.007100  0.354900  1.0  -0.2042
  C  C90  1  0.155300  0.882000  0.403300  1.0  -0.2078
  C  C91  1  0.185100  0.881200  0.455200  1.0  -0.064
  C  C92  1  0.853300  0.845500  0.342200  1.0  0.6159
  C  C93  1  0.255600  0.942700  0.463300  1.0  -0.0618
  C  C94  1  0.779100  0.915000  0.336300  1.0  -0.1809
  C  C95  1  0.676400  0.034000  0.305600  1.0  -0.0749
  C  C96  1  0.748700  0.979000  0.294600  1.0  -0.0662
  C  C97  1  0.583400  0.664600  0.878000  1.0  0.707
  C  C98  1  0.083000  0.450900  0.882400  1.0  0.7035
  C  C99  1  0.780800  0.514400  0.918200  1.0  -0.1327
  C  C100  1  0.851800  0.447500  0.910300  1.0  0.6847
  C  C101  1  0.154300  0.492900  0.854900  1.0  -0.2038
  C  C102  1  0.655300  0.618000  0.903300  1.0  -0.2082
  C  C103  1  0.685100  0.618800  0.955200  1.0  -0.0634
  C  C104  1  0.353300  0.654500  0.842200  1.0  0.6162
  C  C105  1  0.755600  0.557300  0.963300  1.0  -0.0617
  C  C106  1  0.279100  0.585000  0.836300  1.0  -0.1816
  C  C107  1  0.176400  0.466000  0.805600  1.0  -0.0743
  C  C108  1  0.248700  0.521000  0.794600  1.0  -0.0658
  C  C109  1  0.083400  0.164600  0.878000  1.0  0.7049
  C  C110  1  0.583000  0.950900  0.882400  1.0  0.704
  C  C111  1  0.280800  0.014400  0.918200  1.0  -0.1327
  C  C112  1  0.351800  0.947500  0.910300  1.0  0.6846
  C  C113  1  0.654300  0.992900  0.854900  1.0  -0.2038
  C  C114  1  0.155300  0.118000  0.903300  1.0  -0.2082
  C  C115  1  0.185100  0.118800  0.955200  1.0  -0.0634
  C  C116  1  0.853300  0.154500  0.842200  1.0  0.6162
  C  C117  1  0.255600  0.057300  0.963300  1.0  -0.0617
  C  C118  1  0.779100  0.085000  0.836300  1.0  -0.1816
  C  C119  1  0.676400  0.966000  0.805600  1.0  -0.0743
  C  C120  1  0.748700  0.021000  0.794600  1.0  -0.0658
  C  C121  1  0.416600  0.664600  0.622000  1.0  0.7071
  C  C122  1  0.917000  0.450900  0.617600  1.0  0.7041
  C  C123  1  0.219200  0.514400  0.581800  1.0  -0.1297
  C  C124  1  0.148200  0.447500  0.589700  1.0  0.6839
  C  C125  1  0.845700  0.492900  0.645100  1.0  -0.2033
  C  C126  1  0.344700  0.618000  0.596700  1.0  -0.2071
  C  C127  1  0.314900  0.618800  0.544800  1.0  -0.0633
  C  C128  1  0.646700  0.654500  0.657800  1.0  0.6149
  C  C129  1  0.244400  0.557300  0.536700  1.0  -0.0613
  C  C130  1  0.720900  0.585000  0.663700  1.0  -0.1805
  C  C131  1  0.823600  0.466000  0.694400  1.0  -0.0749
  C  C132  1  0.751300  0.521000  0.705400  1.0  -0.0659
  C  C133  1  0.916600  0.164600  0.622000  1.0  0.705
  C  C134  1  0.417000  0.950900  0.617600  1.0  0.7046
  C  C135  1  0.719200  0.014400  0.581800  1.0  -0.1297
  C  C136  1  0.648200  0.947500  0.589700  1.0  0.6837
  C  C137  1  0.345700  0.992900  0.645100  1.0  -0.2033
  C  C138  1  0.844700  0.118000  0.596700  1.0  -0.2071
  C  C139  1  0.814900  0.118800  0.544800  1.0  -0.0633
  C  C140  1  0.146700  0.154500  0.657800  1.0  0.6149
  C  C141  1  0.744400  0.057300  0.536700  1.0  -0.0613
  C  C142  1  0.220900  0.085000  0.663700  1.0  -0.1805
  C  C143  1  0.323600  0.966000  0.694400  1.0  -0.0749
  C  C144  1  0.251300  0.021000  0.705400  1.0  -0.0659
  S  S145  1  0.778000  0.426000  0.109540  1.0  0.1558
  S  S146  1  0.282700  0.461400  0.136160  1.0  0.1424
  S  S147  1  0.278000  0.926000  0.109540  1.0  0.1558
  S  S148  1  0.782700  0.961400  0.136160  1.0  0.1424
  S  S149  1  0.222000  0.426000  0.390460  1.0  0.1539
  S  S150  1  0.717300  0.461400  0.363840  1.0  0.1427
  S  S151  1  0.722000  0.926000  0.390460  1.0  0.1539
  S  S152  1  0.217300  0.961400  0.363840  1.0  0.1427
  S  S153  1  0.222000  0.574000  0.890460  1.0  0.1542
  S  S154  1  0.717300  0.538600  0.863840  1.0  0.1426
  S  S155  1  0.722000  0.074000  0.890460  1.0  0.1542
  S  S156  1  0.217300  0.038600  0.863840  1.0  0.1426
  S  S157  1  0.778000  0.574000  0.609540  1.0  0.1564
  S  S158  1  0.282700  0.538600  0.636160  1.0  0.1429
  S  S159  1  0.278000  0.074000  0.609540  1.0  0.1564
  S  S160  1  0.782700  0.038600  0.636160  1.0  0.1429
  O  O161  1  0.461600  0.289000  0.091200  1.0  -0.5998
  O  O162  1  0.969400  0.590500  0.148400  1.0  -0.578
  O  O163  1  0.627200  0.311000  0.115400  1.0  -0.5456
  O  O164  1  0.104500  0.577200  0.049200  1.0  -0.6842
  O  O165  1  0.133900  0.591300  0.136300  1.0  -0.5655
  O  O166  1  0.918700  0.539000  0.068900  1.0  -0.6705
  O  O167  1  0.428800  0.346400  0.170700  1.0  -0.7553
  O  O168  1  0.608900  0.342000  0.201200  1.0  -0.7405
  O  O169  1  0.961600  0.789000  0.091200  1.0  -0.6004
  O  O170  1  0.469400  0.090500  0.148400  1.0  -0.5773
  O  O171  1  0.127200  0.811000  0.115400  1.0  -0.5456
  O  O172  1  0.604500  0.077200  0.049200  1.0  -0.6842
  O  O173  1  0.633900  0.091300  0.136300  1.0  -0.5655
  O  O174  1  0.418700  0.039000  0.068900  1.0  -0.6705
  O  O175  1  0.928800  0.846400  0.170700  1.0  -0.7554
  O  O176  1  0.108900  0.842000  0.201200  1.0  -0.7405
  O  O177  1  0.538400  0.289000  0.408800  1.0  -0.5999
  O  O178  1  0.030600  0.590500  0.351600  1.0  -0.5782
  O  O179  1  0.372800  0.311000  0.384600  1.0  -0.5478
  O  O180  1  0.895500  0.577200  0.450800  1.0  -0.6842
  O  O181  1  0.866100  0.591300  0.363700  1.0  -0.5656
  O  O182  1  0.081300  0.539000  0.431100  1.0  -0.6723
  O  O183  1  0.571200  0.346400  0.329300  1.0  -0.7542
  O  O184  1  0.391100  0.342000  0.298800  1.0  -0.7378
  O  O185  1  0.038400  0.789000  0.408800  1.0  -0.6007
  O  O186  1  0.530600  0.090500  0.351600  1.0  -0.5772
  O  O187  1  0.872800  0.811000  0.384600  1.0  -0.5478
  O  O188  1  0.395500  0.077200  0.450800  1.0  -0.6842
  O  O189  1  0.366100  0.091300  0.363700  1.0  -0.5656
  O  O190  1  0.581300  0.039000  0.431100  1.0  -0.6723
  O  O191  1  0.071200  0.846400  0.329300  1.0  -0.7543
  O  O192  1  0.891100  0.842000  0.298800  1.0  -0.7378
  O  O193  1  0.538400  0.711000  0.908800  1.0  -0.6001
  O  O194  1  0.030600  0.409500  0.851600  1.0  -0.5779
  O  O195  1  0.372800  0.689000  0.884600  1.0  -0.5473
  O  O196  1  0.895500  0.422800  0.950800  1.0  -0.6845
  O  O197  1  0.866100  0.408700  0.863700  1.0  -0.5657
  O  O198  1  0.081300  0.461000  0.931100  1.0  -0.6724
  O  O199  1  0.571200  0.653600  0.829300  1.0  -0.7553
  O  O200  1  0.391100  0.658000  0.798800  1.0  -0.7382
  O  O201  1  0.038400  0.211000  0.908800  1.0  -0.6009
  O  O202  1  0.530600  0.909500  0.851600  1.0  -0.5769
  O  O203  1  0.872800  0.189000  0.884600  1.0  -0.5473
  O  O204  1  0.395500  0.922800  0.950800  1.0  -0.6845
  O  O205  1  0.366100  0.908700  0.863700  1.0  -0.5657
  O  O206  1  0.581300  0.961000  0.931100  1.0  -0.6724
  O  O207  1  0.071200  0.153600  0.829300  1.0  -0.7554
  O  O208  1  0.891100  0.158000  0.798800  1.0  -0.7382
  O  O209  1  0.461600  0.711000  0.591200  1.0  -0.5993
  O  O210  1  0.969400  0.409500  0.648400  1.0  -0.5777
  O  O211  1  0.627200  0.689000  0.615400  1.0  -0.5452
  O  O212  1  0.104500  0.422800  0.549200  1.0  -0.6854
  O  O213  1  0.133900  0.408700  0.636300  1.0  -0.5659
  O  O214  1  0.918700  0.461000  0.568900  1.0  -0.6697
  O  O215  1  0.428800  0.653600  0.670700  1.0  -0.7547
  O  O216  1  0.608900  0.658000  0.701200  1.0  -0.7405
  O  O217  1  0.961600  0.211000  0.591200  1.0  -0.6
  O  O218  1  0.469400  0.909500  0.648400  1.0  -0.577
  O  O219  1  0.127200  0.189000  0.615400  1.0  -0.5452
  O  O220  1  0.604500  0.922800  0.549200  1.0  -0.6854
  O  O221  1  0.633900  0.908700  0.636300  1.0  -0.5659
  O  O222  1  0.418700  0.961000  0.568900  1.0  -0.6697
  O  O223  1  0.928800  0.153600  0.670700  1.0  -0.7548
  O  O224  1  0.108900  0.158000  0.701200  1.0  -0.7405
