# generated using pymatgen
data_NbNiH8C8N4OF5
_symmetry_space_group_name_H-M   'P 1'
_cell_length_a   9.94200000
_cell_length_b   9.94200000
_cell_length_c   15.76400000
_cell_angle_alpha   90.00000000
_cell_angle_beta   90.00000000
_cell_angle_gamma   90.00000000
_symmetry_Int_Tables_number   1
_chemical_formula_structural   NbNiH8C8N4OF5
_chemical_formula_sum   'Nb4 Ni4 H32 C32 N16 O4 F20'
_cell_volume   1558.16679010
_cell_formula_units_Z   4
loop_
 _symmetry_equiv_pos_site_id
 _symmetry_equiv_pos_as_xyz
  1  'x, y, z'
loop_
 _atom_site_type_symbol
 _atom_site_label
 _atom_site_symmetry_multiplicity
 _atom_site_fract_x
 _atom_site_fract_y
 _atom_site_fract_z
 _atom_site_occupancy
 _atom_site_charge
  Nb  Nb1  1  0.000000  0.000000  0.000000  1.0  1.0061
  Nb  Nb2  1  0.500000  0.500000  0.500000  1.0  1.0061
  Nb  Nb3  1  0.000000  0.000000  0.500000  1.0  0.9718
  Nb  Nb4  1  0.500000  0.500000  0.000000  1.0  0.9718
  Ni  Ni5  1  0.000000  0.000000  0.250000  1.0  0.7218
  Ni  Ni6  1  0.500000  0.500000  0.750000  1.0  0.7218
  Ni  Ni7  1  0.000000  0.000000  0.750000  1.0  0.7218
  Ni  Ni8  1  0.500000  0.500000  0.250000  1.0  0.7218
  H  H9  1  0.239200  0.098500  0.356400  1.0  0.1179
  H  H10  1  0.739200  0.598500  0.856400  1.0  0.1179
  H  H11  1  0.760800  0.901500  0.356400  1.0  0.1177
  H  H12  1  0.260800  0.401500  0.856400  1.0  0.1177
  H  H13  1  0.901500  0.239200  0.356400  1.0  0.1174
  H  H14  1  0.401500  0.739200  0.856400  1.0  0.1174
  H  H15  1  0.098500  0.760800  0.356400  1.0  0.1172
  H  H16  1  0.598500  0.260800  0.856400  1.0  0.1172
  H  H17  1  0.760800  0.098500  0.143600  1.0  0.1172
  H  H18  1  0.260800  0.598500  0.643600  1.0  0.1172
  H  H19  1  0.239200  0.901500  0.143600  1.0  0.1176
  H  H20  1  0.739200  0.401500  0.643600  1.0  0.1176
  H  H21  1  0.098500  0.239200  0.143600  1.0  0.1169
  H  H22  1  0.598500  0.739200  0.643600  1.0  0.1169
  H  H23  1  0.901500  0.760800  0.143600  1.0  0.1172
  H  H24  1  0.401500  0.260800  0.643600  1.0  0.1172
  H  H25  1  0.760800  0.901500  0.643600  1.0  0.1174
  H  H26  1  0.260800  0.401500  0.143600  1.0  0.1174
  H  H27  1  0.239200  0.098500  0.643600  1.0  0.1175
  H  H28  1  0.739200  0.598500  0.143600  1.0  0.1175
  H  H29  1  0.098500  0.760800  0.643600  1.0  0.1169
  H  H30  1  0.598500  0.260800  0.143600  1.0  0.1169
  H  H31  1  0.901500  0.239200  0.643600  1.0  0.1171
  H  H32  1  0.401500  0.739200  0.143600  1.0  0.1171
  H  H33  1  0.239200  0.901500  0.856400  1.0  0.1175
  H  H34  1  0.739200  0.401500  0.356400  1.0  0.1175
  H  H35  1  0.760800  0.098500  0.856400  1.0  0.1176
  H  H36  1  0.260800  0.598500  0.356400  1.0  0.1176
  H  H37  1  0.901500  0.760800  0.856400  1.0  0.1173
  H  H38  1  0.401500  0.260800  0.356400  1.0  0.1173
  H  H39  1  0.098500  0.239200  0.856400  1.0  0.117
  H  H40  1  0.598500  0.739200  0.356400  1.0  0.117
  C  C41  1  0.242100  0.160100  0.312000  1.0  0.1672
  C  C42  1  0.742100  0.660100  0.812000  1.0  0.1672
  C  C43  1  0.757900  0.839900  0.312000  1.0  0.167
  C  C44  1  0.257900  0.339900  0.812000  1.0  0.167
  C  C45  1  0.839900  0.242100  0.312000  1.0  0.1684
  C  C46  1  0.339900  0.742100  0.812000  1.0  0.1684
  C  C47  1  0.160100  0.757900  0.312000  1.0  0.1677
  C  C48  1  0.660100  0.257900  0.812000  1.0  0.1677
  C  C49  1  0.757900  0.160100  0.188000  1.0  0.1669
  C  C50  1  0.257900  0.660100  0.688000  1.0  0.1669
  C  C51  1  0.242100  0.839900  0.188000  1.0  0.1669
  C  C52  1  0.742100  0.339900  0.688000  1.0  0.1669
  C  C53  1  0.160100  0.242100  0.188000  1.0  0.1674
  C  C54  1  0.660100  0.742100  0.688000  1.0  0.1674
  C  C55  1  0.839900  0.757900  0.188000  1.0  0.1682
  C  C56  1  0.339900  0.257900  0.688000  1.0  0.1682
  C  C57  1  0.757900  0.839900  0.688000  1.0  0.1672
  C  C58  1  0.257900  0.339900  0.188000  1.0  0.1672
  C  C59  1  0.242100  0.160100  0.688000  1.0  0.1665
  C  C60  1  0.742100  0.660100  0.188000  1.0  0.1665
  C  C61  1  0.160100  0.757900  0.688000  1.0  0.1674
  C  C62  1  0.660100  0.257900  0.188000  1.0  0.1674
  C  C63  1  0.839900  0.242100  0.688000  1.0  0.1684
  C  C64  1  0.339900  0.742100  0.188000  1.0  0.1684
  C  C65  1  0.242100  0.839900  0.812000  1.0  0.167
  C  C66  1  0.742100  0.339900  0.312000  1.0  0.167
  C  C67  1  0.757900  0.160100  0.812000  1.0  0.1675
  C  C68  1  0.257900  0.660100  0.312000  1.0  0.1675
  C  C69  1  0.839900  0.757900  0.812000  1.0  0.1687
  C  C70  1  0.339900  0.257900  0.312000  1.0  0.1687
  C  C71  1  0.160100  0.242100  0.812000  1.0  0.1673
  C  C72  1  0.660100  0.742100  0.312000  1.0  0.1673
  N  N73  1  0.151400  0.151400  0.250000  1.0  -0.2895
  N  N74  1  0.651400  0.651400  0.750000  1.0  -0.2895
  N  N75  1  0.848600  0.848600  0.250000  1.0  -0.2885
  N  N76  1  0.348600  0.348600  0.750000  1.0  -0.2885
  N  N77  1  0.848600  0.151400  0.250000  1.0  -0.2889
  N  N78  1  0.348600  0.651400  0.750000  1.0  -0.2889
  N  N79  1  0.151400  0.848600  0.250000  1.0  -0.289
  N  N80  1  0.651400  0.348600  0.750000  1.0  -0.289
  N  N81  1  0.848600  0.848600  0.750000  1.0  -0.2882
  N  N82  1  0.348600  0.348600  0.250000  1.0  -0.2882
  N  N83  1  0.151400  0.151400  0.750000  1.0  -0.2893
  N  N84  1  0.651400  0.651400  0.250000  1.0  -0.2893
  N  N85  1  0.151400  0.848600  0.750000  1.0  -0.2887
  N  N86  1  0.651400  0.348600  0.250000  1.0  -0.2887
  N  N87  1  0.848600  0.151400  0.750000  1.0  -0.2886
  N  N88  1  0.348600  0.651400  0.250000  1.0  -0.2886
  O  O89  1  0.000000  0.000000  0.123100  1.0  -0.5946
  O  O90  1  0.500000  0.500000  0.623100  1.0  -0.5946
  O  O91  1  0.000000  0.000000  0.876900  1.0  -0.5944
  O  O92  1  0.500000  0.500000  0.376900  1.0  -0.5944
  F  F93  1  0.000000  0.000000  0.376900  1.0  -0.4497
  F  F94  1  0.500000  0.500000  0.876900  1.0  -0.4497
  F  F95  1  0.000000  0.000000  0.623100  1.0  -0.4503
  F  F96  1  0.500000  0.500000  0.123100  1.0  -0.4503
  F  F97  1  0.008000  0.190800  0.000000  1.0  -0.4481
  F  F98  1  0.508000  0.690800  0.500000  1.0  -0.4481
  F  F99  1  0.992000  0.809200  0.000000  1.0  -0.4477
  F  F100  1  0.492000  0.309200  0.500000  1.0  -0.4477
  F  F101  1  0.809200  0.008000  0.000000  1.0  -0.448
  F  F102  1  0.309200  0.508000  0.500000  1.0  -0.448
  F  F103  1  0.190800  0.992000  0.000000  1.0  -0.4456
  F  F104  1  0.690800  0.492000  0.500000  1.0  -0.4456
  F  F105  1  0.992000  0.190800  0.500000  1.0  -0.4484
  F  F106  1  0.492000  0.690800  0.000000  1.0  -0.4484
  F  F107  1  0.008000  0.809200  0.500000  1.0  -0.4475
  F  F108  1  0.508000  0.309200  0.000000  1.0  -0.4475
  F  F109  1  0.190800  0.008000  0.500000  1.0  -0.4458
  F  F110  1  0.690800  0.508000  0.000000  1.0  -0.4458
  F  F111  1  0.809200  0.992000  0.500000  1.0  -0.4476
  F  F112  1  0.309200  0.492000  0.000000  1.0  -0.4476
