# generated using pymatgen
data_NbNiH8C8N4OF5
_symmetry_space_group_name_H-M   'P 1'
_cell_length_a   9.88840000
_cell_length_b   9.88840000
_cell_length_c   15.78290000
_cell_angle_alpha   90.00000000
_cell_angle_beta   90.00000000
_cell_angle_gamma   90.00000000
_symmetry_Int_Tables_number   1
_chemical_formula_structural   NbNiH8C8N4OF5
_chemical_formula_sum   'Nb4 Ni4 H32 C32 N16 O4 F20'
_cell_volume   1543.25913628
_cell_formula_units_Z   4
loop_
 _symmetry_equiv_pos_site_id
 _symmetry_equiv_pos_as_xyz
  1  'x, y, z'
loop_
 _atom_site_type_symbol
 _atom_site_label
 _atom_site_symmetry_multiplicity
 _atom_site_fract_x
 _atom_site_fract_y
 _atom_site_fract_z
 _atom_site_occupancy
 _atom_site_charge
  Nb  Nb1  1  0.000000  0.000000  0.000000  1.0  0.9881
  Nb  Nb2  1  0.500000  0.500000  0.500000  1.0  0.9881
  Nb  Nb3  1  0.000000  0.000000  0.500000  1.0  0.8894
  Nb  Nb4  1  0.500000  0.500000  0.000000  1.0  0.8894
  Ni  Ni5  1  0.000000  0.000000  0.250000  1.0  0.6971
  Ni  Ni6  1  0.500000  0.500000  0.750000  1.0  0.6971
  Ni  Ni7  1  0.000000  0.000000  0.750000  1.0  0.6971
  Ni  Ni8  1  0.500000  0.500000  0.250000  1.0  0.6971
  H  H9  1  0.241000  0.093700  0.145200  1.0  0.1236
  H  H10  1  0.741000  0.593700  0.645200  1.0  0.1236
  H  H11  1  0.759000  0.906300  0.145200  1.0  0.1232
  H  H12  1  0.259000  0.406300  0.645200  1.0  0.1232
  H  H13  1  0.906300  0.241000  0.145200  1.0  0.1232
  H  H14  1  0.406300  0.741000  0.645200  1.0  0.1232
  H  H15  1  0.093700  0.759000  0.145200  1.0  0.1229
  H  H16  1  0.593700  0.259000  0.645200  1.0  0.1229
  H  H17  1  0.759000  0.093700  0.354800  1.0  0.1245
  H  H18  1  0.259000  0.593700  0.854800  1.0  0.1245
  H  H19  1  0.241000  0.906300  0.354800  1.0  0.1241
  H  H20  1  0.741000  0.406300  0.854800  1.0  0.1241
  H  H21  1  0.093700  0.241000  0.354800  1.0  0.1235
  H  H22  1  0.593700  0.741000  0.854800  1.0  0.1235
  H  H23  1  0.906300  0.759000  0.354800  1.0  0.1242
  H  H24  1  0.406300  0.259000  0.854800  1.0  0.1242
  H  H25  1  0.759000  0.906300  0.854800  1.0  0.124
  H  H26  1  0.259000  0.406300  0.354800  1.0  0.124
  H  H27  1  0.241000  0.093700  0.854800  1.0  0.1245
  H  H28  1  0.741000  0.593700  0.354800  1.0  0.1245
  H  H29  1  0.093700  0.759000  0.854800  1.0  0.1237
  H  H30  1  0.593700  0.259000  0.354800  1.0  0.1237
  H  H31  1  0.906300  0.241000  0.854800  1.0  0.1238
  H  H32  1  0.406300  0.741000  0.354800  1.0  0.1238
  H  H33  1  0.241000  0.906300  0.645200  1.0  0.1236
  H  H34  1  0.741000  0.406300  0.145200  1.0  0.1236
  H  H35  1  0.759000  0.093700  0.645200  1.0  0.1234
  H  H36  1  0.259000  0.593700  0.145200  1.0  0.1234
  H  H37  1  0.906300  0.759000  0.645200  1.0  0.1235
  H  H38  1  0.406300  0.259000  0.145200  1.0  0.1235
  H  H39  1  0.093700  0.241000  0.645200  1.0  0.1228
  H  H40  1  0.593700  0.741000  0.145200  1.0  0.1228
  C  C41  1  0.243400  0.157100  0.188700  1.0  0.164
  C  C42  1  0.743400  0.657100  0.688700  1.0  0.164
  C  C43  1  0.756600  0.842900  0.188700  1.0  0.1646
  C  C44  1  0.256600  0.342900  0.688700  1.0  0.1646
  C  C45  1  0.842900  0.243400  0.188700  1.0  0.1662
  C  C46  1  0.342900  0.743400  0.688700  1.0  0.1662
  C  C47  1  0.157100  0.756600  0.188700  1.0  0.1658
  C  C48  1  0.657100  0.256600  0.688700  1.0  0.1658
  C  C49  1  0.756600  0.157100  0.311300  1.0  0.165
  C  C50  1  0.256600  0.657100  0.811300  1.0  0.165
  C  C51  1  0.243400  0.842900  0.311300  1.0  0.1649
  C  C52  1  0.743400  0.342900  0.811300  1.0  0.1649
  C  C53  1  0.157100  0.243400  0.311300  1.0  0.1659
  C  C54  1  0.657100  0.743400  0.811300  1.0  0.1659
  C  C55  1  0.842900  0.756600  0.311300  1.0  0.167
  C  C56  1  0.342900  0.256600  0.811300  1.0  0.167
  C  C57  1  0.756600  0.842900  0.811300  1.0  0.1649
  C  C58  1  0.256600  0.342900  0.311300  1.0  0.1649
  C  C59  1  0.243400  0.157100  0.811300  1.0  0.165
  C  C60  1  0.743400  0.657100  0.311300  1.0  0.165
  C  C61  1  0.157100  0.756600  0.811300  1.0  0.1664
  C  C62  1  0.657100  0.256600  0.311300  1.0  0.1664
  C  C63  1  0.842900  0.243400  0.811300  1.0  0.1668
  C  C64  1  0.342900  0.743400  0.311300  1.0  0.1668
  C  C65  1  0.243400  0.842900  0.688700  1.0  0.1645
  C  C66  1  0.743400  0.342900  0.188700  1.0  0.1645
  C  C67  1  0.756600  0.157100  0.688700  1.0  0.1642
  C  C68  1  0.256600  0.657100  0.188700  1.0  0.1642
  C  C69  1  0.842900  0.756600  0.688700  1.0  0.1664
  C  C70  1  0.342900  0.256600  0.188700  1.0  0.1664
  C  C71  1  0.157100  0.243400  0.688700  1.0  0.1654
  C  C72  1  0.657100  0.743400  0.188700  1.0  0.1654
  N  N73  1  0.151800  0.151800  0.250000  1.0  -0.2821
  N  N74  1  0.651800  0.651800  0.750000  1.0  -0.2821
  N  N75  1  0.848200  0.848200  0.250000  1.0  -0.2813
  N  N76  1  0.348200  0.348200  0.750000  1.0  -0.2813
  N  N77  1  0.848200  0.151800  0.250000  1.0  -0.2814
  N  N78  1  0.348200  0.651800  0.750000  1.0  -0.2814
  N  N79  1  0.151800  0.848200  0.250000  1.0  -0.2815
  N  N80  1  0.651800  0.348200  0.750000  1.0  -0.2815
  N  N81  1  0.848200  0.848200  0.750000  1.0  -0.281
  N  N82  1  0.348200  0.348200  0.250000  1.0  -0.281
  N  N83  1  0.151800  0.151800  0.750000  1.0  -0.2826
  N  N84  1  0.651800  0.651800  0.250000  1.0  -0.2826
  N  N85  1  0.151800  0.848200  0.750000  1.0  -0.2815
  N  N86  1  0.651800  0.348200  0.250000  1.0  -0.2815
  N  N87  1  0.848200  0.151800  0.750000  1.0  -0.2814
  N  N88  1  0.348200  0.651800  0.250000  1.0  -0.2814
  O  O89  1  0.000000  0.000000  0.122300  1.0  -0.5891
  O  O90  1  0.500000  0.500000  0.622300  1.0  -0.5891
  O  O91  1  0.000000  0.000000  0.877700  1.0  -0.5885
  O  O92  1  0.500000  0.500000  0.377700  1.0  -0.5885
  F  F93  1  0.000000  0.000000  0.377700  1.0  -0.4382
  F  F94  1  0.500000  0.500000  0.877700  1.0  -0.4382
  F  F95  1  0.000000  0.000000  0.622300  1.0  -0.4389
  F  F96  1  0.500000  0.500000  0.122300  1.0  -0.4389
  F  F97  1  0.192000  0.019300  0.000000  1.0  -0.4468
  F  F98  1  0.692000  0.519300  0.500000  1.0  -0.4468
  F  F99  1  0.808000  0.980700  0.000000  1.0  -0.4496
  F  F100  1  0.308000  0.480700  0.500000  1.0  -0.4496
  F  F101  1  0.980700  0.192000  0.000000  1.0  -0.4502
  F  F102  1  0.480700  0.692000  0.500000  1.0  -0.4502
  F  F103  1  0.019300  0.808000  0.000000  1.0  -0.4482
  F  F104  1  0.519300  0.308000  0.500000  1.0  -0.4482
  F  F105  1  0.808000  0.019300  0.500000  1.0  -0.4497
  F  F106  1  0.308000  0.519300  0.000000  1.0  -0.4497
  F  F107  1  0.192000  0.980700  0.500000  1.0  -0.4468
  F  F108  1  0.692000  0.480700  0.000000  1.0  -0.4468
  F  F109  1  0.019300  0.192000  0.500000  1.0  -0.4498
  F  F110  1  0.519300  0.692000  0.000000  1.0  -0.4498
  F  F111  1  0.980700  0.808000  0.500000  1.0  -0.4487
  F  F112  1  0.480700  0.308000  0.000000  1.0  -0.4487
