# generated using pymatgen
data_NbNiH8C8N4(OF2)2
_symmetry_space_group_name_H-M   'P 1'
_cell_length_a   9.94300000
_cell_length_b   9.94300000
_cell_length_c   15.76400000
_cell_angle_alpha   90.00000000
_cell_angle_beta   90.00000000
_cell_angle_gamma   90.00000000
_symmetry_Int_Tables_number   1
_chemical_formula_structural   NbNiH8C8N4(OF2)2
_chemical_formula_sum   'Nb4 Ni4 H32 C32 N16 O8 F16'
_cell_volume   1558.48025724
_cell_formula_units_Z   4
loop_
 _symmetry_equiv_pos_site_id
 _symmetry_equiv_pos_as_xyz
  1  'x, y, z'
loop_
 _atom_site_type_symbol
 _atom_site_label
 _atom_site_symmetry_multiplicity
 _atom_site_fract_x
 _atom_site_fract_y
 _atom_site_fract_z
 _atom_site_occupancy
 _atom_site_charge
  Nb  Nb1  1  0.000000  0.000000  0.000000  1.0  1.011
  Nb  Nb2  1  0.500000  0.500000  0.500000  1.0  1.011
  Nb  Nb3  1  0.000000  0.000000  0.500000  1.0  1.011
  Nb  Nb4  1  0.500000  0.500000  0.000000  1.0  1.011
  Ni  Ni5  1  0.000000  0.000000  0.250000  1.0  0.7181
  Ni  Ni6  1  0.500000  0.500000  0.750000  1.0  0.7181
  Ni  Ni7  1  0.000000  0.000000  0.750000  1.0  0.7181
  Ni  Ni8  1  0.500000  0.500000  0.250000  1.0  0.7181
  H  H9  1  0.239200  0.098500  0.356400  1.0  0.1227
  H  H10  1  0.739200  0.598500  0.856400  1.0  0.1227
  H  H11  1  0.760800  0.901500  0.356400  1.0  0.1225
  H  H12  1  0.260800  0.401500  0.856400  1.0  0.1225
  H  H13  1  0.901500  0.239200  0.356400  1.0  0.1221
  H  H14  1  0.401500  0.739200  0.856400  1.0  0.1221
  H  H15  1  0.098500  0.760800  0.356400  1.0  0.122
  H  H16  1  0.598500  0.260800  0.856400  1.0  0.122
  H  H17  1  0.760800  0.098500  0.143600  1.0  0.1218
  H  H18  1  0.260800  0.598500  0.643600  1.0  0.1218
  H  H19  1  0.239200  0.901500  0.143600  1.0  0.1222
  H  H20  1  0.739200  0.401500  0.643600  1.0  0.1222
  H  H21  1  0.098500  0.239200  0.143600  1.0  0.1216
  H  H22  1  0.598500  0.739200  0.643600  1.0  0.1216
  H  H23  1  0.901500  0.760800  0.143600  1.0  0.1218
  H  H24  1  0.401500  0.260800  0.643600  1.0  0.1218
  H  H25  1  0.760800  0.901500  0.643600  1.0  0.122
  H  H26  1  0.260800  0.401500  0.143600  1.0  0.122
  H  H27  1  0.239200  0.098500  0.643600  1.0  0.1222
  H  H28  1  0.739200  0.598500  0.143600  1.0  0.1222
  H  H29  1  0.098500  0.760800  0.643600  1.0  0.1215
  H  H30  1  0.598500  0.260800  0.143600  1.0  0.1215
  H  H31  1  0.901500  0.239200  0.643600  1.0  0.1218
  H  H32  1  0.401500  0.739200  0.143600  1.0  0.1218
  H  H33  1  0.239200  0.901500  0.856400  1.0  0.1222
  H  H34  1  0.739200  0.401500  0.356400  1.0  0.1222
  H  H35  1  0.760800  0.098500  0.856400  1.0  0.1224
  H  H36  1  0.260800  0.598500  0.356400  1.0  0.1224
  H  H37  1  0.901500  0.760800  0.856400  1.0  0.1221
  H  H38  1  0.401500  0.260800  0.356400  1.0  0.1221
  H  H39  1  0.098500  0.239200  0.856400  1.0  0.1217
  H  H40  1  0.598500  0.739200  0.356400  1.0  0.1217
  C  C41  1  0.242100  0.160100  0.312000  1.0  0.1721
  C  C42  1  0.742100  0.660100  0.812000  1.0  0.1721
  C  C43  1  0.757900  0.839900  0.312000  1.0  0.1719
  C  C44  1  0.257900  0.339900  0.812000  1.0  0.1719
  C  C45  1  0.839900  0.242100  0.312000  1.0  0.1733
  C  C46  1  0.339900  0.742100  0.812000  1.0  0.1733
  C  C47  1  0.160100  0.757900  0.312000  1.0  0.1726
  C  C48  1  0.660100  0.257900  0.812000  1.0  0.1726
  C  C49  1  0.757900  0.160100  0.188000  1.0  0.1719
  C  C50  1  0.257900  0.660100  0.688000  1.0  0.1719
  C  C51  1  0.242100  0.839900  0.188000  1.0  0.1718
  C  C52  1  0.742100  0.339900  0.688000  1.0  0.1718
  C  C53  1  0.160100  0.242100  0.188000  1.0  0.1724
  C  C54  1  0.660100  0.742100  0.688000  1.0  0.1724
  C  C55  1  0.839900  0.757900  0.188000  1.0  0.1731
  C  C56  1  0.339900  0.257900  0.688000  1.0  0.1731
  C  C57  1  0.757900  0.839900  0.688000  1.0  0.1721
  C  C58  1  0.257900  0.339900  0.188000  1.0  0.1721
  C  C59  1  0.242100  0.160100  0.688000  1.0  0.1714
  C  C60  1  0.742100  0.660100  0.188000  1.0  0.1714
  C  C61  1  0.160100  0.757900  0.688000  1.0  0.1723
  C  C62  1  0.660100  0.257900  0.188000  1.0  0.1723
  C  C63  1  0.839900  0.242100  0.688000  1.0  0.1733
  C  C64  1  0.339900  0.742100  0.188000  1.0  0.1733
  C  C65  1  0.242100  0.839900  0.812000  1.0  0.1719
  C  C66  1  0.742100  0.339900  0.312000  1.0  0.1719
  C  C67  1  0.757900  0.160100  0.812000  1.0  0.1724
  C  C68  1  0.257900  0.660100  0.312000  1.0  0.1724
  C  C69  1  0.839900  0.757900  0.812000  1.0  0.1736
  C  C70  1  0.339900  0.257900  0.312000  1.0  0.1736
  C  C71  1  0.160100  0.242100  0.812000  1.0  0.1722
  C  C72  1  0.660100  0.742100  0.312000  1.0  0.1722
  N  N73  1  0.151400  0.151400  0.250000  1.0  -0.285
  N  N74  1  0.651400  0.651400  0.750000  1.0  -0.285
  N  N75  1  0.848600  0.848600  0.250000  1.0  -0.284
  N  N76  1  0.348600  0.348600  0.750000  1.0  -0.284
  N  N77  1  0.848600  0.151400  0.250000  1.0  -0.2844
  N  N78  1  0.348600  0.651400  0.750000  1.0  -0.2844
  N  N79  1  0.151400  0.848600  0.250000  1.0  -0.2845
  N  N80  1  0.651400  0.348600  0.750000  1.0  -0.2845
  N  N81  1  0.848600  0.848600  0.750000  1.0  -0.2837
  N  N82  1  0.348600  0.348600  0.250000  1.0  -0.2837
  N  N83  1  0.151400  0.151400  0.750000  1.0  -0.2848
  N  N84  1  0.651400  0.651400  0.250000  1.0  -0.2848
  N  N85  1  0.151400  0.848600  0.750000  1.0  -0.2842
  N  N86  1  0.651400  0.348600  0.250000  1.0  -0.2842
  N  N87  1  0.848600  0.151400  0.750000  1.0  -0.2841
  N  N88  1  0.348600  0.651400  0.250000  1.0  -0.2841
  O  O89  1  0.000000  0.000000  0.123100  1.0  -0.5894
  O  O90  1  0.500000  0.500000  0.623100  1.0  -0.5894
  O  O91  1  0.000000  0.000000  0.376900  1.0  -0.5892
  O  O92  1  0.500000  0.500000  0.876900  1.0  -0.5892
  O  O93  1  0.000000  0.000000  0.876900  1.0  -0.5892
  O  O94  1  0.500000  0.500000  0.376900  1.0  -0.5892
  O  O95  1  0.000000  0.000000  0.623100  1.0  -0.5894
  O  O96  1  0.500000  0.500000  0.123100  1.0  -0.5894
  F  F97  1  0.008000  0.190800  0.000000  1.0  -0.443
  F  F98  1  0.508000  0.690800  0.500000  1.0  -0.443
  F  F99  1  0.992000  0.809200  0.000000  1.0  -0.4425
  F  F100  1  0.492000  0.309200  0.500000  1.0  -0.4425
  F  F101  1  0.809200  0.008000  0.000000  1.0  -0.4428
  F  F102  1  0.309200  0.508000  0.500000  1.0  -0.4428
  F  F103  1  0.190800  0.992000  0.000000  1.0  -0.4405
  F  F104  1  0.690800  0.492000  0.500000  1.0  -0.4405
  F  F105  1  0.992000  0.190800  0.500000  1.0  -0.4433
  F  F106  1  0.492000  0.690800  0.000000  1.0  -0.4433
  F  F107  1  0.008000  0.809200  0.500000  1.0  -0.4424
  F  F108  1  0.508000  0.309200  0.000000  1.0  -0.4424
  F  F109  1  0.190800  0.008000  0.500000  1.0  -0.4407
  F  F110  1  0.690800  0.508000  0.000000  1.0  -0.4407
  F  F111  1  0.809200  0.992000  0.500000  1.0  -0.4424
  F  F112  1  0.309200  0.492000  0.000000  1.0  -0.4424
