# generated using pymatgen
data_CuH28(C7N2)4
_symmetry_space_group_name_H-M   'P 1'
_cell_length_a   20.58600000
_cell_length_b   20.58600000
_cell_length_c   7.52200000
_cell_angle_alpha   90.00000000
_cell_angle_beta   90.00000000
_cell_angle_gamma   90.00000000
_symmetry_Int_Tables_number   1
_chemical_formula_structural   CuH28(C7N2)4
_chemical_formula_sum   'Cu4 H112 C112 N32'
_cell_volume   3187.69870471
_cell_formula_units_Z   4
loop_
 _symmetry_equiv_pos_site_id
 _symmetry_equiv_pos_as_xyz
  1  'x, y, z'
loop_
 _atom_site_type_symbol
 _atom_site_label
 _atom_site_symmetry_multiplicity
 _atom_site_fract_x
 _atom_site_fract_y
 _atom_site_fract_z
 _atom_site_occupancy
 _atom_site_charge
  Cu  Cu1  1  0.000000  0.000000  0.500000  1.0  0.4662
  Cu  Cu2  1  0.500000  0.500000  0.500000  1.0  0.4662
  Cu  Cu3  1  0.000000  0.500000  0.000000  1.0  0.4251
  Cu  Cu4  1  0.500000  0.000000  0.000000  1.0  0.4251
  H  H5  1  0.923600  0.344100  0.456400  1.0  0.1021
  H  H6  1  0.916600  0.418700  0.244400  1.0  0.0473
  H  H7  1  0.098700  0.413100  0.155900  1.0  0.055
  H  H8  1  0.050400  0.137600  0.973600  1.0  0.0907
  H  H9  1  0.063300  0.056300  0.183100  1.0  0.0635
  H  H10  1  0.898000  0.198500  0.245400  1.0  0.107
  H  H11  1  0.093900  0.214100  0.659300  1.0  0.107
  H  H12  1  0.106900  0.239300  0.465900  1.0  0.096
  H  H13  1  0.054100  0.185900  0.499400  1.0  0.1051
  H  H14  1  0.869000  0.254200  0.889700  1.0  0.1268
  H  H15  1  0.919000  0.311600  0.891200  1.0  0.098
  H  H16  1  0.893900  0.282300  0.070900  1.0  0.102
  H  H17  1  0.915400  0.117500  0.446400  1.0  0.0528
  H  H18  1  0.112400  0.334600  0.359700  1.0  0.1033
  H  H19  1  0.076400  0.655900  0.456400  1.0  0.1017
  H  H20  1  0.083400  0.581300  0.244400  1.0  0.0467
  H  H21  1  0.901300  0.586900  0.155900  1.0  0.0548
  H  H22  1  0.949600  0.862400  0.973600  1.0  0.0907
  H  H23  1  0.936700  0.943700  0.183100  1.0  0.0634
  H  H24  1  0.102000  0.801500  0.245400  1.0  0.1076
  H  H25  1  0.906100  0.785900  0.659300  1.0  0.1067
  H  H26  1  0.893100  0.760700  0.465900  1.0  0.0962
  H  H27  1  0.945900  0.814100  0.499400  1.0  0.1044
  H  H28  1  0.131000  0.745800  0.889700  1.0  0.1279
  H  H29  1  0.081000  0.688400  0.891200  1.0  0.0983
  H  H30  1  0.106100  0.717700  0.070900  1.0  0.1017
  H  H31  1  0.084600  0.882500  0.446400  1.0  0.0528
  H  H32  1  0.887600  0.665400  0.359700  1.0  0.1029
  H  H33  1  0.344100  0.076400  0.543600  1.0  0.1022
  H  H34  1  0.418700  0.083400  0.755600  1.0  0.0471
  H  H35  1  0.413100  0.901300  0.844100  1.0  0.0556
  H  H36  1  0.137600  0.949600  0.026400  1.0  0.0908
  H  H37  1  0.056300  0.936700  0.816900  1.0  0.0639
  H  H38  1  0.198500  0.102000  0.754600  1.0  0.1084
  H  H39  1  0.214100  0.906100  0.340700  1.0  0.1062
  H  H40  1  0.239300  0.893100  0.534100  1.0  0.0959
  H  H41  1  0.185900  0.945900  0.500600  1.0  0.1031
  H  H42  1  0.254200  0.131000  0.110300  1.0  0.1249
  H  H43  1  0.311600  0.081000  0.108800  1.0  0.0946
  H  H44  1  0.282300  0.106100  0.929100  1.0  0.1002
  H  H45  1  0.117500  0.084600  0.553600  1.0  0.0525
  H  H46  1  0.334600  0.887600  0.640300  1.0  0.1033
  H  H47  1  0.655900  0.923600  0.543600  1.0  0.1011
  H  H48  1  0.581300  0.916600  0.755600  1.0  0.0469
  H  H49  1  0.586900  0.098700  0.844100  1.0  0.0552
  H  H50  1  0.862400  0.050400  0.026400  1.0  0.0907
  H  H51  1  0.943700  0.063300  0.816900  1.0  0.0638
  H  H52  1  0.801500  0.898000  0.754600  1.0  0.1074
  H  H53  1  0.785900  0.093900  0.340700  1.0  0.106
  H  H54  1  0.760700  0.106900  0.534100  1.0  0.095
  H  H55  1  0.814100  0.054100  0.500600  1.0  0.1039
  H  H56  1  0.745800  0.869000  0.110300  1.0  0.1236
  H  H57  1  0.688400  0.919000  0.108800  1.0  0.0931
  H  H58  1  0.717700  0.893900  0.929100  1.0  0.1008
  H  H59  1  0.882500  0.915400  0.553600  1.0  0.0525
  H  H60  1  0.665400  0.112400  0.640300  1.0  0.1029
  H  H61  1  0.423600  0.155900  0.456400  1.0  0.1021
  H  H62  1  0.416600  0.081300  0.244400  1.0  0.0474
  H  H63  1  0.598700  0.086900  0.155900  1.0  0.0549
  H  H64  1  0.550400  0.362400  0.973600  1.0  0.0905
  H  H65  1  0.563300  0.443700  0.183100  1.0  0.0628
  H  H66  1  0.398000  0.301500  0.245400  1.0  0.1072
  H  H67  1  0.593900  0.285900  0.659300  1.0  0.1072
  H  H68  1  0.606900  0.260700  0.465900  1.0  0.0956
  H  H69  1  0.554100  0.314100  0.499400  1.0  0.1051
  H  H70  1  0.369000  0.245800  0.889700  1.0  0.127
  H  H71  1  0.419000  0.188400  0.891200  1.0  0.097
  H  H72  1  0.393900  0.217700  0.070900  1.0  0.1022
  H  H73  1  0.415400  0.382500  0.446400  1.0  0.0528
  H  H74  1  0.612400  0.165400  0.359700  1.0  0.1035
  H  H75  1  0.576400  0.844100  0.456400  1.0  0.1018
  H  H76  1  0.583400  0.918700  0.244400  1.0  0.0464
  H  H77  1  0.401300  0.913100  0.155900  1.0  0.0547
  H  H78  1  0.449600  0.637600  0.973600  1.0  0.091
  H  H79  1  0.436700  0.556300  0.183100  1.0  0.0634
  H  H80  1  0.602000  0.698500  0.245400  1.0  0.1076
  H  H81  1  0.406100  0.714100  0.659300  1.0  0.1068
  H  H82  1  0.393100  0.739300  0.465900  1.0  0.0964
  H  H83  1  0.445900  0.685900  0.499400  1.0  0.1043
  H  H84  1  0.631000  0.754200  0.889700  1.0  0.1277
  H  H85  1  0.581000  0.811600  0.891200  1.0  0.0987
  H  H86  1  0.606100  0.782300  0.070900  1.0  0.1018
  H  H87  1  0.584600  0.617500  0.446400  1.0  0.0529
  H  H88  1  0.387600  0.834600  0.359700  1.0  0.1028
  H  H89  1  0.844100  0.423600  0.543600  1.0  0.1015
  H  H90  1  0.918700  0.416600  0.755600  1.0  0.0472
  H  H91  1  0.913100  0.598700  0.844100  1.0  0.0555
  H  H92  1  0.637600  0.550400  0.026400  1.0  0.0906
  H  H93  1  0.556300  0.563300  0.816900  1.0  0.0642
  H  H94  1  0.698500  0.398000  0.754600  1.0  0.1076
  H  H95  1  0.714100  0.593900  0.340700  1.0  0.1064
  H  H96  1  0.739300  0.606900  0.534100  1.0  0.0951
  H  H97  1  0.685900  0.554100  0.500600  1.0  0.1034
  H  H98  1  0.754200  0.369000  0.110300  1.0  0.1223
  H  H99  1  0.811600  0.419000  0.108800  1.0  0.0953
  H  H100  1  0.782300  0.393900  0.929100  1.0  0.101
  H  H101  1  0.617500  0.415400  0.553600  1.0  0.0524
  H  H102  1  0.834600  0.612400  0.640300  1.0  0.1033
  H  H103  1  0.155900  0.576400  0.543600  1.0  0.1017
  H  H104  1  0.081300  0.583400  0.755600  1.0  0.0469
  H  H105  1  0.086900  0.401300  0.844100  1.0  0.0556
  H  H106  1  0.362400  0.449600  0.026400  1.0  0.0909
  H  H107  1  0.443700  0.436700  0.816900  1.0  0.0637
  H  H108  1  0.301500  0.602000  0.754600  1.0  0.1087
  H  H109  1  0.285900  0.406100  0.340700  1.0  0.1061
  H  H110  1  0.260700  0.393100  0.534100  1.0  0.0954
  H  H111  1  0.314100  0.445900  0.500600  1.0  0.1041
  H  H112  1  0.245800  0.631000  0.110300  1.0  0.1241
  H  H113  1  0.188400  0.581000  0.108800  1.0  0.0929
  H  H114  1  0.217700  0.606100  0.929100  1.0  0.1002
  H  H115  1  0.382500  0.584600  0.553600  1.0  0.0526
  H  H116  1  0.165400  0.387600  0.640300  1.0  0.1034
  C  C117  1  0.017800  0.324900  0.430500  1.0  0.0354
  C  C118  1  0.960800  0.355300  0.393000  1.0  -0.2419
  C  C119  1  0.957400  0.401200  0.267000  1.0  0.1763
  C  C120  1  0.062100  0.397800  0.214900  1.0  0.1797
  C  C121  1  0.025700  0.274200  0.571000  1.0  0.2902
  C  C122  1  0.972300  0.178100  0.085100  1.0  0.052
  C  C123  1  0.021800  0.134900  0.069200  1.0  -0.1935
  C  C124  1  0.029700  0.086000  0.198000  1.0  0.1551
  C  C125  1  0.932900  0.170400  0.228800  1.0  -0.21
  C  C126  1  0.958400  0.226600  0.949500  1.0  0.323
  C  C127  1  0.074200  0.224200  0.547000  1.0  -0.3736
  C  C128  1  0.905700  0.272500  0.950000  1.0  -0.3564
  C  C129  1  0.944000  0.121000  0.351100  1.0  0.1645
  C  C130  1  0.070800  0.350400  0.337000  1.0  -0.2276
  C  C131  1  0.982200  0.675100  0.430500  1.0  0.035
  C  C132  1  0.039200  0.644700  0.393000  1.0  -0.2429
  C  C133  1  0.042600  0.598800  0.267000  1.0  0.1748
  C  C134  1  0.937900  0.602200  0.214900  1.0  0.1799
  C  C135  1  0.974300  0.725800  0.571000  1.0  0.2909
  C  C136  1  0.027700  0.821900  0.085100  1.0  0.0514
  C  C137  1  0.978200  0.865100  0.069200  1.0  -0.1946
  C  C138  1  0.970300  0.914000  0.198000  1.0  0.1571
  C  C139  1  0.067100  0.829600  0.228800  1.0  -0.2091
  C  C140  1  0.041600  0.773400  0.949500  1.0  0.3247
  C  C141  1  0.925800  0.775800  0.547000  1.0  -0.3721
  C  C142  1  0.094300  0.727500  0.950000  1.0  -0.3567
  C  C143  1  0.056000  0.879000  0.351100  1.0  0.1643
  C  C144  1  0.929200  0.649600  0.337000  1.0  -0.2272
  C  C145  1  0.324900  0.982200  0.569500  1.0  0.0348
  C  C146  1  0.355300  0.039200  0.607000  1.0  -0.2435
  C  C147  1  0.401200  0.042600  0.733000  1.0  0.1749
  C  C148  1  0.397800  0.937900  0.785100  1.0  0.1795
  C  C149  1  0.274200  0.974300  0.429000  1.0  0.2916
  C  C150  1  0.178100  0.027700  0.914900  1.0  0.0495
  C  C151  1  0.134900  0.978200  0.930800  1.0  -0.1898
  C  C152  1  0.086000  0.970300  0.802000  1.0  0.1556
  C  C153  1  0.170400  0.067100  0.771200  1.0  -0.2104
  C  C154  1  0.226600  0.041600  0.050500  1.0  0.3228
  C  C155  1  0.224200  0.925800  0.453000  1.0  -0.3702
  C  C156  1  0.272500  0.094300  0.050000  1.0  -0.3549
  C  C157  1  0.121000  0.056000  0.648900  1.0  0.165
  C  C158  1  0.350400  0.929200  0.663000  1.0  -0.2297
  C  C159  1  0.675100  0.017800  0.569500  1.0  0.0347
  C  C160  1  0.644700  0.960800  0.607000  1.0  -0.2419
  C  C161  1  0.598800  0.957400  0.733000  1.0  0.1732
  C  C162  1  0.602200  0.062100  0.785100  1.0  0.1793
  C  C163  1  0.725800  0.025700  0.429000  1.0  0.2896
  C  C164  1  0.821900  0.972300  0.914900  1.0  0.0505
  C  C165  1  0.865100  0.021800  0.930800  1.0  -0.1903
  C  C166  1  0.914000  0.029700  0.802000  1.0  0.1552
  C  C167  1  0.829600  0.932900  0.771200  1.0  -0.2097
  C  C168  1  0.773400  0.958400  0.050500  1.0  0.3261
  C  C169  1  0.775800  0.074200  0.453000  1.0  -0.3703
  C  C170  1  0.727500  0.905700  0.050000  1.0  -0.356
  C  C171  1  0.879000  0.944000  0.648900  1.0  0.1643
  C  C172  1  0.649600  0.070800  0.663000  1.0  -0.2315
  C  C173  1  0.517800  0.175100  0.430500  1.0  0.0356
  C  C174  1  0.460800  0.144700  0.393000  1.0  -0.2419
  C  C175  1  0.457400  0.098800  0.267000  1.0  0.1762
  C  C176  1  0.562100  0.102200  0.214900  1.0  0.1797
  C  C177  1  0.525700  0.225800  0.571000  1.0  0.2903
  C  C178  1  0.472300  0.321900  0.085100  1.0  0.0518
  C  C179  1  0.521800  0.365100  0.069200  1.0  -0.194
  C  C180  1  0.529700  0.414000  0.198000  1.0  0.1559
  C  C181  1  0.432900  0.329600  0.228800  1.0  -0.2101
  C  C182  1  0.458400  0.273400  0.949500  1.0  0.3232
  C  C183  1  0.574200  0.275800  0.547000  1.0  -0.373
  C  C184  1  0.405700  0.227500  0.950000  1.0  -0.3565
  C  C185  1  0.444000  0.379000  0.351100  1.0  0.1648
  C  C186  1  0.570800  0.149600  0.337000  1.0  -0.2273
  C  C187  1  0.482200  0.824900  0.430500  1.0  0.0348
  C  C188  1  0.539200  0.855300  0.393000  1.0  -0.2431
  C  C189  1  0.542600  0.901200  0.267000  1.0  0.175
  C  C190  1  0.437900  0.897800  0.214900  1.0  0.1798
  C  C191  1  0.474300  0.774200  0.571000  1.0  0.2909
  C  C192  1  0.527700  0.678100  0.085100  1.0  0.0517
  C  C193  1  0.478200  0.634900  0.069200  1.0  -0.1937
  C  C194  1  0.470300  0.586000  0.198000  1.0  0.1568
  C  C195  1  0.567100  0.670400  0.228800  1.0  -0.2093
  C  C196  1  0.541600  0.726600  0.949500  1.0  0.3249
  C  C197  1  0.425800  0.724200  0.547000  1.0  -0.3724
  C  C198  1  0.594300  0.772500  0.950000  1.0  -0.3565
  C  C199  1  0.556000  0.621000  0.351100  1.0  0.1641
  C  C200  1  0.429200  0.850400  0.337000  1.0  -0.2274
  C  C201  1  0.824900  0.517800  0.569500  1.0  0.0344
  C  C202  1  0.855300  0.460800  0.607000  1.0  -0.2436
  C  C203  1  0.901200  0.457400  0.733000  1.0  0.1752
  C  C204  1  0.897800  0.562100  0.785100  1.0  0.1795
  C  C205  1  0.774200  0.525700  0.429000  1.0  0.2917
  C  C206  1  0.678100  0.472300  0.914900  1.0  0.0496
  C  C207  1  0.634900  0.521800  0.930800  1.0  -0.1903
  C  C208  1  0.586000  0.529700  0.802000  1.0  0.1556
  C  C209  1  0.670400  0.432900  0.771200  1.0  -0.2103
  C  C210  1  0.726600  0.458400  0.050500  1.0  0.3234
  C  C211  1  0.724200  0.574200  0.453000  1.0  -0.3708
  C  C212  1  0.772500  0.405700  0.050000  1.0  -0.3554
  C  C213  1  0.621000  0.444000  0.648900  1.0  0.1647
  C  C214  1  0.850400  0.570800  0.663000  1.0  -0.232
  C  C215  1  0.175100  0.482200  0.569500  1.0  0.0354
  C  C216  1  0.144700  0.539200  0.607000  1.0  -0.2424
  C  C217  1  0.098800  0.542600  0.733000  1.0  0.1732
  C  C218  1  0.102200  0.437900  0.785100  1.0  0.1795
  C  C219  1  0.225800  0.474300  0.429000  1.0  0.2893
  C  C220  1  0.321900  0.527700  0.914900  1.0  0.0505
  C  C221  1  0.365100  0.478200  0.930800  1.0  -0.19
  C  C222  1  0.414000  0.470300  0.802000  1.0  0.1549
  C  C223  1  0.329600  0.567100  0.771200  1.0  -0.2102
  C  C224  1  0.273400  0.541600  0.050500  1.0  0.3251
  C  C225  1  0.275800  0.425800  0.453000  1.0  -0.3703
  C  C226  1  0.227500  0.594300  0.050000  1.0  -0.3556
  C  C227  1  0.379000  0.556000  0.648900  1.0  0.1646
  C  C228  1  0.149600  0.429200  0.663000  1.0  -0.2286
  N  N229  1  0.005900  0.423700  0.173200  1.0  -0.3374
  N  N230  1  0.988400  0.278800  0.694000  1.0  -0.2507
  N  N231  1  0.990900  0.079800  0.342500  1.0  -0.3679
  N  N232  1  0.997600  0.231000  0.828000  1.0  -0.2943
  N  N233  1  0.994100  0.576300  0.173200  1.0  -0.3367
  N  N234  1  0.011600  0.721200  0.694000  1.0  -0.249
  N  N235  1  0.009100  0.920200  0.342500  1.0  -0.3693
  N  N236  1  0.002400  0.769000  0.828000  1.0  -0.2943
  N  N237  1  0.423700  0.994100  0.826800  1.0  -0.3335
  N  N238  1  0.278800  0.011600  0.306000  1.0  -0.2483
  N  N239  1  0.079800  0.009100  0.657500  1.0  -0.3707
  N  N240  1  0.231000  0.002400  0.172000  1.0  -0.293
  N  N241  1  0.576300  0.005900  0.826800  1.0  -0.333
  N  N242  1  0.721200  0.988400  0.306000  1.0  -0.2496
  N  N243  1  0.920200  0.990900  0.657500  1.0  -0.3704
  N  N244  1  0.769000  0.997600  0.172000  1.0  -0.2943
  N  N245  1  0.505900  0.076300  0.173200  1.0  -0.3371
  N  N246  1  0.488400  0.221200  0.694000  1.0  -0.2505
  N  N247  1  0.490900  0.420200  0.342500  1.0  -0.3692
  N  N248  1  0.497600  0.269000  0.828000  1.0  -0.2946
  N  N249  1  0.494100  0.923700  0.173200  1.0  -0.3374
  N  N250  1  0.511600  0.778800  0.694000  1.0  -0.2493
  N  N251  1  0.509100  0.579800  0.342500  1.0  -0.3682
  N  N252  1  0.502400  0.731000  0.828000  1.0  -0.2942
  N  N253  1  0.923700  0.505900  0.826800  1.0  -0.3331
  N  N254  1  0.778800  0.488400  0.306000  1.0  -0.2475
  N  N255  1  0.579800  0.490900  0.657500  1.0  -0.3705
  N  N256  1  0.731000  0.497600  0.172000  1.0  -0.2942
  N  N257  1  0.076300  0.494100  0.826800  1.0  -0.3331
  N  N258  1  0.221200  0.511600  0.306000  1.0  -0.2503
  N  N259  1  0.420200  0.509100  0.657500  1.0  -0.3707
  N  N260  1  0.269000  0.502400  0.172000  1.0  -0.2928
