# generated using pymatgen
data_CuH20(C3N)8
_symmetry_space_group_name_H-M   'P 1'
_cell_length_a   12.72600000
_cell_length_b   8.05700000
_cell_length_c   13.50500000
_cell_angle_alpha   89.95800000
_cell_angle_beta   90.12300000
_cell_angle_gamma   89.92800000
_symmetry_Int_Tables_number   1
_chemical_formula_structural   CuH20(C3N)8
_chemical_formula_sum   'Cu2 H40 C48 N16'
_cell_volume   1384.70866504
_cell_formula_units_Z   2
loop_
 _symmetry_equiv_pos_site_id
 _symmetry_equiv_pos_as_xyz
  1  'x, y, z'
loop_
 _atom_site_type_symbol
 _atom_site_label
 _atom_site_symmetry_multiplicity
 _atom_site_fract_x
 _atom_site_fract_y
 _atom_site_fract_z
 _atom_site_occupancy
 _atom_site_charge
  Cu  Cu1  1  0.750010  0.251190  0.250040  1.0  0.4486
  Cu  Cu2  1  0.249990  0.748810  0.749960  1.0  0.4483
  H  H3  1  0.812300  0.741300  0.042600  1.0  0.0813
  H  H4  1  0.981600  0.330000  0.208200  1.0  0.0598
  H  H5  1  0.076400  0.543100  0.146500  1.0  0.1145
  H  H6  1  0.722900  0.521000  0.109300  1.0  0.0548
  H  H7  1  0.648800  0.961400  0.939300  1.0  0.1213
  H  H8  1  0.714000  0.171700  0.035800  1.0  0.0574
  H  H9  1  0.536900  0.752800  0.185000  1.0  0.0981
  H  H10  1  0.598500  0.975200  0.272100  1.0  0.0538
  H  H11  1  0.687200  0.741200  0.457600  1.0  0.087
  H  H12  1  0.423900  0.544100  0.354800  1.0  0.1146
  H  H13  1  0.518200  0.332000  0.290800  1.0  0.0612
  H  H14  1  0.777100  0.521800  0.391200  1.0  0.0629
  H  H15  1  0.852000  0.958700  0.560500  1.0  0.1094
  H  H16  1  0.787100  0.173800  0.465200  1.0  0.0611
  H  H17  1  0.964100  0.755200  0.314200  1.0  0.0991
  H  H18  1  0.901700  0.976800  0.228500  1.0  0.0444
  H  H19  1  0.947300  0.695600  0.577300  1.0  0.0857
  H  H20  1  0.085600  0.806300  0.042100  1.0  0.0763
  H  H21  1  0.414300  0.808100  0.454900  1.0  0.0652
  H  H22  1  0.549400  0.700000  0.923400  1.0  0.0845
  H  H23  1  0.187700  0.258700  0.957400  1.0  0.0822
  H  H24  1  0.018400  0.670000  0.791800  1.0  0.0603
  H  H25  1  0.923600  0.456900  0.853500  1.0  0.1152
  H  H26  1  0.277100  0.479000  0.890700  1.0  0.0558
  H  H27  1  0.351200  0.038600  0.060700  1.0  0.123
  H  H28  1  0.286000  0.828300  0.964200  1.0  0.0581
  H  H29  1  0.463100  0.247200  0.815000  1.0  0.0984
  H  H30  1  0.401500  0.024800  0.727900  1.0  0.0536
  H  H31  1  0.312800  0.258800  0.542400  1.0  0.0868
  H  H32  1  0.576100  0.455900  0.645200  1.0  0.1126
  H  H33  1  0.481800  0.668000  0.709200  1.0  0.0607
  H  H34  1  0.222900  0.478200  0.608800  1.0  0.0625
  H  H35  1  0.148000  0.041300  0.439500  1.0  0.1085
  H  H36  1  0.212900  0.826200  0.534800  1.0  0.061
  H  H37  1  0.035900  0.244800  0.685800  1.0  0.0992
  H  H38  1  0.098300  0.023200  0.771500  1.0  0.0444
  H  H39  1  0.052700  0.304400  0.422700  1.0  0.0854
  H  H40  1  0.914400  0.193700  0.957900  1.0  0.0764
  H  H41  1  0.585700  0.191900  0.545100  1.0  0.0666
  H  H42  1  0.450600  0.300000  0.076600  1.0  0.0845
  C  C43  1  0.849000  0.659700  0.077100  1.0  -0.1449
  C  C44  1  0.954200  0.670600  0.086600  1.0  0.0572
  C  C45  1  0.946200  0.416100  0.176500  1.0  0.1608
  C  C46  1  0.003900  0.542100  0.138300  1.0  -0.2184
  C  C47  1  0.795200  0.527500  0.118500  1.0  0.1571
  C  C48  1  0.585800  0.830500  0.051500  1.0  0.0243
  C  C49  1  0.638800  0.959400  0.007500  1.0  -0.235
  C  C50  1  0.677300  0.086200  0.066400  1.0  0.161
  C  C51  1  0.572100  0.837600  0.152200  1.0  -0.1941
  C  C52  1  0.610800  0.970600  0.204300  1.0  0.157
  C  C53  1  0.544900  0.668700  0.412700  1.0  0.036
  C  C54  1  0.651000  0.659200  0.423000  1.0  -0.1265
  C  C55  1  0.496600  0.543100  0.362400  1.0  -0.2206
  C  C56  1  0.553700  0.416700  0.323500  1.0  0.1609
  C  C57  1  0.704800  0.528000  0.382200  1.0  0.1408
  C  C58  1  0.913900  0.830600  0.448500  1.0  0.0503
  C  C59  1  0.861700  0.957900  0.492200  1.0  -0.2174
  C  C60  1  0.822800  0.087500  0.434300  1.0  0.1498
  C  C61  1  0.928200  0.839100  0.347200  1.0  -0.1985
  C  C62  1  0.889200  0.971500  0.296200  1.0  0.1671
  C  C63  1  0.949600  0.690200  0.508500  1.0  0.1122
  C  C64  1  0.012800  0.812000  0.046800  1.0  0.1375
  C  C65  1  0.487200  0.811900  0.452200  1.0  0.1386
  C  C66  1  0.549300  0.692200  0.992100  1.0  0.1137
  C  C67  1  0.151000  0.340300  0.922900  1.0  -0.146
  C  C68  1  0.045800  0.329400  0.913400  1.0  0.0558
  C  C69  1  0.053800  0.583900  0.823500  1.0  0.1608
  C  C70  1  0.996100  0.457900  0.861700  1.0  -0.2174
  C  C71  1  0.204800  0.472500  0.881500  1.0  0.1581
  C  C72  1  0.414200  0.169500  0.948500  1.0  0.0251
  C  C73  1  0.361200  0.040600  0.992500  1.0  -0.2324
  C  C74  1  0.322700  0.913800  0.933600  1.0  0.1625
  C  C75  1  0.427900  0.162400  0.847800  1.0  -0.196
  C  C76  1  0.389200  0.029400  0.795700  1.0  0.1571
  C  C77  1  0.455100  0.331300  0.587300  1.0  0.0357
  C  C78  1  0.349000  0.340800  0.577000  1.0  -0.1261
  C  C79  1  0.503400  0.456900  0.637600  1.0  -0.2212
  C  C80  1  0.446300  0.583300  0.676500  1.0  0.1604
  C  C81  1  0.295200  0.472000  0.617800  1.0  0.139
  C  C82  1  0.086100  0.169400  0.551500  1.0  0.049
  C  C83  1  0.138300  0.042100  0.507800  1.0  -0.2189
  C  C84  1  0.177200  0.912500  0.565700  1.0  0.1501
  C  C85  1  0.071800  0.160900  0.652800  1.0  -0.1967
  C  C86  1  0.110800  0.028500  0.703800  1.0  0.1676
  C  C87  1  0.050400  0.309800  0.491500  1.0  0.1106
  C  C88  1  0.987200  0.188000  0.953200  1.0  0.1374
  C  C89  1  0.512800  0.188100  0.547800  1.0  0.1386
  C  C90  1  0.450700  0.307800  0.007900  1.0  0.1097
  N  N91  1  0.843300  0.408600  0.171400  1.0  -0.3463
  N  N92  1  0.665100  0.093000  0.162800  1.0  -0.3518
  N  N93  1  0.656400  0.408100  0.329800  1.0  -0.3443
  N  N94  1  0.834600  0.092400  0.337100  1.0  -0.3605
  N  N95  1  0.534200  0.939800  0.482400  1.0  -0.2468
  N  N96  1  0.965400  0.941200  0.018800  1.0  -0.2552
  N  N97  1  0.516800  0.559500  0.034200  1.0  -0.2418
  N  N98  1  0.983700  0.560900  0.465500  1.0  -0.2591
  N  N99  1  0.156700  0.591400  0.828600  1.0  -0.3462
  N  N100  1  0.334900  0.907000  0.837200  1.0  -0.3516
  N  N101  1  0.343600  0.591900  0.670200  1.0  -0.3446
  N  N102  1  0.165400  0.907600  0.662900  1.0  -0.3598
  N  N103  1  0.465800  0.060200  0.517600  1.0  -0.2483
  N  N104  1  0.034600  0.058800  0.981200  1.0  -0.2557
  N  N105  1  0.483200  0.440500  0.965800  1.0  -0.242
  N  N106  1  0.016300  0.439100  0.534500  1.0  -0.2619
