# generated using pymatgen
data_Cd2H24(C11O4)3
_symmetry_space_group_name_H-M   'P 1'
_cell_length_a   15.42000000
_cell_length_b   15.84200000
_cell_length_c   17.81900000
_cell_angle_alpha   112.76300000
_cell_angle_beta   112.20300000
_cell_angle_gamma   95.42500000
_symmetry_Int_Tables_number   1
_chemical_formula_structural   Cd2H24(C11O4)3
_chemical_formula_sum   'Cd6 H72 C99 O36'
_cell_volume   3565.40609966
_cell_formula_units_Z   3
loop_
 _symmetry_equiv_pos_site_id
 _symmetry_equiv_pos_as_xyz
  1  'x, y, z'
loop_
 _atom_site_type_symbol
 _atom_site_label
 _atom_site_symmetry_multiplicity
 _atom_site_fract_x
 _atom_site_fract_y
 _atom_site_fract_z
 _atom_site_occupancy
 _atom_site_charge
  Cd  Cd1  1  0.353040  0.686240  0.958770  1.0  1.0145
  Cd  Cd2  1  0.228230  0.449490  0.923670  1.0  1.0766
  Cd  Cd3  1  0.592620  0.819350  0.998590  1.0  1.0752
  Cd  Cd4  1  0.003190  0.314060  0.906860  1.0  1.1499
  Cd  Cd5  1  0.852770  0.078000  0.848650  1.0  1.0682
  Cd  Cd6  1  0.773940  0.895120  0.921810  1.0  1.1327
  H  H7  1  0.500900  0.364000  0.258200  1.0  0.0799
  H  H8  1  0.472400  0.384200  0.340100  1.0  0.0795
  H  H9  1  0.950200  0.964800  0.666300  1.0  0.1217
  H  H10  1  0.564100  0.240100  0.397000  1.0  0.0649
  H  H11  1  0.571100  0.344500  0.467400  1.0  0.0741
  H  H12  1  0.516400  0.444800  0.140800  1.0  0.1021
  H  H13  1  0.580000  0.594400  0.597700  1.0  0.1345
  H  H14  1  0.932700  0.602000  0.451800  1.0  0.0705
  H  H15  1  0.933300  0.700900  0.526200  1.0  0.0753
  H  H16  1  0.043800  0.857100  0.460500  1.0  0.0652
  H  H17  1  0.112600  0.822700  0.529800  1.0  0.0775
  H  H18  1  0.676300  0.484800  0.254300  1.0  0.1223
  H  H19  1  0.658200  0.476200  0.372900  1.0  0.0748
  H  H20  1  0.731700  0.455800  0.451900  1.0  0.0768
  H  H21  1  0.862600  0.309700  0.583600  1.0  0.1288
  H  H22  1  0.263200  0.616800  0.759100  1.0  0.1017
  H  H23  1  0.731300  0.743000  0.261400  1.0  0.1269
  H  H24  1  0.883700  0.744900  0.330800  1.0  0.0726
  H  H25  1  0.857000  0.772100  0.414400  1.0  0.084
  H  H26  1  0.226400  0.682800  0.659200  1.0  0.1354
  H  H27  1  0.622900  0.176600  0.634800  1.0  0.092
  H  H28  1  0.579700  0.246200  0.535900  1.0  0.1252
  H  H29  1  0.903300  0.249700  0.687000  1.0  0.0952
  H  H30  1  0.574500  0.694700  0.139200  1.0  0.098
  H  H31  1  0.638800  0.751200  0.697300  1.0  0.1021
  H  H32  1  0.606000  0.215800  0.273200  1.0  0.0708
  H  H33  1  0.713000  0.287000  0.345800  1.0  0.0798
  H  H34  1  0.213200  0.156100  0.684800  1.0  0.0976
  H  H35  1  0.306500  0.168500  0.600800  1.0  0.0717
  H  H36  1  0.288800  0.198900  0.521300  1.0  0.0838
  H  H37  1  0.345400  0.475400  0.776300  1.0  0.0975
  H  H38  1  0.745300  0.072600  0.103100  1.0  0.1127
  H  H39  1  0.447300  0.114700  0.472400  1.0  0.0812
  H  H40  1  0.343600  0.112800  0.401800  1.0  0.0809
  H  H41  1  0.153200  0.993500  0.578000  1.0  0.1183
  H  H42  1  0.192300  0.015600  0.475600  1.0  0.072
  H  H43  1  0.223100  0.945600  0.402900  1.0  0.0725
  H  H44  1  0.378800  0.825400  0.283300  1.0  0.1217
  H  H45  1  0.458700  0.069100  0.594700  1.0  0.0748
  H  H46  1  0.392200  0.966000  0.512000  1.0  0.0727
  H  H47  1  0.761900  0.625800  0.491500  1.0  0.1086
  H  H48  1  0.823100  0.786700  0.594500  1.0  0.1063
  H  H49  1  0.504200  0.054900  0.222800  1.0  0.0941
  H  H50  1  0.306100  0.315700  0.663400  1.0  0.1369
  H  H51  1  0.889800  0.841600  0.245700  1.0  0.1037
  H  H52  1  0.687300  0.150000  0.205400  1.0  0.1232
  H  H53  1  0.512500  0.967200  0.638600  1.0  0.1326
  H  H54  1  0.056700  0.900200  0.345900  1.0  0.1101
  H  H55  1  0.432300  0.780300  0.170600  1.0  0.1081
  H  H56  1  0.087000  0.090600  0.255800  1.0  0.1278
  H  H57  1  0.345100  0.360200  0.201600  1.0  0.1294
  H  H58  1  0.732200  0.283600  0.026400  1.0  0.1138
  H  H59  1  0.936300  0.573900  0.570100  1.0  0.1263
  H  H60  1  0.443600  0.098200  0.327600  1.0  0.1113
  H  H61  1  0.590600  0.921500  0.752100  1.0  0.0921
  H  H62  1  0.929200  0.012800  0.134500  1.0  0.1095
  H  H63  1  0.613900  0.531800  0.793400  1.0  0.1218
  H  H64  1  0.289200  0.977500  0.706100  1.0  0.1187
  H  H65  1  0.361000  0.914200  0.805500  1.0  0.1185
  H  H66  1  0.974800  0.598900  0.329800  1.0  0.0674
  H  H67  1  0.080600  0.649600  0.416100  1.0  0.0724
  H  H68  1  0.973700  0.502000  0.664000  1.0  0.1019
  H  H69  1  0.189600  0.314000  0.086000  1.0  0.0945
  H  H70  1  0.079200  0.538200  0.285800  1.0  0.1383
  H  H71  1  0.583300  0.370600  0.696900  1.0  0.1131
  H  H72  1  0.676600  0.359300  0.131700  1.0  0.1114
  H  H73  1  0.105300  0.454500  0.157400  1.0  0.1051
  H  H74  1  0.121100  0.775800  0.255700  1.0  0.1232
  H  H75  1  0.016400  0.123200  0.775000  1.0  0.1003
  H  H76  1  0.309800  0.086600  0.163900  1.0  0.1356
  H  H77  1  0.151400  0.049600  0.056300  1.0  0.0954
  H  H78  1  0.177400  0.698700  0.150900  1.0  0.0962
  C  C79  1  0.602300  0.345600  0.363800  1.0  -0.0344
  C  C80  1  0.978000  0.719900  0.434100  1.0  -0.0303
  C  C81  1  0.499000  0.341800  0.302500  1.0  0.0664
  C  C82  1  0.529700  0.566400  0.130900  1.0  -0.1412
  C  C83  1  0.005000  0.003000  0.670800  1.0  -0.2249
  C  C84  1  0.717900  0.281500  0.548100  1.0  0.3111
  C  C85  1  0.601900  0.308200  0.430700  1.0  0.0473
  C  C86  1  0.560400  0.505100  0.164200  1.0  0.0155
  C  C87  1  0.629900  0.633700  0.597100  1.0  -0.2162
  C  C88  1  0.968600  0.670500  0.491700  1.0  0.063
  C  C89  1  0.765800  0.207900  0.672800  1.0  -0.1462
  C  C90  1  0.121300  0.554500  0.725300  1.0  -0.1666
  C  C91  1  0.044600  0.822800  0.496800  1.0  0.0668
  C  C92  1  0.077400  0.635200  0.606800  1.0  0.2907
  C  C93  1  0.655200  0.528600  0.232000  1.0  -0.2358
  C  C94  1  0.662300  0.449500  0.415600  1.0  0.0779
  C  C95  1  0.813300  0.283400  0.594400  1.0  -0.2235
  C  C96  1  0.196900  0.608200  0.720900  1.0  -0.0084
  C  C97  1  0.689000  0.681100  0.235700  1.0  -0.2614
  C  C98  1  0.791300  0.163400  0.733300  1.0  0.6934
  C  C99  1  0.047400  0.962800  0.614200  1.0  0.3078
  C  C100  1  0.879200  0.724900  0.375700  1.0  0.0769
  C  C101  1  0.175500  0.647600  0.662300  1.0  -0.2287
  C  C102  1  0.672300  0.205800  0.625900  1.0  0.0123
  C  C103  1  0.645100  0.244800  0.564800  1.0  -0.2749
  C  C104  1  0.837200  0.247700  0.655500  1.0  -0.0302
  C  C105  1  0.666300  0.594500  0.534000  1.0  0.3103
  C  C106  1  0.594300  0.652800  0.164600  1.0  0.0008
  C  C107  1  0.665200  0.725700  0.655800  1.0  -0.0099
  C  C108  1  0.645800  0.283200  0.306000  1.0  0.0583
  C  C109  1  0.739500  0.786300  0.659100  1.0  -0.1495
  C  C110  1  0.159100  0.117000  0.680400  1.0  0.0214
  C  C111  1  0.332200  0.173500  0.559000  1.0  0.0701
  C  C112  1  0.483400  0.516800  0.796200  1.0  -0.1624
  C  C113  1  0.333800  0.075800  0.498100  1.0  -0.0285
  C  C114  1  0.393000  0.454100  0.758000  1.0  -0.0099
  C  C115  1  0.680400  0.263500  0.181300  1.0  0.3015
  C  C116  1  0.732000  0.131600  0.108900  1.0  -0.0783
  C  C117  1  0.376900  0.079700  0.436300  1.0  0.0813
  C  C118  1  0.124600  0.019700  0.617400  1.0  -0.2419
  C  C119  1  0.786200  0.124000  0.992200  1.0  0.7095
  C  C120  1  0.747200  0.171600  0.054000  1.0  -0.1443
  C  C121  1  0.502900  0.619100  0.862700  1.0  0.7231
  C  C122  1  0.402400  0.965200  0.315600  1.0  0.3218
  C  C123  1  0.225800  0.012900  0.437400  1.0  0.0751
  C  C124  1  0.144500  0.516200  0.791800  1.0  0.6988
  C  C125  1  0.402700  0.872400  0.269800  1.0  -0.2225
  C  C126  1  0.390600  0.028400  0.553800  1.0  0.0597
  C  C127  1  0.394300  0.978500  0.662700  1.0  0.3019
  C  C128  1  0.085500  0.002800  0.312400  1.0  0.3205
  C  C129  1  0.737000  0.651700  0.534200  1.0  -0.2407
  C  C130  1  0.773800  0.747300  0.595700  1.0  -0.0116
  C  C131  1  0.442700  0.329500  0.670100  1.0  0.3053
  C  C132  1  0.890900  0.920700  0.178300  1.0  -0.1571
  C  C133  1  0.154300  0.259000  0.798500  1.0  0.7003
  C  C134  1  0.163100  0.516300  0.059600  1.0  0.7376
  C  C135  1  0.477700  0.915600  0.188500  1.0  -0.1538
  C  C136  1  0.478000  0.007300  0.234500  1.0  0.0113
  C  C137  1  0.427200  0.538600  0.055900  1.0  0.7708
  C  C138  1  0.369500  0.358300  0.691800  1.0  -0.2618
  C  C139  1  0.930200  0.889100  0.243900  1.0  -0.0146
  C  C140  1  0.698300  0.178000  0.170100  1.0  -0.2408
  C  C141  1  0.482700  0.960000  0.674500  1.0  -0.2887
  C  C142  1  0.028800  0.927400  0.306600  1.0  -0.2252
  C  C143  1  0.436800  0.845300  0.204100  1.0  -0.065
  C  C144  1  0.517700  0.887300  0.122300  1.0  0.6909
  C  C145  1  0.047900  0.036800  0.250900  1.0  -0.2093
  C  C146  1  0.533800  0.875800  0.854000  1.0  0.7171
  C  C147  1  0.782900  0.887200  0.729000  1.0  0.6997
  C  C148  1  0.307000  0.295500  0.170900  1.0  -0.2861
  C  C149  1  0.724900  0.256200  0.063300  1.0  -0.03
  C  C150  1  0.002500  0.582000  0.608100  1.0  -0.26
  C  C151  1  0.441900  0.033400  0.296900  1.0  -0.2451
  C  C152  1  0.788100  0.880700  0.113500  1.0  0.7002
  C  C153  1  0.345300  0.229900  0.194100  1.0  0.2978
  C  C154  1  0.527700  0.930300  0.740800  1.0  0.0103
  C  C155  1  0.952300  0.993000  0.180700  1.0  -0.0576
  C  C156  1  0.553100  0.487600  0.770500  1.0  -0.0245
  C  C157  1  0.153800  0.175600  0.059200  1.0  -0.154
  C  C158  1  0.117300  0.157100  0.735500  1.0  -0.1619
  C  C159  1  0.138600  0.568700  0.137400  1.0  -0.1257
  C  C160  1  0.349500  0.963500  0.713300  1.0  -0.2309
  C  C161  1  0.485500  0.914100  0.788100  1.0  -0.1629
  C  C162  1  0.718500  0.618300  0.266400  1.0  0.3149
  C  C163  1  0.393100  0.928400  0.773900  1.0  -0.0328
  C  C164  1  0.022800  0.661400  0.376900  1.0  0.0456
  C  C165  1  0.025300  0.541200  0.665100  1.0  -0.041
  C  C166  1  0.214000  0.268100  0.103400  1.0  -0.0241
  C  C167  1  0.090100  0.568700  0.252300  1.0  -0.2573
  C  C168  1  0.533200  0.392500  0.710400  1.0  -0.2318
  C  C169  1  0.691900  0.301200  0.126100  1.0  -0.1812
  C  C170  1  0.110600  0.520700  0.178800  1.0  -0.0234
  C  C171  1  0.086300  0.662800  0.274300  1.0  0.3208
  C  C172  1  0.118700  0.710400  0.237300  1.0  -0.2178
  C  C173  1  0.054800  0.152200  0.983100  1.0  0.7171
  C  C174  1  0.042100  0.097600  0.732900  1.0  -0.022
  C  C175  1  0.285600  0.134000  0.149400  1.0  -0.2609
  C  C176  1  0.192000  0.112900  0.084900  1.0  0.0055
  C  C177  1  0.148600  0.663000  0.172100  1.0  -0.0329
  O  O178  1  0.881700  0.180500  0.789800  1.0  -0.6815
  O  O179  1  0.725800  0.109000  0.733700  1.0  -0.6373
  O  O180  1  0.699600  0.319000  0.488300  1.0  -0.2658
  O  O181  1  0.811900  0.632600  0.329700  1.0  -0.2717
  O  O182  1  0.437400  0.244800  0.254600  1.0  -0.2598
  O  O183  1  0.066100  0.681500  0.552600  1.0  -0.265
  O  O184  1  0.008300  0.866900  0.558500  1.0  -0.2533
  O  O185  1  0.621500  0.498300  0.474100  1.0  -0.2751
  O  O186  1  0.114200  0.298200  0.851300  1.0  -0.7186
  O  O187  1  0.143900  0.426100  0.027500  1.0  -0.6818
  O  O188  1  0.399200  0.599500  0.033100  1.0  -0.7194
  O  O189  1  0.572400  0.950700  0.120900  1.0  -0.5847
  O  O190  1  0.434700  0.647800  0.874700  1.0  -0.6851
  O  O191  1  0.498700  0.798900  0.067700  1.0  -0.6597
  O  O192  1  0.837400  0.944100  0.721400  1.0  -0.6304
  O  O193  1  0.814900  0.053800  0.990700  1.0  -0.6997
  O  O194  1  0.763200  0.918500  0.797700  1.0  -0.7071
  O  O195  1  0.225100  0.311200  0.805000  1.0  -0.5668
  O  O196  1  0.234400  0.543900  0.854100  1.0  -0.6878
  O  O197  1  0.754100  0.900500  0.046600  1.0  -0.7026
  O  O198  1  0.610700  0.854800  0.859500  1.0  -0.705
  O  O199  1  0.731900  0.827800  0.122800  1.0  -0.5563
  O  O200  1  0.589600  0.673300  0.905900  1.0  -0.6179
  O  O201  1  0.794100  0.161300  0.938800  1.0  -0.6148
  O  O202  1  0.375500  0.457900  0.024900  1.0  -0.5739
  O  O203  1  0.019400  0.213900  0.969500  1.0  -0.6866
  O  O204  1  0.000100  0.065500  0.938300  1.0  -0.6114
  O  O205  1  0.647100  0.315700  0.242200  1.0  -0.2637
  O  O206  1  0.363500  0.982100  0.374300  1.0  -0.2675
  O  O207  1  0.429700  0.236900  0.610900  1.0  -0.2722
  O  O208  1  0.346400  0.015000  0.605500  1.0  -0.2531
  O  O209  1  0.082900  0.459000  0.789700  1.0  -0.5936
  O  O210  1  0.180800  0.049800  0.377100  1.0  -0.2735
  O  O211  1  0.495100  0.867800  0.904200  1.0  -0.6123
  O  O212  1  0.195700  0.558100  0.029000  1.0  -0.5551
  O  O213  1  0.051000  0.710700  0.334100  1.0  -0.2699
