# generated using pymatgen
data_Cd2H24(C11O4)3
_symmetry_space_group_name_H-M   'P 1'
_cell_length_a   13.34600000
_cell_length_b   16.18640000
_cell_length_c   17.78070000
_cell_angle_alpha   112.59800000
_cell_angle_beta   107.37500000
_cell_angle_gamma   97.62500000
_symmetry_Int_Tables_number   1
_chemical_formula_structural   Cd2H24(C11O4)3
_chemical_formula_sum   'Cd4 H48 C66 O24'
_cell_volume   3248.14720196
_cell_formula_units_Z   2
loop_
 _symmetry_equiv_pos_site_id
 _symmetry_equiv_pos_as_xyz
  1  'x, y, z'
loop_
 _atom_site_type_symbol
 _atom_site_label
 _atom_site_symmetry_multiplicity
 _atom_site_fract_x
 _atom_site_fract_y
 _atom_site_fract_z
 _atom_site_occupancy
 _atom_site_charge
  Cd  Cd1  1  0.067210  0.616080  0.593030  1.0  1.1386
  Cd  Cd2  1  0.162680  0.543850  0.383860  1.0  1.0792
  Cd  Cd3  1  0.932790  0.383920  0.406970  1.0  1.1412
  Cd  Cd4  1  0.837320  0.456150  0.616140  1.0  1.0789
  H  H5  1  0.454300  0.348700  0.632700  1.0  0.1309
  H  H6  1  0.446300  0.507900  0.104600  1.0  0.1046
  H  H7  1  0.537000  0.381100  0.932800  1.0  0.0698
  H  H8  1  0.563200  0.313900  0.851600  1.0  0.0804
  H  H9  1  0.112100  0.984300  0.672700  1.0  0.1404
  H  H10  1  0.340200  0.361600  0.836100  1.0  0.0726
  H  H11  1  0.266600  0.259500  0.760700  1.0  0.0645
  H  H12  1  0.831300  0.299600  0.186800  1.0  0.1005
  H  H13  1  0.198800  0.351500  0.712500  1.0  0.1268
  H  H14  1  0.675800  0.218700  0.054900  1.0  0.1331
  H  H15  1  0.425400  0.012900  0.687300  1.0  0.1301
  H  H16  1  0.068900  0.823300  0.578400  1.0  0.0959
  H  H17  1  0.694800  0.451400  0.017200  1.0  0.1227
  H  H18  1  0.849600  0.530600  0.149600  1.0  0.103
  H  H19  1  0.392300  0.216500  0.941600  1.0  0.0794
  H  H20  1  0.280800  0.228200  0.885000  1.0  0.074
  H  H21  1  0.373900  0.410800  0.540200  1.0  0.1078
  H  H22  1  0.241800  0.248500  0.006400  1.0  0.1211
  H  H23  1  0.376500  0.854800  0.587100  1.0  0.1069
  H  H24  1  0.191200  0.299800  0.125700  1.0  0.1047
  H  H25  1  0.454800  0.134000  0.821200  1.0  0.0721
  H  H26  1  0.434400  0.162100  0.741600  1.0  0.0767
  H  H27  1  0.394500  0.556300  0.220900  1.0  0.0895
  H  H28  1  0.119800  0.411300  0.616500  1.0  0.0919
  H  H29  1  0.545700  0.651300  0.367300  1.0  0.1301
  H  H30  1  0.553700  0.492100  0.895400  1.0  0.1056
  H  H31  1  0.463000  0.618900  0.067200  1.0  0.0702
  H  H32  1  0.436800  0.686100  0.148400  1.0  0.08
  H  H33  1  0.887900  0.015700  0.327300  1.0  0.1403
  H  H34  1  0.659800  0.638400  0.163900  1.0  0.0731
  H  H35  1  0.733400  0.740500  0.239300  1.0  0.0644
  H  H36  1  0.168700  0.700400  0.813200  1.0  0.101
  H  H37  1  0.801200  0.648500  0.287500  1.0  0.1261
  H  H38  1  0.324200  0.781300  0.945100  1.0  0.1335
  H  H39  1  0.574600  0.987100  0.312700  1.0  0.1298
  H  H40  1  0.931100  0.176700  0.421600  1.0  0.0967
  H  H41  1  0.305200  0.548600  0.982800  1.0  0.1233
  H  H42  1  0.150400  0.469400  0.850400  1.0  0.103
  H  H43  1  0.607700  0.783500  0.058400  1.0  0.0788
  H  H44  1  0.719200  0.771800  0.115000  1.0  0.0741
  H  H45  1  0.626100  0.589200  0.459800  1.0  0.1077
  H  H46  1  0.758200  0.751500  0.993600  1.0  0.1202
  H  H47  1  0.623500  0.145200  0.412900  1.0  0.1067
  H  H48  1  0.808800  0.700200  0.874300  1.0  0.1046
  H  H49  1  0.545200  0.866000  0.178800  1.0  0.0719
  H  H50  1  0.565600  0.837900  0.258400  1.0  0.0759
  H  H51  1  0.605500  0.443700  0.779100  1.0  0.0891
  H  H52  1  0.880200  0.588700  0.383500  1.0  0.0922
  C  C53  1  0.386600  0.362200  0.630500  1.0  -0.2552
  C  C54  1  0.394000  0.465400  0.108400  1.0  -0.256
  C  C55  1  0.530400  0.315500  0.895100  1.0  0.0627
  C  C56  1  0.166400  0.957600  0.656900  1.0  -0.2457
  C  C57  1  0.342500  0.300400  0.795300  1.0  0.0566
  C  C58  1  0.804100  0.330600  0.152700  1.0  -0.0094
  C  C59  1  0.234900  0.363500  0.677600  1.0  -0.2754
  C  C60  1  0.711500  0.282100  0.073900  1.0  -0.2474
  C  C61  1  0.352600  0.975000  0.664900  1.0  -0.2113
  C  C62  1  0.141100  0.861800  0.599300  1.0  -0.009
  C  C63  1  0.722500  0.420400  0.051200  1.0  -0.2565
  C  C64  1  0.814400  0.467000  0.130100  1.0  -0.0144
  C  C65  1  0.361300  0.254900  0.913900  1.0  0.0677
  C  C66  1  0.338400  0.398500  0.575400  1.0  -0.0045
  C  C67  1  0.272700  0.311400  0.050200  1.0  -0.2844
  C  C68  1  0.409100  0.257000  0.847800  1.0  -0.0369
  C  C69  1  0.274800  0.011600  0.689800  1.0  0.3189
  C  C70  1  0.277800  0.438900  0.183000  1.0  -0.167
  C  C71  1  0.322600  0.880000  0.605300  1.0  0.0283
  C  C72  1  0.335800  0.345200  0.683100  1.0  0.3007
  C  C73  1  0.244400  0.469500  0.256800  1.0  0.687
  C  C74  1  0.672900  0.327000  0.024400  1.0  0.3131
  C  C75  1  0.240100  0.342800  0.119500  1.0  0.005
  C  C76  1  0.407300  0.159900  0.787100  1.0  0.0616
  C  C77  1  0.856000  0.422700  0.181000  1.0  -0.1832
  C  C78  1  0.191200  0.462100  0.513500  1.0  0.6793
  C  C79  1  0.239400  0.417700  0.570200  1.0  -0.1787
  C  C80  1  0.360300  0.494300  0.175500  1.0  0.0078
  C  C81  1  0.188500  0.399300  0.620700  1.0  0.0085
  C  C82  1  0.351800  0.371700  0.043300  1.0  0.2958
  C  C83  1  0.192900  0.723600  0.512300  1.0  0.6924
  C  C84  1  0.218000  0.821700  0.572000  1.0  -0.1983
  C  C85  1  0.955200  0.473200  0.261800  1.0  0.6807
  C  C86  1  0.613400  0.637800  0.369500  1.0  -0.2551
  C  C87  1  0.606000  0.534600  0.891600  1.0  -0.2546
  C  C88  1  0.469600  0.684500  0.104900  1.0  0.063
  C  C89  1  0.833600  0.042400  0.343100  1.0  -0.2442
  C  C90  1  0.657500  0.699600  0.204700  1.0  0.0555
  C  C91  1  0.195900  0.669400  0.847300  1.0  -0.0142
  C  C92  1  0.765100  0.636500  0.322400  1.0  -0.2758
  C  C93  1  0.288500  0.717900  0.926100  1.0  -0.2463
  C  C94  1  0.647400  0.025000  0.335100  1.0  -0.2148
  C  C95  1  0.858900  0.138200  0.400700  1.0  -0.0108
  C  C96  1  0.277500  0.579600  0.948800  1.0  -0.256
  C  C97  1  0.185600  0.533000  0.869900  1.0  -0.0144
  C  C98  1  0.638700  0.745100  0.086100  1.0  0.065
  C  C99  1  0.661600  0.601500  0.424600  1.0  -0.0033
  C  C100  1  0.727300  0.688600  0.949800  1.0  -0.2846
  C  C101  1  0.590900  0.743000  0.152200  1.0  -0.0377
  C  C102  1  0.725200  0.988400  0.310200  1.0  0.3196
  C  C103  1  0.722200  0.561100  0.817000  1.0  -0.1666
  C  C104  1  0.677400  0.120000  0.394700  1.0  0.0293
  C  C105  1  0.664200  0.654800  0.316900  1.0  0.3009
  C  C106  1  0.755600  0.530500  0.743200  1.0  0.6871
  C  C107  1  0.327100  0.673000  0.975600  1.0  0.3133
  C  C108  1  0.759900  0.657200  0.880500  1.0  0.0053
  C  C109  1  0.592700  0.840100  0.212900  1.0  0.0631
  C  C110  1  0.144000  0.577300  0.819000  1.0  -0.1826
  C  C111  1  0.808800  0.537900  0.486500  1.0  0.6772
  C  C112  1  0.760600  0.582300  0.429800  1.0  -0.1807
  C  C113  1  0.639700  0.505700  0.824500  1.0  0.0083
  C  C114  1  0.811500  0.600700  0.379300  1.0  0.0091
  C  C115  1  0.648200  0.628300  0.956700  1.0  0.2969
  C  C116  1  0.807100  0.276400  0.487700  1.0  0.6928
  C  C117  1  0.782000  0.178300  0.428000  1.0  -0.2
  C  C118  1  0.044800  0.526800  0.738200  1.0  0.6779
  O  O119  1  0.294800  0.102000  0.745900  1.0  -0.274
  O  O120  1  0.016500  0.547000  0.276000  1.0  -0.5586
  O  O121  1  0.584000  0.273600  0.947500  1.0  -0.2788
  O  O122  1  0.242000  0.481000  0.470400  1.0  -0.5326
  O  O123  1  0.098000  0.480300  0.513000  1.0  -0.7043
  O  O124  1  0.390000  0.351100  0.979600  1.0  -0.2592
  O  O125  1  0.977800  0.438500  0.317900  1.0  -0.7459
  O  O126  1  0.390800  0.311800  0.738000  1.0  -0.2634
  O  O127  1  0.168800  0.415800  0.258700  1.0  -0.6181
  O  O128  1  0.102500  0.666400  0.497900  1.0  -0.6972
  O  O129  1  0.252900  0.694500  0.473100  1.0  -0.5227
  O  O130  1  0.286400  0.552400  0.314600  1.0  -0.5963
  O  O131  1  0.705200  0.898000  0.254100  1.0  -0.2745
  O  O132  1  0.983500  0.453000  0.724000  1.0  -0.5566
  O  O133  1  0.416000  0.726400  0.052500  1.0  -0.2786
  O  O134  1  0.758000  0.519000  0.529600  1.0  -0.5328
  O  O135  1  0.902000  0.519700  0.487000  1.0  -0.7058
  O  O136  1  0.610000  0.648900  0.020400  1.0  -0.2587
  O  O137  1  0.022200  0.561500  0.682100  1.0  -0.7355
  O  O138  1  0.609200  0.688200  0.262000  1.0  -0.2631
  O  O139  1  0.831200  0.584200  0.741300  1.0  -0.6174
  O  O140  1  0.897500  0.333600  0.502100  1.0  -0.6916
  O  O141  1  0.747100  0.305500  0.526900  1.0  -0.5223
  O  O142  1  0.713600  0.447600  0.685400  1.0  -0.6027
