# generated using pymatgen
data_CoH22C32N4O7
_symmetry_space_group_name_H-M   'P 1'
_cell_length_a   10.06100000
_cell_length_b   25.03400000
_cell_length_c   14.69000000
_cell_angle_alpha   90.00000000
_cell_angle_beta   103.08100000
_cell_angle_gamma   90.00000000
_symmetry_Int_Tables_number   1
_chemical_formula_structural   CoH22C32N4O7
_chemical_formula_sum   'Co4 H88 C128 N16 O28'
_cell_volume   3603.91817744
_cell_formula_units_Z   4
loop_
 _symmetry_equiv_pos_site_id
 _symmetry_equiv_pos_as_xyz
  1  'x, y, z'
loop_
 _atom_site_type_symbol
 _atom_site_label
 _atom_site_symmetry_multiplicity
 _atom_site_fract_x
 _atom_site_fract_y
 _atom_site_fract_z
 _atom_site_occupancy
 _atom_site_charge
  Co  Co1  1  0.472900  0.021230  0.358930  1.0  0.8273
  Co  Co2  1  0.527100  0.978770  0.641070  1.0  0.8277
  Co  Co3  1  0.027100  0.521230  0.141070  1.0  0.8278
  Co  Co4  1  0.972900  0.478770  0.858930  1.0  0.8271
  H  H5  1  0.678000  0.932000  0.367400  1.0  0.0661
  H  H6  1  0.700000  0.841700  0.362000  1.0  0.1245
  H  H7  1  0.296200  0.829600  0.338300  1.0  0.1179
  H  H8  1  0.288400  0.920600  0.344100  1.0  0.062
  H  H9  1  0.674400  0.684800  0.371900  1.0  0.1207
  H  H10  1  0.731600  0.597000  0.348600  1.0  0.1215
  H  H11  1  0.336500  0.557200  0.291700  1.0  0.1089
  H  H12  1  0.281300  0.644600  0.317600  1.0  0.0919
  H  H13  1  0.615200  0.437800  0.214800  1.0  0.1108
  H  H14  1  0.555400  0.351700  0.240100  1.0  0.112
  H  H15  1  0.364300  0.403800  0.433700  1.0  0.0991
  H  H16  1  0.431600  0.490100  0.410600  1.0  0.1053
  H  H17  1  0.628400  0.202000  0.274300  1.0  0.119
  H  H18  1  0.618900  0.112100  0.285700  1.0  0.0668
  H  H19  1  0.332800  0.122000  0.418900  1.0  0.0681
  H  H20  1  0.342300  0.212600  0.418300  1.0  0.1145
  H  H21  1  0.944900  0.955900  0.624500  1.0  0.0891
  H  H22  1  0.166600  0.955700  0.607800  1.0  0.0923
  H  H23  1  0.306200  0.008300  0.881000  1.0  0.0907
  H  H24  1  0.291800  0.018300  0.034800  1.0  0.0949
  H  H25  1  0.599900  0.758500  0.347400  1.0  0.2918
  H  H26  1  0.569500  0.284900  0.319800  1.0  0.2942
  H  H27  1  0.322000  0.068000  0.632600  1.0  0.066
  H  H28  1  0.300000  0.158300  0.638000  1.0  0.1245
  H  H29  1  0.703800  0.170400  0.661700  1.0  0.1187
  H  H30  1  0.711600  0.079400  0.655900  1.0  0.0621
  H  H31  1  0.325600  0.315200  0.628100  1.0  0.1215
  H  H32  1  0.268400  0.403000  0.651400  1.0  0.1222
  H  H33  1  0.663500  0.442800  0.708300  1.0  0.1093
  H  H34  1  0.718700  0.355400  0.682400  1.0  0.0922
  H  H35  1  0.384800  0.562200  0.785200  1.0  0.1103
  H  H36  1  0.444600  0.648300  0.759900  1.0  0.1117
  H  H37  1  0.635700  0.596200  0.566300  1.0  0.0993
  H  H38  1  0.568400  0.509900  0.589400  1.0  0.1058
  H  H39  1  0.371600  0.798000  0.725700  1.0  0.1186
  H  H40  1  0.381100  0.887900  0.714300  1.0  0.0672
  H  H41  1  0.667200  0.878000  0.581100  1.0  0.0685
  H  H42  1  0.657700  0.787400  0.581700  1.0  0.1142
  H  H43  1  0.055100  0.044100  0.375500  1.0  0.0894
  H  H44  1  0.833400  0.044300  0.392200  1.0  0.0927
  H  H45  1  0.693800  0.991700  0.119000  1.0  0.0904
  H  H46  1  0.708200  0.981700  0.965200  1.0  0.095
  H  H47  1  0.400100  0.241500  0.652600  1.0  0.2899
  H  H48  1  0.430500  0.715100  0.680200  1.0  0.2947
  H  H49  1  0.822000  0.432000  0.132600  1.0  0.066
  H  H50  1  0.800000  0.341700  0.138000  1.0  0.1248
  H  H51  1  0.203800  0.329600  0.161700  1.0  0.1182
  H  H52  1  0.211600  0.420600  0.155900  1.0  0.0621
  H  H53  1  0.825600  0.184800  0.128100  1.0  0.1216
  H  H54  1  0.768400  0.097000  0.151400  1.0  0.1222
  H  H55  1  0.163500  0.057200  0.208300  1.0  0.1101
  H  H56  1  0.218700  0.144600  0.182400  1.0  0.0923
  H  H57  1  0.884800  0.937800  0.285200  1.0  0.1104
  H  H58  1  0.944600  0.851700  0.259900  1.0  0.1125
  H  H59  1  0.135700  0.903800  0.066300  1.0  0.0993
  H  H60  1  0.068400  0.990100  0.089400  1.0  0.1054
  H  H61  1  0.871600  0.702000  0.225700  1.0  0.1187
  H  H62  1  0.881100  0.612100  0.214300  1.0  0.0675
  H  H63  1  0.167200  0.622000  0.081100  1.0  0.0688
  H  H64  1  0.157700  0.712600  0.081700  1.0  0.1145
  H  H65  1  0.555100  0.455900  0.875500  1.0  0.0891
  H  H66  1  0.333400  0.455700  0.892200  1.0  0.0919
  H  H67  1  0.193800  0.508300  0.619000  1.0  0.09
  H  H68  1  0.208200  0.518300  0.465200  1.0  0.0951
  H  H69  1  0.900100  0.258500  0.152600  1.0  0.2904
  H  H70  1  0.930500  0.784900  0.180200  1.0  0.294
  H  H71  1  0.178000  0.568000  0.867400  1.0  0.0663
  H  H72  1  0.200000  0.658300  0.862000  1.0  0.1248
  H  H73  1  0.796200  0.670400  0.838300  1.0  0.1179
  H  H74  1  0.788400  0.579400  0.844100  1.0  0.062
  H  H75  1  0.174400  0.815200  0.871900  1.0  0.1206
  H  H76  1  0.231600  0.903000  0.848600  1.0  0.1223
  H  H77  1  0.836500  0.942800  0.791700  1.0  0.1087
  H  H78  1  0.781300  0.855400  0.817600  1.0  0.092
  H  H79  1  0.115200  0.062200  0.714800  1.0  0.1104
  H  H80  1  0.055400  0.148300  0.740100  1.0  0.1117
  H  H81  1  0.864300  0.096200  0.933700  1.0  0.0991
  H  H82  1  0.931600  0.009900  0.910600  1.0  0.1057
  H  H83  1  0.128400  0.298000  0.774300  1.0  0.1182
  H  H84  1  0.118900  0.387900  0.785700  1.0  0.0665
  H  H85  1  0.832800  0.378000  0.918900  1.0  0.0681
  H  H86  1  0.842300  0.287400  0.918300  1.0  0.1147
  H  H87  1  0.444900  0.544100  0.124500  1.0  0.0891
  H  H88  1  0.666667  0.544300  0.107800  1.0  0.0927
  H  H89  1  0.806200  0.491700  0.381000  1.0  0.0903
  H  H90  1  0.791800  0.481700  0.534800  1.0  0.0949
  H  H91  1  0.099900  0.741500  0.847400  1.0  0.2911
  H  H92  1  0.069500  0.215100  0.819800  1.0  0.294
  C  C93  1  0.600300  0.911060  0.362100  1.0  0.1708
  C  C94  1  0.614700  0.856730  0.359400  1.0  -0.2861
  C  C95  1  0.501200  0.824320  0.352700  1.0  0.2651
  C  C96  1  0.376000  0.849450  0.345300  1.0  -0.2461
  C  C97  1  0.372800  0.904280  0.348500  1.0  0.1778
  C  C98  1  0.426600  0.730260  0.355300  1.0  0.5765
  C  C99  1  0.471300  0.673980  0.345300  1.0  -0.1241
  C  C100  1  0.606100  0.659230  0.355500  1.0  -0.0731
  C  C101  1  0.640800  0.606810  0.341800  1.0  -0.253
  C  C102  1  0.538600  0.569410  0.317900  1.0  0.3017
  C  C103  1  0.404600  0.582880  0.308100  1.0  -0.2298
  C  C104  1  0.372200  0.635240  0.322900  1.0  -0.0008
  C  C105  1  0.528000  0.471910  0.310300  1.0  0.3069
  C  C106  1  0.565500  0.430730  0.259700  1.0  -0.2467
  C  C107  1  0.530200  0.379310  0.275000  1.0  -0.1299
  C  C108  1  0.457300  0.368100  0.341700  1.0  -0.1013
  C  C109  1  0.417300  0.410390  0.390600  1.0  -0.0359
  C  C110  1  0.455500  0.462120  0.375800  1.0  -0.2228
  C  C111  1  0.417600  0.312540  0.363300  1.0  0.5765
  C  C112  1  0.485300  0.218700  0.345500  1.0  0.3032
  C  C113  1  0.567300  0.186600  0.305600  1.0  -0.2884
  C  C114  1  0.559600  0.132440  0.311700  1.0  0.1831
  C  C115  1  0.395200  0.138200  0.389700  1.0  0.1925
  C  C116  1  0.399100  0.193100  0.388900  1.0  -0.2396
  C  C117  1  0.722100  0.001430  0.522900  1.0  0.6703
  C  C118  1  0.866000  0.000360  0.511000  1.0  -0.1785
  C  C119  1  0.966900  0.973760  0.574400  1.0  -0.0251
  C  C120  1  0.099600  0.973450  0.564300  1.0  -0.0159
  C  C121  1  0.384100  0.004890  0.928800  1.0  0.0041
  C  C122  1  0.375500  0.011020  0.020700  1.0  -0.0265
  C  C123  1  0.492000  0.006280  0.092300  1.0  -0.1382
  C  C124  1  0.484500  0.013570  0.192000  1.0  0.6182
  C  C125  1  0.399700  0.088940  0.637900  1.0  0.1704
  C  C126  1  0.385300  0.143270  0.640600  1.0  -0.2906
  C  C127  1  0.498800  0.175680  0.647300  1.0  0.2663
  C  C128  1  0.624000  0.150550  0.654700  1.0  -0.2467
  C  C129  1  0.627200  0.095720  0.651500  1.0  0.177
  C  C130  1  0.573400  0.269740  0.644700  1.0  0.577
  C  C131  1  0.528700  0.326020  0.654700  1.0  -0.1241
  C  C132  1  0.393900  0.340770  0.644500  1.0  -0.0727
  C  C133  1  0.359200  0.393190  0.658200  1.0  -0.2503
  C  C134  1  0.461400  0.430590  0.682100  1.0  0.3017
  C  C135  1  0.595400  0.417120  0.691900  1.0  -0.2306
  C  C136  1  0.627800  0.364760  0.677100  1.0  0.0
  C  C137  1  0.472000  0.528090  0.689700  1.0  0.3066
  C  C138  1  0.434500  0.569270  0.740300  1.0  -0.2442
  C  C139  1  0.469800  0.620690  0.725000  1.0  -0.1292
  C  C140  1  0.542700  0.631900  0.658300  1.0  -0.1014
  C  C141  1  0.582700  0.589610  0.609400  1.0  -0.0375
  C  C142  1  0.544500  0.537880  0.624200  1.0  -0.222
  C  C143  1  0.582400  0.687460  0.636700  1.0  0.5768
  C  C144  1  0.514700  0.781300  0.654500  1.0  0.3026
  C  C145  1  0.432700  0.813400  0.694400  1.0  -0.2912
  C  C146  1  0.440400  0.867560  0.688300  1.0  0.1839
  C  C147  1  0.604800  0.861800  0.610300  1.0  0.1927
  C  C148  1  0.600900  0.806900  0.611100  1.0  -0.2381
  C  C149  1  0.277900  0.998570  0.477100  1.0  0.6695
  C  C150  1  0.134000  0.999640  0.489000  1.0  -0.1787
  C  C151  1  0.033100  0.026240  0.425600  1.0  -0.0249
  C  C152  1  0.900400  0.026550  0.435700  1.0  -0.0129
  C  C153  1  0.615900  0.995110  0.071200  1.0  0.0025
  C  C154  1  0.624500  0.988980  0.979300  1.0  -0.0242
  C  C155  1  0.508000  0.993720  0.907700  1.0  -0.1387
  C  C156  1  0.515500  0.986430  0.808000  1.0  0.6189
  C  C157  1  0.899700  0.411060  0.137900  1.0  0.1706
  C  C158  1  0.885300  0.356730  0.140600  1.0  -0.2902
  C  C159  1  0.998800  0.324320  0.147300  1.0  0.2662
  C  C160  1  0.124000  0.349450  0.154700  1.0  -0.2467
  C  C161  1  0.127200  0.404280  0.151500  1.0  0.1772
  C  C162  1  0.073400  0.230260  0.144700  1.0  0.5768
  C  C163  1  0.028700  0.173980  0.154700  1.0  -0.1243
  C  C164  1  0.893900  0.159230  0.144500  1.0  -0.0732
  C  C165  1  0.859200  0.106810  0.158200  1.0  -0.2511
  C  C166  1  0.961400  0.069410  0.182100  1.0  0.3017
  C  C167  1  0.095400  0.082880  0.191900  1.0  -0.2305
  C  C168  1  0.127800  0.135240  0.177100  1.0  -0.0005
  C  C169  1  0.972000  0.971910  0.189700  1.0  0.3067
  C  C170  1  0.934500  0.930730  0.240300  1.0  -0.2441
  C  C171  1  0.969800  0.879310  0.225000  1.0  -0.1287
  C  C172  1  0.042700  0.868100  0.158300  1.0  -0.1015
  C  C173  1  0.082700  0.910390  0.109400  1.0  -0.0379
  C  C174  1  0.044500  0.962120  0.124200  1.0  -0.2217
  C  C175  1  0.082400  0.812540  0.136700  1.0  0.5773
  C  C176  1  0.014700  0.718700  0.154500  1.0  0.3033
  C  C177  1  0.932700  0.686600  0.194400  1.0  -0.2927
  C  C178  1  0.940400  0.632440  0.188300  1.0  0.1836
  C  C179  1  0.104800  0.638200  0.110300  1.0  0.1928
  C  C180  1  0.100900  0.693100  0.111100  1.0  -0.2379
  C  C181  1  0.777900  0.501430  0.977100  1.0  0.6692
  C  C182  1  0.634000  0.500360  0.989000  1.0  -0.1786
  C  C183  1  0.533100  0.473760  0.925600  1.0  -0.0252
  C  C184  1  0.400400  0.473450  0.935700  1.0  -0.0142
  C  C185  1  0.115900  0.504890  0.571200  1.0  0.0029
  C  C186  1  0.124500  0.511020  0.479300  1.0  -0.0266
  C  C187  1  0.008000  0.506280  0.407700  1.0  -0.1385
  C  C188  1  0.015500  0.513570  0.308000  1.0  0.6186
  C  C189  1  0.100300  0.588940  0.862100  1.0  0.1706
  C  C190  1  0.114700  0.643270  0.859400  1.0  -0.2859
  C  C191  1  0.001200  0.675680  0.852700  1.0  0.2659
  C  C192  1  0.876000  0.650550  0.845300  1.0  -0.2463
  C  C193  1  0.872800  0.595720  0.848500  1.0  0.1775
  C  C194  1  0.926600  0.769740  0.855300  1.0  0.5767
  C  C195  1  0.971300  0.826020  0.845300  1.0  -0.124
  C  C196  1  0.106100  0.840770  0.855500  1.0  -0.0725
  C  C197  1  0.140800  0.893190  0.841800  1.0  -0.2519
  C  C198  1  0.038600  0.930590  0.817900  1.0  0.3017
  C  C199  1  0.904600  0.917120  0.808100  1.0  -0.2296
  C  C200  1  0.872200  0.864760  0.822900  1.0  0.0003
  C  C201  1  0.028000  0.028090  0.810300  1.0  0.3068
  C  C202  1  0.065500  0.069270  0.759700  1.0  -0.2469
  C  C203  1  0.030200  0.120690  0.775000  1.0  -0.1303
  C  C204  1  0.957300  0.131900  0.841700  1.0  -0.101
  C  C205  1  0.917300  0.089610  0.890600  1.0  -0.0368
  C  C206  1  0.955500  0.037880  0.875800  1.0  -0.2236
  C  C207  1  0.917600  0.187460  0.863300  1.0  0.5764
  C  C208  1  0.985300  0.281300  0.845500  1.0  0.3028
  C  C209  1  0.067300  0.313400  0.805600  1.0  -0.287
  C  C210  1  0.059600  0.367560  0.811700  1.0  0.1833
  C  C211  1  0.895200  0.361800  0.889700  1.0  0.1923
  C  C212  1  0.899100  0.306900  0.888900  1.0  -0.239
  C  C213  1  0.222100  0.498570  0.022900  1.0  0.6705
  C  C214  1  0.366000  0.499640  0.011000  1.0  -0.1789
  C  C215  1  0.466900  0.526240  0.074400  1.0  -0.0254
  C  C216  1  0.599600  0.526550  0.064300  1.0  -0.0145
  C  C217  1  0.884100  0.495110  0.428800  1.0  0.004
  C  C218  1  0.875500  0.488980  0.520700  1.0  -0.0235
  C  C219  1  0.992000  0.493720  0.592300  1.0  -0.1383
  C  C220  1  0.984500  0.486430  0.692000  1.0  0.6185
  N  N221  1  0.481600  0.935870  0.357600  1.0  -0.3157
  N  N222  1  0.520200  0.769200  0.351300  1.0  -0.3358
  N  N223  1  0.500500  0.273890  0.340000  1.0  -0.3491
  N  N224  1  0.473500  0.106940  0.351900  1.0  -0.3109
  N  N225  1  0.518400  0.064130  0.642400  1.0  -0.316
  N  N226  1  0.479800  0.230800  0.648700  1.0  -0.3361
  N  N227  1  0.499500  0.726110  0.660000  1.0  -0.349
  N  N228  1  0.526500  0.893060  0.648100  1.0  -0.3117
  N  N229  1  0.018400  0.435870  0.142400  1.0  -0.3152
  N  N230  1  0.979800  0.269200  0.148700  1.0  -0.3361
  N  N231  1  0.999500  0.773890  0.160000  1.0  -0.3487
  N  N232  1  0.026500  0.606940  0.148100  1.0  -0.3109
  N  N233  1  0.981600  0.564130  0.857600  1.0  -0.3165
  N  N234  1  0.020200  0.730800  0.851300  1.0  -0.3355
  N  N235  1  0.000500  0.226110  0.840000  1.0  -0.3491
  N  N236  1  0.973500  0.393060  0.851900  1.0  -0.3119
  O  O237  1  0.312000  0.740330  0.362200  1.0  -0.471
  O  O238  1  0.583200  0.520560  0.294000  1.0  -0.2892
  O  O239  1  0.323900  0.303310  0.398300  1.0  -0.4633
  O  O240  1  0.698700  0.976240  0.592170  1.0  -0.5863
  O  O241  1  0.636500  0.027440  0.465400  1.0  -0.6226
  O  O242  1  0.369800  0.017280  0.211990  1.0  -0.5756
  O  O243  1  0.592900  0.016190  0.253650  1.0  -0.5592
  O  O244  1  0.688000  0.259670  0.637800  1.0  -0.4714
  O  O245  1  0.416800  0.479440  0.706000  1.0  -0.288
  O  O246  1  0.676100  0.696690  0.601700  1.0  -0.4623
  O  O247  1  0.301300  0.023760  0.407830  1.0  -0.5865
  O  O248  1  0.363500  0.972560  0.534600  1.0  -0.6221
  O  O249  1  0.630200  0.982720  0.788010  1.0  -0.5738
  O  O250  1  0.407100  0.983810  0.746350  1.0  -0.5589
  O  O251  1  0.188000  0.240330  0.137800  1.0  -0.4711
  O  O252  1  0.916800  0.020560  0.206000  1.0  -0.2882
  O  O253  1  0.176100  0.803310  0.101700  1.0  -0.4625
  O  O254  1  0.801300  0.476240  0.907830  1.0  -0.5869
  O  O255  1  0.863500  0.527440  0.034600  1.0  -0.6225
  O  O256  1  0.130200  0.517280  0.288010  1.0  -0.5742
  O  O257  1  0.907100  0.516190  0.246350  1.0  -0.5592
  O  O258  1  0.812000  0.759670  0.862200  1.0  -0.4709
  O  O259  1  0.083200  0.979440  0.794000  1.0  -0.2892
  O  O260  1  0.823900  0.196690  0.898300  1.0  -0.4633
  O  O261  1  0.198700  0.523760  0.092170  1.0  -0.5859
  O  O262  1  0.136500  0.472560  0.965400  1.0  -0.6228
  O  O263  1  0.869800  0.482720  0.711990  1.0  -0.5753
  O  O264  1  0.092900  0.483810  0.753650  1.0  -0.5586
