# generated using pymatgen
data_CoH20C32N4O7
_symmetry_space_group_name_H-M   'P 1'
_cell_length_a   10.14200000
_cell_length_b   13.22200000
_cell_length_c   14.87200000
_cell_angle_alpha   109.01800000
_cell_angle_beta   101.88200000
_cell_angle_gamma   98.99900000
_symmetry_Int_Tables_number   1
_chemical_formula_structural   CoH20C32N4O7
_chemical_formula_sum   'Co2 H40 C64 N8 O14'
_cell_volume   1790.38969215
_cell_formula_units_Z   2
loop_
 _symmetry_equiv_pos_site_id
 _symmetry_equiv_pos_as_xyz
  1  'x, y, z'
loop_
 _atom_site_type_symbol
 _atom_site_label
 _atom_site_symmetry_multiplicity
 _atom_site_fract_x
 _atom_site_fract_y
 _atom_site_fract_z
 _atom_site_occupancy
 _atom_site_charge
  Co  Co1  1  0.530030  0.514700  0.148430  1.0  0.8704
  Co  Co2  1  0.469970  0.485300  0.851570  1.0  0.8712
  H  H3  1  0.805800  0.693200  0.247800  1.0  0.0728
  H  H4  1  0.891800  0.875800  0.340200  1.0  0.1313
  H  H5  1  0.499700  0.904700  0.311700  1.0  0.1323
  H  H6  1  0.428200  0.722400  0.224000  1.0  0.071
  H  H7  1  0.031200  0.287600  0.457900  1.0  0.108
  H  H8  1  0.049600  0.460500  0.568100  1.0  0.1322
  H  H9  1  0.781200  0.329400  0.686400  1.0  0.1283
  H  H10  1  0.757200  0.158700  0.572100  1.0  0.1108
  H  H11  1  0.179700  0.560400  0.730800  1.0  0.1221
  H  H12  1  0.320000  0.734700  0.788400  1.0  0.1072
  H  H13  1  0.991400  0.864100  0.809400  1.0  0.126
  H  H14  1  0.850300  0.690600  0.744100  1.0  0.1264
  H  H15  1  0.478300  0.120100  0.922700  1.0  0.1335
  H  H16  1  0.579000  0.299500  0.009100  1.0  0.0698
  H  H17  1  0.274300  0.342700  0.122900  1.0  0.0772
  H  H18  1  0.167400  0.160600  0.044900  1.0  0.1228
  H  H19  1  0.690300  0.466600  0.445300  1.0  0.0995
  H  H20  1  0.323700  0.539500  0.403700  1.0  0.0904
  H  H21  1  0.958900  0.529900  0.152500  1.0  0.1007
  H  H22  1  0.180200  0.534100  0.137300  1.0  0.0943
  H  H23  1  0.194200  0.306800  0.752200  1.0  0.0725
  H  H24  1  0.108200  0.124200  0.659800  1.0  0.1328
  H  H25  1  0.500300  0.095300  0.688300  1.0  0.1312
  H  H26  1  0.571800  0.277600  0.776000  1.0  0.0712
  H  H27  1  0.968800  0.712400  0.542100  1.0  0.1075
  H  H28  1  0.950400  0.539500  0.431900  1.0  0.1328
  H  H29  1  0.218800  0.670600  0.313600  1.0  0.1285
  H  H30  1  0.242800  0.841300  0.427900  1.0  0.1109
  H  H31  1  0.820300  0.439600  0.269200  1.0  0.1228
  H  H32  1  0.680000  0.265300  0.211600  1.0  0.1085
  H  H33  1  0.008600  0.135900  0.190600  1.0  0.1264
  H  H34  1  0.149700  0.309400  0.255900  1.0  0.1269
  H  H35  1  0.521700  0.879900  0.077300  1.0  0.1344
  H  H36  1  0.421000  0.700500  0.990900  1.0  0.0688
  H  H37  1  0.725700  0.657300  0.877100  1.0  0.0767
  H  H38  1  0.832600  0.839400  0.955100  1.0  0.1227
  H  H39  1  0.309700  0.533400  0.554700  1.0  0.0988
  H  H40  1  0.676300  0.460500  0.596300  1.0  0.0902
  H  H41  1  0.041100  0.470100  0.847500  1.0  0.0992
  H  H42  1  0.819800  0.465900  0.862700  1.0  0.0935
  C  C43  1  0.743300  0.736800  0.261000  1.0  0.1905
  C  C44  1  0.796300  0.846600  0.316600  1.0  -0.2248
  C  C45  1  0.705800  0.913700  0.337100  1.0  0.2504
  C  C46  1  0.564900  0.863300  0.300000  1.0  -0.2162
  C  C47  1  0.523200  0.754000  0.246800  1.0  0.1865
  C  C48  1  0.875600  0.094300  0.424900  1.0  0.6011
  C  C49  1  0.978200  0.296200  0.502800  1.0  -0.014
  C  C50  1  0.991200  0.399500  0.569100  1.0  -0.2439
  C  C51  1  0.915900  0.411300  0.637500  1.0  0.2842
  C  C52  1  0.830100  0.321100  0.639000  1.0  -0.1964
  C  C53  1  0.816600  0.219100  0.570800  1.0  -0.0832
  C  C54  1  0.888400  0.203000  0.500100  1.0  -0.0588
  C  C55  1  0.001200  0.609900  0.731400  1.0  0.3209
  C  C56  1  0.142200  0.621700  0.745700  1.0  -0.2751
  C  C57  1  0.225400  0.725900  0.782200  1.0  -0.003
  C  C58  1  0.173500  0.818500  0.810100  1.0  -0.0829
  C  C59  1  0.029600  0.803300  0.793700  1.0  -0.0796
  C  C60  1  0.945800  0.700200  0.754900  1.0  -0.2284
  C  C61  1  0.272700  0.929000  0.853200  1.0  0.6008
  C  C62  1  0.306800  0.117900  0.972000  1.0  0.3188
  C  C63  1  0.434100  0.163400  0.963600  1.0  -0.2511
  C  C64  1  0.493000  0.271500  0.015600  1.0  0.1919
  C  C65  1  0.317300  0.297100  0.082800  1.0  0.1856
  C  C66  1  0.251100  0.187600  0.034700  1.0  -0.2175
  C  C67  1  0.515400  0.506700  0.311900  1.0  0.6522
  C  C68  1  0.507600  0.502600  0.408700  1.0  -0.108
  C  C69  1  0.612700  0.480000  0.466800  1.0  -0.0297
  C  C70  1  0.395600  0.523200  0.442300  1.0  -0.0469
  C  C71  1  0.975500  0.517700  0.091100  1.0  -0.0335
  C  C72  1  0.107700  0.520500  0.081900  1.0  -0.0157
  C  C73  1  0.134200  0.503600  0.991900  1.0  -0.1333
  C  C74  1  0.279800  0.512000  0.982500  1.0  0.6697
  C  C75  1  0.256700  0.263200  0.739000  1.0  0.1913
  C  C76  1  0.203700  0.153400  0.683400  1.0  -0.2231
  C  C77  1  0.294200  0.086300  0.662900  1.0  0.2501
  C  C78  1  0.435100  0.136700  0.700000  1.0  -0.2146
  C  C79  1  0.476800  0.246000  0.753200  1.0  0.1861
  C  C80  1  0.124400  0.905700  0.575100  1.0  0.6004
  C  C81  1  0.021800  0.703800  0.497200  1.0  -0.0124
  C  C82  1  0.008800  0.600500  0.430900  1.0  -0.2447
  C  C83  1  0.084100  0.588700  0.362500  1.0  0.2833
  C  C84  1  0.169900  0.678900  0.361000  1.0  -0.1947
  C  C85  1  0.183400  0.780900  0.429200  1.0  -0.0851
  C  C86  1  0.111600  0.797000  0.499900  1.0  -0.0568
  C  C87  1  0.998800  0.390100  0.268600  1.0  0.3213
  C  C88  1  0.857800  0.378300  0.254300  1.0  -0.2751
  C  C89  1  0.774600  0.274100  0.217800  1.0  -0.0004
  C  C90  1  0.826500  0.181500  0.189900  1.0  -0.0856
  C  C91  1  0.970400  0.196700  0.206300  1.0  -0.0811
  C  C92  1  0.054200  0.299800  0.245100  1.0  -0.2276
  C  C93  1  0.727300  0.071000  0.146800  1.0  0.6006
  C  C94  1  0.693200  0.882100  0.028000  1.0  0.3181
  C  C95  1  0.565900  0.836600  0.036400  1.0  -0.2521
  C  C96  1  0.507000  0.728500  0.984400  1.0  0.1932
  C  C97  1  0.682700  0.702900  0.917200  1.0  0.1865
  C  C98  1  0.748900  0.812400  0.965300  1.0  -0.2188
  C  C99  1  0.484600  0.493300  0.688100  1.0  0.6515
  C  C100  1  0.492400  0.497400  0.591300  1.0  -0.1077
  C  C101  1  0.387300  0.520000  0.533200  1.0  -0.0269
  C  C102  1  0.604400  0.476800  0.557700  1.0  -0.049
  C  C103  1  0.024500  0.482300  0.908900  1.0  -0.0325
  C  C104  1  0.892300  0.479500  0.918100  1.0  -0.0135
  C  C105  1  0.865800  0.496400  0.008100  1.0  -0.1327
  C  C106  1  0.720200  0.488000  0.017500  1.0  0.6685
  N  N107  1  0.607800  0.687900  0.224400  1.0  -0.3006
  N  N108  1  0.744500  0.025300  0.396400  1.0  -0.3747
  N  N109  1  0.232700  0.009600  0.921500  1.0  -0.3891
  N  N110  1  0.439200  0.341700  0.075400  1.0  -0.3069
  N  N111  1  0.392200  0.312100  0.775600  1.0  -0.3006
  N  N112  1  0.255500  0.974700  0.603600  1.0  -0.3787
  N  N113  1  0.767300  0.990400  0.078500  1.0  -0.3924
  N  N114  1  0.560800  0.658300  0.924600  1.0  -0.3071
  O  O115  1  0.969100  0.068000  0.390800  1.0  -0.4751
  O  O116  1  0.908600  0.510400  0.703300  1.0  -0.2722
  O  O117  1  0.381500  0.943900  0.833100  1.0  -0.4696
  O  O118  1  0.621500  0.493800  0.283100  1.0  -0.5647
  O  O119  1  0.413100  0.521800  0.257700  1.0  -0.5593
  O  O120  1  0.375200  0.544400  0.060500  1.0  -0.633
  O  O121  1  0.296400  0.488300  0.897200  1.0  -0.5921
  O  O122  1  0.030900  0.932000  0.609200  1.0  -0.4751
  O  O123  1  0.091400  0.489600  0.296700  1.0  -0.2734
  O  O124  1  0.618500  0.056100  0.166900  1.0  -0.4689
  O  O125  1  0.378500  0.506200  0.716900  1.0  -0.5649
  O  O126  1  0.586900  0.478200  0.742300  1.0  -0.5603
  O  O127  1  0.624800  0.455600  0.939500  1.0  -0.6314
  O  O128  1  0.703600  0.511700  0.102800  1.0  -0.5915
