# generated using pymatgen
data_CoH20C32N4O7
_symmetry_space_group_name_H-M   'P 1'
_cell_length_a   10.11900000
_cell_length_b   13.67100000
_cell_length_c   15.00900000
_cell_angle_alpha   111.27100000
_cell_angle_beta   101.92600000
_cell_angle_gamma   99.46100000
_symmetry_Int_Tables_number   1
_chemical_formula_structural   CoH20C32N4O7
_chemical_formula_sum   'Co2 H40 C64 N8 O14'
_cell_volume   1826.69616563
_cell_formula_units_Z   2
loop_
 _symmetry_equiv_pos_site_id
 _symmetry_equiv_pos_as_xyz
  1  'x, y, z'
loop_
 _atom_site_type_symbol
 _atom_site_label
 _atom_site_symmetry_multiplicity
 _atom_site_fract_x
 _atom_site_fract_y
 _atom_site_fract_z
 _atom_site_occupancy
 _atom_site_charge
  Co  Co1  1  0.530410  0.511560  0.150170  1.0  0.8586
  Co  Co2  1  0.469590  0.488440  0.849830  1.0  0.859
  H  H3  1  0.812100  0.692700  0.251400  1.0  0.0754
  H  H4  1  0.900000  0.876600  0.345800  1.0  0.1319
  H  H5  1  0.502200  0.897700  0.314800  1.0  0.1395
  H  H6  1  0.430000  0.713400  0.223800  1.0  0.0819
  H  H7  1  0.021800  0.282100  0.450300  1.0  0.1078
  H  H8  1  0.040900  0.455700  0.561800  1.0  0.1193
  H  H9  1  0.792800  0.333333  0.691300  1.0  0.12
  H  H10  1  0.769800  0.160300  0.578900  1.0  0.1196
  H  H11  1  0.183200  0.563200  0.731600  1.0  0.1219
  H  H12  1  0.325500  0.737200  0.792100  1.0  0.1063
  H  H13  1  0.994500  0.859500  0.812600  1.0  0.1135
  H  H14  1  0.848500  0.685900  0.743200  1.0  0.1312
  H  H15  1  0.447200  0.125600  0.898800  1.0  0.1146
  H  H16  1  0.548500  0.304600  0.983700  1.0  0.0716
  H  H17  1  0.300000  0.332700  0.147900  1.0  0.0784
  H  H18  1  0.197700  0.151900  0.072900  1.0  0.1323
  H  H19  1  0.692800  0.470100  0.446000  1.0  0.1006
  H  H20  1  0.680000  0.464600  0.594900  1.0  0.0912
  H  H21  1  0.819800  0.479400  0.865400  1.0  0.1057
  H  H22  1  0.043200  0.486100  0.851500  1.0  0.0933
  H  H23  1  0.187900  0.307300  0.748600  1.0  0.0751
  H  H24  1  0.100000  0.123400  0.654200  1.0  0.1315
  H  H25  1  0.497800  0.102300  0.685200  1.0  0.1387
  H  H26  1  0.570000  0.286600  0.776200  1.0  0.0827
  H  H27  1  0.978200  0.717900  0.549700  1.0  0.1083
  H  H28  1  0.959100  0.544300  0.438200  1.0  0.1188
  H  H29  1  0.207200  0.666667  0.308700  1.0  0.12
  H  H30  1  0.230200  0.839700  0.421100  1.0  0.1195
  H  H31  1  0.816800  0.436800  0.268400  1.0  0.1206
  H  H32  1  0.674500  0.262800  0.207900  1.0  0.1063
  H  H33  1  0.005500  0.140500  0.187400  1.0  0.1142
  H  H34  1  0.151500  0.314100  0.256800  1.0  0.131
  H  H35  1  0.552800  0.874400  0.101200  1.0  0.1142
  H  H36  1  0.451500  0.695400  0.016300  1.0  0.071
  H  H37  1  0.700000  0.667300  0.852100  1.0  0.0781
  H  H38  1  0.802300  0.848100  0.927100  1.0  0.1322
  H  H39  1  0.307200  0.529900  0.554000  1.0  0.1001
  H  H40  1  0.320000  0.535400  0.405100  1.0  0.0921
  H  H41  1  0.180200  0.520600  0.134600  1.0  0.1063
  H  H42  1  0.956800  0.513900  0.148500  1.0  0.0925
  C  C43  1  0.749300  0.734800  0.265000  1.0  0.189
  C  C44  1  0.803900  0.845600  0.322000  1.0  -0.2285
  C  C45  1  0.710600  0.908800  0.342400  1.0  0.255
  C  C46  1  0.567700  0.857700  0.303600  1.0  -0.2139
  C  C47  1  0.525600  0.746700  0.248400  1.0  0.1904
  C  C48  1  0.877300  0.091200  0.426400  1.0  0.6228
  C  C49  1  0.891400  0.202900  0.501500  1.0  -0.1074
  C  C50  1  0.974100  0.292400  0.498300  1.0  -0.0251
  C  C51  1  0.986400  0.396000  0.565000  1.0  -0.2154
  C  C52  1  0.917300  0.410600  0.636600  1.0  0.3231
  C  C53  1  0.838000  0.322700  0.641800  1.0  -0.2158
  C  C54  1  0.824400  0.219400  0.574900  1.0  -0.0888
  C  C55  1  0.002600  0.608400  0.731000  1.0  0.2976
  C  C56  1  0.145300  0.622700  0.746500  1.0  -0.2348
  C  C57  1  0.230000  0.726700  0.784300  1.0  -0.0138
  C  C58  1  0.175000  0.816600  0.811200  1.0  -0.1056
  C  C59  1  0.032200  0.799900  0.795400  1.0  -0.0547
  C  C60  1  0.944700  0.696600  0.754700  1.0  -0.2369
  C  C61  1  0.274000  0.926800  0.854500  1.0  0.6019
  C  C62  1  0.309300  0.115200  0.975000  1.0  0.3015
  C  C63  1  0.415500  0.165900  0.950700  1.0  -0.2131
  C  C64  1  0.474900  0.273900  0.001600  1.0  0.1915
  C  C65  1  0.332000  0.289900  0.097300  1.0  0.1924
  C  C66  1  0.268500  0.181300  0.051900  1.0  -0.2034
  C  C67  1  0.516700  0.507900  0.313100  1.0  0.6441
  C  C68  1  0.509400  0.504100  0.410400  1.0  -0.1277
  C  C69  1  0.615000  0.482400  0.467700  1.0  -0.0126
  C  C70  1  0.607100  0.478700  0.556500  1.0  -0.0249
  C  C71  1  0.891800  0.488100  0.919600  1.0  -0.0436
  C  C72  1  0.026100  0.491300  0.911300  1.0  0.0062
  C  C73  1  0.135400  0.502200  0.989900  1.0  -0.1229
  C  C74  1  0.279900  0.510200  0.981500  1.0  0.6772
  C  C75  1  0.250700  0.265200  0.735000  1.0  0.1901
  C  C76  1  0.196100  0.154400  0.678000  1.0  -0.2281
  C  C77  1  0.289400  0.091200  0.657600  1.0  0.2552
  C  C78  1  0.432300  0.142300  0.696400  1.0  -0.2144
  C  C79  1  0.474400  0.253300  0.751600  1.0  0.1898
  C  C80  1  0.122700  0.908800  0.573600  1.0  0.6227
  C  C81  1  0.108600  0.797100  0.498500  1.0  -0.1062
  C  C82  1  0.025900  0.707600  0.501700  1.0  -0.0219
  C  C83  1  0.013600  0.604000  0.435000  1.0  -0.2164
  C  C84  1  0.082700  0.589400  0.363400  1.0  0.322
  C  C85  1  0.162000  0.677300  0.358200  1.0  -0.2172
  C  C86  1  0.175600  0.780600  0.425100  1.0  -0.0897
  C  C87  1  0.997400  0.391600  0.269000  1.0  0.2971
  C  C88  1  0.854700  0.377300  0.253500  1.0  -0.2378
  C  C89  1  0.770000  0.273300  0.215700  1.0  -0.012
  C  C90  1  0.825000  0.183400  0.188800  1.0  -0.1066
  C  C91  1  0.967800  0.200100  0.204600  1.0  -0.0556
  C  C92  1  0.055300  0.303400  0.245300  1.0  -0.2389
  C  C93  1  0.726000  0.073200  0.145500  1.0  0.6029
  C  C94  1  0.690700  0.884800  0.025000  1.0  0.3017
  C  C95  1  0.584500  0.834100  0.049300  1.0  -0.2136
  C  C96  1  0.525100  0.726100  0.998400  1.0  0.1926
  C  C97  1  0.668000  0.710100  0.902700  1.0  0.1923
  C  C98  1  0.731500  0.818700  0.948100  1.0  -0.2033
  C  C99  1  0.483300  0.492100  0.686900  1.0  0.6444
  C  C100  1  0.490600  0.495900  0.589600  1.0  -0.1283
  C  C101  1  0.385000  0.517600  0.532300  1.0  -0.0121
  C  C102  1  0.392900  0.521300  0.443500  1.0  -0.0251
  C  C103  1  0.108200  0.511900  0.080400  1.0  -0.045
  C  C104  1  0.973900  0.508700  0.088700  1.0  0.0057
  C  C105  1  0.864600  0.497800  0.010100  1.0  -0.1229
  C  C106  1  0.720100  0.489800  0.018500  1.0  0.6772
  N  N107  1  0.612300  0.684200  0.228100  1.0  -0.3011
  N  N108  1  0.750100  0.020600  0.401400  1.0  -0.3947
  N  N109  1  0.238000  0.005600  0.926500  1.0  -0.4063
  N  N110  1  0.435800  0.339000  0.074900  1.0  -0.3016
  N  N111  1  0.387700  0.315800  0.771900  1.0  -0.3019
  N  N112  1  0.249900  0.979400  0.598600  1.0  -0.3966
  N  N113  1  0.762000  0.994400  0.073500  1.0  -0.4087
  N  N114  1  0.564200  0.661000  0.925100  1.0  -0.3003
  O  O115  1  0.970900  0.067100  0.390400  1.0  -0.5019
  O  O116  1  0.908800  0.508600  0.701600  1.0  -0.2675
  O  O117  1  0.380000  0.943400  0.829900  1.0  -0.4795
  O  O118  1  0.623600  0.495500  0.285500  1.0  -0.584
  O  O119  1  0.415200  0.524400  0.261200  1.0  -0.5643
  O  O120  1  0.377400  0.536500  0.058800  1.0  -0.6235
  O  O121  1  0.295500  0.493700  0.896400  1.0  -0.5865
  O  O122  1  0.029100  0.932900  0.609600  1.0  -0.5026
  O  O123  1  0.091200  0.491400  0.298400  1.0  -0.269
  O  O124  1  0.620000  0.056600  0.170100  1.0  -0.4799
  O  O125  1  0.376400  0.504500  0.714500  1.0  -0.5832
  O  O126  1  0.584800  0.475600  0.738800  1.0  -0.5655
  O  O127  1  0.622600  0.463500  0.941200  1.0  -0.6237
  O  O128  1  0.704500  0.506300  0.103600  1.0  -0.587
