# generated using pymatgen
data_MnH14C15N5O4
_symmetry_space_group_name_H-M   'P 1'
_cell_length_a   14.15610000
_cell_length_b   10.52390000
_cell_length_c   27.03300000
_cell_angle_alpha   90.00000000
_cell_angle_beta   100.64900000
_cell_angle_gamma   90.00000000
_symmetry_Int_Tables_number   1
_chemical_formula_structural   MnH14C15N5O4
_chemical_formula_sum   'Mn8 H112 C120 N40 O32'
_cell_volume   3957.94595977
_cell_formula_units_Z   8
loop_
 _symmetry_equiv_pos_site_id
 _symmetry_equiv_pos_as_xyz
  1  'x, y, z'
loop_
 _atom_site_type_symbol
 _atom_site_label
 _atom_site_symmetry_multiplicity
 _atom_site_fract_x
 _atom_site_fract_y
 _atom_site_fract_z
 _atom_site_occupancy
 _atom_site_charge
  Mn  Mn1  1  0.252620  0.607630  0.489190  1.0  1.1772
  Mn  Mn2  1  0.747380  0.107630  0.010810  1.0  1.176
  Mn  Mn3  1  0.747380  0.392370  0.510810  1.0  1.1758
  Mn  Mn4  1  0.252620  0.892370  0.989190  1.0  1.1768
  Mn  Mn5  1  0.500000  0.500000  0.500000  1.0  1.1173
  Mn  Mn6  1  0.500000  0.000000  0.000000  1.0  1.1173
  Mn  Mn7  1  0.000000  0.000000  0.000000  1.0  1.1054
  Mn  Mn8  1  0.000000  0.500000  0.500000  1.0  1.1054
  H  H9  1  0.426900  0.321800  0.345600  1.0  0.0944
  H  H10  1  0.370300  0.233600  0.268700  1.0  0.0992
  H  H11  1  0.119500  0.390800  0.264100  1.0  0.0779
  H  H12  1  0.168300  0.477800  0.342600  1.0  0.1111
  H  H13  1  0.139200  0.216700  0.207900  1.0  0.0693
  H  H14  1  0.245000  0.184900  0.202100  1.0  0.072
  H  H15  1  0.262000  0.376000  0.164400  1.0  0.0597
  H  H16  1  0.168100  0.430200  0.179700  1.0  0.0607
  H  H17  1  0.173600  0.238900  0.106700  1.0  0.0695
  H  H18  1  0.078200  0.274300  0.125400  1.0  0.0658
  H  H19  1  0.225300  0.364700  0.045500  1.0  0.0973
  H  H20  1  0.202100  0.532400  0.989700  1.0  0.0777
  H  H21  1  0.991400  0.657900  0.056900  1.0  0.0733
  H  H22  1  0.016200  0.492700  0.110600  1.0  0.1163
  H  H23  1  0.383800  0.980100  0.557300  1.0  0.0949
  H  H24  1  0.478600  0.138100  0.597700  1.0  0.0958
  H  H25  1  0.712600  0.953400  0.582400  1.0  0.108
  H  H26  1  0.621700  0.794900  0.538500  1.0  0.0881
  H  H27  1  0.632200  0.246000  0.610400  1.0  0.0602
  H  H28  1  0.725500  0.165400  0.609300  1.0  0.0674
  H  H29  1  0.703500  0.060400  0.683200  1.0  0.0712
  H  H30  1  0.612000  0.143600  0.684500  1.0  0.0725
  H  H31  1  0.795100  0.257900  0.690100  1.0  0.0768
  H  H32  1  0.702900  0.325200  0.702300  1.0  0.0779
  H  H33  1  0.633300  0.174000  0.768800  1.0  0.1047
  H  H34  1  0.674900  0.124700  0.852800  1.0  0.1028
  H  H35  1  0.950600  0.159200  0.841700  1.0  0.0872
  H  H36  1  0.902600  0.227500  0.760000  1.0  0.1043
  H  H37  1  0.573100  0.821800  0.154400  1.0  0.0951
  H  H38  1  0.629700  0.733600  0.231300  1.0  0.0993
  H  H39  1  0.880500  0.890800  0.235900  1.0  0.0782
  H  H40  1  0.831700  0.977800  0.157400  1.0  0.1116
  H  H41  1  0.860800  0.716700  0.292100  1.0  0.0691
  H  H42  1  0.755000  0.684900  0.297900  1.0  0.0722
  H  H43  1  0.738000  0.876000  0.335600  1.0  0.0602
  H  H44  1  0.831900  0.930200  0.320300  1.0  0.0615
  H  H45  1  0.826400  0.738900  0.393300  1.0  0.0709
  H  H46  1  0.921800  0.774300  0.374600  1.0  0.0652
  H  H47  1  0.774700  0.864700  0.454500  1.0  0.0972
  H  H48  1  0.797900  0.032400  0.510300  1.0  0.0773
  H  H49  1  0.008600  0.157900  0.443100  1.0  0.0736
  H  H50  1  0.983800  0.992700  0.389400  1.0  0.117
  H  H51  1  0.616200  0.480100  0.942700  1.0  0.095
  H  H52  1  0.521400  0.638100  0.902300  1.0  0.0958
  H  H53  1  0.287400  0.453400  0.917600  1.0  0.1068
  H  H54  1  0.378300  0.294900  0.961500  1.0  0.0881
  H  H55  1  0.367800  0.746000  0.889600  1.0  0.0598
  H  H56  1  0.274500  0.665400  0.890700  1.0  0.0688
  H  H57  1  0.296500  0.560400  0.816800  1.0  0.0715
  H  H58  1  0.388000  0.643600  0.815500  1.0  0.0754
  H  H59  1  0.204900  0.757900  0.809900  1.0  0.0758
  H  H60  1  0.297100  0.825200  0.797700  1.0  0.0775
  H  H61  1  0.366700  0.674000  0.731200  1.0  0.105
  H  H62  1  0.325100  0.624700  0.647200  1.0  0.1032
  H  H63  1  0.049400  0.659200  0.658300  1.0  0.088
  H  H64  1  0.097400  0.727500  0.740000  1.0  0.1033
  H  H65  1  0.573100  0.678200  0.654400  1.0  0.0952
  H  H66  1  0.629700  0.766400  0.731300  1.0  0.0992
  H  H67  1  0.880500  0.609200  0.735900  1.0  0.0781
  H  H68  1  0.831700  0.522200  0.657400  1.0  0.1115
  H  H69  1  0.860800  0.783300  0.792100  1.0  0.0704
  H  H70  1  0.755000  0.815100  0.797900  1.0  0.0713
  H  H71  1  0.738000  0.624000  0.835600  1.0  0.0608
  H  H72  1  0.831900  0.569800  0.820300  1.0  0.0598
  H  H73  1  0.826400  0.761100  0.893300  1.0  0.0699
  H  H74  1  0.921800  0.725700  0.874600  1.0  0.0654
  H  H75  1  0.774700  0.635300  0.954500  1.0  0.0978
  H  H76  1  0.797900  0.467600  0.010300  1.0  0.0774
  H  H77  1  0.008600  0.342100  0.943100  1.0  0.0732
  H  H78  1  0.983800  0.507300  0.889400  1.0  0.1168
  H  H79  1  0.616200  0.019900  0.442700  1.0  0.0949
  H  H80  1  0.521400  0.861900  0.402300  1.0  0.0957
  H  H81  1  0.287400  0.046600  0.417600  1.0  0.1071
  H  H82  1  0.378300  0.205100  0.461500  1.0  0.0884
  H  H83  1  0.367800  0.754000  0.389600  1.0  0.0607
  H  H84  1  0.274500  0.834600  0.390700  1.0  0.0688
  H  H85  1  0.296500  0.939600  0.316800  1.0  0.0704
  H  H86  1  0.388000  0.856400  0.315500  1.0  0.0757
  H  H87  1  0.204900  0.742100  0.309900  1.0  0.0759
  H  H88  1  0.297100  0.674800  0.297700  1.0  0.0764
  H  H89  1  0.366700  0.826000  0.231200  1.0  0.105
  H  H90  1  0.325100  0.875300  0.147200  1.0  0.1032
  H  H91  1  0.049400  0.840800  0.158300  1.0  0.0881
  H  H92  1  0.097400  0.772500  0.240000  1.0  0.1036
  H  H93  1  0.426900  0.178200  0.845600  1.0  0.0943
  H  H94  1  0.370300  0.266400  0.768700  1.0  0.0996
  H  H95  1  0.119500  0.109200  0.764100  1.0  0.0778
  H  H96  1  0.168300  0.022200  0.842600  1.0  0.1113
  H  H97  1  0.139200  0.283300  0.707900  1.0  0.0685
  H  H98  1  0.245000  0.315100  0.702100  1.0  0.071
  H  H99  1  0.262000  0.124000  0.664400  1.0  0.06
  H  H100  1  0.168100  0.069800  0.679700  1.0  0.0616
  H  H101  1  0.173600  0.261100  0.606700  1.0  0.0696
  H  H102  1  0.078200  0.225700  0.625400  1.0  0.0662
  H  H103  1  0.225300  0.135300  0.545500  1.0  0.0981
  H  H104  1  0.202100  0.967600  0.489700  1.0  0.0777
  H  H105  1  0.991400  0.842100  0.556900  1.0  0.0734
  H  H106  1  0.016200  0.007300  0.610600  1.0  0.1161
  H  H107  1  0.383800  0.519900  0.057300  1.0  0.0949
  H  H108  1  0.478600  0.361900  0.097700  1.0  0.0959
  H  H109  1  0.712600  0.546600  0.082400  1.0  0.1082
  H  H110  1  0.621700  0.705100  0.038500  1.0  0.0884
  H  H111  1  0.632200  0.254000  0.110400  1.0  0.0605
  H  H112  1  0.725500  0.334600  0.109300  1.0  0.0675
  H  H113  1  0.703500  0.439600  0.183200  1.0  0.0709
  H  H114  1  0.612000  0.356400  0.184500  1.0  0.0726
  H  H115  1  0.795100  0.242100  0.190100  1.0  0.0765
  H  H116  1  0.702900  0.174800  0.202300  1.0  0.0768
  H  H117  1  0.633300  0.326000  0.268800  1.0  0.1048
  H  H118  1  0.674900  0.375300  0.352800  1.0  0.1026
  H  H119  1  0.950600  0.340800  0.341700  1.0  0.0872
  H  H120  1  0.902600  0.272500  0.260000  1.0  0.1041
  C  C121  1  0.340800  0.475300  0.403300  1.0  0.6704
  C  C122  1  0.305000  0.413000  0.352100  1.0  -0.1528
  C  C123  1  0.364000  0.337200  0.329600  1.0  -0.0994
  C  C124  1  0.330100  0.284900  0.283700  1.0  0.0446
  C  C125  1  0.182000  0.376700  0.281100  1.0  0.0344
  C  C126  1  0.211000  0.430600  0.327700  1.0  -0.1872
  C  C127  1  0.202700  0.252500  0.208900  1.0  -0.0057
  C  C128  1  0.197600  0.354300  0.169000  1.0  -0.1198
  C  C129  1  0.139400  0.307200  0.119800  1.0  -0.0236
  C  C130  1  0.178100  0.425100  0.047500  1.0  -0.0169
  C  C131  1  0.164800  0.526000  0.014500  1.0  -0.0748
  C  C132  1  0.095700  0.618800  0.018100  1.0  -0.0757
  C  C133  1  0.040000  0.600100  0.054400  1.0  -0.1087
  C  C134  1  0.053900  0.501500  0.086100  1.0  0.0058
  C  C135  1  0.081000  0.730700  0.983500  1.0  0.6415
  C  C136  1  0.431600  0.770700  0.511300  1.0  0.668
  C  C137  1  0.492300  0.871300  0.542500  1.0  -0.1355
  C  C138  1  0.450400  0.974400  0.561300  1.0  -0.1061
  C  C139  1  0.507000  0.067600  0.585800  1.0  0.0364
  C  C140  1  0.645900  0.958900  0.576400  1.0  0.0281
  C  C141  1  0.591800  0.863900  0.550600  1.0  -0.0735
  C  C142  1  0.663100  0.164700  0.619300  1.0  0.023
  C  C143  1  0.674700  0.143200  0.674900  1.0  -0.0884
  C  C144  1  0.737700  0.245400  0.704400  1.0  -0.0159
  C  C145  1  0.697700  0.173900  0.784400  1.0  0.0072
  C  C146  1  0.722500  0.141700  0.834200  1.0  -0.1034
  C  C147  1  0.817400  0.134600  0.856700  1.0  -0.096
  C  C148  1  0.885500  0.164800  0.827900  1.0  -0.0757
  C  C149  1  0.856900  0.203000  0.778700  1.0  0.0224
  C  C150  1  0.846800  0.101200  0.911200  1.0  0.6796
  C  C151  1  0.659200  0.975300  0.096700  1.0  0.6701
  C  C152  1  0.695000  0.913000  0.147900  1.0  -0.1515
  C  C153  1  0.636000  0.837200  0.170400  1.0  -0.0985
  C  C154  1  0.669900  0.784900  0.216300  1.0  0.0448
  C  C155  1  0.818000  0.876700  0.218900  1.0  0.0349
  C  C156  1  0.789000  0.930600  0.172300  1.0  -0.1897
  C  C157  1  0.797300  0.752500  0.291100  1.0  -0.0048
  C  C158  1  0.802400  0.854300  0.331000  1.0  -0.1183
  C  C159  1  0.860600  0.807200  0.380200  1.0  -0.023
  C  C160  1  0.821900  0.925100  0.452500  1.0  -0.0178
  C  C161  1  0.835200  0.026000  0.485500  1.0  -0.0726
  C  C162  1  0.904300  0.118800  0.481900  1.0  -0.0764
  C  C163  1  0.960000  0.100100  0.445600  1.0  -0.1097
  C  C164  1  0.946100  0.001500  0.413900  1.0  0.0034
  C  C165  1  0.919000  0.230700  0.516500  1.0  0.6399
  C  C166  1  0.568400  0.270700  0.988700  1.0  0.6678
  C  C167  1  0.507700  0.371300  0.957500  1.0  -0.1346
  C  C168  1  0.549600  0.474400  0.938700  1.0  -0.1073
  C  C169  1  0.493000  0.567600  0.914200  1.0  0.035
  C  C170  1  0.354100  0.458900  0.923600  1.0  0.027
  C  C171  1  0.408200  0.363900  0.949400  1.0  -0.0741
  C  C172  1  0.336900  0.664700  0.880700  1.0  0.0234
  C  C173  1  0.325300  0.643200  0.825100  1.0  -0.0896
  C  C174  1  0.262300  0.745400  0.795600  1.0  -0.0156
  C  C175  1  0.302300  0.673900  0.715600  1.0  0.004
  C  C176  1  0.277500  0.641700  0.665800  1.0  -0.1052
  C  C177  1  0.182600  0.634600  0.643300  1.0  -0.0959
  C  C178  1  0.114500  0.664800  0.672100  1.0  -0.0754
  C  C179  1  0.143100  0.703000  0.721300  1.0  0.0232
  C  C180  1  0.153200  0.601200  0.588800  1.0  0.6795
  C  C181  1  0.659200  0.524700  0.596700  1.0  0.6697
  C  C182  1  0.695000  0.587000  0.647900  1.0  -0.1521
  C  C183  1  0.636000  0.662800  0.670400  1.0  -0.0982
  C  C184  1  0.669900  0.715100  0.716300  1.0  0.0454
  C  C185  1  0.818000  0.623300  0.718900  1.0  0.034
  C  C186  1  0.789000  0.569400  0.672300  1.0  -0.1896
  C  C187  1  0.797300  0.747500  0.791100  1.0  -0.0038
  C  C188  1  0.802400  0.645700  0.831000  1.0  -0.1184
  C  C189  1  0.860600  0.692800  0.880200  1.0  -0.0236
  C  C190  1  0.821900  0.574900  0.952500  1.0  -0.0177
  C  C191  1  0.835200  0.474000  0.985500  1.0  -0.0722
  C  C192  1  0.904300  0.381200  0.981900  1.0  -0.0765
  C  C193  1  0.960000  0.399900  0.945600  1.0  -0.1093
  C  C194  1  0.946100  0.498500  0.913900  1.0  0.0037
  C  C195  1  0.919000  0.269300  0.016500  1.0  0.646
  C  C196  1  0.568400  0.229300  0.488700  1.0  0.6682
  C  C197  1  0.507700  0.128700  0.457500  1.0  -0.1345
  C  C198  1  0.549600  0.025600  0.438700  1.0  -0.1069
  C  C199  1  0.493000  0.932400  0.414200  1.0  0.0364
  C  C200  1  0.354100  0.041100  0.423600  1.0  0.0266
  C  C201  1  0.408200  0.136100  0.449400  1.0  -0.0757
  C  C202  1  0.336900  0.835300  0.380700  1.0  0.0227
  C  C203  1  0.325300  0.856800  0.325100  1.0  -0.0909
  C  C204  1  0.262300  0.754600  0.295600  1.0  -0.0157
  C  C205  1  0.302300  0.826100  0.215600  1.0  0.0041
  C  C206  1  0.277500  0.858300  0.165800  1.0  -0.1057
  C  C207  1  0.182600  0.865400  0.143300  1.0  -0.0958
  C  C208  1  0.114500  0.835200  0.172100  1.0  -0.0753
  C  C209  1  0.143100  0.797000  0.221300  1.0  0.0233
  C  C210  1  0.153200  0.898800  0.088800  1.0  0.6791
  C  C211  1  0.340800  0.024700  0.903300  1.0  0.6699
  C  C212  1  0.305000  0.087000  0.852100  1.0  -0.1521
  C  C213  1  0.364000  0.162800  0.829600  1.0  -0.0992
  C  C214  1  0.330100  0.215100  0.783700  1.0  0.0454
  C  C215  1  0.182000  0.123300  0.781100  1.0  0.0341
  C  C216  1  0.211000  0.069400  0.827700  1.0  -0.1868
  C  C217  1  0.202700  0.247500  0.708900  1.0  -0.0057
  C  C218  1  0.197600  0.145700  0.669000  1.0  -0.1193
  C  C219  1  0.139400  0.192800  0.619800  1.0  -0.0234
  C  C220  1  0.178100  0.074900  0.547500  1.0  -0.017
  C  C221  1  0.164800  0.974000  0.514500  1.0  -0.0747
  C  C222  1  0.095700  0.881200  0.518100  1.0  -0.0759
  C  C223  1  0.040000  0.899900  0.554400  1.0  -0.1081
  C  C224  1  0.053900  0.998500  0.586100  1.0  0.0067
  C  C225  1  0.081000  0.769300  0.483500  1.0  0.6466
  C  C226  1  0.431600  0.729300  0.011300  1.0  0.6674
  C  C227  1  0.492300  0.628700  0.042500  1.0  -0.1368
  C  C228  1  0.450400  0.525600  0.061300  1.0  -0.1066
  C  C229  1  0.507000  0.432400  0.085800  1.0  0.0359
  C  C230  1  0.645900  0.541100  0.076400  1.0  0.0275
  C  C231  1  0.591800  0.636100  0.050600  1.0  -0.075
  C  C232  1  0.663100  0.335300  0.119300  1.0  0.0221
  C  C233  1  0.674700  0.356800  0.174900  1.0  -0.0904
  C  C234  1  0.737700  0.254600  0.204400  1.0  -0.0161
  C  C235  1  0.697700  0.326100  0.284400  1.0  0.0072
  C  C236  1  0.722500  0.358300  0.334200  1.0  -0.1035
  C  C237  1  0.817400  0.365400  0.356700  1.0  -0.0965
  C  C238  1  0.885500  0.335200  0.327900  1.0  -0.076
  C  C239  1  0.856900  0.297000  0.278700  1.0  0.0224
  C  C240  1  0.846800  0.398800  0.411200  1.0  0.6788
  N  N241  1  0.365300  0.480300  0.529300  1.0  -0.589
  N  N242  1  0.350600  0.397300  0.556600  1.0  0.5389
  N  N243  1  0.338300  0.315000  0.583800  1.0  -0.4493
  N  N244  1  0.139000  0.456700  0.476600  1.0  -0.6341
  N  N245  1  0.163200  0.355700  0.463000  1.0  0.5454
  N  N246  1  0.189700  0.259000  0.451100  1.0  -0.4581
  N  N247  1  0.238900  0.306400  0.259600  1.0  0.07
  N  N248  1  0.122700  0.414200  0.082600  1.0  -0.0216
  N  N249  1  0.602800  0.059800  0.593100  1.0  0.0263
  N  N250  1  0.765200  0.205300  0.758100  1.0  0.0734
  N  N251  1  0.634700  0.980300  0.970700  1.0  -0.5906
  N  N252  1  0.649400  0.897300  0.943400  1.0  0.5391
  N  N253  1  0.661700  0.815000  0.916200  1.0  -0.4484
  N  N254  1  0.861000  0.956700  0.023400  1.0  -0.6352
  N  N255  1  0.836800  0.855700  0.037000  1.0  0.5464
  N  N256  1  0.810300  0.759000  0.048900  1.0  -0.4546
  N  N257  1  0.761100  0.806400  0.240400  1.0  0.0708
  N  N258  1  0.877300  0.914200  0.417400  1.0  -0.0225
  N  N259  1  0.397200  0.559800  0.906900  1.0  0.0247
  N  N260  1  0.234800  0.705300  0.741900  1.0  0.0739
  N  N261  1  0.634700  0.519700  0.470700  1.0  -0.5918
  N  N262  1  0.649400  0.602700  0.443400  1.0  0.5391
  N  N263  1  0.661700  0.685000  0.416200  1.0  -0.4498
  N  N264  1  0.861000  0.543300  0.523400  1.0  -0.6372
  N  N265  1  0.836800  0.644300  0.537000  1.0  0.5462
  N  N266  1  0.810300  0.741000  0.548900  1.0  -0.4573
  N  N267  1  0.761100  0.693600  0.740400  1.0  0.0705
  N  N268  1  0.877300  0.585800  0.917400  1.0  -0.0225
  N  N269  1  0.397200  0.940200  0.406900  1.0  0.0242
  N  N270  1  0.234800  0.794700  0.241900  1.0  0.0737
  N  N271  1  0.365300  0.019700  0.029300  1.0  -0.5905
  N  N272  1  0.350600  0.102700  0.056600  1.0  0.539
  N  N273  1  0.338300  0.185000  0.083800  1.0  -0.4499
  N  N274  1  0.139000  0.043300  0.976600  1.0  -0.6364
  N  N275  1  0.163200  0.144300  0.963000  1.0  0.5454
  N  N276  1  0.189700  0.241000  0.951100  1.0  -0.4619
  N  N277  1  0.238900  0.193600  0.759600  1.0  0.0691
  N  N278  1  0.122700  0.085800  0.582600  1.0  -0.0217
  N  N279  1  0.602800  0.440200  0.093100  1.0  0.0259
  N  N280  1  0.765200  0.294700  0.258100  1.0  0.0735
  O  O281  1  0.422300  0.444700  0.425200  1.0  -0.6228
  O  O282  1  0.285200  0.555400  0.417000  1.0  -0.629
  O  O283  1  0.145300  0.749400  0.956400  1.0  -0.6744
  O  O284  1  0.008600  0.795700  0.983000  1.0  -0.6281
  O  O285  1  0.475100  0.698600  0.485800  1.0  -0.6238
  O  O286  1  0.343600  0.774700  0.510200  1.0  -0.5902
  O  O287  1  0.924900  0.041700  0.923700  1.0  -0.6321
  O  O288  1  0.792700  0.139700  0.938800  1.0  -0.6446
  O  O289  1  0.577700  0.944700  0.074800  1.0  -0.6221
  O  O290  1  0.714800  0.055400  0.083000  1.0  -0.6285
  O  O291  1  0.854700  0.249400  0.543600  1.0  -0.6717
  O  O292  1  0.991400  0.295700  0.517000  1.0  -0.6287
  O  O293  1  0.524900  0.198600  0.014200  1.0  -0.6225
  O  O294  1  0.656400  0.274700  0.989800  1.0  -0.5906
  O  O295  1  0.075100  0.541700  0.576300  1.0  -0.632
  O  O296  1  0.207300  0.639700  0.561200  1.0  -0.6448
  O  O297  1  0.577700  0.555300  0.574800  1.0  -0.6225
  O  O298  1  0.714800  0.444600  0.583000  1.0  -0.6285
  O  O299  1  0.854700  0.250600  0.043600  1.0  -0.6713
  O  O300  1  0.991400  0.204300  0.017000  1.0  -0.6296
  O  O301  1  0.524900  0.301400  0.514200  1.0  -0.6226
  O  O302  1  0.656400  0.225300  0.489800  1.0  -0.5899
  O  O303  1  0.075100  0.958300  0.076300  1.0  -0.6327
  O  O304  1  0.207300  0.860300  0.061200  1.0  -0.6447
  O  O305  1  0.422300  0.055300  0.925200  1.0  -0.6231
  O  O306  1  0.285200  0.944600  0.917000  1.0  -0.6288
  O  O307  1  0.145300  0.750600  0.456400  1.0  -0.6743
  O  O308  1  0.008600  0.704300  0.483000  1.0  -0.6293
  O  O309  1  0.475100  0.801400  0.985800  1.0  -0.6237
  O  O310  1  0.343600  0.725300  0.010200  1.0  -0.5904
  O  O311  1  0.924900  0.458300  0.423700  1.0  -0.633
  O  O312  1  0.792700  0.360300  0.438800  1.0  -0.6446
