# generated using pymatgen
data_Zn3P4(HO3)4
_symmetry_space_group_name_H-M   'P 1'
_cell_length_a   9.81900000
_cell_length_b   23.32650000
_cell_length_c   8.93420000
_cell_angle_alpha   90.00000000
_cell_angle_beta   90.00000000
_cell_angle_gamma   90.00000000
_symmetry_Int_Tables_number   1
_chemical_formula_structural   Zn3P4(HO3)4
_chemical_formula_sum   'Zn12 P16 H16 O48'
_cell_volume   2046.31510845
_cell_formula_units_Z   4
loop_
 _symmetry_equiv_pos_site_id
 _symmetry_equiv_pos_as_xyz
  1  'x, y, z'
loop_
 _atom_site_type_symbol
 _atom_site_label
 _atom_site_symmetry_multiplicity
 _atom_site_fract_x
 _atom_site_fract_y
 _atom_site_fract_z
 _atom_site_occupancy
 _atom_site_charge
  Zn  Zn1  1  0.559490  0.046960  0.718890  1.0  1.105
  Zn  Zn2  1  0.940510  0.453040  0.718890  1.0  1.1043
  Zn  Zn3  1  0.440510  0.546960  0.781110  1.0  1.105
  Zn  Zn4  1  0.059490  0.953040  0.781110  1.0  1.1056
  Zn  Zn5  1  0.440510  0.953040  0.281110  1.0  1.105
  Zn  Zn6  1  0.059490  0.546960  0.281110  1.0  1.1057
  Zn  Zn7  1  0.559490  0.453040  0.218890  1.0  1.1049
  Zn  Zn8  1  0.940510  0.046960  0.218890  1.0  1.1044
  Zn  Zn9  1  0.750000  0.250000  0.018250  1.0  1.1091
  Zn  Zn10  1  0.250000  0.750000  0.481750  1.0  1.1093
  Zn  Zn11  1  0.250000  0.750000  0.981750  1.0  1.1093
  Zn  Zn12  1  0.750000  0.250000  0.518250  1.0  1.1091
  P  P13  1  0.575100  0.184280  0.763500  1.0  1.4074
  P  P14  1  0.287450  0.002850  0.562700  1.0  1.4934
  P  P15  1  0.924900  0.315720  0.763500  1.0  1.4219
  P  P16  1  0.212550  0.497150  0.562700  1.0  1.4965
  P  P17  1  0.424900  0.684280  0.736500  1.0  1.4169
  P  P18  1  0.712550  0.502850  0.937300  1.0  1.4913
  P  P19  1  0.075100  0.815720  0.736500  1.0  1.4086
  P  P20  1  0.787450  0.997150  0.937300  1.0  1.4969
  P  P21  1  0.424900  0.815720  0.236500  1.0  1.4197
  P  P22  1  0.712550  0.997150  0.437300  1.0  1.4958
  P  P23  1  0.075100  0.684280  0.236500  1.0  1.4046
  P  P24  1  0.787450  0.502850  0.437300  1.0  1.4921
  P  P25  1  0.575100  0.315720  0.263500  1.0  1.4096
  P  P26  1  0.287450  0.497150  0.062700  1.0  1.4973
  P  P27  1  0.924900  0.184280  0.263500  1.0  1.4186
  P  P28  1  0.212550  0.002850  0.062700  1.0  1.4924
  H  H29  1  0.494800  0.202600  0.719300  1.0  0.0995
  H  H30  1  0.291500  0.038600  0.505200  1.0  0.0953
  H  H31  1  0.005200  0.297400  0.719300  1.0  0.1006
  H  H32  1  0.208500  0.461400  0.505200  1.0  0.0952
  H  H33  1  0.505200  0.702600  0.780700  1.0  0.0999
  H  H34  1  0.708500  0.538600  0.994800  1.0  0.097
  H  H35  1  0.994800  0.797400  0.780700  1.0  0.1001
  H  H36  1  0.791500  0.961400  0.994800  1.0  0.0969
  H  H37  1  0.505200  0.797400  0.280700  1.0  0.0998
  H  H38  1  0.708500  0.961400  0.494800  1.0  0.0971
  H  H39  1  0.994800  0.702600  0.280700  1.0  0.0991
  H  H40  1  0.791500  0.538600  0.494800  1.0  0.097
  H  H41  1  0.494800  0.297400  0.219300  1.0  0.0995
  H  H42  1  0.291500  0.461400  0.005200  1.0  0.0953
  H  H43  1  0.005200  0.202600  0.219300  1.0  0.1004
  H  H44  1  0.208500  0.038600  0.005200  1.0  0.0955
  O  O45  1  0.534500  0.122900  0.796500  1.0  -0.7806
  O  O46  1  0.387200  0.008700  0.691000  1.0  -0.8361
  O  O47  1  0.325900  0.954900  0.457300  1.0  -0.7955
  O  O48  1  0.142300  0.996400  0.617900  1.0  -0.7757
  O  O49  1  0.603800  0.215800  0.906900  1.0  -0.7985
  O  O50  1  0.686500  0.187700  0.646600  1.0  -0.7782
  O  O51  1  0.965500  0.377100  0.796500  1.0  -0.7808
  O  O52  1  0.112800  0.491300  0.691000  1.0  -0.8371
  O  O53  1  0.174100  0.545100  0.457300  1.0  -0.7955
  O  O54  1  0.357700  0.503600  0.617900  1.0  -0.7745
  O  O55  1  0.896200  0.284200  0.906900  1.0  -0.7989
  O  O56  1  0.813500  0.312300  0.646600  1.0  -0.7773
  O  O57  1  0.465500  0.622900  0.703500  1.0  -0.7797
  O  O58  1  0.612800  0.508700  0.809000  1.0  -0.837
  O  O59  1  0.674100  0.454900  0.042700  1.0  -0.7961
  O  O60  1  0.857700  0.496400  0.882100  1.0  -0.7748
  O  O61  1  0.396200  0.715800  0.593100  1.0  -0.7974
  O  O62  1  0.313500  0.687700  0.853400  1.0  -0.7766
  O  O63  1  0.034500  0.877100  0.703500  1.0  -0.7805
  O  O64  1  0.887200  0.991300  0.809000  1.0  -0.8356
  O  O65  1  0.825900  0.045100  0.042700  1.0  -0.7962
  O  O66  1  0.642300  0.003600  0.882100  1.0  -0.7751
  O  O67  1  0.103800  0.784200  0.593100  1.0  -0.7975
  O  O68  1  0.186500  0.812300  0.853400  1.0  -0.7776
  O  O69  1  0.465500  0.877100  0.203500  1.0  -0.7798
  O  O70  1  0.612800  0.991300  0.309000  1.0  -0.8363
  O  O71  1  0.674100  0.045100  0.542700  1.0  -0.796
  O  O72  1  0.857700  0.003600  0.382100  1.0  -0.7745
  O  O73  1  0.396200  0.784200  0.093100  1.0  -0.798
  O  O74  1  0.313500  0.812300  0.353400  1.0  -0.7767
  O  O75  1  0.034500  0.622900  0.203500  1.0  -0.7798
  O  O76  1  0.887200  0.508700  0.309000  1.0  -0.8357
  O  O77  1  0.825900  0.454900  0.542700  1.0  -0.7964
  O  O78  1  0.642300  0.496400  0.382100  1.0  -0.7758
  O  O79  1  0.103800  0.715800  0.093100  1.0  -0.797
  O  O80  1  0.186500  0.687700  0.353400  1.0  -0.7783
  O  O81  1  0.534500  0.377100  0.296500  1.0  -0.7814
  O  O82  1  0.387200  0.491300  0.191000  1.0  -0.8357
  O  O83  1  0.325900  0.545100  0.957300  1.0  -0.7964
  O  O84  1  0.142300  0.503600  0.117900  1.0  -0.7751
  O  O85  1  0.603800  0.284200  0.406900  1.0  -0.7988
  O  O86  1  0.686500  0.312300  0.146600  1.0  -0.7784
  O  O87  1  0.965500  0.122900  0.296500  1.0  -0.7806
  O  O88  1  0.112800  0.008700  0.191000  1.0  -0.8373
  O  O89  1  0.174100  0.954900  0.957300  1.0  -0.796
  O  O90  1  0.357700  0.996400  0.117900  1.0  -0.7747
  O  O91  1  0.896200  0.215800  0.406900  1.0  -0.7985
  O  O92  1  0.813500  0.187700  0.146600  1.0  -0.7781
