# generated using pymatgen
data_Zn3P4(HO3)4
_symmetry_space_group_name_H-M   'P 1'
_cell_length_a   9.54670000
_cell_length_b   26.40500000
_cell_length_c   7.99460000
_cell_angle_alpha   90.00000000
_cell_angle_beta   99.47200000
_cell_angle_gamma   90.00000000
_symmetry_Int_Tables_number   1
_chemical_formula_structural   Zn3P4(HO3)4
_chemical_formula_sum   'Zn12 P16 H16 O48'
_cell_volume   1987.80757973
_cell_formula_units_Z   4
loop_
 _symmetry_equiv_pos_site_id
 _symmetry_equiv_pos_as_xyz
  1  'x, y, z'
loop_
 _atom_site_type_symbol
 _atom_site_label
 _atom_site_symmetry_multiplicity
 _atom_site_fract_x
 _atom_site_fract_y
 _atom_site_fract_z
 _atom_site_occupancy
 _atom_site_charge
  Zn  Zn1  1  0.604960  0.568470  0.492350  1.0  1.1527
  Zn  Zn2  1  0.367620  0.763800  0.251710  1.0  1.1493
  Zn  Zn3  1  0.175040  0.555870  0.987870  1.0  1.176
  Zn  Zn4  1  0.395040  0.068470  0.007650  1.0  1.1512
  Zn  Zn5  1  0.632380  0.263800  0.248290  1.0  1.1492
  Zn  Zn6  1  0.824960  0.055870  0.512130  1.0  1.175
  Zn  Zn7  1  0.395040  0.431530  0.507650  1.0  1.1517
  Zn  Zn8  1  0.632380  0.236200  0.748290  1.0  1.149
  Zn  Zn9  1  0.824960  0.444130  0.012130  1.0  1.1753
  Zn  Zn10  1  0.604960  0.931530  0.992350  1.0  1.1527
  Zn  Zn11  1  0.367620  0.736200  0.751710  1.0  1.1491
  Zn  Zn12  1  0.175040  0.944130  0.487870  1.0  1.1763
  P  P13  1  0.421500  0.520270  0.756790  1.0  1.5679
  P  P14  1  0.545980  0.687810  0.485450  1.0  1.5056
  P  P15  1  0.204890  0.676830  0.022400  1.0  1.4752
  P  P16  1  0.877250  0.529310  0.743440  1.0  1.5463
  P  P17  1  0.578500  0.020270  0.743210  1.0  1.5675
  P  P18  1  0.454020  0.187810  0.014550  1.0  1.4976
  P  P19  1  0.795110  0.176830  0.477600  1.0  1.4828
  P  P20  1  0.122750  0.029310  0.756560  1.0  1.5413
  P  P21  1  0.578500  0.479730  0.243210  1.0  1.5688
  P  P22  1  0.454020  0.312190  0.514550  1.0  1.4971
  P  P23  1  0.795110  0.323170  0.977600  1.0  1.4826
  P  P24  1  0.122750  0.470690  0.256560  1.0  1.5416
  P  P25  1  0.421500  0.979730  0.256790  1.0  1.5692
  P  P26  1  0.545980  0.812190  0.985450  1.0  1.5043
  P  P27  1  0.204890  0.823170  0.522400  1.0  1.475
  P  P28  1  0.877250  0.970690  0.243440  1.0  1.5472
  H  H29  1  0.543000  0.527700  0.873000  1.0  -0.0655
  H  H30  1  0.654000  0.696000  0.573000  1.0  0.1219
  H  H31  1  0.074000  0.685000  0.942000  1.0  -0.0505
  H  H32  1  0.967000  0.509000  0.656000  1.0  -0.0788
  H  H33  1  0.457000  0.027700  0.627000  1.0  -0.0654
  H  H34  1  0.346000  0.196000  0.927000  1.0  0.1225
  H  H35  1  0.926000  0.185000  0.558000  1.0  -0.05
  H  H36  1  0.033000  0.009000  0.844000  1.0  -0.0861
  H  H37  1  0.457000  0.472300  0.127000  1.0  -0.0656
  H  H38  1  0.346000  0.304000  0.427000  1.0  0.1224
  H  H39  1  0.926000  0.315000  0.058000  1.0  -0.0498
  H  H40  1  0.033000  0.491000  0.344000  1.0  -0.0853
  H  H41  1  0.543000  0.972300  0.373000  1.0  -0.0657
  H  H42  1  0.654000  0.804000  0.073000  1.0  0.122
  H  H43  1  0.074000  0.815000  0.442000  1.0  -0.0503
  H  H44  1  0.967000  0.991000  0.156000  1.0  -0.0777
  O  O45  1  0.439600  0.548410  0.595000  1.0  -0.7618
  O  O46  1  0.385400  0.465610  0.722000  1.0  -0.744
  O  O47  1  0.552100  0.636430  0.403600  1.0  -0.7565
  O  O48  1  0.540700  0.730460  0.359400  1.0  -0.752
  O  O49  1  0.422400  0.690050  0.584000  1.0  -0.7801
  O  O50  1  0.225100  0.714890  0.165500  1.0  -0.7776
  O  O51  1  0.302300  0.685190  0.894300  1.0  -0.8262
  O  O52  1  0.219300  0.623100  0.089200  1.0  -0.7298
  O  O53  1  0.323300  0.547210  0.852000  1.0  -0.855
  O  O54  1  0.985800  0.555940  0.870600  1.0  -0.847
  O  O55  1  0.776600  0.567690  0.650100  1.0  -0.8396
  O  O56  1  0.801200  0.486840  0.814700  1.0  -0.8263
  O  O57  1  0.560400  0.048410  0.905000  1.0  -0.762
  O  O58  1  0.614600  0.965610  0.778000  1.0  -0.745
  O  O59  1  0.447900  0.136430  0.096400  1.0  -0.7571
  O  O60  1  0.459300  0.230460  0.140600  1.0  -0.7511
  O  O61  1  0.577600  0.190050  0.916000  1.0  -0.7784
  O  O62  1  0.774900  0.214890  0.334500  1.0  -0.774
  O  O63  1  0.697700  0.185190  0.605700  1.0  -0.8275
  O  O64  1  0.780700  0.123100  0.410800  1.0  -0.7304
  O  O65  1  0.676700  0.047210  0.648000  1.0  -0.8528
  O  O66  1  0.014200  0.055940  0.629400  1.0  -0.847
  O  O67  1  0.223400  0.067690  0.849900  1.0  -0.8404
  O  O68  1  0.198800  0.986840  0.685300  1.0  -0.8265
  O  O69  1  0.560400  0.451590  0.405000  1.0  -0.7616
  O  O70  1  0.614600  0.534390  0.278000  1.0  -0.7449
  O  O71  1  0.447900  0.363570  0.596400  1.0  -0.7574
  O  O72  1  0.459300  0.269540  0.640600  1.0  -0.7521
  O  O73  1  0.577600  0.309950  0.416000  1.0  -0.7781
  O  O74  1  0.774900  0.285110  0.834500  1.0  -0.7741
  O  O75  1  0.697700  0.314810  0.105700  1.0  -0.8258
  O  O76  1  0.780700  0.376900  0.910800  1.0  -0.7303
  O  O77  1  0.676700  0.452790  0.148000  1.0  -0.8517
  O  O78  1  0.014200  0.444060  0.129400  1.0  -0.8485
  O  O79  1  0.223400  0.432310  0.349900  1.0  -0.8389
  O  O80  1  0.198800  0.513160  0.185300  1.0  -0.8289
  O  O81  1  0.439600  0.951590  0.095000  1.0  -0.7618
  O  O82  1  0.385400  0.034390  0.222000  1.0  -0.7434
  O  O83  1  0.552100  0.863570  0.903600  1.0  -0.7563
  O  O84  1  0.540700  0.769540  0.859400  1.0  -0.7528
  O  O85  1  0.422400  0.809950  0.084000  1.0  -0.78
  O  O86  1  0.225100  0.785110  0.665500  1.0  -0.7775
  O  O87  1  0.302300  0.814810  0.394300  1.0  -0.8242
  O  O88  1  0.219300  0.876900  0.589200  1.0  -0.7302
  O  O89  1  0.323300  0.952790  0.352000  1.0  -0.8535
  O  O90  1  0.985800  0.944060  0.370600  1.0  -0.8486
  O  O91  1  0.776600  0.932310  0.150100  1.0  -0.8383
  O  O92  1  0.801200  0.013160  0.314700  1.0  -0.8282
