# generated using pymatgen
data_Zn3P4(HO3)4
_symmetry_space_group_name_H-M   'P 1'
_cell_length_a   9.81620000
_cell_length_b   23.28400000
_cell_length_c   8.93060000
_cell_angle_alpha   90.00000000
_cell_angle_beta   90.00000000
_cell_angle_gamma   90.00000000
_symmetry_Int_Tables_number   1
_chemical_formula_structural   Zn3P4(HO3)4
_chemical_formula_sum   'Zn12 P16 H16 O48'
_cell_volume   2041.18151538
_cell_formula_units_Z   4
loop_
 _symmetry_equiv_pos_site_id
 _symmetry_equiv_pos_as_xyz
  1  'x, y, z'
loop_
 _atom_site_type_symbol
 _atom_site_label
 _atom_site_symmetry_multiplicity
 _atom_site_fract_x
 _atom_site_fract_y
 _atom_site_fract_z
 _atom_site_occupancy
 _atom_site_charge
  Zn  Zn1  1  0.440510  0.546960  0.218920  1.0  1.1343
  Zn  Zn2  1  0.059490  0.953040  0.218920  1.0  1.1343
  Zn  Zn3  1  0.559490  0.046960  0.281080  1.0  1.1351
  Zn  Zn4  1  0.940510  0.453040  0.281080  1.0  1.134
  Zn  Zn5  1  0.559490  0.453040  0.781080  1.0  1.1347
  Zn  Zn6  1  0.940510  0.046960  0.781080  1.0  1.1345
  Zn  Zn7  1  0.440510  0.953040  0.718920  1.0  1.1337
  Zn  Zn8  1  0.059490  0.546960  0.718920  1.0  1.1348
  Zn  Zn9  1  0.250000  0.750000  0.018890  1.0  1.1188
  Zn  Zn10  1  0.750000  0.250000  0.481110  1.0  1.1191
  Zn  Zn11  1  0.750000  0.250000  0.981110  1.0  1.1191
  Zn  Zn12  1  0.250000  0.750000  0.518890  1.0  1.1188
  P  P13  1  0.287150  0.497150  0.937350  1.0  1.5813
  P  P14  1  0.425320  0.684440  0.263680  1.0  1.4763
  P  P15  1  0.212850  0.002850  0.937350  1.0  1.5797
  P  P16  1  0.074680  0.815560  0.263680  1.0  1.4681
  P  P17  1  0.712850  0.997150  0.562650  1.0  1.582
  P  P18  1  0.574680  0.184440  0.236320  1.0  1.4667
  P  P19  1  0.787150  0.502850  0.562650  1.0  1.5822
  P  P20  1  0.925320  0.315560  0.236320  1.0  1.4741
  P  P21  1  0.712850  0.502850  0.062650  1.0  1.581
  P  P22  1  0.574680  0.315560  0.736320  1.0  1.4666
  P  P23  1  0.787150  0.997150  0.062650  1.0  1.5829
  P  P24  1  0.925320  0.184440  0.736320  1.0  1.4751
  P  P25  1  0.287150  0.002850  0.437350  1.0  1.5804
  P  P26  1  0.425320  0.815560  0.763680  1.0  1.4757
  P  P27  1  0.212850  0.497150  0.437350  1.0  1.5801
  P  P28  1  0.074680  0.684440  0.763680  1.0  1.468
  H  H29  1  0.293000  0.454900  0.019000  1.0  0.0143
  H  H30  1  0.536000  0.708900  0.207000  1.0  -0.0506
  H  H31  1  0.207000  0.045100  0.019000  1.0  0.0151
  H  H32  1  0.964000  0.791100  0.207000  1.0  -0.0534
  H  H33  1  0.707000  0.954900  0.481000  1.0  0.017
  H  H34  1  0.464000  0.208900  0.293000  1.0  -0.0537
  H  H35  1  0.793000  0.545100  0.481000  1.0  0.0179
  H  H36  1  0.036000  0.291100  0.293000  1.0  -0.0522
  H  H37  1  0.707000  0.545100  0.981000  1.0  0.0166
  H  H38  1  0.464000  0.291100  0.793000  1.0  -0.0534
  H  H39  1  0.793000  0.954900  0.981000  1.0  0.0165
  H  H40  1  0.036000  0.208900  0.793000  1.0  -0.0521
  H  H41  1  0.293000  0.045100  0.519000  1.0  0.0142
  H  H42  1  0.536000  0.791100  0.707000  1.0  -0.0512
  H  H43  1  0.207000  0.454900  0.519000  1.0  0.0127
  H  H44  1  0.964000  0.708900  0.707000  1.0  -0.0532
  O  O45  1  0.325800  0.545160  0.043000  1.0  -0.7883
  O  O46  1  0.141800  0.503390  0.881500  1.0  -0.7778
  O  O47  1  0.386400  0.491180  0.809400  1.0  -0.8219
  O  O48  1  0.465200  0.623080  0.297300  1.0  -0.791
  O  O49  1  0.313800  0.687940  0.147100  1.0  -0.7486
  O  O50  1  0.396900  0.715730  0.406900  1.0  -0.7837
  O  O51  1  0.174200  0.954840  0.043000  1.0  -0.7878
  O  O52  1  0.358200  0.996610  0.881500  1.0  -0.7782
  O  O53  1  0.113600  0.008820  0.809400  1.0  -0.8223
  O  O54  1  0.034800  0.876920  0.297300  1.0  -0.7913
  O  O55  1  0.186200  0.812060  0.147100  1.0  -0.7479
  O  O56  1  0.103100  0.784270  0.406900  1.0  -0.7837
  O  O57  1  0.674200  0.045160  0.457000  1.0  -0.7871
  O  O58  1  0.858200  0.003390  0.618500  1.0  -0.778
  O  O59  1  0.613600  0.991180  0.690600  1.0  -0.8216
  O  O60  1  0.534800  0.123080  0.202700  1.0  -0.7899
  O  O61  1  0.686200  0.187940  0.352900  1.0  -0.748
  O  O62  1  0.603100  0.215730  0.093100  1.0  -0.7821
  O  O63  1  0.825800  0.454840  0.457000  1.0  -0.7876
  O  O64  1  0.641800  0.496610  0.618500  1.0  -0.7789
  O  O65  1  0.886400  0.508820  0.690600  1.0  -0.8218
  O  O66  1  0.965200  0.376920  0.202700  1.0  -0.7895
  O  O67  1  0.813800  0.312060  0.352900  1.0  -0.7477
  O  O68  1  0.896900  0.284270  0.093100  1.0  -0.7832
  O  O69  1  0.674200  0.454840  0.957000  1.0  -0.7874
  O  O70  1  0.858200  0.496610  0.118500  1.0  -0.7783
  O  O71  1  0.613600  0.508820  0.190600  1.0  -0.822
  O  O72  1  0.534800  0.376920  0.702700  1.0  -0.7898
  O  O73  1  0.686200  0.312060  0.852900  1.0  -0.7478
  O  O74  1  0.603100  0.284270  0.593100  1.0  -0.7827
  O  O75  1  0.825800  0.045160  0.957000  1.0  -0.7874
  O  O76  1  0.641800  0.003390  0.118500  1.0  -0.7782
  O  O77  1  0.886400  0.991180  0.190600  1.0  -0.8214
  O  O78  1  0.965200  0.123080  0.702700  1.0  -0.7896
  O  O79  1  0.813800  0.187940  0.852900  1.0  -0.7479
  O  O80  1  0.896900  0.215730  0.593100  1.0  -0.7824
  O  O81  1  0.325800  0.954840  0.543000  1.0  -0.788
  O  O82  1  0.141800  0.996610  0.381500  1.0  -0.7786
  O  O83  1  0.386400  0.008820  0.309400  1.0  -0.8222
  O  O84  1  0.465200  0.876920  0.797300  1.0  -0.791
  O  O85  1  0.313800  0.812060  0.647100  1.0  -0.7482
  O  O86  1  0.396900  0.784270  0.906900  1.0  -0.7842
  O  O87  1  0.174200  0.545160  0.543000  1.0  -0.7879
  O  O88  1  0.358200  0.503390  0.381500  1.0  -0.7778
  O  O89  1  0.113600  0.491180  0.309400  1.0  -0.8219
  O  O90  1  0.034800  0.623080  0.797300  1.0  -0.791
  O  O91  1  0.186200  0.687940  0.647100  1.0  -0.7487
  O  O92  1  0.103100  0.715730  0.906900  1.0  -0.7835
