# generated using pymatgen
data_NaBiH8(C2O)8
_symmetry_space_group_name_H-M   'P 1'
_cell_length_a   7.08000000
_cell_length_b   17.32650000
_cell_length_c   20.78670000
_cell_angle_alpha   90.00000000
_cell_angle_beta   99.27520000
_cell_angle_gamma   90.00000000
_symmetry_Int_Tables_number   1
_chemical_formula_structural   NaBiH8(C2O)8
_chemical_formula_sum   'Na4 Bi4 H32 C64 O32'
_cell_volume   2516.59918264
_cell_formula_units_Z   4
loop_
 _symmetry_equiv_pos_site_id
 _symmetry_equiv_pos_as_xyz
  1  'x, y, z'
loop_
 _atom_site_type_symbol
 _atom_site_label
 _atom_site_symmetry_multiplicity
 _atom_site_fract_x
 _atom_site_fract_y
 _atom_site_fract_z
 _atom_site_occupancy
 _atom_site_charge
  Na  Na1  1  0.222200  0.762050  0.387800  1.0  0.9173
  Na  Na2  1  0.277800  0.262050  0.112200  1.0  0.9182
  Na  Na3  1  0.777800  0.237950  0.612200  1.0  0.9186
  Na  Na4  1  0.722200  0.737950  0.887800  1.0  0.9171
  Bi  Bi5  1  0.694530  0.769930  0.365380  1.0  1.4768
  Bi  Bi6  1  0.805470  0.269930  0.134620  1.0  1.4786
  Bi  Bi7  1  0.305470  0.230070  0.634620  1.0  1.4786
  Bi  Bi8  1  0.194530  0.730070  0.865380  1.0  1.4766
  H  H9  1  0.130400  0.910900  0.300800  1.0  0.0968
  H  H10  1  0.573100  0.047000  0.274400  1.0  0.1065
  H  H11  1  0.361400  0.136200  0.220500  1.0  0.0982
  H  H12  1  0.918200  0.001000  0.246900  1.0  0.1077
  H  H13  1  0.164700  0.725600  0.630900  1.0  0.1101
  H  H14  1  0.714700  0.715600  0.718100  1.0  0.0978
  H  H15  1  0.810300  0.713400  0.616700  1.0  0.1119
  H  H16  1  0.260800  0.728900  0.530200  1.0  0.1127
  H  H17  1  0.369600  0.410900  0.199200  1.0  0.0964
  H  H18  1  0.926900  0.547000  0.225600  1.0  0.1067
  H  H19  1  0.138600  0.636200  0.279500  1.0  0.0984
  H  H20  1  0.581800  0.501000  0.253100  1.0  0.1076
  H  H21  1  0.335300  0.225600  0.869100  1.0  0.1098
  H  H22  1  0.785300  0.215600  0.781900  1.0  0.0968
  H  H23  1  0.689700  0.213400  0.883300  1.0  0.1123
  H  H24  1  0.239200  0.228900  0.969800  1.0  0.1129
  H  H25  1  0.869600  0.089100  0.699200  1.0  0.0962
  H  H26  1  0.426900  0.953000  0.725600  1.0  0.1068
  H  H27  1  0.638600  0.863800  0.779500  1.0  0.0986
  H  H28  1  0.081800  0.999000  0.753100  1.0  0.1078
  H  H29  1  0.835300  0.274400  0.369100  1.0  0.1097
  H  H30  1  0.285300  0.284400  0.281900  1.0  0.0968
  H  H31  1  0.189700  0.286600  0.383300  1.0  0.112
  H  H32  1  0.739200  0.271100  0.469800  1.0  0.1128
  H  H33  1  0.630400  0.589100  0.800800  1.0  0.0961
  H  H34  1  0.073100  0.453000  0.774400  1.0  0.1065
  H  H35  1  0.861400  0.363800  0.720500  1.0  0.0983
  H  H36  1  0.418200  0.499000  0.746900  1.0  0.1076
  H  H37  1  0.664700  0.774400  0.130900  1.0  0.11
  H  H38  1  0.214700  0.784400  0.218100  1.0  0.0978
  H  H39  1  0.310300  0.786600  0.116700  1.0  0.1121
  H  H40  1  0.760800  0.771100  0.030200  1.0  0.1126
  C  C41  1  0.509800  0.910800  0.325200  1.0  0.6974
  C  C42  1  0.373300  0.970500  0.293400  1.0  -0.1244
  C  C43  1  0.176200  0.956200  0.284800  1.0  -0.0242
  C  C44  1  0.442100  0.037800  0.269000  1.0  -0.0443
  C  C45  1  0.315700  0.091000  0.236600  1.0  -0.036
  C  C46  1  0.049400  0.009800  0.252400  1.0  -0.0415
  C  C47  1  0.119800  0.076800  0.228200  1.0  -0.1087
  C  C48  1  0.981500  0.134400  0.192600  1.0  0.7116
  C  C49  1  0.366100  0.722600  0.750600  1.0  0.6823
  C  C50  1  0.429400  0.721500  0.684800  1.0  -0.125
  C  C51  1  0.294500  0.724600  0.628100  1.0  -0.0563
  C  C52  1  0.623800  0.717800  0.680400  1.0  -0.0096
  C  C53  1  0.681000  0.717400  0.619700  1.0  -0.0586
  C  C54  1  0.351800  0.726000  0.567800  1.0  -0.0928
  C  C55  1  0.545900  0.723000  0.563000  1.0  -0.127
  C  C56  1  0.610200  0.727500  0.497500  1.0  0.7086
  C  C57  1  0.990200  0.410800  0.174800  1.0  0.6951
  C  C58  1  0.126700  0.470500  0.206600  1.0  -0.1241
  C  C59  1  0.323800  0.456200  0.215200  1.0  -0.0239
  C  C60  1  0.057900  0.537800  0.231000  1.0  -0.045
  C  C61  1  0.184300  0.591000  0.263400  1.0  -0.0359
  C  C62  1  0.450600  0.509800  0.247600  1.0  -0.0396
  C  C63  1  0.380200  0.576800  0.271800  1.0  -0.1103
  C  C64  1  0.518500  0.634400  0.307400  1.0  0.7146
  C  C65  1  0.133900  0.222600  0.749400  1.0  0.6826
  C  C66  1  0.070600  0.221500  0.815200  1.0  -0.126
  C  C67  1  0.205500  0.224600  0.871900  1.0  -0.0561
  C  C68  1  0.876200  0.217800  0.819600  1.0  -0.0096
  C  C69  1  0.819000  0.217400  0.880300  1.0  -0.0614
  C  C70  1  0.148200  0.226000  0.932200  1.0  -0.0924
  C  C71  1  0.954100  0.223000  0.937000  1.0  -0.1283
  C  C72  1  0.889800  0.227500  0.002500  1.0  0.7102
  C  C73  1  0.490200  0.089200  0.674800  1.0  0.6954
  C  C74  1  0.626700  0.029500  0.706600  1.0  -0.1239
  C  C75  1  0.823800  0.043800  0.715200  1.0  -0.0241
  C  C76  1  0.557900  0.962200  0.731000  1.0  -0.0446
  C  C77  1  0.684300  0.909000  0.763400  1.0  -0.0366
  C  C78  1  0.950600  0.990200  0.747600  1.0  -0.0402
  C  C79  1  0.880200  0.923200  0.771800  1.0  -0.1104
  C  C80  1  0.018500  0.865600  0.807400  1.0  0.7136
  C  C81  1  0.633900  0.277400  0.249400  1.0  0.6825
  C  C82  1  0.570600  0.278500  0.315200  1.0  -0.1259
  C  C83  1  0.705500  0.275400  0.371900  1.0  -0.056
  C  C84  1  0.376200  0.282200  0.319600  1.0  -0.0095
  C  C85  1  0.319000  0.282600  0.380300  1.0  -0.0608
  C  C86  1  0.648200  0.274000  0.432200  1.0  -0.0921
  C  C87  1  0.454100  0.277000  0.437000  1.0  -0.1283
  C  C88  1  0.389800  0.272500  0.502500  1.0  0.7102
  C  C89  1  0.009800  0.589200  0.825200  1.0  0.6975
  C  C90  1  0.873300  0.529500  0.793400  1.0  -0.1244
  C  C91  1  0.676200  0.543800  0.784800  1.0  -0.0237
  C  C92  1  0.942100  0.462200  0.769000  1.0  -0.044
  C  C93  1  0.815700  0.409000  0.736600  1.0  -0.0352
  C  C94  1  0.549400  0.490200  0.752400  1.0  -0.0419
  C  C95  1  0.619800  0.423200  0.728200  1.0  -0.1092
  C  C96  1  0.481500  0.365600  0.692600  1.0  0.7109
  C  C97  1  0.866100  0.777400  0.250600  1.0  0.6823
  C  C98  1  0.929400  0.778500  0.184800  1.0  -0.1249
  C  C99  1  0.794500  0.775400  0.128100  1.0  -0.0563
  C  C100  1  0.123800  0.782200  0.180400  1.0  -0.0095
  C  C101  1  0.181000  0.782600  0.119700  1.0  -0.0583
  C  C102  1  0.851800  0.774000  0.067800  1.0  -0.0926
  C  C103  1  0.045900  0.777000  0.063000  1.0  -0.1269
  C  C104  1  0.110200  0.772500  0.997500  1.0  0.7087
  O  O105  1  0.435710  0.845730  0.337810  1.0  -0.6892
  O  O106  1  0.684560  0.921700  0.338260  1.0  -0.6002
  O  O107  1  0.805520  0.125710  0.186120  1.0  -0.6172
  O  O108  1  0.056960  0.193920  0.168860  1.0  -0.6537
  O  O109  1  0.188060  0.719030  0.752860  1.0  -0.594
  O  O110  1  0.489890  0.727360  0.800990  1.0  -0.7431
  O  O111  1  0.518580  0.773840  0.456380  1.0  -0.7107
  O  O112  1  0.750080  0.689700  0.486280  1.0  -0.5763
  O  O113  1  0.064290  0.345730  0.162190  1.0  -0.6898
  O  O114  1  0.815440  0.421700  0.161740  1.0  -0.6023
  O  O115  1  0.694480  0.625710  0.313880  1.0  -0.6168
  O  O116  1  0.443040  0.693920  0.331140  1.0  -0.654
  O  O117  1  0.311940  0.219030  0.747140  1.0  -0.5946
  O  O118  1  0.010110  0.227360  0.699010  1.0  -0.7439
  O  O119  1  0.981420  0.273840  0.043620  1.0  -0.7105
  O  O120  1  0.749920  0.189700  0.013720  1.0  -0.577
  O  O121  1  0.564290  0.154270  0.662190  1.0  -0.6886
  O  O122  1  0.315440  0.078300  0.661740  1.0  -0.6024
  O  O123  1  0.194480  0.874290  0.813880  1.0  -0.6175
  O  O124  1  0.943040  0.806080  0.831140  1.0  -0.6554
  O  O125  1  0.811940  0.280970  0.247140  1.0  -0.5951
  O  O126  1  0.510110  0.272640  0.199010  1.0  -0.7444
  O  O127  1  0.481420  0.226160  0.543620  1.0  -0.7102
  O  O128  1  0.249920  0.310300  0.513720  1.0  -0.5772
  O  O129  1  0.935710  0.654270  0.837810  1.0  -0.6878
  O  O130  1  0.184560  0.578300  0.838260  1.0  -0.6012
  O  O131  1  0.305520  0.374290  0.686120  1.0  -0.6179
  O  O132  1  0.556960  0.306080  0.668860  1.0  -0.6551
  O  O133  1  0.688060  0.780970  0.252860  1.0  -0.5938
  O  O134  1  0.989890  0.772640  0.300990  1.0  -0.743
  O  O135  1  0.018580  0.726160  0.956380  1.0  -0.7095
  O  O136  1  0.250080  0.810300  0.986280  1.0  -0.577
