# generated using pymatgen
data_Zn2H2C10O9
_symmetry_space_group_name_H-M   'P 1'
_cell_length_a   12.05600000
_cell_length_b   15.98700000
_cell_length_c   15.38300000
_cell_angle_alpha   90.00000000
_cell_angle_beta   90.00000000
_cell_angle_gamma   90.00000000
_symmetry_Int_Tables_number   1
_chemical_formula_structural   Zn2H2C10O9
_chemical_formula_sum   'Zn16 H16 C80 O72'
_cell_volume   2964.90822118
_cell_formula_units_Z   8
loop_
 _symmetry_equiv_pos_site_id
 _symmetry_equiv_pos_as_xyz
  1  'x, y, z'
loop_
 _atom_site_type_symbol
 _atom_site_label
 _atom_site_symmetry_multiplicity
 _atom_site_fract_x
 _atom_site_fract_y
 _atom_site_fract_z
 _atom_site_occupancy
 _atom_site_charge
  Zn  Zn1  1  0.025060  0.947670  0.813240  1.0  1.0496
  Zn  Zn2  1  0.974940  0.552330  0.813240  1.0  1.0497
  Zn  Zn3  1  0.525060  0.552330  0.686760  1.0  1.0485
  Zn  Zn4  1  0.474940  0.947670  0.686760  1.0  1.0499
  Zn  Zn5  1  0.974940  0.052330  0.186760  1.0  1.0451
  Zn  Zn6  1  0.025060  0.447670  0.186760  1.0  1.0444
  Zn  Zn7  1  0.474940  0.447670  0.313240  1.0  1.0481
  Zn  Zn8  1  0.525060  0.052330  0.313240  1.0  1.0476
  Zn  Zn9  1  0.250000  0.841060  0.750000  1.0  1.1087
  Zn  Zn10  1  0.750000  0.658940  0.750000  1.0  1.1082
  Zn  Zn11  1  0.750000  0.158940  0.250000  1.0  1.1074
  Zn  Zn12  1  0.250000  0.341060  0.250000  1.0  1.1079
  Zn  Zn13  1  0.000000  0.250000  0.186360  1.0  1.0875
  Zn  Zn14  1  0.500000  0.250000  0.313640  1.0  1.0871
  Zn  Zn15  1  0.000000  0.750000  0.813640  1.0  1.087
  Zn  Zn16  1  0.500000  0.750000  0.686360  1.0  1.0877
  H  H17  1  0.967000  0.087500  0.574300  1.0  0.1256
  H  H18  1  0.972300  0.156000  0.444800  1.0  0.1175
  H  H19  1  0.033000  0.412500  0.574300  1.0  0.1261
  H  H20  1  0.027700  0.344000  0.444800  1.0  0.1174
  H  H21  1  0.467000  0.412500  0.925700  1.0  0.1259
  H  H22  1  0.472300  0.344000  0.055200  1.0  0.117
  H  H23  1  0.533000  0.087500  0.925700  1.0  0.1266
  H  H24  1  0.527700  0.156000  0.055200  1.0  0.1172
  H  H25  1  0.033000  0.912500  0.425700  1.0  0.1266
  H  H26  1  0.027700  0.844000  0.555200  1.0  0.1171
  H  H27  1  0.967000  0.587500  0.425700  1.0  0.1259
  H  H28  1  0.972300  0.656000  0.555200  1.0  0.1171
  H  H29  1  0.533000  0.587500  0.074300  1.0  0.1261
  H  H30  1  0.527700  0.656000  0.944800  1.0  0.1174
  H  H31  1  0.467000  0.912500  0.074300  1.0  0.1257
  H  H32  1  0.472300  0.844000  0.944800  1.0  0.1174
  C  C33  1  0.032800  0.088900  0.542900  1.0  -0.024
  C  C34  1  0.126400  0.046800  0.575000  1.0  -0.1025
  C  C35  1  0.117100  0.993700  0.654600  1.0  0.6798
  C  C36  1  0.226900  0.048800  0.526700  1.0  -0.003
  C  C37  1  0.230800  0.100800  0.450200  1.0  -0.0228
  C  C38  1  0.342400  0.111200  0.406200  1.0  0.6372
  C  C39  1  0.136600  0.140100  0.420100  1.0  -0.0576
  C  C40  1  0.133900  0.193700  0.340500  1.0  0.6952
  C  C41  1  0.036700  0.131800  0.466600  1.0  -0.0515
  C  C42  1  0.325500  0.997600  0.552400  1.0  0.6037
  C  C43  1  0.967200  0.411100  0.542900  1.0  -0.0247
  C  C44  1  0.873600  0.453200  0.575000  1.0  -0.1023
  C  C45  1  0.882900  0.506300  0.654600  1.0  0.6799
  C  C46  1  0.773100  0.451200  0.526700  1.0  -0.0031
  C  C47  1  0.769200  0.399200  0.450200  1.0  -0.0231
  C  C48  1  0.657600  0.388800  0.406200  1.0  0.6363
  C  C49  1  0.863400  0.359900  0.420100  1.0  -0.0579
  C  C50  1  0.866100  0.306300  0.340500  1.0  0.6953
  C  C51  1  0.963300  0.368200  0.466600  1.0  -0.0515
  C  C52  1  0.674500  0.502400  0.552400  1.0  0.6035
  C  C53  1  0.532800  0.411100  0.957100  1.0  -0.0246
  C  C54  1  0.626400  0.453200  0.925000  1.0  -0.1023
  C  C55  1  0.617100  0.506300  0.845400  1.0  0.6803
  C  C56  1  0.726900  0.451200  0.973300  1.0  -0.0025
  C  C57  1  0.730800  0.399200  0.049800  1.0  -0.0225
  C  C58  1  0.842400  0.388800  0.093800  1.0  0.6374
  C  C59  1  0.636600  0.359900  0.079900  1.0  -0.0571
  C  C60  1  0.633900  0.306300  0.159500  1.0  0.6956
  C  C61  1  0.536700  0.368200  0.033400  1.0  -0.0518
  C  C62  1  0.825500  0.502400  0.947600  1.0  0.6034
  C  C63  1  0.467200  0.088900  0.957100  1.0  -0.0246
  C  C64  1  0.373600  0.046800  0.925000  1.0  -0.1015
  C  C65  1  0.382900  0.993700  0.845400  1.0  0.6814
  C  C66  1  0.273100  0.048800  0.973300  1.0  -0.0032
  C  C67  1  0.269200  0.100800  0.049800  1.0  -0.0227
  C  C68  1  0.157600  0.111200  0.093800  1.0  0.6378
  C  C69  1  0.363400  0.140100  0.079900  1.0  -0.0575
  C  C70  1  0.366100  0.193700  0.159500  1.0  0.6953
  C  C71  1  0.463300  0.131800  0.033400  1.0  -0.0517
  C  C72  1  0.174500  0.997600  0.947600  1.0  0.6038
  C  C73  1  0.967200  0.911100  0.457100  1.0  -0.0266
  C  C74  1  0.873600  0.953200  0.425000  1.0  -0.1017
  C  C75  1  0.882900  0.006300  0.345400  1.0  0.6803
  C  C76  1  0.773100  0.951200  0.473300  1.0  -0.0031
  C  C77  1  0.769200  0.899200  0.549800  1.0  -0.0227
  C  C78  1  0.657600  0.888800  0.593800  1.0  0.6372
  C  C79  1  0.863400  0.859900  0.579900  1.0  -0.0576
  C  C80  1  0.866100  0.806300  0.659500  1.0  0.6954
  C  C81  1  0.963300  0.868200  0.533400  1.0  -0.0516
  C  C82  1  0.674500  0.002400  0.447600  1.0  0.6034
  C  C83  1  0.032800  0.588900  0.457100  1.0  -0.0233
  C  C84  1  0.126400  0.546800  0.425000  1.0  -0.1019
  C  C85  1  0.117100  0.493700  0.345400  1.0  0.6814
  C  C86  1  0.226900  0.548800  0.473300  1.0  -0.0029
  C  C87  1  0.230800  0.600800  0.549800  1.0  -0.0225
  C  C88  1  0.342400  0.611200  0.593800  1.0  0.6381
  C  C89  1  0.136600  0.640100  0.579900  1.0  -0.0575
  C  C90  1  0.133900  0.693700  0.659500  1.0  0.6956
  C  C91  1  0.036700  0.631800  0.533400  1.0  -0.052
  C  C92  1  0.325500  0.497600  0.447600  1.0  0.6034
  C  C93  1  0.467200  0.588900  0.042900  1.0  -0.0241
  C  C94  1  0.373600  0.546800  0.075000  1.0  -0.1016
  C  C95  1  0.382900  0.493700  0.154600  1.0  0.6799
  C  C96  1  0.273100  0.548800  0.026700  1.0  -0.0031
  C  C97  1  0.269200  0.600800  0.950200  1.0  -0.023
  C  C98  1  0.157600  0.611200  0.906200  1.0  0.6367
  C  C99  1  0.363400  0.640100  0.920100  1.0  -0.0577
  C  C100  1  0.366100  0.693700  0.840500  1.0  0.6951
  C  C101  1  0.463300  0.631800  0.966600  1.0  -0.0515
  C  C102  1  0.174500  0.497600  0.052400  1.0  0.604
  C  C103  1  0.532800  0.911100  0.042900  1.0  -0.024
  C  C104  1  0.626400  0.953200  0.075000  1.0  -0.1031
  C  C105  1  0.617100  0.006300  0.154600  1.0  0.6798
  C  C106  1  0.726900  0.951200  0.026700  1.0  -0.0028
  C  C107  1  0.730800  0.899200  0.950200  1.0  -0.0229
  C  C108  1  0.842400  0.888800  0.906200  1.0  0.6367
  C  C109  1  0.636600  0.859900  0.920100  1.0  -0.0574
  C  C110  1  0.633900  0.806300  0.840500  1.0  0.6953
  C  C111  1  0.536700  0.868200  0.966600  1.0  -0.0515
  C  C112  1  0.825500  0.002400  0.052400  1.0  0.6035
  O  O113  1  0.037100  0.011200  0.705300  1.0  -0.5638
  O  O114  1  0.186500  0.939000  0.667100  1.0  -0.5487
  O  O115  1  0.342300  0.930500  0.516100  1.0  -0.3317
  O  O116  1  0.387200  0.028000  0.612000  1.0  -0.5002
  O  O117  1  0.372400  0.050200  0.358600  1.0  -0.5432
  O  O118  1  0.394900  0.176300  0.417600  1.0  -0.4769
  O  O119  1  0.194700  0.258100  0.342800  1.0  -0.5277
  O  O120  1  0.069800  0.173400  0.280300  1.0  -0.5957
  O  O121  1  0.390600  0.843400  0.672800  1.0  -0.6565
  O  O122  1  0.962900  0.488800  0.705300  1.0  -0.5652
  O  O123  1  0.813500  0.561000  0.667100  1.0  -0.5499
  O  O124  1  0.657700  0.569500  0.516100  1.0  -0.3327
  O  O125  1  0.612800  0.472000  0.612000  1.0  -0.4987
  O  O126  1  0.627600  0.449800  0.358600  1.0  -0.5434
  O  O127  1  0.605100  0.323700  0.417600  1.0  -0.4767
  O  O128  1  0.805300  0.241900  0.342800  1.0  -0.5286
  O  O129  1  0.930200  0.326600  0.280300  1.0  -0.5946
  O  O130  1  0.609400  0.656600  0.672800  1.0  -0.6562
  O  O131  1  0.537100  0.488800  0.794700  1.0  -0.5632
  O  O132  1  0.686500  0.561000  0.832900  1.0  -0.5492
  O  O133  1  0.842300  0.569500  0.983900  1.0  -0.3342
  O  O134  1  0.887200  0.472000  0.888000  1.0  -0.4996
  O  O135  1  0.872400  0.449800  0.141400  1.0  -0.5425
  O  O136  1  0.894900  0.323700  0.082400  1.0  -0.4774
  O  O137  1  0.694700  0.241900  0.157200  1.0  -0.5277
  O  O138  1  0.569800  0.326600  0.219700  1.0  -0.5952
  O  O139  1  0.890600  0.656600  0.827200  1.0  -0.6552
  O  O140  1  0.462900  0.011200  0.794700  1.0  -0.5638
  O  O141  1  0.313500  0.939000  0.832900  1.0  -0.5492
  O  O142  1  0.157700  0.930500  0.983900  1.0  -0.3321
  O  O143  1  0.112800  0.028000  0.888000  1.0  -0.4975
  O  O144  1  0.127600  0.050200  0.141400  1.0  -0.5437
  O  O145  1  0.105100  0.176300  0.082400  1.0  -0.4766
  O  O146  1  0.305300  0.258100  0.157200  1.0  -0.5273
  O  O147  1  0.430200  0.173400  0.219700  1.0  -0.595
  O  O148  1  0.109400  0.843400  0.827200  1.0  -0.6558
  O  O149  1  0.962900  0.988800  0.294700  1.0  -0.5633
  O  O150  1  0.813500  0.061000  0.332900  1.0  -0.5502
  O  O151  1  0.657700  0.069500  0.483900  1.0  -0.3337
  O  O152  1  0.612800  0.972000  0.388000  1.0  -0.4975
  O  O153  1  0.627600  0.949800  0.641400  1.0  -0.5424
  O  O154  1  0.605100  0.823700  0.582400  1.0  -0.4768
  O  O155  1  0.805300  0.741900  0.657200  1.0  -0.5276
  O  O156  1  0.930200  0.826600  0.719700  1.0  -0.5951
  O  O157  1  0.609400  0.156600  0.327200  1.0  -0.6554
  O  O158  1  0.037100  0.511200  0.294700  1.0  -0.5634
  O  O159  1  0.186500  0.439000  0.332900  1.0  -0.5485
  O  O160  1  0.342300  0.430500  0.483900  1.0  -0.3328
  O  O161  1  0.387200  0.528000  0.388000  1.0  -0.4996
  O  O162  1  0.372400  0.550200  0.641400  1.0  -0.5436
  O  O163  1  0.394900  0.676300  0.582400  1.0  -0.4773
  O  O164  1  0.194700  0.758100  0.657200  1.0  -0.5265
  O  O165  1  0.069800  0.673400  0.719700  1.0  -0.595
  O  O166  1  0.390600  0.343400  0.327200  1.0  -0.6554
  O  O167  1  0.462900  0.511200  0.205300  1.0  -0.563
  O  O168  1  0.313500  0.439000  0.167100  1.0  -0.5495
  O  O169  1  0.157700  0.430500  0.016100  1.0  -0.3319
  O  O170  1  0.112800  0.528000  0.112000  1.0  -0.4982
  O  O171  1  0.127600  0.550200  0.858600  1.0  -0.5434
  O  O172  1  0.105100  0.676300  0.917600  1.0  -0.4767
  O  O173  1  0.305300  0.758100  0.842800  1.0  -0.5275
  O  O174  1  0.430200  0.673400  0.780300  1.0  -0.5955
  O  O175  1  0.109400  0.343400  0.172800  1.0  -0.6564
  O  O176  1  0.537100  0.988800  0.205300  1.0  -0.5664
  O  O177  1  0.686500  0.061000  0.167100  1.0  -0.5491
  O  O178  1  0.842300  0.069500  0.016100  1.0  -0.333
  O  O179  1  0.887200  0.972000  0.112000  1.0  -0.5004
  O  O180  1  0.872400  0.949800  0.858600  1.0  -0.5439
  O  O181  1  0.894900  0.823700  0.917600  1.0  -0.4773
  O  O182  1  0.694700  0.741900  0.842800  1.0  -0.5276
  O  O183  1  0.569800  0.826600  0.780300  1.0  -0.5946
  O  O184  1  0.890600  0.156600  0.172800  1.0  -0.6563
