# generated using pymatgen
data_Cd2H11C20N2O9
_symmetry_space_group_name_H-M   'P 1'
_cell_length_a   11.94100000
_cell_length_b   15.29860000
_cell_length_c   17.31600000
_cell_angle_alpha   84.72180000
_cell_angle_beta   76.36610000
_cell_angle_gamma   67.02910000
_symmetry_Int_Tables_number   1
_chemical_formula_structural   Cd2H11C20N2O9
_chemical_formula_sum   'Cd8 H44 C80 N8 O36'
_cell_volume   2830.38949905
_cell_formula_units_Z   4
loop_
 _symmetry_equiv_pos_site_id
 _symmetry_equiv_pos_as_xyz
  1  'x, y, z'
loop_
 _atom_site_type_symbol
 _atom_site_label
 _atom_site_symmetry_multiplicity
 _atom_site_fract_x
 _atom_site_fract_y
 _atom_site_fract_z
 _atom_site_occupancy
 _atom_site_charge
  Cd  Cd1  1  0.527260  0.562660  0.334440  1.0  1.0041
  Cd  Cd2  1  0.209150  0.369280  0.185880  1.0  1.1228
  Cd  Cd3  1  0.910080  0.562660  0.165560  1.0  1.0045
  Cd  Cd4  1  0.421570  0.369280  0.314120  1.0  1.1242
  Cd  Cd5  1  0.472740  0.437340  0.665560  1.0  1.0046
  Cd  Cd6  1  0.790850  0.630720  0.814120  1.0  1.1233
  Cd  Cd7  1  0.089920  0.437340  0.834440  1.0  1.004
  Cd  Cd8  1  0.578430  0.630720  0.685880  1.0  1.1257
  H  H9  1  0.892100  0.651400  0.464300  1.0  0.1073
  H  H10  1  0.089200  0.619600  0.385600  1.0  0.1275
  H  H11  1  0.509000  0.708800  0.192800  1.0  0.0897
  H  H12  1  0.438400  0.864800  0.162000  1.0  0.1209
  H  H13  1  0.445800  0.006200  0.150400  1.0  0.1205
  H  H14  1  0.388900  0.166000  0.125000  1.0  0.0852
  H  H15  1  0.135100  0.224600  0.320400  1.0  0.0803
  H  H16  1  0.190300  0.068400  0.352900  1.0  0.1345
  H  H17  1  0.322700  0.926000  0.393200  1.0  0.1364
  H  H18  1  0.401500  0.763600  0.417700  1.0  0.0863
  H  H19  1  0.153000  0.348000  0.027700  1.0  0.3846
  H  H20  1  0.456500  0.651400  0.035700  1.0  0.1075
  H  H21  1  0.291200  0.619600  0.114400  1.0  0.1273
  H  H22  1  0.782200  0.708800  0.307200  1.0  0.0898
  H  H23  1  0.696800  0.864800  0.338000  1.0  0.1203
  H  H24  1  0.548000  0.006200  0.349600  1.0  0.1212
  H  H25  1  0.445100  0.166000  0.375000  1.0  0.0847
  H  H26  1  0.640300  0.224600  0.179600  1.0  0.0806
  H  H27  1  0.741300  0.068400  0.147100  1.0  0.1336
  H  H28  1  0.751300  0.926000  0.106800  1.0  0.1361
  H  H29  1  0.834900  0.763600  0.082300  1.0  0.085
  H  H30  1  0.499000  0.348000  0.472300  1.0  0.3839
  H  H31  1  0.107900  0.348600  0.535700  1.0  0.1079
  H  H32  1  0.910800  0.380400  0.614400  1.0  0.1273
  H  H33  1  0.491000  0.291200  0.807200  1.0  0.0895
  H  H34  1  0.561600  0.135200  0.838000  1.0  0.1202
  H  H35  1  0.554200  0.993800  0.849600  1.0  0.1208
  H  H36  1  0.611100  0.834000  0.875000  1.0  0.0848
  H  H37  1  0.864900  0.775400  0.679600  1.0  0.079
  H  H38  1  0.809700  0.931600  0.647100  1.0  0.1337
  H  H39  1  0.677300  0.074000  0.606800  1.0  0.1358
  H  H40  1  0.598500  0.236400  0.582300  1.0  0.0851
  H  H41  1  0.847000  0.652000  0.972300  1.0  0.3836
  H  H42  1  0.543500  0.348600  0.964300  1.0  0.1074
  H  H43  1  0.708800  0.380400  0.885600  1.0  0.1278
  H  H44  1  0.217800  0.291200  0.692800  1.0  0.0896
  H  H45  1  0.303200  0.135200  0.662000  1.0  0.1211
  H  H46  1  0.452000  0.993800  0.650400  1.0  0.1204
  H  H47  1  0.554900  0.834000  0.625000  1.0  0.0853
  H  H48  1  0.359700  0.775400  0.820400  1.0  0.0784
  H  H49  1  0.258700  0.931600  0.852900  1.0  0.1343
  H  H50  1  0.248700  0.074000  0.893200  1.0  0.1364
  H  H51  1  0.165100  0.236400  0.917700  1.0  0.0865
  H  H52  1  0.501000  0.652000  0.527700  1.0  0.3842
  C  C53  1  0.307200  0.561000  0.424600  1.0  0.6623
  C  C54  1  0.182200  0.569600  0.473800  1.0  -0.071
  C  C55  1  0.167600  0.546600  0.553800  1.0  -0.0397
  C  C56  1  0.281000  0.499400  0.588800  1.0  0.6283
  C  C57  1  0.048900  0.565600  0.602200  1.0  -0.0479
  C  C58  1  0.040300  0.540200  0.688800  1.0  0.675
  C  C59  1  0.944900  0.607200  0.567700  1.0  -0.1423
  C  C60  1  0.814900  0.624800  0.615000  1.0  0.6494
  C  C61  1  0.961300  0.625800  0.487200  1.0  -0.0254
  C  C62  1  0.079300  0.607000  0.439800  1.0  -0.0763
  C  C63  1  0.471200  0.753000  0.233800  1.0  0.1845
  C  C64  1  0.428200  0.846800  0.215100  1.0  -0.2015
  C  C65  1  0.370700  0.914800  0.272700  1.0  0.1111
  C  C66  1  0.326100  0.017600  0.254700  1.0  0.0972
  C  C67  1  0.382900  0.049600  0.186800  1.0  -0.1958
  C  C68  1  0.347600  0.146400  0.171500  1.0  0.1881
  C  C69  1  0.200300  0.180200  0.286000  1.0  0.1943
  C  C70  1  0.231900  0.086200  0.305600  1.0  -0.2081
  C  C71  1  0.360300  0.883200  0.351200  1.0  -0.2164
  C  C72  1  0.408100  0.784800  0.365300  1.0  0.185
  C  C73  1  0.131800  0.561000  0.075400  1.0  0.6602
  C  C74  1  0.248200  0.569600  0.026200  1.0  -0.0714
  C  C75  1  0.285800  0.546600  0.946200  1.0  -0.0405
  C  C76  1  0.219600  0.499400  0.911200  1.0  0.6273
  C  C77  1  0.385500  0.565600  0.897800  1.0  -0.0488
  C  C78  1  0.419500  0.540200  0.811200  1.0  0.6737
  C  C79  1  0.447900  0.607200  0.932300  1.0  -0.1422
  C  C80  1  0.560300  0.624800  0.885000  1.0  0.6505
  C  C81  1  0.412900  0.625800  0.012800  1.0  -0.0277
  C  C82  1  0.313700  0.607000  0.060200  1.0  -0.0761
  C  C83  1  0.775800  0.753000  0.266200  1.0  0.1859
  C  C84  1  0.725000  0.846800  0.284900  1.0  -0.2016
  C  C85  1  0.714500  0.914800  0.227300  1.0  0.1104
  C  C86  1  0.656300  0.017600  0.245300  1.0  0.0975
  C  C87  1  0.567500  0.049600  0.313200  1.0  -0.1942
  C  C88  1  0.506000  0.146400  0.328500  1.0  0.1879
  C  C89  1  0.619500  0.180200  0.214000  1.0  0.1958
  C  C90  1  0.681900  0.086200  0.194400  1.0  -0.2073
  C  C91  1  0.756500  0.883200  0.148800  1.0  -0.2124
  C  C92  1  0.807100  0.784800  0.134700  1.0  0.1848
  C  C93  1  0.692800  0.439000  0.575400  1.0  0.6606
  C  C94  1  0.817800  0.430400  0.526200  1.0  -0.0713
  C  C95  1  0.832400  0.453400  0.446200  1.0  -0.0408
  C  C96  1  0.719000  0.500600  0.411200  1.0  0.6267
  C  C97  1  0.951100  0.434400  0.397800  1.0  -0.0487
  C  C98  1  0.959700  0.459800  0.311200  1.0  0.6737
  C  C99  1  0.055100  0.392800  0.432300  1.0  -0.1412
  C  C100  1  0.185100  0.375200  0.385000  1.0  0.6505
  C  C101  1  0.038700  0.374200  0.512800  1.0  -0.0274
  C  C102  1  0.920700  0.393000  0.560200  1.0  -0.0765
  C  C103  1  0.528800  0.247000  0.766200  1.0  0.1851
  C  C104  1  0.571800  0.153200  0.784900  1.0  -0.2021
  C  C105  1  0.629300  0.085200  0.727300  1.0  0.1106
  C  C106  1  0.673900  0.982400  0.745300  1.0  0.0967
  C  C107  1  0.617100  0.950400  0.813200  1.0  -0.1928
  C  C108  1  0.652400  0.853600  0.828500  1.0  0.1882
  C  C109  1  0.799700  0.819800  0.714000  1.0  0.1956
  C  C110  1  0.768100  0.913800  0.694400  1.0  -0.2069
  C  C111  1  0.639700  0.116800  0.648800  1.0  -0.2137
  C  C112  1  0.591900  0.215200  0.634700  1.0  0.1855
  C  C113  1  0.868200  0.439000  0.924600  1.0  0.6622
  C  C114  1  0.751800  0.430400  0.973800  1.0  -0.071
  C  C115  1  0.714200  0.453400  0.053800  1.0  -0.0397
  C  C116  1  0.780400  0.500600  0.088800  1.0  0.628
  C  C117  1  0.614500  0.434400  0.102200  1.0  -0.0475
  C  C118  1  0.580500  0.459800  0.188800  1.0  0.6755
  C  C119  1  0.552100  0.392800  0.067700  1.0  -0.1421
  C  C120  1  0.439700  0.375200  0.115000  1.0  0.6502
  C  C121  1  0.587100  0.374200  0.987200  1.0  -0.0256
  C  C122  1  0.686300  0.393000  0.939800  1.0  -0.0748
  C  C123  1  0.224200  0.247000  0.733800  1.0  0.1845
  C  C124  1  0.275000  0.153200  0.715100  1.0  -0.2017
  C  C125  1  0.285500  0.085200  0.772700  1.0  0.1109
  C  C126  1  0.343700  0.982400  0.754700  1.0  0.0977
  C  C127  1  0.432500  0.950400  0.686800  1.0  -0.1956
  C  C128  1  0.494000  0.853600  0.671500  1.0  0.1872
  C  C129  1  0.380500  0.819800  0.786000  1.0  0.1954
  C  C130  1  0.318100  0.913800  0.805600  1.0  -0.2079
  C  C131  1  0.243500  0.116800  0.851200  1.0  -0.2161
  C  C132  1  0.192900  0.215200  0.865300  1.0  0.1857
  N  N133  1  0.461400  0.721600  0.308700  1.0  -0.3328
  N  N134  1  0.257200  0.212200  0.220500  1.0  -0.3419
  N  N135  1  0.817000  0.721600  0.191300  1.0  -0.3331
  N  N136  1  0.530600  0.212200  0.279500  1.0  -0.3411
  N  N137  1  0.538600  0.278400  0.691300  1.0  -0.3332
  N  N138  1  0.742800  0.787800  0.779500  1.0  -0.3427
  N  N139  1  0.183000  0.278400  0.808700  1.0  -0.3331
  N  N140  1  0.469400  0.787800  0.720500  1.0  -0.3417
  O  O141  1  0.369700  0.593000  0.452800  1.0  -0.5378
  O  O142  1  0.344050  0.528300  0.354600  1.0  -0.6457
  O  O143  1  0.357980  0.419640  0.564200  1.0  -0.5537
  O  O144  1  0.291200  0.540400  0.644500  1.0  -0.5276
  O  O145  1  0.090100  0.454000  0.704800  1.0  -0.5739
  O  O146  1  0.989180  0.604640  0.740500  1.0  -0.5884
  O  O147  1  0.797790  0.589020  0.683200  1.0  -0.6287
  O  O148  1  0.724800  0.670600  0.584300  1.0  -0.5892
  O  O149  1  0.132300  0.345400  0.080300  1.0  -0.6321
  O  O150  1  0.037300  0.593000  0.047200  1.0  -0.5356
  O  O151  1  0.127650  0.528300  0.145400  1.0  -0.6527
  O  O152  1  0.222380  0.419640  0.935800  1.0  -0.5535
  O  O153  1  0.168400  0.540400  0.855500  1.0  -0.5254
  O  O154  1  0.455900  0.454000  0.795200  1.0  -0.5731
  O  O155  1  0.406180  0.604640  0.759500  1.0  -0.5895
  O  O156  1  0.613190  0.589020  0.816800  1.0  -0.6279
  O  O157  1  0.604600  0.670600  0.915700  1.0  -0.5889
  O  O158  1  0.522300  0.345400  0.419700  1.0  -0.6334
  O  O159  1  0.630300  0.407000  0.547200  1.0  -0.5357
  O  O160  1  0.655950  0.471700  0.645400  1.0  -0.6503
  O  O161  1  0.642020  0.580360  0.435800  1.0  -0.5531
  O  O162  1  0.708800  0.459600  0.355500  1.0  -0.5242
  O  O163  1  0.909900  0.546000  0.295200  1.0  -0.5731
  O  O164  1  0.010820  0.395360  0.259500  1.0  -0.5883
  O  O165  1  0.202210  0.410980  0.316800  1.0  -0.6273
  O  O166  1  0.275200  0.329400  0.415700  1.0  -0.5894
  O  O167  1  0.867700  0.654600  0.919700  1.0  -0.6342
  O  O168  1  0.962700  0.407000  0.952800  1.0  -0.5374
  O  O169  1  0.872350  0.471700  0.854600  1.0  -0.6462
  O  O170  1  0.777620  0.580360  0.064200  1.0  -0.5529
  O  O171  1  0.831600  0.459600  0.144500  1.0  -0.5238
  O  O172  1  0.544100  0.546000  0.204800  1.0  -0.5741
  O  O173  1  0.593820  0.395360  0.240500  1.0  -0.5868
  O  O174  1  0.386810  0.410980  0.183200  1.0  -0.6281
  O  O175  1  0.395400  0.329400  0.084300  1.0  -0.5897
  O  O176  1  0.477700  0.654600  0.580300  1.0  -0.6339
