# generated using pymatgen
data_U5H28C24(N3O11)2
_symmetry_space_group_name_H-M   'P 1'
_cell_length_a   8.46030000
_cell_length_b   16.84390000
_cell_length_c   22.16050000
_cell_angle_alpha   78.79500000
_cell_angle_beta   89.89400000
_cell_angle_gamma   82.17400000
_symmetry_Int_Tables_number   1
_chemical_formula_structural   U5H28C24(N3O11)2
_chemical_formula_sum   'U10 H56 C48 N12 O44'
_cell_volume   3067.93684399
_cell_formula_units_Z   2
loop_
 _symmetry_equiv_pos_site_id
 _symmetry_equiv_pos_as_xyz
  1  'x, y, z'
loop_
 _atom_site_type_symbol
 _atom_site_label
 _atom_site_symmetry_multiplicity
 _atom_site_fract_x
 _atom_site_fract_y
 _atom_site_fract_z
 _atom_site_occupancy
 _atom_site_charge
  U  U1  1  0.963270  0.092260  0.254920  1.0  1.9746
  U  U2  1  0.462480  0.096020  0.242600  1.0  1.9727
  U  U3  1  0.260520  0.909290  0.232200  1.0  1.7777
  U  U4  1  0.764150  0.901340  0.265620  1.0  1.7716
  U  U5  1  0.036730  0.907740  0.745080  1.0  1.9729
  U  U6  1  0.537520  0.903980  0.757400  1.0  1.9714
  U  U7  1  0.739480  0.090710  0.767800  1.0  1.7789
  U  U8  1  0.235850  0.098660  0.734380  1.0  1.7693
  U  U9  1  0.000000  0.500000  0.000000  1.0  1.7224
  U  U10  1  0.500000  0.500000  0.500000  1.0  1.7042
  H  H11  1  0.719200  0.036400  0.304300  1.0  0.394
  H  H12  1  0.207000  0.068500  0.197600  1.0  0.4329
  H  H13  1  0.965600  0.972900  0.182100  1.0  0.4118
  H  H14  1  0.472900  0.940800  0.315400  1.0  0.421
  H  H15  1  0.379200  0.489200  0.162000  1.0  0.0694
  H  H16  1  0.335900  0.585600  0.137000  1.0  0.0563
  H  H17  1  0.540500  0.486600  0.069400  1.0  0.0666
  H  H18  1  0.521000  0.584700  0.060700  1.0  0.0635
  H  H19  1  0.161800  0.371300  0.173800  1.0  0.0646
  H  H20  1  0.033500  0.329100  0.142300  1.0  0.0723
  H  H21  1  0.878900  0.321300  0.232100  1.0  0.0463
  H  H22  1  0.007800  0.362200  0.264300  1.0  0.0574
  H  H23  1  0.096300  0.663300  0.177200  1.0  0.0701
  H  H24  1  0.960000  0.724100  0.134700  1.0  0.063
  H  H25  1  0.908400  0.639800  0.256900  1.0  0.048
  H  H26  1  0.772300  0.698400  0.212700  1.0  0.0498
  H  H27  1  0.872000  0.513300  0.337300  1.0  0.0699
  H  H28  1  0.883600  0.416600  0.361900  1.0  0.0625
  H  H29  1  0.032000  0.517300  0.428700  1.0  0.0569
  H  H30  1  0.065300  0.419100  0.439100  1.0  0.0664
  H  H31  1  0.680000  0.332300  0.324200  1.0  0.0605
  H  H32  1  0.570100  0.271300  0.363200  1.0  0.0565
  H  H33  1  0.485900  0.362500  0.241700  1.0  0.0513
  H  H34  1  0.374700  0.304600  0.283100  1.0  0.0493
  H  H35  1  0.601000  0.627000  0.324100  1.0  0.0644
  H  H36  1  0.453500  0.667300  0.358800  1.0  0.0662
  H  H37  1  0.287800  0.679500  0.270500  1.0  0.0531
  H  H38  1  0.435000  0.638900  0.236000  1.0  0.0566
  H  H39  1  0.280800  0.963600  0.695700  1.0  0.395
  H  H40  1  0.793000  0.931500  0.802400  1.0  0.4334
  H  H41  1  0.034400  0.027100  0.817900  1.0  0.4134
  H  H42  1  0.527100  0.059200  0.684600  1.0  0.4195
  H  H43  1  0.620800  0.510800  0.838000  1.0  0.068
  H  H44  1  0.664100  0.414400  0.863000  1.0  0.0585
  H  H45  1  0.459500  0.513400  0.930600  1.0  0.0656
  H  H46  1  0.479000  0.415300  0.939300  1.0  0.0651
  H  H47  1  0.838200  0.628700  0.826200  1.0  0.0656
  H  H48  1  0.966500  0.670900  0.857700  1.0  0.0714
  H  H49  1  0.121100  0.678700  0.767900  1.0  0.0469
  H  H50  1  0.992200  0.637800  0.735700  1.0  0.0589
  H  H51  1  0.903700  0.336700  0.822800  1.0  0.0678
  H  H52  1  0.040000  0.275900  0.865300  1.0  0.0624
  H  H53  1  0.091600  0.360200  0.743100  1.0  0.0505
  H  H54  1  0.227700  0.301600  0.787300  1.0  0.0509
  H  H55  1  0.128000  0.486700  0.662700  1.0  0.0689
  H  H56  1  0.116400  0.583400  0.638100  1.0  0.0605
  H  H57  1  0.968000  0.482700  0.571300  1.0  0.0567
  H  H58  1  0.934700  0.580900  0.560900  1.0  0.0646
  H  H59  1  0.320000  0.667700  0.675800  1.0  0.0613
  H  H60  1  0.429900  0.728700  0.636800  1.0  0.0565
  H  H61  1  0.514100  0.637500  0.758300  1.0  0.0502
  H  H62  1  0.625300  0.695400  0.716900  1.0  0.0495
  H  H63  1  0.399000  0.373000  0.675900  1.0  0.0621
  H  H64  1  0.546500  0.332700  0.641200  1.0  0.0677
  H  H65  1  0.712200  0.320500  0.729500  1.0  0.052
  H  H66  1  0.565000  0.361100  0.764000  1.0  0.0563
  C  C67  1  0.733700  0.449300  0.162600  1.0  0.4633
  C  C68  1  0.930900  0.513400  0.206400  1.0  0.5154
  C  C69  1  0.700900  0.595700  0.151700  1.0  0.4743
  C  C70  1  0.250400  0.405400  0.347300  1.0  0.4686
  C  C71  1  0.437900  0.486500  0.292400  1.0  0.4717
  C  C72  1  0.207700  0.551800  0.336800  1.0  0.4812
  C  C73  1  0.237400  0.517200  0.083600  1.0  0.7175
  C  C74  1  0.366200  0.532500  0.124400  1.0  -0.3766
  C  C75  1  0.521300  0.533100  0.091000  1.0  -0.0208
  C  C76  1  0.166300  0.249000  0.212400  1.0  0.6765
  C  C77  1  0.084000  0.332100  0.182000  1.0  -0.4052
  C  C78  1  0.958000  0.360200  0.224400  1.0  -0.0662
  C  C79  1  0.034000  0.771200  0.207200  1.0  0.7002
  C  C80  1  0.998000  0.702500  0.177700  1.0  -0.4164
  C  C81  1  0.872000  0.659900  0.213500  1.0  -0.0396
  C  C82  1  0.745700  0.483400  0.415500  1.0  0.7329
  C  C83  1  0.883300  0.469700  0.374800  1.0  -0.3735
  C  C84  1  0.038300  0.470000  0.408000  1.0  -0.0298
  C  C85  1  0.671000  0.228300  0.288900  1.0  0.6888
  C  C86  1  0.601000  0.295000  0.321100  1.0  -0.3863
  C  C87  1  0.456000  0.341300  0.284400  1.0  -0.0442
  C  C88  1  0.536000  0.750100  0.288500  1.0  0.685
  C  C89  1  0.501000  0.666000  0.318100  1.0  -0.4084
  C  C90  1  0.387000  0.639700  0.276700  1.0  -0.0532
  C  C91  1  0.266300  0.550700  0.837400  1.0  0.4682
  C  C92  1  0.069100  0.486600  0.793600  1.0  0.5136
  C  C93  1  0.299100  0.404300  0.848300  1.0  0.4771
  C  C94  1  0.749600  0.594600  0.652700  1.0  0.4657
  C  C95  1  0.562100  0.513500  0.707600  1.0  0.4728
  C  C96  1  0.792300  0.448200  0.663200  1.0  0.4749
  C  C97  1  0.762600  0.482800  0.916400  1.0  0.7149
  C  C98  1  0.633800  0.467500  0.875600  1.0  -0.3786
  C  C99  1  0.478700  0.466900  0.909000  1.0  -0.0223
  C  C100  1  0.833700  0.751000  0.787600  1.0  0.6751
  C  C101  1  0.916000  0.667900  0.818000  1.0  -0.41
  C  C102  1  0.042000  0.639800  0.775600  1.0  -0.0655
  C  C103  1  0.966000  0.228800  0.792800  1.0  0.6983
  C  C104  1  0.002000  0.297500  0.822300  1.0  -0.4161
  C  C105  1  0.128000  0.340100  0.786500  1.0  -0.0354
  C  C106  1  0.254300  0.516600  0.584500  1.0  0.733
  C  C107  1  0.116700  0.530300  0.625200  1.0  -0.3722
  C  C108  1  0.961700  0.530000  0.592000  1.0  -0.0277
  C  C109  1  0.329000  0.771700  0.711100  1.0  0.6879
  C  C110  1  0.399000  0.705000  0.678900  1.0  -0.3855
  C  C111  1  0.544000  0.658700  0.715600  1.0  -0.045
  C  C112  1  0.464000  0.249900  0.711500  1.0  0.6856
  C  C113  1  0.499000  0.334000  0.681900  1.0  -0.403
  C  C114  1  0.613000  0.360300  0.723300  1.0  -0.0541
  N  N115  1  0.646100  0.525500  0.140700  1.0  -0.2601
  N  N116  1  0.876100  0.443300  0.195400  1.0  -0.2883
  N  N117  1  0.843300  0.589600  0.184500  1.0  -0.2675
  N  N118  1  0.159500  0.476000  0.358600  1.0  -0.2487
  N  N119  1  0.389600  0.410700  0.314200  1.0  -0.2822
  N  N120  1  0.346900  0.557000  0.303700  1.0  -0.2972
  N  N121  1  0.353900  0.474500  0.859300  1.0  -0.26
  N  N122  1  0.123900  0.556700  0.804600  1.0  -0.2886
  N  N123  1  0.156700  0.410400  0.815500  1.0  -0.2669
  N  N124  1  0.840500  0.524000  0.641400  1.0  -0.2535
  N  N125  1  0.610400  0.589300  0.685800  1.0  -0.2824
  N  N126  1  0.653100  0.443000  0.696300  1.0  -0.2974
  O  O127  1  0.102300  0.558900  0.083700  1.0  -0.702
  O  O128  1  0.266000  0.463400  0.051600  1.0  -0.7045
  O  O129  1  0.102900  0.207800  0.257200  1.0  -0.762
  O  O130  1  0.291900  0.220700  0.189500  1.0  -0.6873
  O  O131  1  0.146500  0.808000  0.186500  1.0  -0.6912
  O  O132  1  0.951600  0.788300  0.251100  1.0  -0.7455
  O  O133  1  0.684500  0.386500  0.152800  1.0  -0.6069
  O  O134  1  0.056400  0.511400  0.235200  1.0  -0.5828
  O  O135  1  0.619700  0.662600  0.131600  1.0  -0.5806
  O  O136  1  0.634100  0.441400  0.416900  1.0  -0.7129
  O  O137  1  0.747300  0.536000  0.448200  1.0  -0.6907
  O  O138  1  0.598000  0.211200  0.245100  1.0  -0.7298
  O  O139  1  0.804000  0.190200  0.307100  1.0  -0.6842
  O  O140  1  0.647500  0.778200  0.310800  1.0  -0.6864
  O  O141  1  0.451100  0.791400  0.243800  1.0  -0.7132
  O  O142  1  0.206500  0.337900  0.366900  1.0  -0.5987
  O  O143  1  0.560900  0.494700  0.262700  1.0  -0.6041
  O  O144  1  0.124300  0.613600  0.347500  1.0  -0.611
  O  O145  1  0.724000  0.040500  0.265900  1.0  -0.8203
  O  O146  1  0.217000  0.052600  0.235900  1.0  -0.735
  O  O147  1  0.985000  0.961300  0.220200  1.0  -0.7325
  O  O148  1  0.487700  0.948700  0.277300  1.0  -0.7318
  O  O149  1  0.897700  0.441100  0.916300  1.0  -0.7034
  O  O150  1  0.734000  0.536600  0.948400  1.0  -0.7036
  O  O151  1  0.897100  0.792200  0.742800  1.0  -0.7601
  O  O152  1  0.708100  0.779300  0.810500  1.0  -0.6885
  O  O153  1  0.853500  0.192000  0.813500  1.0  -0.6939
  O  O154  1  0.048400  0.211700  0.748900  1.0  -0.7438
  O  O155  1  0.315500  0.613500  0.847200  1.0  -0.6056
  O  O156  1  0.943600  0.488600  0.764800  1.0  -0.5824
  O  O157  1  0.380300  0.337400  0.868400  1.0  -0.5831
  O  O158  1  0.365900  0.558600  0.583100  1.0  -0.715
  O  O159  1  0.252700  0.464000  0.551800  1.0  -0.6887
  O  O160  1  0.402000  0.788800  0.754900  1.0  -0.7309
  O  O161  1  0.196000  0.809800  0.692900  1.0  -0.6818
  O  O162  1  0.352500  0.221800  0.689200  1.0  -0.6857
  O  O163  1  0.548900  0.208600  0.756200  1.0  -0.7168
  O  O164  1  0.793500  0.662100  0.633100  1.0  -0.5965
  O  O165  1  0.439100  0.505300  0.737300  1.0  -0.6033
  O  O166  1  0.875700  0.386400  0.652500  1.0  -0.6131
  O  O167  1  0.276000  0.959500  0.734100  1.0  -0.8196
  O  O168  1  0.783000  0.947400  0.764100  1.0  -0.7368
  O  O169  1  0.015000  0.038700  0.779800  1.0  -0.7337
  O  O170  1  0.512300  0.051300  0.722700  1.0  -0.7299
