# generated using pymatgen
data_Ni2H19C19N3O11
_symmetry_space_group_name_H-M   'P 1'
_cell_length_a   22.12110000
_cell_length_b   17.55360000
_cell_length_c   7.04800000
_cell_angle_alpha   90.00000000
_cell_angle_beta   97.06000000
_cell_angle_gamma   90.00000000
_symmetry_Int_Tables_number   1
_chemical_formula_structural   Ni2H19C19N3O11
_chemical_formula_sum   'Ni8 H76 C76 N12 O44'
_cell_volume   2716.02297143
_cell_formula_units_Z   4
loop_
 _symmetry_equiv_pos_site_id
 _symmetry_equiv_pos_as_xyz
  1  'x, y, z'
loop_
 _atom_site_type_symbol
 _atom_site_label
 _atom_site_symmetry_multiplicity
 _atom_site_fract_x
 _atom_site_fract_y
 _atom_site_fract_z
 _atom_site_occupancy
 _atom_site_charge
  Ni  Ni1  1  0.244230  0.000000  0.469050  1.0  0.8987
  Ni  Ni2  1  0.114470  0.000000  0.704990  1.0  0.8493
  Ni  Ni3  1  0.744230  0.500000  0.469050  1.0  0.8987
  Ni  Ni4  1  0.614470  0.500000  0.704990  1.0  0.8493
  Ni  Ni5  1  0.755770  0.000000  0.530950  1.0  0.9003
  Ni  Ni6  1  0.885530  0.000000  0.295010  1.0  0.8539
  Ni  Ni7  1  0.255770  0.500000  0.530950  1.0  0.9003
  Ni  Ni8  1  0.385530  0.500000  0.295010  1.0  0.8539
  H  H9  1  0.136000  0.961900  0.385700  1.0  0.3471
  H  H10  1  0.122600  0.840000  0.228200  1.0  0.3554
  H  H11  1  0.288700  0.846400  0.986100  1.0  0.097
  H  H12  1  0.168900  0.786800  0.009800  1.0  0.0923
  H  H13  1  0.287400  0.772400  0.702100  1.0  0.0964
  H  H14  1  0.221700  0.739000  0.731100  1.0  0.1022
  H  H15  1  0.081600  0.180100  0.653500  1.0  0.2452
  H  H16  1  0.347500  0.111200  0.476700  1.0  0.0793
  H  H17  1  0.453200  0.114800  0.495300  1.0  0.1218
  H  H18  1  0.636000  0.461900  0.385700  1.0  0.3471
  H  H19  1  0.622600  0.340000  0.228200  1.0  0.3554
  H  H20  1  0.788700  0.346400  0.986100  1.0  0.097
  H  H21  1  0.668900  0.286800  0.009800  1.0  0.0923
  H  H22  1  0.787400  0.272400  0.702100  1.0  0.0964
  H  H23  1  0.721700  0.239000  0.731100  1.0  0.1022
  H  H24  1  0.581600  0.680100  0.653500  1.0  0.2452
  H  H25  1  0.847500  0.611200  0.476700  1.0  0.0793
  H  H26  1  0.953200  0.614800  0.495300  1.0  0.1218
  H  H27  1  0.864000  0.961900  0.614300  1.0  0.3468
  H  H28  1  0.877400  0.840000  0.771800  1.0  0.3559
  H  H29  1  0.711300  0.846400  0.013900  1.0  0.0968
  H  H30  1  0.831100  0.786800  0.990200  1.0  0.0928
  H  H31  1  0.712600  0.772400  0.297900  1.0  0.097
  H  H32  1  0.778300  0.739000  0.268900  1.0  0.1029
  H  H33  1  0.918400  0.180100  0.346500  1.0  0.246
  H  H34  1  0.652500  0.111200  0.523300  1.0  0.0795
  H  H35  1  0.546800  0.114800  0.504700  1.0  0.1222
  H  H36  1  0.364000  0.461900  0.614300  1.0  0.3468
  H  H37  1  0.377400  0.340000  0.771800  1.0  0.3559
  H  H38  1  0.211300  0.346400  0.013900  1.0  0.0968
  H  H39  1  0.331100  0.286800  0.990200  1.0  0.0928
  H  H40  1  0.212600  0.272400  0.297900  1.0  0.097
  H  H41  1  0.278300  0.239000  0.268900  1.0  0.1029
  H  H42  1  0.418400  0.680100  0.346500  1.0  0.246
  H  H43  1  0.152500  0.611200  0.523300  1.0  0.0795
  H  H44  1  0.046800  0.614800  0.504700  1.0  0.1222
  H  H45  1  0.864000  0.038100  0.614300  1.0  0.3457
  H  H46  1  0.877400  0.160000  0.771800  1.0  0.3554
  H  H47  1  0.711300  0.153600  0.013900  1.0  0.0976
  H  H48  1  0.831100  0.213200  0.990200  1.0  0.0924
  H  H49  1  0.712600  0.227600  0.297900  1.0  0.0975
  H  H50  1  0.778300  0.261000  0.268900  1.0  0.1022
  H  H51  1  0.918400  0.819900  0.346500  1.0  0.2453
  H  H52  1  0.652500  0.888800  0.523300  1.0  0.0793
  H  H53  1  0.546800  0.885200  0.504700  1.0  0.1218
  H  H54  1  0.364000  0.538100  0.614300  1.0  0.3457
  H  H55  1  0.377400  0.660000  0.771800  1.0  0.3554
  H  H56  1  0.211300  0.653600  0.013900  1.0  0.0976
  H  H57  1  0.331100  0.713200  0.990200  1.0  0.0924
  H  H58  1  0.212600  0.727600  0.297900  1.0  0.0975
  H  H59  1  0.278300  0.761000  0.268900  1.0  0.1022
  H  H60  1  0.418400  0.319900  0.346500  1.0  0.2453
  H  H61  1  0.152500  0.388800  0.523300  1.0  0.0793
  H  H62  1  0.046800  0.385200  0.504700  1.0  0.1218
  H  H63  1  0.136000  0.038100  0.385700  1.0  0.3469
  H  H64  1  0.122600  0.160000  0.228200  1.0  0.3561
  H  H65  1  0.288700  0.153600  0.986100  1.0  0.0974
  H  H66  1  0.168900  0.213200  0.009800  1.0  0.0921
  H  H67  1  0.287400  0.227600  0.702100  1.0  0.0962
  H  H68  1  0.221700  0.261000  0.731100  1.0  0.1023
  H  H69  1  0.081600  0.819900  0.653500  1.0  0.2457
  H  H70  1  0.347500  0.888800  0.476700  1.0  0.0795
  H  H71  1  0.453200  0.885200  0.495300  1.0  0.1221
  H  H72  1  0.636000  0.538100  0.385700  1.0  0.3469
  H  H73  1  0.622600  0.660000  0.228200  1.0  0.3561
  H  H74  1  0.788700  0.653600  0.986100  1.0  0.0974
  H  H75  1  0.668900  0.713200  0.009800  1.0  0.0921
  H  H76  1  0.787400  0.727600  0.702100  1.0  0.0962
  H  H77  1  0.721700  0.761000  0.731100  1.0  0.1023
  H  H78  1  0.581600  0.319900  0.653500  1.0  0.2457
  H  H79  1  0.847500  0.388800  0.476700  1.0  0.0795
  H  H80  1  0.953200  0.385200  0.495300  1.0  0.1221
  H  H81  1  0.000000  0.248500  0.500000  1.0  0.1128
  H  H82  1  0.500000  0.748500  0.500000  1.0  0.1128
  H  H83  1  0.000000  0.751500  0.500000  1.0  0.1133
  H  H84  1  0.500000  0.251500  0.500000  1.0  0.1133
  C  C85  1  0.248700  0.828000  0.920700  1.0  -0.1302
  C  C86  1  0.208760  0.806000  0.074200  1.0  -0.1306
  C  C87  1  0.260700  0.757700  0.799000  1.0  -0.1393
  C  C88  1  0.220780  0.891500  0.789600  1.0  0.6652
  C  C89  1  0.196600  0.873500  0.201100  1.0  0.6454
  C  C90  1  0.047400  0.153900  0.589800  1.0  0.0438
  C  C91  1  0.369300  0.064500  0.480600  1.0  0.1885
  C  C92  1  0.432800  0.067000  0.491400  1.0  -0.1585
  C  C93  1  0.748700  0.328000  0.920700  1.0  -0.1302
  C  C94  1  0.708760  0.306000  0.074200  1.0  -0.1306
  C  C95  1  0.760700  0.257700  0.799000  1.0  -0.1393
  C  C96  1  0.720780  0.391500  0.789600  1.0  0.6652
  C  C97  1  0.696600  0.373500  0.201100  1.0  0.6454
  C  C98  1  0.547400  0.653900  0.589800  1.0  0.0438
  C  C99  1  0.869300  0.564500  0.480600  1.0  0.1885
  C  C100  1  0.932800  0.567000  0.491400  1.0  -0.1585
  C  C101  1  0.751300  0.828000  0.079300  1.0  -0.1306
  C  C102  1  0.791240  0.806000  0.925800  1.0  -0.1294
  C  C103  1  0.739300  0.757700  0.201000  1.0  -0.1407
  C  C104  1  0.779220  0.891500  0.210400  1.0  0.6653
  C  C105  1  0.803400  0.873500  0.798900  1.0  0.6457
  C  C106  1  0.952600  0.153900  0.410200  1.0  0.0414
  C  C107  1  0.630700  0.064500  0.519400  1.0  0.1891
  C  C108  1  0.567200  0.067000  0.508600  1.0  -0.1594
  C  C109  1  0.251300  0.328000  0.079300  1.0  -0.1306
  C  C110  1  0.291240  0.306000  0.925800  1.0  -0.1294
  C  C111  1  0.239300  0.257700  0.201000  1.0  -0.1407
  C  C112  1  0.279220  0.391500  0.210400  1.0  0.6653
  C  C113  1  0.303400  0.373500  0.798900  1.0  0.6457
  C  C114  1  0.452600  0.653900  0.410200  1.0  0.0414
  C  C115  1  0.130700  0.564500  0.519400  1.0  0.1891
  C  C116  1  0.067200  0.567000  0.508600  1.0  -0.1594
  C  C117  1  0.751300  0.172000  0.079300  1.0  -0.1314
  C  C118  1  0.791240  0.194000  0.925800  1.0  -0.13
  C  C119  1  0.739300  0.242300  0.201000  1.0  -0.1403
  C  C120  1  0.779220  0.108500  0.210400  1.0  0.6652
  C  C121  1  0.803400  0.126500  0.798900  1.0  0.6444
  C  C122  1  0.952600  0.846100  0.410200  1.0  0.045
  C  C123  1  0.630700  0.935500  0.519400  1.0  0.1923
  C  C124  1  0.567200  0.933000  0.508600  1.0  -0.1598
  C  C125  1  0.251300  0.672000  0.079300  1.0  -0.1314
  C  C126  1  0.291240  0.694000  0.925800  1.0  -0.13
  C  C127  1  0.239300  0.742300  0.201000  1.0  -0.1403
  C  C128  1  0.279220  0.608500  0.210400  1.0  0.6652
  C  C129  1  0.303400  0.626500  0.798900  1.0  0.6444
  C  C130  1  0.452600  0.346100  0.410200  1.0  0.045
  C  C131  1  0.130700  0.435500  0.519400  1.0  0.1923
  C  C132  1  0.067200  0.433000  0.508600  1.0  -0.1598
  C  C133  1  0.248700  0.172000  0.920700  1.0  -0.1322
  C  C134  1  0.208760  0.194000  0.074200  1.0  -0.1305
  C  C135  1  0.260700  0.242300  0.799000  1.0  -0.139
  C  C136  1  0.220780  0.108500  0.789600  1.0  0.6643
  C  C137  1  0.196600  0.126500  0.201100  1.0  0.6456
  C  C138  1  0.047400  0.846100  0.589800  1.0  0.0437
  C  C139  1  0.369300  0.935500  0.480600  1.0  0.1923
  C  C140  1  0.432800  0.933000  0.491400  1.0  -0.1602
  C  C141  1  0.748700  0.672000  0.920700  1.0  -0.1322
  C  C142  1  0.708760  0.694000  0.074200  1.0  -0.1305
  C  C143  1  0.760700  0.742300  0.799000  1.0  -0.139
  C  C144  1  0.720780  0.608500  0.789600  1.0  0.6643
  C  C145  1  0.696600  0.626500  0.201100  1.0  0.6456
  C  C146  1  0.547400  0.346100  0.589800  1.0  0.0437
  C  C147  1  0.869300  0.435500  0.480600  1.0  0.1923
  C  C148  1  0.932800  0.433000  0.491400  1.0  -0.1602
  C  C149  1  0.466300  0.000000  0.496600  1.0  0.0711
  C  C150  1  0.966300  0.500000  0.496600  1.0  0.0711
  C  C151  1  0.533700  0.000000  0.503400  1.0  0.0728
  C  C152  1  0.033700  0.500000  0.503400  1.0  0.0728
  C  C153  1  0.000000  0.043300  0.500000  1.0  0.5089
  C  C154  1  0.000000  0.194400  0.500000  1.0  -0.1145
  C  C155  1  0.500000  0.543300  0.500000  1.0  0.5089
  C  C156  1  0.500000  0.694400  0.500000  1.0  -0.1145
  C  C157  1  0.000000  0.956700  0.500000  1.0  0.509
  C  C158  1  0.000000  0.805600  0.500000  1.0  -0.1136
  C  C159  1  0.500000  0.456700  0.500000  1.0  0.509
  C  C160  1  0.500000  0.305600  0.500000  1.0  -0.1136
  N  N161  1  0.046920  0.076760  0.590400  1.0  -0.3278
  N  N162  1  0.546920  0.576760  0.590400  1.0  -0.3278
  N  N163  1  0.953080  0.076760  0.409600  1.0  -0.329
  N  N164  1  0.453080  0.576760  0.409600  1.0  -0.329
  N  N165  1  0.953080  0.923240  0.409600  1.0  -0.3291
  N  N166  1  0.453080  0.423240  0.409600  1.0  -0.3291
  N  N167  1  0.046920  0.923240  0.590400  1.0  -0.328
  N  N168  1  0.546920  0.423240  0.590400  1.0  -0.328
  N  N169  1  0.338200  0.000000  0.475600  1.0  -0.2888
  N  N170  1  0.838200  0.500000  0.475600  1.0  -0.2888
  N  N171  1  0.661800  0.000000  0.524400  1.0  -0.289
  N  N172  1  0.161800  0.500000  0.524400  1.0  -0.289
  O  O173  1  0.167830  0.912700  0.808100  1.0  -0.5914
  O  O174  1  0.253930  0.917150  0.672500  1.0  -0.6069
  O  O175  1  0.240030  0.916560  0.258600  1.0  -0.5791
  O  O176  1  0.142840  0.881140  0.243100  1.0  -0.5612
  O  O177  1  0.088200  0.756700  0.686000  1.0  -0.4796
  O  O178  1  0.667830  0.412700  0.808100  1.0  -0.5914
  O  O179  1  0.753930  0.417150  0.672500  1.0  -0.6069
  O  O180  1  0.740030  0.416560  0.258600  1.0  -0.5791
  O  O181  1  0.642840  0.381140  0.243100  1.0  -0.5612
  O  O182  1  0.588200  0.256700  0.686000  1.0  -0.4796
  O  O183  1  0.832170  0.912700  0.191900  1.0  -0.5915
  O  O184  1  0.746070  0.917150  0.327500  1.0  -0.6069
  O  O185  1  0.759970  0.916560  0.741400  1.0  -0.5785
  O  O186  1  0.857160  0.881140  0.756900  1.0  -0.5577
  O  O187  1  0.911800  0.756700  0.314000  1.0  -0.4785
  O  O188  1  0.332170  0.412700  0.191900  1.0  -0.5915
  O  O189  1  0.246070  0.417150  0.327500  1.0  -0.6069
  O  O190  1  0.259970  0.416560  0.741400  1.0  -0.5785
  O  O191  1  0.357160  0.381140  0.756900  1.0  -0.5577
  O  O192  1  0.411800  0.256700  0.314000  1.0  -0.4785
  O  O193  1  0.832170  0.087300  0.191900  1.0  -0.5911
  O  O194  1  0.746070  0.082850  0.327500  1.0  -0.6069
  O  O195  1  0.759970  0.083440  0.741400  1.0  -0.5784
  O  O196  1  0.857160  0.118860  0.756900  1.0  -0.5608
  O  O197  1  0.911800  0.243300  0.314000  1.0  -0.4782
  O  O198  1  0.332170  0.587300  0.191900  1.0  -0.5911
  O  O199  1  0.246070  0.582850  0.327500  1.0  -0.6069
  O  O200  1  0.259970  0.583440  0.741400  1.0  -0.5784
  O  O201  1  0.357160  0.618860  0.756900  1.0  -0.5608
  O  O202  1  0.411800  0.743300  0.314000  1.0  -0.4782
  O  O203  1  0.167830  0.087300  0.808100  1.0  -0.591
  O  O204  1  0.253930  0.082850  0.672500  1.0  -0.6065
  O  O205  1  0.240030  0.083440  0.258600  1.0  -0.5786
  O  O206  1  0.142840  0.118860  0.243100  1.0  -0.5626
  O  O207  1  0.088200  0.243300  0.686000  1.0  -0.4803
  O  O208  1  0.667830  0.587300  0.808100  1.0  -0.591
  O  O209  1  0.753930  0.582850  0.672500  1.0  -0.6065
  O  O210  1  0.740030  0.583440  0.258600  1.0  -0.5786
  O  O211  1  0.642840  0.618860  0.243100  1.0  -0.5626
  O  O212  1  0.588200  0.743300  0.686000  1.0  -0.4803
  O  O213  1  0.149900  0.000000  0.451700  1.0  -0.795
  O  O214  1  0.649900  0.500000  0.451700  1.0  -0.795
  O  O215  1  0.850100  0.000000  0.548300  1.0  -0.797
  O  O216  1  0.350100  0.500000  0.548300  1.0  -0.797
