# generated using pymatgen
data_ZnH7C8(NO)2
_symmetry_space_group_name_H-M   'P 1'
_cell_length_a   7.14970000
_cell_length_b   9.52840000
_cell_length_c   16.02110000
_cell_angle_alpha   90.00000000
_cell_angle_beta   90.00000000
_cell_angle_gamma   90.00000000
_symmetry_Int_Tables_number   1
_chemical_formula_structural   ZnH7C8(NO)2
_chemical_formula_sum   'Zn4 H28 C32 N8 O8'
_cell_volume   1091.44066543
_cell_formula_units_Z   4
loop_
 _symmetry_equiv_pos_site_id
 _symmetry_equiv_pos_as_xyz
  1  'x, y, z'
loop_
 _atom_site_type_symbol
 _atom_site_label
 _atom_site_symmetry_multiplicity
 _atom_site_fract_x
 _atom_site_fract_y
 _atom_site_fract_z
 _atom_site_occupancy
 _atom_site_charge
  Zn  Zn1  1  0.233680  0.435280  0.962390  1.0  0.8265
  Zn  Zn2  1  0.266320  0.564720  0.462390  1.0  0.8258
  Zn  Zn3  1  0.766320  0.935280  0.537610  1.0  0.8234
  Zn  Zn4  1  0.733680  0.064720  0.037610  1.0  0.8243
  H  H5  1  0.295000  0.485200  0.783200  1.0  0.0442
  H  H6  1  0.837900  0.522400  0.918000  1.0  0.0611
  H  H7  1  0.837800  0.649500  0.681500  1.0  0.0765
  H  H8  1  0.681200  0.614300  0.805300  1.0  0.0762
  H  H9  1  0.249700  0.500800  0.535300  1.0  0.1596
  H  H10  1  0.078900  0.443200  0.576100  1.0  0.3466
  H  H11  1  0.358300  0.732100  0.697200  1.0  0.0656
  H  H12  1  0.205000  0.514800  0.283200  1.0  0.0441
  H  H13  1  0.662100  0.477600  0.418000  1.0  0.0613
  H  H14  1  0.662200  0.350500  0.181500  1.0  0.077
  H  H15  1  0.818800  0.385700  0.305300  1.0  0.0755
  H  H16  1  0.250300  0.499200  0.035300  1.0  0.1607
  H  H17  1  0.421100  0.556800  0.076100  1.0  0.3476
  H  H18  1  0.141700  0.267900  0.197200  1.0  0.0655
  H  H19  1  0.705000  0.985200  0.716800  1.0  0.0443
  H  H20  1  0.162100  0.022400  0.582000  1.0  0.0611
  H  H21  1  0.162200  0.149500  0.818500  1.0  0.0766
  H  H22  1  0.318800  0.114300  0.694700  1.0  0.0748
  H  H23  1  0.750300  0.000800  0.964700  1.0  0.1613
  H  H24  1  0.921100  0.943200  0.923900  1.0  0.3478
  H  H25  1  0.641700  0.232100  0.802800  1.0  0.0659
  H  H26  1  0.795000  0.014800  0.216800  1.0  0.0441
  H  H27  1  0.337900  0.977600  0.082000  1.0  0.0611
  H  H28  1  0.337800  0.850500  0.318500  1.0  0.0766
  H  H29  1  0.181200  0.885700  0.194700  1.0  0.0757
  H  H30  1  0.749700  0.999200  0.464700  1.0  0.1597
  H  H31  1  0.578900  0.056800  0.423900  1.0  0.3465
  H  H32  1  0.858300  0.767900  0.302800  1.0  0.0662
  C  C33  1  0.171100  0.513700  0.788000  1.0  0.1077
  C  C34  1  0.083300  0.569600  0.719300  1.0  -0.0055
  C  C35  1  0.900600  0.535100  0.867700  1.0  0.1239
  C  C36  1  0.899500  0.609400  0.726700  1.0  -0.0793
  C  C37  1  0.806800  0.590200  0.800600  1.0  -0.1631
  C  C38  1  0.189100  0.601900  0.641500  1.0  0.1009
  C  C39  1  0.331000  0.698300  0.644100  1.0  -0.1111
  C  C40  1  0.445600  0.755900  0.578800  1.0  0.6818
  C  C41  1  0.328900  0.486300  0.288000  1.0  0.1093
  C  C42  1  0.416700  0.430400  0.219300  1.0  -0.0056
  C  C43  1  0.599400  0.464900  0.367700  1.0  0.1245
  C  C44  1  0.600500  0.390600  0.226700  1.0  -0.0798
  C  C45  1  0.693200  0.409800  0.300600  1.0  -0.1602
  C  C46  1  0.310900  0.398100  0.141500  1.0  0.1009
  C  C47  1  0.169000  0.301700  0.144100  1.0  -0.1123
  C  C48  1  0.054400  0.244100  0.078800  1.0  0.682
  C  C49  1  0.828900  0.013700  0.712000  1.0  0.109
  C  C50  1  0.916700  0.069600  0.780700  1.0  -0.0048
  C  C51  1  0.099400  0.035100  0.632300  1.0  0.1245
  C  C52  1  0.100500  0.109400  0.773300  1.0  -0.0806
  C  C53  1  0.193200  0.090200  0.699400  1.0  -0.1614
  C  C54  1  0.810900  0.101900  0.858500  1.0  0.1011
  C  C55  1  0.669000  0.198300  0.855900  1.0  -0.1106
  C  C56  1  0.554400  0.255900  0.921200  1.0  0.6811
  C  C57  1  0.671100  0.986300  0.212000  1.0  0.108
  C  C58  1  0.583300  0.930400  0.280700  1.0  -0.0048
  C  C59  1  0.400600  0.964900  0.132300  1.0  0.126
  C  C60  1  0.399500  0.890600  0.273300  1.0  -0.0791
  C  C61  1  0.306800  0.909800  0.199400  1.0  -0.1637
  C  C62  1  0.689100  0.898100  0.358500  1.0  0.1006
  C  C63  1  0.831000  0.801700  0.355900  1.0  -0.1093
  C  C64  1  0.945600  0.744100  0.421200  1.0  0.6811
  N  N65  1  0.084900  0.498600  0.861700  1.0  -0.3907
  N  N66  1  0.170100  0.502100  0.575500  1.0  -0.6731
  N  N67  1  0.415100  0.501400  0.361700  1.0  -0.3906
  N  N68  1  0.329900  0.497900  0.075500  1.0  -0.671
  N  N69  1  0.915100  0.998600  0.638300  1.0  -0.3911
  N  N70  1  0.829900  0.002100  0.924500  1.0  -0.6718
  N  N71  1  0.584900  0.001400  0.138300  1.0  -0.3903
  N  N72  1  0.670100  0.997900  0.424500  1.0  -0.6709
  O  O73  1  0.426500  0.721500  0.505400  1.0  -0.6106
  O  O74  1  0.567400  0.844100  0.602900  1.0  -0.6404
  O  O75  1  0.073500  0.278500  0.005400  1.0  -0.6108
  O  O76  1  0.932600  0.155900  0.102900  1.0  -0.6401
  O  O77  1  0.573500  0.221500  0.994600  1.0  -0.6109
  O  O78  1  0.432600  0.344100  0.897100  1.0  -0.6405
  O  O79  1  0.926500  0.778500  0.494600  1.0  -0.6111
  O  O80  1  0.067400  0.655900  0.397100  1.0  -0.6406
