# generated using pymatgen
data_CdH19C16(NO)4
_symmetry_space_group_name_H-M   'P 1'
_cell_length_a   14.01690000
_cell_length_b   13.50450000
_cell_length_c   12.50500000
_cell_angle_alpha   90.00000000
_cell_angle_beta   116.31800000
_cell_angle_gamma   90.00000000
_symmetry_Int_Tables_number   1
_chemical_formula_structural   CdH19C16(NO)4
_chemical_formula_sum   'Cd4 H76 C64 N16 O16'
_cell_volume   2121.73158821
_cell_formula_units_Z   4
loop_
 _symmetry_equiv_pos_site_id
 _symmetry_equiv_pos_as_xyz
  1  'x, y, z'
loop_
 _atom_site_type_symbol
 _atom_site_label
 _atom_site_symmetry_multiplicity
 _atom_site_fract_x
 _atom_site_fract_y
 _atom_site_fract_z
 _atom_site_occupancy
 _atom_site_charge
  Cd  Cd1  1  0.207620  0.150960  0.556870  1.0  0.8747
  Cd  Cd2  1  0.707620  0.650960  0.556870  1.0  0.8747
  Cd  Cd3  1  0.207620  0.849040  0.056870  1.0  0.8735
  Cd  Cd4  1  0.707620  0.349040  0.056870  1.0  0.8735
  H  H5  1  0.027300  0.322400  0.475200  1.0  0.0707
  H  H6  1  0.577400  0.387700  0.752700  1.0  0.067
  H  H7  1  0.886000  0.443100  0.368100  1.0  0.0614
  H  H8  1  0.423900  0.287600  0.658300  1.0  0.0791
  H  H9  1  0.031400  0.571900  0.541300  1.0  0.0918
  H  H10  1  0.996400  0.468900  0.569500  1.0  0.0836
  H  H11  1  0.438700  0.466700  0.917900  1.0  0.0995
  H  H12  1  0.249000  0.289500  0.370600  1.0  0.0606
  H  H13  1  0.078300  0.538900  0.289800  1.0  0.1041
  H  H14  1  0.219600  0.255100  0.789400  1.0  0.0625
  H  H15  1  0.848800  0.603900  0.308400  1.0  0.1995
  H  H16  1  0.883700  0.552100  0.230100  1.0  0.1698
  H  H17  1  0.955700  0.619400  0.320500  1.0  0.2211
  H  H18  1  0.451400  0.505700  0.624200  1.0  0.1115
  H  H19  1  0.480300  0.575800  0.734000  1.0  0.115
  H  H20  1  0.214200  0.444600  0.283800  1.0  0.0959
  H  H21  1  0.609400  0.451700  0.964800  1.0  0.1897
  H  H22  1  0.679900  0.492800  0.915100  1.0  0.291
  H  H23  1  0.298000  0.380300  0.923300  1.0  0.1074
  H  H24  1  0.527300  0.822400  0.475200  1.0  0.0707
  H  H25  1  0.077400  0.887700  0.752700  1.0  0.067
  H  H26  1  0.386000  0.943100  0.368100  1.0  0.0614
  H  H27  1  0.923900  0.787600  0.658300  1.0  0.0791
  H  H28  1  0.531400  0.071900  0.541300  1.0  0.0918
  H  H29  1  0.496400  0.968900  0.569500  1.0  0.0836
  H  H30  1  0.938700  0.966700  0.917900  1.0  0.0995
  H  H31  1  0.749000  0.789500  0.370600  1.0  0.0606
  H  H32  1  0.578300  0.038900  0.289800  1.0  0.1041
  H  H33  1  0.719600  0.755100  0.789400  1.0  0.0625
  H  H34  1  0.348800  0.103900  0.308400  1.0  0.1995
  H  H35  1  0.383700  0.052100  0.230100  1.0  0.1698
  H  H36  1  0.455700  0.119400  0.320500  1.0  0.2211
  H  H37  1  0.951400  0.005700  0.624200  1.0  0.1115
  H  H38  1  0.980300  0.075800  0.734000  1.0  0.115
  H  H39  1  0.714200  0.944600  0.283800  1.0  0.0959
  H  H40  1  0.109400  0.951700  0.964800  1.0  0.1897
  H  H41  1  0.179900  0.992800  0.915100  1.0  0.291
  H  H42  1  0.798000  0.880300  0.923300  1.0  0.1074
  H  H43  1  0.027300  0.677600  0.975200  1.0  0.0704
  H  H44  1  0.577400  0.612300  0.252700  1.0  0.067
  H  H45  1  0.886000  0.556900  0.868100  1.0  0.0604
  H  H46  1  0.423900  0.712400  0.158300  1.0  0.0787
  H  H47  1  0.031400  0.428100  0.041300  1.0  0.0909
  H  H48  1  0.996400  0.531100  0.069500  1.0  0.0829
  H  H49  1  0.438700  0.533300  0.417900  1.0  0.0999
  H  H50  1  0.249000  0.710500  0.870600  1.0  0.0605
  H  H51  1  0.078300  0.461100  0.789800  1.0  0.1034
  H  H52  1  0.219600  0.744900  0.289400  1.0  0.0624
  H  H53  1  0.848800  0.396100  0.808400  1.0  0.1995
  H  H54  1  0.883700  0.447900  0.730100  1.0  0.1703
  H  H55  1  0.955700  0.380600  0.820500  1.0  0.219
  H  H56  1  0.451400  0.494300  0.124200  1.0  0.1116
  H  H57  1  0.480300  0.424200  0.234000  1.0  0.1153
  H  H58  1  0.214200  0.555400  0.783800  1.0  0.0963
  H  H59  1  0.609400  0.548300  0.464800  1.0  0.1892
  H  H60  1  0.679900  0.507200  0.415100  1.0  0.2915
  H  H61  1  0.298000  0.619700  0.423300  1.0  0.1076
  H  H62  1  0.527300  0.177600  0.975200  1.0  0.0704
  H  H63  1  0.077400  0.112300  0.252700  1.0  0.067
  H  H64  1  0.386000  0.056900  0.868100  1.0  0.0604
  H  H65  1  0.923900  0.212400  0.158300  1.0  0.0787
  H  H66  1  0.531400  0.928100  0.041300  1.0  0.0909
  H  H67  1  0.496400  0.031100  0.069500  1.0  0.0829
  H  H68  1  0.938700  0.033300  0.417900  1.0  0.0999
  H  H69  1  0.749000  0.210500  0.870600  1.0  0.0605
  H  H70  1  0.578300  0.961100  0.789800  1.0  0.1034
  H  H71  1  0.719600  0.244900  0.289400  1.0  0.0624
  H  H72  1  0.348800  0.896100  0.808400  1.0  0.1995
  H  H73  1  0.383700  0.947900  0.730100  1.0  0.1703
  H  H74  1  0.455700  0.880600  0.820500  1.0  0.219
  H  H75  1  0.951400  0.994300  0.124200  1.0  0.1116
  H  H76  1  0.980300  0.924200  0.234000  1.0  0.1153
  H  H77  1  0.714200  0.055400  0.783800  1.0  0.0963
  H  H78  1  0.109400  0.048300  0.464800  1.0  0.1892
  H  H79  1  0.179900  0.007200  0.415100  1.0  0.2915
  H  H80  1  0.798000  0.119700  0.423300  1.0  0.1076
  C  C81  1  0.065800  0.348100  0.437200  1.0  0.14
  C  C82  1  0.543700  0.435500  0.784200  1.0  0.0293
  C  C83  1  0.943500  0.491800  0.390400  1.0  0.1456
  C  C84  1  0.397200  0.308300  0.710600  1.0  0.0857
  C  C85  1  0.038400  0.440800  0.384200  1.0  0.0458
  C  C86  1  0.972500  0.525700  0.516600  1.0  -0.2913
  C  C87  1  0.408000  0.413800  0.866300  1.0  -0.0897
  C  C88  1  0.196800  0.328700  0.376200  1.0  0.153
  C  C89  1  0.094600  0.477000  0.326100  1.0  -0.1155
  C  C90  1  0.277000  0.288600  0.788200  1.0  0.1691
  C  C91  1  0.447100  0.385600  0.787700  1.0  0.0454
  C  C92  1  0.508500  0.525800  0.700000  1.0  -0.3837
  C  C93  1  0.175100  0.420900  0.322100  1.0  -0.1249
  C  C94  1  0.880900  0.574900  0.529600  1.0  0.6869
  C  C95  1  0.596500  0.571900  0.677400  1.0  0.6973
  C  C96  1  0.323300  0.363600  0.868400  1.0  -0.1769
  C  C97  1  0.565800  0.848100  0.437200  1.0  0.14
  C  C98  1  0.043700  0.935500  0.784200  1.0  0.0293
  C  C99  1  0.443500  0.991800  0.390400  1.0  0.1456
  C  C100  1  0.897200  0.808300  0.710600  1.0  0.0857
  C  C101  1  0.538400  0.940800  0.384200  1.0  0.0458
  C  C102  1  0.472500  0.025700  0.516600  1.0  -0.2913
  C  C103  1  0.908000  0.913800  0.866300  1.0  -0.0897
  C  C104  1  0.696800  0.828700  0.376200  1.0  0.153
  C  C105  1  0.594600  0.977000  0.326100  1.0  -0.1155
  C  C106  1  0.777000  0.788600  0.788200  1.0  0.1691
  C  C107  1  0.947100  0.885600  0.787700  1.0  0.0454
  C  C108  1  0.008500  0.025800  0.700000  1.0  -0.3837
  C  C109  1  0.675100  0.920900  0.322100  1.0  -0.1249
  C  C110  1  0.380900  0.074900  0.529600  1.0  0.6869
  C  C111  1  0.096500  0.071900  0.677400  1.0  0.6973
  C  C112  1  0.823300  0.863600  0.868400  1.0  -0.1769
  C  C113  1  0.065800  0.651900  0.937200  1.0  0.1394
  C  C114  1  0.543700  0.564500  0.284200  1.0  0.0297
  C  C115  1  0.943500  0.508200  0.890400  1.0  0.1459
  C  C116  1  0.397200  0.691700  0.210600  1.0  0.085
  C  C117  1  0.038400  0.559200  0.884200  1.0  0.046
  C  C118  1  0.972500  0.474300  0.016600  1.0  -0.2913
  C  C119  1  0.408000  0.586200  0.366300  1.0  -0.0895
  C  C120  1  0.196800  0.671300  0.876200  1.0  0.1536
  C  C121  1  0.094600  0.523000  0.826100  1.0  -0.1156
  C  C122  1  0.277000  0.711400  0.288200  1.0  0.1692
  C  C123  1  0.447100  0.614400  0.287700  1.0  0.0448
  C  C124  1  0.508500  0.474200  0.200000  1.0  -0.3836
  C  C125  1  0.175100  0.579100  0.822100  1.0  -0.1242
  C  C126  1  0.880900  0.425100  0.029600  1.0  0.687
  C  C127  1  0.596500  0.428100  0.177400  1.0  0.6982
  C  C128  1  0.323300  0.636400  0.368400  1.0  -0.1769
  C  C129  1  0.565800  0.151900  0.937200  1.0  0.1394
  C  C130  1  0.043700  0.064500  0.284200  1.0  0.0297
  C  C131  1  0.443500  0.008200  0.890400  1.0  0.1459
  C  C132  1  0.897200  0.191700  0.210600  1.0  0.085
  C  C133  1  0.538400  0.059200  0.884200  1.0  0.046
  C  C134  1  0.472500  0.974300  0.016600  1.0  -0.2913
  C  C135  1  0.908000  0.086200  0.366300  1.0  -0.0895
  C  C136  1  0.696800  0.171300  0.876200  1.0  0.1536
  C  C137  1  0.594600  0.023000  0.826100  1.0  -0.1156
  C  C138  1  0.777000  0.211400  0.288200  1.0  0.1692
  C  C139  1  0.947100  0.114400  0.287700  1.0  0.0448
  C  C140  1  0.008500  0.974200  0.200000  1.0  -0.3836
  C  C141  1  0.675100  0.079100  0.822100  1.0  -0.1242
  C  C142  1  0.380900  0.925100  0.029600  1.0  0.687
  C  C143  1  0.096500  0.928100  0.177400  1.0  0.6982
  C  C144  1  0.823300  0.136400  0.368400  1.0  -0.1769
  N  N145  1  0.311100  0.261900  0.708300  1.0  -0.3746
  N  N146  1  0.145100  0.294300  0.436100  1.0  -0.3632
  N  N147  1  0.904000  0.575200  0.303600  1.0  -0.3293
  N  N148  1  0.621800  0.463900  0.904600  1.0  -0.6083
  N  N149  1  0.811100  0.761900  0.708300  1.0  -0.3746
  N  N150  1  0.645100  0.794300  0.436100  1.0  -0.3632
  N  N151  1  0.404000  0.075200  0.303600  1.0  -0.3293
  N  N152  1  0.121800  0.963900  0.904600  1.0  -0.6083
  N  N153  1  0.311100  0.738100  0.208300  1.0  -0.375
  N  N154  1  0.145100  0.705700  0.936100  1.0  -0.3644
  N  N155  1  0.904000  0.424800  0.803600  1.0  -0.3279
  N  N156  1  0.621800  0.536100  0.404600  1.0  -0.6098
  N  N157  1  0.811100  0.238100  0.208300  1.0  -0.375
  N  N158  1  0.645100  0.205700  0.936100  1.0  -0.3644
  N  N159  1  0.404000  0.924800  0.803600  1.0  -0.3279
  N  N160  1  0.121800  0.036100  0.404600  1.0  -0.6098
  O  O161  1  0.833600  0.643300  0.459600  1.0  -0.6191
  O  O162  1  0.571500  0.650200  0.614800  1.0  -0.6173
  O  O163  1  0.684100  0.531300  0.712400  1.0  -0.6075
  O  O164  1  0.858000  0.549200  0.611100  1.0  -0.6483
  O  O165  1  0.333600  0.143300  0.459600  1.0  -0.6191
  O  O166  1  0.071500  0.150200  0.614800  1.0  -0.618
  O  O167  1  0.184100  0.031300  0.712400  1.0  -0.6075
  O  O168  1  0.358000  0.049200  0.611100  1.0  -0.6483
  O  O169  1  0.833600  0.356700  0.959600  1.0  -0.6206
  O  O170  1  0.571500  0.349800  0.114800  1.0  -0.6199
  O  O171  1  0.684100  0.468700  0.212400  1.0  -0.6067
  O  O172  1  0.858000  0.450800  0.111100  1.0  -0.6479
  O  O173  1  0.333600  0.856700  0.959600  1.0  -0.6206
  O  O174  1  0.071500  0.849800  0.114800  1.0  -0.6205
  O  O175  1  0.184100  0.968700  0.212400  1.0  -0.6067
  O  O176  1  0.358000  0.950800  0.111100  1.0  -0.6479
