# generated using pymatgen
data_ZnH9C8(NO)2
_symmetry_space_group_name_H-M   'P 1'
_cell_length_a   7.20390000
_cell_length_b   8.73090000
_cell_length_c   16.23400000
_cell_angle_alpha   90.00000000
_cell_angle_beta   90.00000000
_cell_angle_gamma   90.00000000
_symmetry_Int_Tables_number   1
_chemical_formula_structural   ZnH9C8(NO)2
_chemical_formula_sum   'Zn4 H36 C32 N8 O8'
_cell_volume   1021.06227630
_cell_formula_units_Z   4
loop_
 _symmetry_equiv_pos_site_id
 _symmetry_equiv_pos_as_xyz
  1  'x, y, z'
loop_
 _atom_site_type_symbol
 _atom_site_label
 _atom_site_symmetry_multiplicity
 _atom_site_fract_x
 _atom_site_fract_y
 _atom_site_fract_z
 _atom_site_occupancy
 _atom_site_charge
  Zn  Zn1  1  0.257850  0.457650  0.958970  1.0  0.5165
  Zn  Zn2  1  0.242150  0.542350  0.458970  1.0  0.5201
  Zn  Zn3  1  0.742150  0.957650  0.541030  1.0  0.5097
  Zn  Zn4  1  0.757850  0.042350  0.041030  1.0  0.513
  H  H5  1  0.092200  0.674200  0.616400  1.0  0.0294
  H  H6  1  0.843300  0.522500  0.919400  1.0  0.0541
  H  H7  1  0.809000  0.627500  0.680200  1.0  0.0986
  H  H8  1  0.669200  0.605100  0.808600  1.0  0.1024
  H  H9  1  0.275900  0.469200  0.779000  1.0  0.0658
  H  H10  1  0.234000  0.467100  0.541600  1.0  0.12
  H  H11  1  0.036500  0.444000  0.565800  1.0  0.2981
  H  H12  1  0.316100  0.741800  0.692100  1.0  0.124
  H  H13  1  0.418700  0.586900  0.678800  1.0  0.1115
  H  H14  1  0.407800  0.325800  0.116400  1.0  0.0295
  H  H15  1  0.656700  0.477500  0.419400  1.0  0.0541
  H  H16  1  0.691000  0.372500  0.180200  1.0  0.0986
  H  H17  1  0.830800  0.394900  0.308600  1.0  0.1029
  H  H18  1  0.224100  0.530800  0.279000  1.0  0.0649
  H  H19  1  0.266000  0.532900  0.041600  1.0  0.1166
  H  H20  1  0.463500  0.556000  0.065800  1.0  0.2995
  H  H21  1  0.183900  0.258200  0.192100  1.0  0.1274
  H  H22  1  0.081300  0.413100  0.178800  1.0  0.1092
  H  H23  1  0.907800  0.174200  0.883600  1.0  0.0286
  H  H24  1  0.156700  0.022500  0.580600  1.0  0.0548
  H  H25  1  0.191000  0.127500  0.819800  1.0  0.0987
  H  H26  1  0.330800  0.105100  0.691400  1.0  0.1028
  H  H27  1  0.724100  0.969200  0.721000  1.0  0.0651
  H  H28  1  0.766000  0.967100  0.958400  1.0  0.1172
  H  H29  1  0.963500  0.944000  0.934200  1.0  0.299
  H  H30  1  0.683900  0.241800  0.807900  1.0  0.1285
  H  H31  1  0.581300  0.086900  0.821200  1.0  0.1089
  H  H32  1  0.592200  0.825800  0.383600  1.0  0.0278
  H  H33  1  0.343300  0.977500  0.080600  1.0  0.0538
  H  H34  1  0.309000  0.872500  0.319800  1.0  0.098
  H  H35  1  0.169200  0.894900  0.191400  1.0  0.1027
  H  H36  1  0.775900  0.030800  0.221000  1.0  0.0655
  H  H37  1  0.734000  0.032900  0.458400  1.0  0.1175
  H  H38  1  0.536500  0.056000  0.434200  1.0  0.2994
  H  H39  1  0.816100  0.758200  0.307900  1.0  0.1291
  H  H40  1  0.918700  0.913100  0.321200  1.0  0.1117
  C  C41  1  0.164500  0.587300  0.637100  1.0  0.2887
  C  C42  1  0.062100  0.555600  0.716500  1.0  -0.089
  C  C43  1  0.899100  0.530300  0.867900  1.0  0.1351
  C  C44  1  0.877100  0.593500  0.725300  1.0  -0.077
  C  C45  1  0.793900  0.580500  0.801700  1.0  -0.1521
  C  C46  1  0.153700  0.501500  0.785200  1.0  0.1172
  C  C47  1  0.338900  0.661400  0.652100  1.0  -0.4437
  C  C48  1  0.449900  0.732100  0.582900  1.0  0.7188
  C  C49  1  0.335500  0.412700  0.137100  1.0  0.2885
  C  C50  1  0.437900  0.444400  0.216500  1.0  -0.0867
  C  C51  1  0.600900  0.469700  0.367900  1.0  0.1369
  C  C52  1  0.622900  0.406500  0.225300  1.0  -0.0764
  C  C53  1  0.706100  0.419500  0.301700  1.0  -0.1499
  C  C54  1  0.346300  0.498500  0.285200  1.0  0.1177
  C  C55  1  0.161100  0.338600  0.152100  1.0  -0.4432
  C  C56  1  0.050100  0.267900  0.082900  1.0  0.7197
  C  C57  1  0.835500  0.087300  0.862900  1.0  0.2873
  C  C58  1  0.937900  0.055600  0.783500  1.0  -0.0894
  C  C59  1  0.100900  0.030300  0.632100  1.0  0.1384
  C  C60  1  0.122900  0.093500  0.774700  1.0  -0.0777
  C  C61  1  0.206100  0.080500  0.698300  1.0  -0.1509
  C  C62  1  0.846300  0.001500  0.714800  1.0  0.1138
  C  C63  1  0.661100  0.161400  0.847900  1.0  -0.4448
  C  C64  1  0.550100  0.232100  0.917100  1.0  0.7194
  C  C65  1  0.664500  0.912700  0.362900  1.0  0.2894
  C  C66  1  0.562100  0.944400  0.283500  1.0  -0.0893
  C  C67  1  0.399100  0.969700  0.132100  1.0  0.1361
  C  C68  1  0.377100  0.906500  0.274700  1.0  -0.077
  C  C69  1  0.293900  0.919500  0.198300  1.0  -0.1519
  C  C70  1  0.653700  0.998500  0.214800  1.0  0.1131
  C  C71  1  0.838900  0.838600  0.347900  1.0  -0.4423
  C  C72  1  0.949900  0.767900  0.417100  1.0  0.7202
  N  N73  1  0.077300  0.492800  0.860300  1.0  -0.3309
  N  N74  1  0.142300  0.487200  0.573700  1.0  -0.6058
  N  N75  1  0.422700  0.507200  0.360300  1.0  -0.3324
  N  N76  1  0.357700  0.512800  0.073700  1.0  -0.6073
  N  N77  1  0.922700  0.992800  0.639700  1.0  -0.3345
  N  N78  1  0.857700  0.987200  0.926300  1.0  -0.6092
  N  N79  1  0.577300  0.007200  0.139700  1.0  -0.3335
  N  N80  1  0.642300  0.012800  0.426300  1.0  -0.607
  O  O81  1  0.572100  0.824100  0.605300  1.0  -0.5506
  O  O82  1  0.421000  0.698400  0.509400  1.0  -0.5275
  O  O83  1  0.927900  0.175900  0.105300  1.0  -0.5515
  O  O84  1  0.079000  0.301600  0.009400  1.0  -0.5279
  O  O85  1  0.427900  0.324100  0.894700  1.0  -0.5507
  O  O86  1  0.579000  0.198400  0.990600  1.0  -0.5274
  O  O87  1  0.072100  0.675900  0.394700  1.0  -0.5497
  O  O88  1  0.921000  0.801600  0.490600  1.0  -0.5282
