# generated using pymatgen
data_Th3H24C24(N3O11)2
_symmetry_space_group_name_H-M   'P 1'
_cell_length_a   17.01050000
_cell_length_b   21.95940000
_cell_length_c   24.80810000
_cell_angle_alpha   90.00000000
_cell_angle_beta   90.00000000
_cell_angle_gamma   90.00000000
_symmetry_Int_Tables_number   1
_chemical_formula_structural   Th3H24C24(N3O11)2
_chemical_formula_sum   'Th24 H192 C192 N48 O176'
_cell_volume   9266.82694479
_cell_formula_units_Z   8
loop_
 _symmetry_equiv_pos_site_id
 _symmetry_equiv_pos_as_xyz
  1  'x, y, z'
loop_
 _atom_site_type_symbol
 _atom_site_label
 _atom_site_symmetry_multiplicity
 _atom_site_fract_x
 _atom_site_fract_y
 _atom_site_fract_z
 _atom_site_occupancy
 _atom_site_charge
  Th  Th1  1  0.430880  0.598000  0.554770  1.0  2.3906
  Th  Th2  1  0.453000  0.548190  0.398890  1.0  2.36
  Th  Th3  1  0.645430  0.562400  0.494950  1.0  2.3771
  Th  Th4  1  0.069120  0.402000  0.054770  1.0  2.3879
  Th  Th5  1  0.047000  0.451810  0.898890  1.0  2.3589
  Th  Th6  1  0.854570  0.437600  0.994950  1.0  2.3768
  Th  Th7  1  0.569120  0.098000  0.945230  1.0  2.3925
  Th  Th8  1  0.547000  0.048190  0.101110  1.0  2.3587
  Th  Th9  1  0.354570  0.062400  0.005050  1.0  2.3771
  Th  Th10  1  0.930880  0.902000  0.445230  1.0  2.3946
  Th  Th11  1  0.953000  0.951810  0.601110  1.0  2.3595
  Th  Th12  1  0.145430  0.937600  0.505050  1.0  2.3767
  Th  Th13  1  0.569120  0.402000  0.445230  1.0  2.3865
  Th  Th14  1  0.547000  0.451810  0.601110  1.0  2.3706
  Th  Th15  1  0.354570  0.437600  0.505050  1.0  2.3767
  Th  Th16  1  0.930880  0.598000  0.945230  1.0  2.3891
  Th  Th17  1  0.953000  0.548190  0.101110  1.0  2.3719
  Th  Th18  1  0.145430  0.562400  0.005050  1.0  2.3769
  Th  Th19  1  0.430880  0.902000  0.054770  1.0  2.3959
  Th  Th20  1  0.453000  0.951810  0.898890  1.0  2.3798
  Th  Th21  1  0.645430  0.937600  0.994950  1.0  2.3789
  Th  Th22  1  0.069120  0.098000  0.554770  1.0  2.3942
  Th  Th23  1  0.047000  0.048190  0.398890  1.0  2.3789
  Th  Th24  1  0.854570  0.062400  0.494950  1.0  2.3799
  H  H25  1  0.441200  0.562000  0.766600  1.0  0.1329
  H  H26  1  0.531600  0.580900  0.760100  1.0  0.1384
  H  H27  1  0.485000  0.675100  0.719100  1.0  0.1288
  H  H28  1  0.398900  0.656400  0.739600  1.0  0.1239
  H  H29  1  0.402600  0.712000  0.965100  1.0  0.1298
  H  H30  1  0.347100  0.670000  0.928700  1.0  0.1382
  H  H31  1  0.297200  0.765100  0.888600  1.0  0.1441
  H  H32  1  0.269700  0.751600  0.949300  1.0  0.12
  H  H33  1  0.682300  0.720700  0.854800  1.0  0.1266
  H  H34  1  0.651400  0.756100  0.907200  1.0  0.1283
  H  H35  1  0.714500  0.819600  0.836100  1.0  0.1381
  H  H36  1  0.634400  0.810700  0.802900  1.0  0.1478
  H  H37  1  0.166100  0.541200  0.641500  1.0  0.1485
  H  H38  1  0.154100  0.600200  0.604700  1.0  0.1485
  H  H39  1  0.102200  0.480600  0.577100  1.0  0.1214
  H  H40  1  0.045800  0.535000  0.595700  1.0  0.1018
  H  H41  1  0.069500  0.489100  0.354200  1.0  0.1066
  H  H42  1  0.111000  0.441800  0.394300  1.0  0.1177
  H  H43  1  0.195200  0.468800  0.323000  1.0  0.1577
  H  H44  1  0.189400  0.538700  0.340000  1.0  0.1496
  H  H45  1  0.996300  0.699800  0.473200  1.0  0.1107
  H  H46  1  0.013900  0.690500  0.410300  1.0  0.1263
  H  H47  1  0.142500  0.721800  0.420500  1.0  0.1294
  H  H48  1  0.135500  0.720400  0.484800  1.0  0.1314
  H  H49  1  0.058800  0.438000  0.266600  1.0  0.1325
  H  H50  1  0.968400  0.419100  0.260100  1.0  0.1393
  H  H51  1  0.015000  0.324900  0.219100  1.0  0.1286
  H  H52  1  0.101100  0.343600  0.239600  1.0  0.1243
  H  H53  1  0.097400  0.288000  0.465100  1.0  0.1287
  H  H54  1  0.152900  0.330000  0.428700  1.0  0.137
  H  H55  1  0.202800  0.234900  0.388600  1.0  0.1444
  H  H56  1  0.230300  0.248400  0.449300  1.0  0.119
  H  H57  1  0.817700  0.279300  0.354800  1.0  0.1281
  H  H58  1  0.848600  0.243900  0.407200  1.0  0.1289
  H  H59  1  0.785500  0.180400  0.336100  1.0  0.14
  H  H60  1  0.865600  0.189300  0.302900  1.0  0.1467
  H  H61  1  0.333900  0.458800  0.141500  1.0  0.1486
  H  H62  1  0.345900  0.399800  0.104700  1.0  0.1462
  H  H63  1  0.397800  0.519400  0.077100  1.0  0.1227
  H  H64  1  0.454200  0.465000  0.095700  1.0  0.1014
  H  H65  1  0.430500  0.510900  0.854200  1.0  0.1036
  H  H66  1  0.389000  0.558200  0.894300  1.0  0.1172
  H  H67  1  0.304800  0.531200  0.823000  1.0  0.1573
  H  H68  1  0.310600  0.461300  0.840000  1.0  0.1485
  H  H69  1  0.503700  0.300200  0.973200  1.0  0.1111
  H  H70  1  0.486100  0.309500  0.910300  1.0  0.1271
  H  H71  1  0.357500  0.278200  0.920500  1.0  0.1296
  H  H72  1  0.364500  0.279600  0.984800  1.0  0.1325
  H  H73  1  0.558800  0.062000  0.733400  1.0  0.132
  H  H74  1  0.468400  0.080900  0.739900  1.0  0.1396
  H  H75  1  0.515000  0.175100  0.780900  1.0  0.1284
  H  H76  1  0.601100  0.156400  0.760400  1.0  0.1243
  H  H77  1  0.597400  0.212000  0.534900  1.0  0.131
  H  H78  1  0.652900  0.170000  0.571300  1.0  0.1385
  H  H79  1  0.702800  0.265100  0.611400  1.0  0.1421
  H  H80  1  0.730300  0.251600  0.550700  1.0  0.1199
  H  H81  1  0.317700  0.220700  0.645200  1.0  0.1275
  H  H82  1  0.348600  0.256100  0.592800  1.0  0.1327
  H  H83  1  0.285500  0.319600  0.663900  1.0  0.1413
  H  H84  1  0.365600  0.310700  0.697100  1.0  0.1484
  H  H85  1  0.833900  0.041200  0.858500  1.0  0.1498
  H  H86  1  0.845900  0.100200  0.895300  1.0  0.149
  H  H87  1  0.897800  0.980600  0.922900  1.0  0.1204
  H  H88  1  0.954200  0.035000  0.904300  1.0  0.1022
  H  H89  1  0.930500  0.989100  0.145800  1.0  0.1051
  H  H90  1  0.889000  0.941800  0.105700  1.0  0.1165
  H  H91  1  0.804800  0.968800  0.177000  1.0  0.159
  H  H92  1  0.810600  0.038700  0.160000  1.0  0.149
  H  H93  1  0.003700  0.199800  0.026800  1.0  0.1123
  H  H94  1  0.986100  0.190500  0.089700  1.0  0.126
  H  H95  1  0.857500  0.221800  0.079500  1.0  0.1312
  H  H96  1  0.864500  0.220400  0.015200  1.0  0.134
  H  H97  1  0.941200  0.938000  0.233400  1.0  0.1325
  H  H98  1  0.031600  0.919100  0.239900  1.0  0.1391
  H  H99  1  0.985000  0.824900  0.280900  1.0  0.1292
  H  H100  1  0.898900  0.843600  0.260400  1.0  0.1262
  H  H101  1  0.902600  0.788000  0.034900  1.0  0.131
  H  H102  1  0.847100  0.830000  0.071300  1.0  0.1389
  H  H103  1  0.797200  0.734900  0.111400  1.0  0.1444
  H  H104  1  0.769700  0.748400  0.050700  1.0  0.1211
  H  H105  1  0.182300  0.779300  0.145200  1.0  0.1255
  H  H106  1  0.151400  0.743900  0.092800  1.0  0.1315
  H  H107  1  0.214500  0.680400  0.163900  1.0  0.1355
  H  H108  1  0.134400  0.689300  0.197100  1.0  0.1482
  H  H109  1  0.666100  0.958800  0.358500  1.0  0.1507
  H  H110  1  0.654100  0.899800  0.395300  1.0  0.1463
  H  H111  1  0.602200  0.019400  0.422900  1.0  0.1228
  H  H112  1  0.545800  0.965000  0.404300  1.0  0.1032
  H  H113  1  0.569500  0.010900  0.645800  1.0  0.1043
  H  H114  1  0.611000  0.058200  0.605700  1.0  0.1172
  H  H115  1  0.695200  0.031200  0.677000  1.0  0.1566
  H  H116  1  0.689400  0.961300  0.660000  1.0  0.1488
  H  H117  1  0.496300  0.800200  0.526800  1.0  0.1121
  H  H118  1  0.513900  0.809500  0.589700  1.0  0.1277
  H  H119  1  0.642500  0.778200  0.579500  1.0  0.1314
  H  H120  1  0.635500  0.779600  0.515200  1.0  0.1324
  H  H121  1  0.558800  0.438000  0.233400  1.0  0.1317
  H  H122  1  0.468400  0.419100  0.239900  1.0  0.139
  H  H123  1  0.515000  0.324900  0.280900  1.0  0.129
  H  H124  1  0.601100  0.343600  0.260400  1.0  0.1233
  H  H125  1  0.597400  0.288000  0.034900  1.0  0.1298
  H  H126  1  0.652900  0.330000  0.071300  1.0  0.1379
  H  H127  1  0.702800  0.234900  0.111400  1.0  0.1425
  H  H128  1  0.730300  0.248400  0.050700  1.0  0.121
  H  H129  1  0.317700  0.279300  0.145200  1.0  0.1275
  H  H130  1  0.348600  0.243900  0.092800  1.0  0.1325
  H  H131  1  0.285500  0.180400  0.163900  1.0  0.1418
  H  H132  1  0.365600  0.189300  0.197100  1.0  0.1488
  H  H133  1  0.833900  0.458800  0.358500  1.0  0.1498
  H  H134  1  0.845900  0.399800  0.395300  1.0  0.1465
  H  H135  1  0.897800  0.519400  0.422900  1.0  0.123
  H  H136  1  0.954200  0.465000  0.404300  1.0  0.1026
  H  H137  1  0.930500  0.510900  0.645800  1.0  0.1067
  H  H138  1  0.889000  0.558200  0.605700  1.0  0.117
  H  H139  1  0.804800  0.531200  0.677000  1.0  0.1581
  H  H140  1  0.810600  0.461300  0.660000  1.0  0.1488
  H  H141  1  0.003700  0.300200  0.526800  1.0  0.1124
  H  H142  1  0.986100  0.309500  0.589700  1.0  0.1259
  H  H143  1  0.857500  0.278200  0.579500  1.0  0.1312
  H  H144  1  0.864500  0.279600  0.515200  1.0  0.1334
  H  H145  1  0.941200  0.562000  0.733400  1.0  0.1327
  H  H146  1  0.031600  0.580900  0.739900  1.0  0.1383
  H  H147  1  0.985000  0.675100  0.780900  1.0  0.1283
  H  H148  1  0.898900  0.656400  0.760400  1.0  0.1262
  H  H149  1  0.902600  0.712000  0.534900  1.0  0.1302
  H  H150  1  0.847100  0.670000  0.571300  1.0  0.1384
  H  H151  1  0.797200  0.765100  0.611400  1.0  0.1434
  H  H152  1  0.769700  0.751600  0.550700  1.0  0.1222
  H  H153  1  0.182300  0.720700  0.645200  1.0  0.127
  H  H154  1  0.151400  0.756100  0.592800  1.0  0.1321
  H  H155  1  0.214500  0.819600  0.663900  1.0  0.1361
  H  H156  1  0.134400  0.810700  0.697100  1.0  0.1481
  H  H157  1  0.666100  0.541200  0.858500  1.0  0.1499
  H  H158  1  0.654100  0.600200  0.895300  1.0  0.1484
  H  H159  1  0.602200  0.480600  0.922900  1.0  0.1213
  H  H160  1  0.545800  0.535000  0.904300  1.0  0.1026
  H  H161  1  0.569500  0.489100  0.145800  1.0  0.1052
  H  H162  1  0.611000  0.441800  0.105700  1.0  0.1173
  H  H163  1  0.695200  0.468800  0.177000  1.0  0.1572
  H  H164  1  0.689400  0.538700  0.160000  1.0  0.1487
  H  H165  1  0.496300  0.699800  0.026800  1.0  0.1121
  H  H166  1  0.513900  0.690500  0.089700  1.0  0.1277
  H  H167  1  0.642500  0.721800  0.079500  1.0  0.1313
  H  H168  1  0.635500  0.720400  0.015200  1.0  0.1328
  H  H169  1  0.441200  0.938000  0.266600  1.0  0.1327
  H  H170  1  0.531600  0.919100  0.260100  1.0  0.1392
  H  H171  1  0.485000  0.824900  0.219100  1.0  0.1285
  H  H172  1  0.398900  0.843600  0.239600  1.0  0.1238
  H  H173  1  0.402600  0.788000  0.465100  1.0  0.1291
  H  H174  1  0.347100  0.830000  0.428700  1.0  0.1383
  H  H175  1  0.297200  0.734900  0.388600  1.0  0.1441
  H  H176  1  0.269700  0.748400  0.449300  1.0  0.1213
  H  H177  1  0.682300  0.779300  0.354800  1.0  0.1257
  H  H178  1  0.651400  0.743900  0.407200  1.0  0.1273
  H  H179  1  0.714500  0.680400  0.336100  1.0  0.137
  H  H180  1  0.634400  0.689300  0.302900  1.0  0.1469
  H  H181  1  0.166100  0.958800  0.141500  1.0  0.1477
  H  H182  1  0.154100  0.899800  0.104700  1.0  0.1458
  H  H183  1  0.102200  0.019400  0.077100  1.0  0.1221
  H  H184  1  0.045800  0.965000  0.095700  1.0  0.1017
  H  H185  1  0.069500  0.010900  0.854200  1.0  0.1067
  H  H186  1  0.111000  0.058200  0.894300  1.0  0.1172
  H  H187  1  0.195200  0.031200  0.823000  1.0  0.1578
  H  H188  1  0.189400  0.961300  0.840000  1.0  0.1488
  H  H189  1  0.996300  0.800200  0.973200  1.0  0.1109
  H  H190  1  0.013900  0.809500  0.910300  1.0  0.1259
  H  H191  1  0.142500  0.778200  0.920500  1.0  0.1293
  H  H192  1  0.135500  0.779600  0.984800  1.0  0.1314
  H  H193  1  0.058800  0.062000  0.766600  1.0  0.1328
  H  H194  1  0.968400  0.080900  0.760100  1.0  0.1403
  H  H195  1  0.015000  0.175100  0.719100  1.0  0.1291
  H  H196  1  0.101100  0.156400  0.739600  1.0  0.1259
  H  H197  1  0.097400  0.212000  0.965100  1.0  0.1282
  H  H198  1  0.152900  0.170000  0.928700  1.0  0.138
  H  H199  1  0.202800  0.265100  0.888600  1.0  0.1441
  H  H200  1  0.230300  0.251600  0.949300  1.0  0.1199
  H  H201  1  0.817700  0.220700  0.854800  1.0  0.1272
  H  H202  1  0.848600  0.256100  0.907200  1.0  0.1293
  H  H203  1  0.785500  0.319600  0.836100  1.0  0.1396
  H  H204  1  0.865600  0.310700  0.802900  1.0  0.1471
  H  H205  1  0.333900  0.041200  0.641500  1.0  0.1498
  H  H206  1  0.345900  0.100200  0.604700  1.0  0.149
  H  H207  1  0.397800  0.980600  0.577100  1.0  0.1212
  H  H208  1  0.454200  0.035000  0.595700  1.0  0.1016
  H  H209  1  0.430500  0.989100  0.354200  1.0  0.1058
  H  H210  1  0.389000  0.941800  0.394300  1.0  0.1172
  H  H211  1  0.304800  0.968800  0.323000  1.0  0.1573
  H  H212  1  0.310600  0.038700  0.340000  1.0  0.1495
  H  H213  1  0.503700  0.199800  0.473200  1.0  0.111
  H  H214  1  0.486100  0.190500  0.410300  1.0  0.1278
  H  H215  1  0.357500  0.221800  0.420500  1.0  0.1297
  H  H216  1  0.364500  0.220400  0.484800  1.0  0.1322
  C  C217  1  0.478300  0.562000  0.687700  1.0  0.7731
  C  C218  1  0.478500  0.586100  0.744500  1.0  -0.3339
  C  C219  1  0.455800  0.652100  0.747100  1.0  0.0307
  C  C220  1  0.415300  0.680500  0.839800  1.0  0.5995
  C  C221  1  0.375300  0.709400  0.929900  1.0  -0.0164
  C  C222  1  0.315700  0.760800  0.926200  1.0  -0.3151
  C  C223  1  0.354000  0.819300  0.944600  1.0  0.6717
  C  C224  1  0.505000  0.738400  0.895800  1.0  0.6
  C  C225  1  0.643600  0.751000  0.867900  1.0  -0.0262
  C  C226  1  0.657400  0.812000  0.839500  1.0  -0.3307
  C  C227  1  0.619700  0.862600  0.871700  1.0  0.7508
  C  C228  1  0.548500  0.698600  0.809500  1.0  0.6319
  C  C229  1  0.241500  0.543600  0.576500  1.0  0.7598
  C  C230  1  0.163400  0.555700  0.603800  1.0  -0.3521
  C  C231  1  0.094900  0.525300  0.576100  1.0  0.0061
  C  C232  1  0.094300  0.503000  0.478100  1.0  0.5985
  C  C233  1  0.112000  0.484400  0.381100  1.0  0.0163
  C  C234  1  0.190400  0.496600  0.354300  1.0  -0.3677
  C  C235  1  0.262800  0.489900  0.387900  1.0  0.7958
  C  C236  1  0.079300  0.586100  0.413400  1.0  0.5809
  C  C237  1  0.037000  0.687500  0.446800  1.0  0.0297
  C  C238  1  0.106600  0.729600  0.451100  1.0  -0.3272
  C  C239  1  0.083300  0.797000  0.451100  1.0  0.7728
  C  C240  1  0.065300  0.605200  0.510600  1.0  0.6417
  C  C241  1  0.021700  0.438000  0.187700  1.0  0.773
  C  C242  1  0.021500  0.413900  0.244500  1.0  -0.3336
  C  C243  1  0.044200  0.347900  0.247100  1.0  0.0289
  C  C244  1  0.084700  0.319500  0.339800  1.0  0.5959
  C  C245  1  0.124700  0.290600  0.429900  1.0  -0.0155
  C  C246  1  0.184300  0.239200  0.426200  1.0  -0.3161
  C  C247  1  0.146000  0.180700  0.444600  1.0  0.669
  C  C248  1  0.995000  0.261600  0.395800  1.0  0.6006
  C  C249  1  0.856400  0.249000  0.367900  1.0  -0.0258
  C  C250  1  0.842600  0.188000  0.339500  1.0  -0.3288
  C  C251  1  0.880300  0.137400  0.371700  1.0  0.7506
  C  C252  1  0.951500  0.301400  0.309500  1.0  0.6326
  C  C253  1  0.258500  0.456400  0.076500  1.0  0.7602
  C  C254  1  0.336600  0.444300  0.103800  1.0  -0.3536
  C  C255  1  0.405100  0.474700  0.076100  1.0  0.0043
  C  C256  1  0.405700  0.497000  0.978100  1.0  0.5983
  C  C257  1  0.388000  0.515600  0.881100  1.0  0.0161
  C  C258  1  0.309600  0.503400  0.854300  1.0  -0.3609
  C  C259  1  0.237200  0.510100  0.887900  1.0  0.7973
  C  C260  1  0.420700  0.413900  0.913400  1.0  0.5817
  C  C261  1  0.463000  0.312500  0.946800  1.0  0.029
  C  C262  1  0.393400  0.270400  0.951100  1.0  -0.3297
  C  C263  1  0.416700  0.203000  0.951100  1.0  0.7703
  C  C264  1  0.434700  0.394800  0.010600  1.0  0.6439
  C  C265  1  0.521700  0.062000  0.812300  1.0  0.7724
  C  C266  1  0.521500  0.086100  0.755500  1.0  -0.3307
  C  C267  1  0.544200  0.152100  0.752900  1.0  0.0289
  C  C268  1  0.584700  0.180500  0.660200  1.0  0.5951
  C  C269  1  0.624700  0.209400  0.570100  1.0  -0.0153
  C  C270  1  0.684300  0.260800  0.573800  1.0  -0.3151
  C  C271  1  0.646000  0.319300  0.555400  1.0  0.6708
  C  C272  1  0.495000  0.238400  0.604200  1.0  0.6007
  C  C273  1  0.356400  0.251000  0.632100  1.0  -0.0255
  C  C274  1  0.342600  0.312000  0.660500  1.0  -0.3332
  C  C275  1  0.380300  0.362600  0.628300  1.0  0.7522
  C  C276  1  0.451500  0.198600  0.690500  1.0  0.6333
  C  C277  1  0.758500  0.043600  0.923500  1.0  0.761
  C  C278  1  0.836600  0.055700  0.896200  1.0  -0.352
  C  C279  1  0.905100  0.025300  0.923900  1.0  0.0067
  C  C280  1  0.905700  0.003000  0.021900  1.0  0.5977
  C  C281  1  0.888000  0.984400  0.118900  1.0  0.0162
  C  C282  1  0.809600  0.996600  0.145700  1.0  -0.3634
  C  C283  1  0.737200  0.989900  0.112100  1.0  0.7978
  C  C284  1  0.920700  0.086100  0.086600  1.0  0.5835
  C  C285  1  0.963000  0.187500  0.053200  1.0  0.0301
  C  C286  1  0.893400  0.229600  0.048900  1.0  -0.3315
  C  C287  1  0.916700  0.297000  0.048900  1.0  0.7716
  C  C288  1  0.934700  0.105200  0.989400  1.0  0.6424
  C  C289  1  0.978300  0.938000  0.312300  1.0  0.7716
  C  C290  1  0.978500  0.913900  0.255500  1.0  -0.3314
  C  C291  1  0.955800  0.847900  0.252900  1.0  0.0314
  C  C292  1  0.915300  0.819500  0.160200  1.0  0.5978
  C  C293  1  0.875300  0.790600  0.070100  1.0  -0.0137
  C  C294  1  0.815700  0.739200  0.073800  1.0  -0.3161
  C  C295  1  0.854000  0.680700  0.055400  1.0  0.6707
  C  C296  1  0.005000  0.761600  0.104200  1.0  0.6014
  C  C297  1  0.143600  0.749000  0.132100  1.0  -0.0229
  C  C298  1  0.157400  0.688000  0.160500  1.0  -0.3316
  C  C299  1  0.119700  0.637400  0.128300  1.0  0.7517
  C  C300  1  0.048500  0.801400  0.190500  1.0  0.6356
  C  C301  1  0.741500  0.956400  0.423500  1.0  0.7599
  C  C302  1  0.663400  0.944300  0.396200  1.0  -0.3529
  C  C303  1  0.594900  0.974700  0.423900  1.0  0.0081
  C  C304  1  0.594300  0.997000  0.521900  1.0  0.5986
  C  C305  1  0.612000  0.015600  0.618900  1.0  0.0175
  C  C306  1  0.690400  0.003400  0.645700  1.0  -0.3648
  C  C307  1  0.762800  0.010100  0.612100  1.0  0.7958
  C  C308  1  0.579300  0.913900  0.586600  1.0  0.5856
  C  C309  1  0.537000  0.812500  0.553200  1.0  0.0306
  C  C310  1  0.606600  0.770400  0.548900  1.0  -0.3295
  C  C311  1  0.583300  0.703000  0.548900  1.0  0.772
  C  C312  1  0.565300  0.894800  0.489400  1.0  0.642
  C  C313  1  0.521700  0.438000  0.312300  1.0  0.7712
  C  C314  1  0.521500  0.413900  0.255500  1.0  -0.3317
  C  C315  1  0.544200  0.347900  0.252900  1.0  0.0302
  C  C316  1  0.584700  0.319500  0.160200  1.0  0.5953
  C  C317  1  0.624700  0.290600  0.070100  1.0  -0.0142
  C  C318  1  0.684300  0.239200  0.073800  1.0  -0.3165
  C  C319  1  0.646000  0.180700  0.055400  1.0  0.6689
  C  C320  1  0.495000  0.261600  0.104200  1.0  0.6012
  C  C321  1  0.356400  0.249000  0.132100  1.0  -0.025
  C  C322  1  0.342600  0.188000  0.160500  1.0  -0.3309
  C  C323  1  0.380300  0.137400  0.128300  1.0  0.7516
  C  C324  1  0.451500  0.301400  0.190500  1.0  0.634
  C  C325  1  0.758500  0.456400  0.423500  1.0  0.7607
  C  C326  1  0.836600  0.444300  0.396200  1.0  -0.3518
  C  C327  1  0.905100  0.474700  0.423900  1.0  0.0075
  C  C328  1  0.905700  0.497000  0.521900  1.0  0.5982
  C  C329  1  0.888000  0.515600  0.618900  1.0  0.0165
  C  C330  1  0.809600  0.503400  0.645700  1.0  -0.3635
  C  C331  1  0.737200  0.510100  0.612100  1.0  0.7978
  C  C332  1  0.920700  0.413900  0.586600  1.0  0.5852
  C  C333  1  0.963000  0.312500  0.553200  1.0  0.0299
  C  C334  1  0.893400  0.270400  0.548900  1.0  -0.3303
  C  C335  1  0.916700  0.203000  0.548900  1.0  0.7713
  C  C336  1  0.934700  0.394800  0.489400  1.0  0.6429
  C  C337  1  0.978300  0.562000  0.812300  1.0  0.7726
  C  C338  1  0.978500  0.586100  0.755500  1.0  -0.3305
  C  C339  1  0.955800  0.652100  0.752900  1.0  0.0298
  C  C340  1  0.915300  0.680500  0.660200  1.0  0.5978
  C  C341  1  0.875300  0.709400  0.570100  1.0  -0.0147
  C  C342  1  0.815700  0.760800  0.573800  1.0  -0.3154
  C  C343  1  0.854000  0.819300  0.555400  1.0  0.6725
  C  C344  1  0.005000  0.738400  0.604200  1.0  0.6007
  C  C345  1  0.143600  0.751000  0.632100  1.0  -0.0243
  C  C346  1  0.157400  0.812000  0.660500  1.0  -0.3327
  C  C347  1  0.119700  0.862600  0.628300  1.0  0.7521
  C  C348  1  0.048500  0.698600  0.690500  1.0  0.6348
  C  C349  1  0.741500  0.543600  0.923500  1.0  0.7603
  C  C350  1  0.663400  0.555700  0.896200  1.0  -0.3531
  C  C351  1  0.594900  0.525300  0.923900  1.0  0.008
  C  C352  1  0.594300  0.503000  0.021900  1.0  0.5984
  C  C353  1  0.612000  0.484400  0.118900  1.0  0.017
  C  C354  1  0.690400  0.496600  0.145700  1.0  -0.3654
  C  C355  1  0.762800  0.489900  0.112100  1.0  0.7957
  C  C356  1  0.579300  0.586100  0.086600  1.0  0.5837
  C  C357  1  0.537000  0.687500  0.053200  1.0  0.0313
  C  C358  1  0.606600  0.729600  0.048900  1.0  -0.3293
  C  C359  1  0.583300  0.797000  0.048900  1.0  0.7725
  C  C360  1  0.565300  0.605200  0.989400  1.0  0.641
  C  C361  1  0.478300  0.938000  0.187700  1.0  0.7733
  C  C362  1  0.478500  0.913900  0.244500  1.0  -0.3333
  C  C363  1  0.455800  0.847900  0.247100  1.0  0.0315
  C  C364  1  0.415300  0.819500  0.339800  1.0  0.5993
  C  C365  1  0.375300  0.790600  0.429900  1.0  -0.0155
  C  C366  1  0.315700  0.739200  0.426200  1.0  -0.3161
  C  C367  1  0.354000  0.680700  0.444600  1.0  0.6706
  C  C368  1  0.505000  0.761600  0.395800  1.0  0.6008
  C  C369  1  0.643600  0.749000  0.367900  1.0  -0.025
  C  C370  1  0.657400  0.688000  0.339500  1.0  -0.3316
  C  C371  1  0.619700  0.637400  0.371700  1.0  0.751
  C  C372  1  0.548500  0.801400  0.309500  1.0  0.6323
  C  C373  1  0.241500  0.956400  0.076500  1.0  0.7597
  C  C374  1  0.163400  0.944300  0.103800  1.0  -0.354
  C  C375  1  0.094900  0.974700  0.076100  1.0  0.0055
  C  C376  1  0.094300  0.997000  0.978100  1.0  0.5987
  C  C377  1  0.112000  0.015600  0.881100  1.0  0.0171
  C  C378  1  0.190400  0.003400  0.854300  1.0  -0.3647
  C  C379  1  0.262800  0.010100  0.887900  1.0  0.796
  C  C380  1  0.079300  0.913900  0.913400  1.0  0.5823
  C  C381  1  0.037000  0.812500  0.946800  1.0  0.0299
  C  C382  1  0.106600  0.770400  0.951100  1.0  -0.3291
  C  C383  1  0.083300  0.703000  0.951100  1.0  0.771
  C  C384  1  0.065300  0.894800  0.010600  1.0  0.643
  C  C385  1  0.021700  0.062000  0.687700  1.0  0.7729
  C  C386  1  0.021500  0.086100  0.744500  1.0  -0.3339
  C  C387  1  0.044200  0.152100  0.747100  1.0  0.028
  C  C388  1  0.084700  0.180500  0.839800  1.0  0.596
  C  C389  1  0.124700  0.209400  0.929900  1.0  -0.0167
  C  C390  1  0.184300  0.260800  0.926200  1.0  -0.3146
  C  C391  1  0.146000  0.319300  0.944600  1.0  0.6699
  C  C392  1  0.995000  0.238400  0.895800  1.0  0.5999
  C  C393  1  0.856400  0.251000  0.867900  1.0  -0.0265
  C  C394  1  0.842600  0.312000  0.839500  1.0  -0.3292
  C  C395  1  0.880300  0.362600  0.871700  1.0  0.7506
  C  C396  1  0.951500  0.198600  0.809500  1.0  0.6323
  C  C397  1  0.258500  0.043600  0.576500  1.0  0.7604
  C  C398  1  0.336600  0.055700  0.603800  1.0  -0.3518
  C  C399  1  0.405100  0.025300  0.576100  1.0  0.0044
  C  C400  1  0.405700  0.003000  0.478100  1.0  0.5977
  C  C401  1  0.388000  0.984400  0.381100  1.0  0.0159
  C  C402  1  0.309600  0.996600  0.354300  1.0  -0.3632
  C  C403  1  0.237200  0.989900  0.387900  1.0  0.7972
  C  C404  1  0.420700  0.086100  0.413400  1.0  0.5805
  C  C405  1  0.463000  0.187500  0.446800  1.0  0.0283
  C  C406  1  0.393400  0.229600  0.451100  1.0  -0.3293
  C  C407  1  0.416700  0.297000  0.451100  1.0  0.7719
  C  C408  1  0.434700  0.105200  0.510600  1.0  0.6429
  N  N409  1  0.473900  0.678200  0.801500  1.0  -0.3015
  N  N410  1  0.434400  0.710600  0.886500  1.0  -0.284
  N  N411  1  0.562300  0.728100  0.857400  1.0  -0.2913
  N  N412  1  0.087500  0.545300  0.519600  1.0  -0.2828
  N  N413  1  0.096900  0.526000  0.426900  1.0  -0.2512
  N  N414  1  0.061400  0.623300  0.457400  1.0  -0.2657
  N  N415  1  0.026100  0.321800  0.301500  1.0  -0.3026
  N  N416  1  0.065600  0.289400  0.386500  1.0  -0.2843
  N  N417  1  0.937700  0.271900  0.357400  1.0  -0.2918
  N  N418  1  0.412500  0.454700  0.019600  1.0  -0.2826
  N  N419  1  0.403100  0.474000  0.926900  1.0  -0.2523
  N  N420  1  0.438600  0.376700  0.957400  1.0  -0.2659
  N  N421  1  0.526100  0.178200  0.698500  1.0  -0.3007
  N  N422  1  0.565600  0.210600  0.613500  1.0  -0.285
  N  N423  1  0.437700  0.228100  0.642600  1.0  -0.2919
  N  N424  1  0.912500  0.045300  0.980400  1.0  -0.2833
  N  N425  1  0.903100  0.026000  0.073100  1.0  -0.2502
  N  N426  1  0.938600  0.123300  0.042600  1.0  -0.2652
  N  N427  1  0.973900  0.821800  0.198500  1.0  -0.3008
  N  N428  1  0.934400  0.789400  0.113500  1.0  -0.2846
  N  N429  1  0.062300  0.771900  0.142600  1.0  -0.2925
  N  N430  1  0.587500  0.954700  0.480400  1.0  -0.2839
  N  N431  1  0.596900  0.974000  0.573100  1.0  -0.2515
  N  N432  1  0.561400  0.876700  0.542600  1.0  -0.2646
  N  N433  1  0.526100  0.321800  0.198500  1.0  -0.3001
  N  N434  1  0.565600  0.289400  0.113500  1.0  -0.2849
  N  N435  1  0.437700  0.271900  0.142600  1.0  -0.2923
  N  N436  1  0.912500  0.454700  0.480400  1.0  -0.2832
  N  N437  1  0.903100  0.474000  0.573100  1.0  -0.2514
  N  N438  1  0.938600  0.376700  0.542600  1.0  -0.2655
  N  N439  1  0.973900  0.678200  0.698500  1.0  -0.3017
  N  N440  1  0.934400  0.710600  0.613500  1.0  -0.2851
  N  N441  1  0.062300  0.728100  0.642600  1.0  -0.2918
  N  N442  1  0.587500  0.545300  0.980400  1.0  -0.2841
  N  N443  1  0.596900  0.526000  0.073100  1.0  -0.2501
  N  N444  1  0.561400  0.623300  0.042600  1.0  -0.2646
  N  N445  1  0.473900  0.821800  0.301500  1.0  -0.3029
  N  N446  1  0.434400  0.789400  0.386500  1.0  -0.2843
  N  N447  1  0.562300  0.771900  0.357400  1.0  -0.2923
  N  N448  1  0.087500  0.954700  0.019600  1.0  -0.2827
  N  N449  1  0.096900  0.974000  0.926900  1.0  -0.2526
  N  N450  1  0.061400  0.876700  0.957400  1.0  -0.265
  N  N451  1  0.026100  0.178200  0.801500  1.0  -0.3015
  N  N452  1  0.065600  0.210600  0.886500  1.0  -0.2837
  N  N453  1  0.937700  0.228100  0.857400  1.0  -0.2913
  N  N454  1  0.412500  0.045300  0.519600  1.0  -0.2827
  N  N455  1  0.403100  0.026000  0.426900  1.0  -0.2513
  N  N456  1  0.438600  0.123300  0.457400  1.0  -0.2665
  O  O457  1  0.446900  0.596200  0.652700  1.0  -0.7211
  O  O458  1  0.507900  0.511300  0.679600  1.0  -0.6977
  O  O459  1  0.362100  0.827300  0.996000  1.0  -0.7177
  O  O460  1  0.377500  0.855600  0.907900  1.0  -0.6645
  O  O461  1  0.658000  0.878900  0.913100  1.0  -0.7309
  O  O462  1  0.553600  0.883000  0.858100  1.0  -0.6638
  O  O463  1  0.351300  0.656600  0.832800  1.0  -0.524
  O  O464  1  0.518400  0.769100  0.936100  1.0  -0.519
  O  O465  1  0.600000  0.692600  0.776000  1.0  -0.4789
  O  O466  1  0.295000  0.583300  0.583500  1.0  -0.6849
  O  O467  1  0.248800  0.496600  0.549700  1.0  -0.6825
  O  O468  1  0.323500  0.514700  0.370200  1.0  -0.6898
  O  O469  1  0.259400  0.459700  0.430900  1.0  -0.6794
  O  O470  1  0.015700  0.810600  0.436800  1.0  -0.677
  O  O471  1  0.136300  0.833700  0.466300  1.0  -0.6733
  O  O472  1  0.095800  0.448400  0.487500  1.0  -0.5218
  O  O473  1  0.077100  0.604400  0.367700  1.0  -0.4824
  O  O474  1  0.050400  0.638800  0.547900  1.0  -0.4721
  O  O475  1  0.514200  0.606500  0.473000  1.0  -0.9063
  O  O476  1  0.382300  0.538900  0.481200  1.0  -0.9233
  O  O477  1  0.580900  0.506800  0.421600  1.0  -0.9149
  O  O478  1  0.558400  0.555400  0.570800  1.0  -0.7793
  O  O479  1  0.053100  0.403800  0.152700  1.0  -0.7217
  O  O480  1  0.992100  0.488700  0.179600  1.0  -0.6986
  O  O481  1  0.137900  0.172700  0.496000  1.0  -0.7162
  O  O482  1  0.122500  0.144400  0.407900  1.0  -0.6665
  O  O483  1  0.842000  0.121100  0.413100  1.0  -0.7321
  O  O484  1  0.946400  0.117000  0.358100  1.0  -0.6651
  O  O485  1  0.148700  0.343400  0.332800  1.0  -0.5219
  O  O486  1  0.981600  0.230900  0.436100  1.0  -0.518
  O  O487  1  0.900000  0.307400  0.276000  1.0  -0.4798
  O  O488  1  0.205000  0.416700  0.083500  1.0  -0.6825
  O  O489  1  0.251200  0.503400  0.049700  1.0  -0.6844
  O  O490  1  0.176500  0.485300  0.870200  1.0  -0.6872
  O  O491  1  0.240600  0.540300  0.930900  1.0  -0.6807
  O  O492  1  0.484300  0.189400  0.936800  1.0  -0.6771
  O  O493  1  0.363700  0.166300  0.966300  1.0  -0.6727
  O  O494  1  0.404200  0.551600  0.987500  1.0  -0.5214
  O  O495  1  0.422900  0.395600  0.867700  1.0  -0.4832
  O  O496  1  0.449600  0.361200  0.047900  1.0  -0.4725
  O  O497  1  0.985800  0.393500  0.973000  1.0  -0.9073
  O  O498  1  0.117700  0.461100  0.981200  1.0  -0.9241
  O  O499  1  0.919100  0.493200  0.921600  1.0  -0.9152
  O  O500  1  0.941600  0.444600  0.070800  1.0  -0.7797
  O  O501  1  0.553100  0.096200  0.847300  1.0  -0.7212
  O  O502  1  0.492100  0.011300  0.820400  1.0  -0.6995
  O  O503  1  0.637900  0.327300  0.504000  1.0  -0.716
  O  O504  1  0.622500  0.355600  0.592100  1.0  -0.6662
  O  O505  1  0.342000  0.378900  0.586900  1.0  -0.7321
  O  O506  1  0.446400  0.383000  0.641900  1.0  -0.6645
  O  O507  1  0.648700  0.156600  0.667200  1.0  -0.5225
  O  O508  1  0.481600  0.269100  0.563900  1.0  -0.5192
  O  O509  1  0.400000  0.192600  0.724000  1.0  -0.4792
  O  O510  1  0.705000  0.083300  0.916500  1.0  -0.6835
  O  O511  1  0.751200  0.996600  0.950300  1.0  -0.6844
  O  O512  1  0.676500  0.014700  0.129800  1.0  -0.6871
  O  O513  1  0.740600  0.959700  0.069100  1.0  -0.6794
  O  O514  1  0.984300  0.310600  0.063200  1.0  -0.6784
  O  O515  1  0.863700  0.333700  0.033700  1.0  -0.6733
  O  O516  1  0.904200  0.948400  0.012500  1.0  -0.5216
  O  O517  1  0.922900  0.104400  0.132300  1.0  -0.4823
  O  O518  1  0.949600  0.138800  0.952100  1.0  -0.4727
  O  O519  1  0.485800  0.106500  0.027000  1.0  -0.9068
  O  O520  1  0.617700  0.038900  0.018800  1.0  -0.9244
  O  O521  1  0.419100  0.006800  0.078400  1.0  -0.9149
  O  O522  1  0.441600  0.055400  0.929200  1.0  -0.7785
  O  O523  1  0.946900  0.903800  0.347300  1.0  -0.7215
  O  O524  1  0.007900  0.988700  0.320400  1.0  -0.6966
  O  O525  1  0.862100  0.672700  0.004000  1.0  -0.7145
  O  O526  1  0.877500  0.644400  0.092100  1.0  -0.6673
  O  O527  1  0.158000  0.621100  0.086900  1.0  -0.7296
  O  O528  1  0.053600  0.617000  0.141900  1.0  -0.6645
  O  O529  1  0.851300  0.843400  0.167200  1.0  -0.5236
  O  O530  1  0.018400  0.730900  0.063900  1.0  -0.5191
  O  O531  1  0.100000  0.807400  0.224000  1.0  -0.478
  O  O532  1  0.795000  0.916700  0.416500  1.0  -0.6848
  O  O533  1  0.748800  0.003400  0.450300  1.0  -0.6834
  O  O534  1  0.823500  0.985300  0.629800  1.0  -0.687
  O  O535  1  0.759400  0.040300  0.569100  1.0  -0.679
  O  O536  1  0.515700  0.689400  0.563200  1.0  -0.6795
  O  O537  1  0.636300  0.666300  0.533700  1.0  -0.6724
  O  O538  1  0.595800  0.051600  0.512500  1.0  -0.5201
  O  O539  1  0.577100  0.895600  0.632300  1.0  -0.4821
  O  O540  1  0.550400  0.861200  0.452100  1.0  -0.4725
  O  O541  1  0.014200  0.893500  0.527000  1.0  -0.9065
  O  O542  1  0.882300  0.961100  0.518800  1.0  -0.9238
  O  O543  1  0.080900  0.993200  0.578400  1.0  -0.9149
  O  O544  1  0.058400  0.944600  0.429200  1.0  -0.7785
  O  O545  1  0.553100  0.403800  0.347300  1.0  -0.7211
  O  O546  1  0.492100  0.488700  0.320400  1.0  -0.6989
  O  O547  1  0.637900  0.172700  0.004000  1.0  -0.7151
  O  O548  1  0.622500  0.144400  0.092100  1.0  -0.6673
  O  O549  1  0.342000  0.121100  0.086900  1.0  -0.7322
  O  O550  1  0.446400  0.117000  0.141900  1.0  -0.6643
  O  O551  1  0.648700  0.343400  0.167200  1.0  -0.5221
  O  O552  1  0.481600  0.230900  0.063900  1.0  -0.519
  O  O553  1  0.400000  0.307400  0.224000  1.0  -0.4789
  O  O554  1  0.705000  0.416700  0.416500  1.0  -0.6837
  O  O555  1  0.751200  0.503400  0.450300  1.0  -0.6853
  O  O556  1  0.676500  0.485300  0.629800  1.0  -0.6867
  O  O557  1  0.740600  0.540300  0.569100  1.0  -0.6799
  O  O558  1  0.984300  0.189400  0.563200  1.0  -0.6779
  O  O559  1  0.863700  0.166300  0.533700  1.0  -0.6722
  O  O560  1  0.904200  0.551600  0.512500  1.0  -0.5206
  O  O561  1  0.922900  0.395600  0.632300  1.0  -0.4831
  O  O562  1  0.949600  0.361200  0.452100  1.0  -0.4729
  O  O563  1  0.485800  0.393500  0.527000  1.0  -0.9071
  O  O564  1  0.617700  0.461100  0.518800  1.0  -0.9246
  O  O565  1  0.419100  0.493200  0.578400  1.0  -0.915
  O  O566  1  0.441600  0.444600  0.429200  1.0  -0.7785
  O  O567  1  0.946900  0.596200  0.847300  1.0  -0.7217
  O  O568  1  0.007900  0.511300  0.820400  1.0  -0.6982
  O  O569  1  0.862100  0.827300  0.504000  1.0  -0.7159
  O  O570  1  0.877500  0.855600  0.592100  1.0  -0.6665
  O  O571  1  0.158000  0.878900  0.586900  1.0  -0.73
  O  O572  1  0.053600  0.883000  0.641900  1.0  -0.6642
  O  O573  1  0.851300  0.656600  0.667200  1.0  -0.524
  O  O574  1  0.018400  0.769100  0.563900  1.0  -0.5194
  O  O575  1  0.100000  0.692600  0.724000  1.0  -0.4783
  O  O576  1  0.795000  0.583300  0.916500  1.0  -0.6849
  O  O577  1  0.748800  0.496600  0.950300  1.0  -0.6834
  O  O578  1  0.823500  0.514700  0.129800  1.0  -0.6875
  O  O579  1  0.759400  0.459700  0.069100  1.0  -0.6786
  O  O580  1  0.515700  0.810600  0.063200  1.0  -0.6798
  O  O581  1  0.636300  0.833700  0.033700  1.0  -0.6734
  O  O582  1  0.595800  0.448400  0.012500  1.0  -0.5216
  O  O583  1  0.577100  0.604400  0.132300  1.0  -0.4818
  O  O584  1  0.550400  0.638800  0.952100  1.0  -0.4722
  O  O585  1  0.014200  0.606500  0.027000  1.0  -0.9062
  O  O586  1  0.882300  0.538900  0.018800  1.0  -0.9237
  O  O587  1  0.080900  0.506800  0.078400  1.0  -0.9149
  O  O588  1  0.058400  0.555400  0.929200  1.0  -0.7786
  O  O589  1  0.446900  0.903800  0.152700  1.0  -0.7217
  O  O590  1  0.507900  0.988700  0.179600  1.0  -0.6966
  O  O591  1  0.362100  0.672700  0.496000  1.0  -0.7163
  O  O592  1  0.377500  0.644400  0.407900  1.0  -0.6661
  O  O593  1  0.658000  0.621100  0.413100  1.0  -0.7297
  O  O594  1  0.553600  0.617000  0.358100  1.0  -0.6645
  O  O595  1  0.351300  0.843400  0.332800  1.0  -0.5236
  O  O596  1  0.518400  0.730900  0.436100  1.0  -0.5184
  O  O597  1  0.600000  0.807400  0.276000  1.0  -0.4787
  O  O598  1  0.295000  0.916700  0.083500  1.0  -0.684
  O  O599  1  0.248800  0.003400  0.049700  1.0  -0.6819
  O  O600  1  0.323500  0.985300  0.870200  1.0  -0.6892
  O  O601  1  0.259400  0.040300  0.930900  1.0  -0.6799
  O  O602  1  0.015700  0.689400  0.936800  1.0  -0.6773
  O  O603  1  0.136300  0.666300  0.966300  1.0  -0.6724
  O  O604  1  0.095800  0.051600  0.987500  1.0  -0.5214
  O  O605  1  0.077100  0.895600  0.867700  1.0  -0.4837
  O  O606  1  0.050400  0.861200  0.047900  1.0  -0.4721
  O  O607  1  0.514200  0.893500  0.973000  1.0  -0.9067
  O  O608  1  0.382300  0.961100  0.981200  1.0  -0.9234
  O  O609  1  0.580900  0.993200  0.921600  1.0  -0.915
  O  O610  1  0.558400  0.944600  0.070800  1.0  -0.7798
  O  O611  1  0.053100  0.096200  0.652700  1.0  -0.7213
  O  O612  1  0.992100  0.011300  0.679600  1.0  -0.6994
  O  O613  1  0.137900  0.327300  0.996000  1.0  -0.7173
  O  O614  1  0.122500  0.355600  0.907900  1.0  -0.6642
  O  O615  1  0.842000  0.378900  0.913100  1.0  -0.732
  O  O616  1  0.946400  0.383000  0.858100  1.0  -0.6654
  O  O617  1  0.148700  0.156600  0.832800  1.0  -0.5224
  O  O618  1  0.981600  0.269100  0.936100  1.0  -0.5188
  O  O619  1  0.900000  0.192600  0.776000  1.0  -0.4804
  O  O620  1  0.205000  0.083300  0.583500  1.0  -0.6831
  O  O621  1  0.251200  0.996600  0.549700  1.0  -0.6839
  O  O622  1  0.176500  0.014700  0.370200  1.0  -0.6875
  O  O623  1  0.240600  0.959700  0.430900  1.0  -0.6796
  O  O624  1  0.484300  0.310600  0.436800  1.0  -0.6774
  O  O625  1  0.363700  0.333700  0.466300  1.0  -0.6737
  O  O626  1  0.404200  0.948400  0.487500  1.0  -0.5215
  O  O627  1  0.422900  0.104400  0.367700  1.0  -0.4819
  O  O628  1  0.449600  0.138800  0.547900  1.0  -0.4729
  O  O629  1  0.985800  0.106500  0.473000  1.0  -0.9069
  O  O630  1  0.117700  0.038900  0.481200  1.0  -0.924
  O  O631  1  0.919100  0.006800  0.421600  1.0  -0.9151
  O  O632  1  0.941600  0.055400  0.570800  1.0  -0.7792
