# generated using pymatgen
data_NaU2H30C60(N3O8)2
_symmetry_space_group_name_H-M   'P 1'
_cell_length_a   8.55360000
_cell_length_b   19.39190000
_cell_length_c   44.30140000
_cell_angle_alpha   90.00000000
_cell_angle_beta   91.11100000
_cell_angle_gamma   90.00000000
_symmetry_Int_Tables_number   1
_chemical_formula_structural   NaU2H30C60(N3O8)2
_chemical_formula_sum   'Na4 U8 H120 C240 N24 O64'
_cell_volume   7346.91642166
_cell_formula_units_Z   4
loop_
 _symmetry_equiv_pos_site_id
 _symmetry_equiv_pos_as_xyz
  1  'x, y, z'
loop_
 _atom_site_type_symbol
 _atom_site_label
 _atom_site_symmetry_multiplicity
 _atom_site_fract_x
 _atom_site_fract_y
 _atom_site_fract_z
 _atom_site_occupancy
 _atom_site_charge
  Na  Na1  1  0.000000  0.804300  0.750000  1.0  0.9969
  Na  Na2  1  0.500000  0.304300  0.750000  1.0  0.9969
  Na  Na3  1  0.000000  0.195700  0.250000  1.0  0.9969
  Na  Na4  1  0.500000  0.695700  0.250000  1.0  0.9969
  U  U5  1  0.080110  0.803850  0.843390  1.0  1.9439
  U  U6  1  0.580110  0.303850  0.843390  1.0  1.9439
  U  U7  1  0.919890  0.803850  0.656610  1.0  1.9455
  U  U8  1  0.419890  0.303850  0.656610  1.0  1.9455
  U  U9  1  0.919890  0.196150  0.156610  1.0  1.9461
  U  U10  1  0.419890  0.696150  0.156610  1.0  1.9461
  U  U11  1  0.080110  0.196150  0.343390  1.0  1.9445
  U  U12  1  0.580110  0.696150  0.343390  1.0  1.9445
  H  H13  1  0.236500  0.465600  0.857900  1.0  0.1238
  H  H14  1  0.152900  0.578000  0.846600  1.0  0.1609
  H  H15  1  0.098600  0.758000  0.957400  1.0  0.129
  H  H16  1  0.656800  0.452500  0.732500  1.0  0.1479
  H  H17  1  0.839600  0.656900  0.766800  1.0  0.1347
  H  H18  1  0.947300  0.377700  0.797100  1.0  0.1481
  H  H19  1  0.318400  0.539100  0.655000  1.0  0.1419
  H  H20  1  0.120100  0.373800  0.840000  1.0  0.1216
  H  H21  1  0.551400  0.723200  0.702700  1.0  0.1249
  H  H22  1  0.258000  0.645800  0.640200  1.0  0.1311
  H  H23  1  0.383700  0.749300  0.660900  1.0  0.1749
  H  H24  1  0.875100  0.844600  0.943800  1.0  0.1531
  H  H25  1  0.737500  0.863900  0.897700  1.0  0.1272
  H  H26  1  0.729700  0.807400  0.985300  1.0  0.1346
  H  H27  1  0.475100  0.840000  0.892400  1.0  0.1315
  H  H28  1  0.736500  0.965600  0.857900  1.0  0.1238
  H  H29  1  0.652900  0.078000  0.846600  1.0  0.1609
  H  H30  1  0.598600  0.258000  0.957400  1.0  0.129
  H  H31  1  0.156800  0.952500  0.732500  1.0  0.1479
  H  H32  1  0.339600  0.156900  0.766800  1.0  0.1347
  H  H33  1  0.447300  0.877700  0.797100  1.0  0.1481
  H  H34  1  0.818400  0.039100  0.655000  1.0  0.1419
  H  H35  1  0.620100  0.873800  0.840000  1.0  0.1216
  H  H36  1  0.051400  0.223200  0.702700  1.0  0.1249
  H  H37  1  0.758000  0.145800  0.640200  1.0  0.1311
  H  H38  1  0.883700  0.249300  0.660900  1.0  0.1748
  H  H39  1  0.375100  0.344600  0.943800  1.0  0.1531
  H  H40  1  0.237500  0.363900  0.897700  1.0  0.1272
  H  H41  1  0.229700  0.307400  0.985300  1.0  0.1346
  H  H42  1  0.975100  0.340000  0.892400  1.0  0.1315
  H  H43  1  0.763500  0.465600  0.642100  1.0  0.1235
  H  H44  1  0.847100  0.578000  0.653400  1.0  0.1604
  H  H45  1  0.901400  0.758000  0.542600  1.0  0.1281
  H  H46  1  0.343200  0.452500  0.767500  1.0  0.148
  H  H47  1  0.160400  0.656900  0.733200  1.0  0.1351
  H  H48  1  0.052700  0.377700  0.702900  1.0  0.1479
  H  H49  1  0.681600  0.539100  0.845000  1.0  0.1417
  H  H50  1  0.879900  0.373800  0.660000  1.0  0.1209
  H  H51  1  0.448600  0.723200  0.797300  1.0  0.1249
  H  H52  1  0.742000  0.645800  0.859800  1.0  0.1305
  H  H53  1  0.616300  0.749300  0.839100  1.0  0.1746
  H  H54  1  0.124900  0.844600  0.556200  1.0  0.1521
  H  H55  1  0.262500  0.863900  0.602300  1.0  0.1268
  H  H56  1  0.270300  0.807400  0.514700  1.0  0.1345
  H  H57  1  0.524900  0.840000  0.607600  1.0  0.1316
  H  H58  1  0.263500  0.965600  0.642100  1.0  0.1235
  H  H59  1  0.347100  0.078000  0.653400  1.0  0.1604
  H  H60  1  0.401400  0.258000  0.542600  1.0  0.1281
  H  H61  1  0.843200  0.952500  0.767500  1.0  0.148
  H  H62  1  0.660400  0.156900  0.733200  1.0  0.1351
  H  H63  1  0.552700  0.877700  0.702900  1.0  0.1479
  H  H64  1  0.181600  0.039100  0.845000  1.0  0.1417
  H  H65  1  0.379900  0.873800  0.660000  1.0  0.1209
  H  H66  1  0.948600  0.223200  0.797300  1.0  0.1249
  H  H67  1  0.242000  0.145800  0.859800  1.0  0.1305
  H  H68  1  0.116300  0.249300  0.839100  1.0  0.1745
  H  H69  1  0.624900  0.344600  0.556200  1.0  0.1521
  H  H70  1  0.762500  0.363900  0.602300  1.0  0.1268
  H  H71  1  0.770300  0.307400  0.514700  1.0  0.1345
  H  H72  1  0.024900  0.340000  0.607600  1.0  0.1316
  H  H73  1  0.763500  0.534400  0.142100  1.0  0.1232
  H  H74  1  0.847100  0.422000  0.153400  1.0  0.1599
  H  H75  1  0.901400  0.242000  0.042600  1.0  0.1289
  H  H76  1  0.343200  0.547500  0.267500  1.0  0.1485
  H  H77  1  0.160400  0.343100  0.233200  1.0  0.1346
  H  H78  1  0.052700  0.622300  0.202900  1.0  0.1479
  H  H79  1  0.681600  0.460900  0.345000  1.0  0.1414
  H  H80  1  0.879900  0.626200  0.160000  1.0  0.1211
  H  H81  1  0.448600  0.276800  0.297300  1.0  0.125
  H  H82  1  0.742000  0.354200  0.359800  1.0  0.1309
  H  H83  1  0.616300  0.250700  0.339100  1.0  0.1751
  H  H84  1  0.124900  0.155400  0.056200  1.0  0.1523
  H  H85  1  0.262500  0.136100  0.102300  1.0  0.127
  H  H86  1  0.270300  0.192600  0.014700  1.0  0.1345
  H  H87  1  0.524900  0.160000  0.107600  1.0  0.1317
  H  H88  1  0.263500  0.034400  0.142100  1.0  0.1232
  H  H89  1  0.347100  0.922000  0.153400  1.0  0.1599
  H  H90  1  0.401400  0.742000  0.042600  1.0  0.1289
  H  H91  1  0.843200  0.047500  0.267500  1.0  0.1485
  H  H92  1  0.660400  0.843100  0.233200  1.0  0.1346
  H  H93  1  0.552700  0.122300  0.202900  1.0  0.1479
  H  H94  1  0.181600  0.960900  0.345000  1.0  0.1414
  H  H95  1  0.379900  0.126200  0.160000  1.0  0.1211
  H  H96  1  0.948600  0.776800  0.297300  1.0  0.125
  H  H97  1  0.242000  0.854200  0.359800  1.0  0.1309
  H  H98  1  0.116300  0.750700  0.339100  1.0  0.175
  H  H99  1  0.624900  0.655400  0.056200  1.0  0.1523
  H  H100  1  0.762500  0.636100  0.102300  1.0  0.127
  H  H101  1  0.770300  0.692600  0.014700  1.0  0.1345
  H  H102  1  0.024900  0.660000  0.107600  1.0  0.1317
  H  H103  1  0.236500  0.534400  0.357900  1.0  0.1238
  H  H104  1  0.152900  0.422000  0.346600  1.0  0.1612
  H  H105  1  0.098600  0.242000  0.457400  1.0  0.129
  H  H106  1  0.656800  0.547500  0.232500  1.0  0.1481
  H  H107  1  0.839600  0.343100  0.266800  1.0  0.1349
  H  H108  1  0.947300  0.622300  0.297100  1.0  0.1483
  H  H109  1  0.318400  0.460900  0.155000  1.0  0.1421
  H  H110  1  0.120100  0.626200  0.340000  1.0  0.1211
  H  H111  1  0.551400  0.276800  0.202700  1.0  0.1253
  H  H112  1  0.258000  0.354200  0.140200  1.0  0.131
  H  H113  1  0.383700  0.250700  0.160900  1.0  0.1753
  H  H114  1  0.875100  0.155400  0.443800  1.0  0.1526
  H  H115  1  0.737500  0.136100  0.397700  1.0  0.127
  H  H116  1  0.729700  0.192600  0.485300  1.0  0.1347
  H  H117  1  0.475100  0.160000  0.392400  1.0  0.1313
  H  H118  1  0.736500  0.034400  0.357900  1.0  0.1238
  H  H119  1  0.652900  0.922000  0.346600  1.0  0.1612
  H  H120  1  0.598600  0.742000  0.457400  1.0  0.129
  H  H121  1  0.156800  0.047500  0.232500  1.0  0.148
  H  H122  1  0.339600  0.843100  0.266800  1.0  0.1349
  H  H123  1  0.447300  0.122300  0.297100  1.0  0.1483
  H  H124  1  0.818400  0.960900  0.155000  1.0  0.1421
  H  H125  1  0.620100  0.126200  0.340000  1.0  0.1211
  H  H126  1  0.051400  0.776800  0.202700  1.0  0.1253
  H  H127  1  0.758000  0.854200  0.140200  1.0  0.131
  H  H128  1  0.883700  0.750700  0.160900  1.0  0.1752
  H  H129  1  0.375100  0.655400  0.443800  1.0  0.1526
  H  H130  1  0.237500  0.636100  0.397700  1.0  0.127
  H  H131  1  0.229700  0.692600  0.485300  1.0  0.1347
  H  H132  1  0.975100  0.660000  0.392400  1.0  0.1313
  C  C133  1  0.688700  0.557500  0.736300  1.0  0.2079
  C  C134  1  0.548300  0.624300  0.702700  1.0  0.1892
  C  C135  1  0.157900  0.471800  0.843300  1.0  -0.0574
  C  C136  1  0.188700  0.796600  0.905200  1.0  0.6994
  C  C137  1  0.117200  0.539800  0.835900  1.0  -0.126
  C  C138  1  0.518000  0.800500  0.963800  1.0  0.187
  C  C139  1  0.204000  0.769900  0.958800  1.0  -0.0303
  C  C140  1  0.437000  0.808600  0.935700  1.0  0.0131
  C  C141  1  0.276700  0.793700  0.934300  1.0  0.0272
  C  C142  1  0.527500  0.498800  0.700200  1.0  -0.0646
  C  C143  1  0.971500  0.612000  0.799200  1.0  -0.121
  C  C144  1  0.628300  0.494900  0.724200  1.0  -0.0311
  C  C145  1  0.868300  0.614400  0.774900  1.0  -0.0129
  C  C146  1  0.949200  0.488100  0.796200  1.0  0.1412
  C  C147  1  0.987800  0.417200  0.806200  1.0  -0.0935
  C  C148  1  0.368300  0.576100  0.664400  1.0  -0.1184
  C  C149  1  0.094400  0.416300  0.831500  1.0  -0.0871
  C  C150  1  0.481200  0.563300  0.688100  1.0  0.0051
  C  C151  1  0.506400  0.686100  0.692400  1.0  -0.0758
  C  C152  1  0.023300  0.679300  0.813100  1.0  0.7205
  C  C153  1  0.473700  0.432900  0.686900  1.0  0.6775
  C  C154  1  0.333200  0.640900  0.655500  1.0  -0.078
  C  C155  1  0.403200  0.704700  0.667900  1.0  -0.1022
  C  C156  1  0.768000  0.836700  0.942100  1.0  -0.1055
  C  C157  1  0.684000  0.847100  0.914300  1.0  -0.096
  C  C158  1  0.288000  0.762800  0.987000  1.0  0.1957
  C  C159  1  0.018600  0.544000  0.810900  1.0  -0.0328
  C  C160  1  0.680000  0.813900  0.966600  1.0  -0.0728
  C  C161  1  0.525000  0.833100  0.911000  1.0  -0.1327
  C  C162  1  0.805300  0.553100  0.762100  1.0  0.1827
  C  C163  1  0.188700  0.057500  0.736300  1.0  0.2079
  C  C164  1  0.048300  0.124300  0.702700  1.0  0.1892
  C  C165  1  0.657900  0.971800  0.843300  1.0  -0.0574
  C  C166  1  0.688700  0.296600  0.905200  1.0  0.6994
  C  C167  1  0.617200  0.039800  0.835900  1.0  -0.126
  C  C168  1  0.018000  0.300500  0.963800  1.0  0.187
  C  C169  1  0.704000  0.269900  0.958800  1.0  -0.0303
  C  C170  1  0.937000  0.308600  0.935700  1.0  0.0131
  C  C171  1  0.776700  0.293700  0.934300  1.0  0.0272
  C  C172  1  0.027500  0.998800  0.700200  1.0  -0.0646
  C  C173  1  0.471500  0.112000  0.799200  1.0  -0.121
  C  C174  1  0.128300  0.994900  0.724200  1.0  -0.0311
  C  C175  1  0.368300  0.114400  0.774900  1.0  -0.0129
  C  C176  1  0.449200  0.988100  0.796200  1.0  0.1412
  C  C177  1  0.487800  0.917200  0.806200  1.0  -0.0935
  C  C178  1  0.868300  0.076100  0.664400  1.0  -0.1184
  C  C179  1  0.594400  0.916300  0.831500  1.0  -0.0871
  C  C180  1  0.981200  0.063300  0.688100  1.0  0.0051
  C  C181  1  0.006400  0.186100  0.692400  1.0  -0.0758
  C  C182  1  0.523300  0.179300  0.813100  1.0  0.7205
  C  C183  1  0.973700  0.932900  0.686900  1.0  0.6775
  C  C184  1  0.833200  0.140900  0.655500  1.0  -0.078
  C  C185  1  0.903200  0.204700  0.667900  1.0  -0.1022
  C  C186  1  0.268000  0.336700  0.942100  1.0  -0.1055
  C  C187  1  0.184000  0.347100  0.914300  1.0  -0.096
  C  C188  1  0.788000  0.262800  0.987000  1.0  0.1957
  C  C189  1  0.518600  0.044000  0.810900  1.0  -0.0328
  C  C190  1  0.180000  0.313900  0.966600  1.0  -0.0728
  C  C191  1  0.025000  0.333100  0.911000  1.0  -0.1327
  C  C192  1  0.305300  0.053100  0.762100  1.0  0.1827
  C  C193  1  0.311300  0.557500  0.763700  1.0  0.208
  C  C194  1  0.451700  0.624300  0.797300  1.0  0.1896
  C  C195  1  0.842100  0.471800  0.656700  1.0  -0.0602
  C  C196  1  0.811300  0.796600  0.594800  1.0  0.6992
  C  C197  1  0.882800  0.539800  0.664100  1.0  -0.1259
  C  C198  1  0.482000  0.800500  0.536200  1.0  0.1878
  C  C199  1  0.796000  0.769900  0.541200  1.0  -0.0286
  C  C200  1  0.563000  0.808600  0.564300  1.0  0.0138
  C  C201  1  0.723300  0.793700  0.565700  1.0  0.0274
  C  C202  1  0.472500  0.498800  0.799800  1.0  -0.0642
  C  C203  1  0.028500  0.612000  0.700800  1.0  -0.1195
  C  C204  1  0.371700  0.494900  0.775800  1.0  -0.0321
  C  C205  1  0.131700  0.614400  0.725100  1.0  -0.0132
  C  C206  1  0.050800  0.488100  0.703800  1.0  0.1417
  C  C207  1  0.012200  0.417200  0.693800  1.0  -0.0926
  C  C208  1  0.631700  0.576100  0.835600  1.0  -0.1201
  C  C209  1  0.905600  0.416300  0.668500  1.0  -0.0871
  C  C210  1  0.518800  0.563300  0.811900  1.0  0.006
  C  C211  1  0.493600  0.686100  0.807600  1.0  -0.075
  C  C212  1  0.976700  0.679300  0.686900  1.0  0.7219
  C  C213  1  0.526300  0.432900  0.813100  1.0  0.6793
  C  C214  1  0.666800  0.640900  0.844500  1.0  -0.0749
  C  C215  1  0.596800  0.704700  0.832100  1.0  -0.1019
  C  C216  1  0.232000  0.836700  0.557900  1.0  -0.1147
  C  C217  1  0.316000  0.847100  0.585700  1.0  -0.0961
  C  C218  1  0.712000  0.762800  0.513000  1.0  0.1958
  C  C219  1  0.981400  0.544000  0.689100  1.0  -0.0333
  C  C220  1  0.320000  0.813900  0.533400  1.0  -0.0727
  C  C221  1  0.475000  0.833100  0.589000  1.0  -0.1318
  C  C222  1  0.194700  0.553100  0.737900  1.0  0.1824
  C  C223  1  0.811300  0.057500  0.763700  1.0  0.208
  C  C224  1  0.951700  0.124300  0.797300  1.0  0.1896
  C  C225  1  0.342100  0.971800  0.656700  1.0  -0.0602
  C  C226  1  0.311300  0.296600  0.594800  1.0  0.6992
  C  C227  1  0.382800  0.039800  0.664100  1.0  -0.1259
  C  C228  1  0.982000  0.300500  0.536200  1.0  0.1878
  C  C229  1  0.296000  0.269900  0.541200  1.0  -0.0286
  C  C230  1  0.063000  0.308600  0.564300  1.0  0.0138
  C  C231  1  0.223300  0.293700  0.565700  1.0  0.0274
  C  C232  1  0.972500  0.998800  0.799800  1.0  -0.0642
  C  C233  1  0.528500  0.112000  0.700800  1.0  -0.1195
  C  C234  1  0.871700  0.994900  0.775800  1.0  -0.0321
  C  C235  1  0.631700  0.114400  0.725100  1.0  -0.0132
  C  C236  1  0.550800  0.988100  0.703800  1.0  0.1417
  C  C237  1  0.512200  0.917200  0.693800  1.0  -0.0926
  C  C238  1  0.131700  0.076100  0.835600  1.0  -0.1201
  C  C239  1  0.405600  0.916300  0.668500  1.0  -0.0871
  C  C240  1  0.018800  0.063300  0.811900  1.0  0.006
  C  C241  1  0.993600  0.186100  0.807600  1.0  -0.075
  C  C242  1  0.476700  0.179300  0.686900  1.0  0.7219
  C  C243  1  0.026300  0.932900  0.813100  1.0  0.6793
  C  C244  1  0.166800  0.140900  0.844500  1.0  -0.0749
  C  C245  1  0.096800  0.204700  0.832100  1.0  -0.1019
  C  C246  1  0.732000  0.336700  0.557900  1.0  -0.1147
  C  C247  1  0.816000  0.347100  0.585700  1.0  -0.0961
  C  C248  1  0.212000  0.262800  0.513000  1.0  0.1958
  C  C249  1  0.481400  0.044000  0.689100  1.0  -0.0333
  C  C250  1  0.820000  0.313900  0.533400  1.0  -0.0727
  C  C251  1  0.975000  0.333100  0.589000  1.0  -0.1318
  C  C252  1  0.694700  0.053100  0.737900  1.0  0.1824
  C  C253  1  0.311300  0.442500  0.263700  1.0  0.2079
  C  C254  1  0.451700  0.375700  0.297300  1.0  0.1895
  C  C255  1  0.842100  0.528200  0.156700  1.0  -0.0602
  C  C256  1  0.811300  0.203400  0.094800  1.0  0.6994
  C  C257  1  0.882800  0.460200  0.164100  1.0  -0.1258
  C  C258  1  0.482000  0.199500  0.036200  1.0  0.1877
  C  C259  1  0.796000  0.230100  0.041200  1.0  -0.0288
  C  C260  1  0.563000  0.191400  0.064300  1.0  0.0138
  C  C261  1  0.723300  0.206300  0.065700  1.0  0.0274
  C  C262  1  0.472500  0.501200  0.299800  1.0  -0.0638
  C  C263  1  0.028500  0.388000  0.200800  1.0  -0.1208
  C  C264  1  0.371700  0.505100  0.275800  1.0  -0.0315
  C  C265  1  0.131700  0.385600  0.225100  1.0  -0.0136
  C  C266  1  0.050800  0.511900  0.203800  1.0  0.1407
  C  C267  1  0.012200  0.582800  0.193800  1.0  -0.0939
  C  C268  1  0.631700  0.423900  0.335600  1.0  -0.1208
  C  C269  1  0.905600  0.583700  0.168500  1.0  -0.0871
  C  C270  1  0.518800  0.436700  0.311900  1.0  0.0053
  C  C271  1  0.493600  0.313900  0.307600  1.0  -0.0739
  C  C272  1  0.976700  0.320700  0.186900  1.0  0.7203
  C  C273  1  0.526300  0.567100  0.313100  1.0  0.6776
  C  C274  1  0.666800  0.359100  0.344500  1.0  -0.0746
  C  C275  1  0.596800  0.295300  0.332100  1.0  -0.0978
  C  C276  1  0.232000  0.163300  0.057900  1.0  -0.1149
  C  C277  1  0.316000  0.152900  0.085700  1.0  -0.0962
  C  C278  1  0.712000  0.237200  0.013000  1.0  0.1949
  C  C279  1  0.981400  0.456000  0.189100  1.0  -0.0331
  C  C280  1  0.320000  0.186100  0.033400  1.0  -0.0726
  C  C281  1  0.475000  0.166900  0.089000  1.0  -0.1315
  C  C282  1  0.194700  0.446900  0.237900  1.0  0.1822
  C  C283  1  0.811300  0.942500  0.263700  1.0  0.2079
  C  C284  1  0.951700  0.875700  0.297300  1.0  0.1895
  C  C285  1  0.342100  0.028200  0.156700  1.0  -0.0602
  C  C286  1  0.311300  0.703400  0.094800  1.0  0.6994
  C  C287  1  0.382800  0.960200  0.164100  1.0  -0.1258
  C  C288  1  0.982000  0.699500  0.036200  1.0  0.1877
  C  C289  1  0.296000  0.730100  0.041200  1.0  -0.0288
  C  C290  1  0.063000  0.691400  0.064300  1.0  0.0138
  C  C291  1  0.223300  0.706300  0.065700  1.0  0.0274
  C  C292  1  0.972500  0.001200  0.299800  1.0  -0.0638
  C  C293  1  0.528500  0.888000  0.200800  1.0  -0.1208
  C  C294  1  0.871700  0.005100  0.275800  1.0  -0.0315
  C  C295  1  0.631700  0.885600  0.225100  1.0  -0.0136
  C  C296  1  0.550800  0.011900  0.203800  1.0  0.1407
  C  C297  1  0.512200  0.082800  0.193800  1.0  -0.0939
  C  C298  1  0.131700  0.923900  0.335600  1.0  -0.1208
  C  C299  1  0.405600  0.083700  0.168500  1.0  -0.0871
  C  C300  1  0.018800  0.936700  0.311900  1.0  0.0053
  C  C301  1  0.993600  0.813900  0.307600  1.0  -0.0739
  C  C302  1  0.476700  0.820700  0.186900  1.0  0.7203
  C  C303  1  0.026300  0.067100  0.313100  1.0  0.6776
  C  C304  1  0.166800  0.859100  0.344500  1.0  -0.0746
  C  C305  1  0.096800  0.795300  0.332100  1.0  -0.0978
  C  C306  1  0.732000  0.663300  0.057900  1.0  -0.1149
  C  C307  1  0.816000  0.652900  0.085700  1.0  -0.0962
  C  C308  1  0.212000  0.737200  0.013000  1.0  0.1949
  C  C309  1  0.481400  0.956000  0.189100  1.0  -0.0331
  C  C310  1  0.820000  0.686100  0.033400  1.0  -0.0726
  C  C311  1  0.975000  0.666900  0.089000  1.0  -0.1315
  C  C312  1  0.694700  0.946900  0.237900  1.0  0.1822
  C  C313  1  0.688700  0.442500  0.236300  1.0  0.2078
  C  C314  1  0.548300  0.375700  0.202700  1.0  0.1894
  C  C315  1  0.157900  0.528200  0.343300  1.0  -0.0573
  C  C316  1  0.188700  0.203400  0.405200  1.0  0.6996
  C  C317  1  0.117200  0.460200  0.335900  1.0  -0.1262
  C  C318  1  0.518000  0.199500  0.463800  1.0  0.187
  C  C319  1  0.204000  0.230100  0.458800  1.0  -0.0308
  C  C320  1  0.437000  0.191400  0.435700  1.0  0.0132
  C  C321  1  0.276700  0.206300  0.434300  1.0  0.0272
  C  C322  1  0.527500  0.501200  0.200200  1.0  -0.0635
  C  C323  1  0.971500  0.388000  0.299200  1.0  -0.1212
  C  C324  1  0.628300  0.505100  0.224200  1.0  -0.0315
  C  C325  1  0.868300  0.385600  0.274900  1.0  -0.0138
  C  C326  1  0.949200  0.511900  0.296200  1.0  0.1405
  C  C327  1  0.987800  0.582800  0.306200  1.0  -0.0932
  C  C328  1  0.368300  0.423900  0.164400  1.0  -0.1179
  C  C329  1  0.094400  0.583700  0.331500  1.0  -0.088
  C  C330  1  0.481200  0.436700  0.188100  1.0  0.005
  C  C331  1  0.506400  0.313900  0.192400  1.0  -0.0745
  C  C332  1  0.023300  0.320700  0.313100  1.0  0.7195
  C  C333  1  0.473700  0.567100  0.186900  1.0  0.6775
  C  C334  1  0.333200  0.359100  0.155500  1.0  -0.0772
  C  C335  1  0.403200  0.295300  0.167900  1.0  -0.0992
  C  C336  1  0.768000  0.163300  0.442100  1.0  -0.1058
  C  C337  1  0.684000  0.152900  0.414300  1.0  -0.0959
  C  C338  1  0.288000  0.237200  0.487000  1.0  0.1948
  C  C339  1  0.018600  0.456000  0.310900  1.0  -0.0325
  C  C340  1  0.680000  0.186100  0.466600  1.0  -0.0729
  C  C341  1  0.525000  0.166900  0.411000  1.0  -0.1326
  C  C342  1  0.805300  0.446900  0.262100  1.0  0.1826
  C  C343  1  0.188700  0.942500  0.236300  1.0  0.2078
  C  C344  1  0.048300  0.875700  0.202700  1.0  0.1894
  C  C345  1  0.657900  0.028200  0.343300  1.0  -0.0573
  C  C346  1  0.688700  0.703400  0.405200  1.0  0.6996
  C  C347  1  0.617200  0.960200  0.335900  1.0  -0.1262
  C  C348  1  0.018000  0.699500  0.463800  1.0  0.187
  C  C349  1  0.704000  0.730100  0.458800  1.0  -0.0308
  C  C350  1  0.937000  0.691400  0.435700  1.0  0.0132
  C  C351  1  0.776700  0.706300  0.434300  1.0  0.0272
  C  C352  1  0.027500  0.001200  0.200200  1.0  -0.0635
  C  C353  1  0.471500  0.888000  0.299200  1.0  -0.1212
  C  C354  1  0.128300  0.005100  0.224200  1.0  -0.0315
  C  C355  1  0.368300  0.885600  0.274900  1.0  -0.0138
  C  C356  1  0.449200  0.011900  0.296200  1.0  0.1405
  C  C357  1  0.487800  0.082800  0.306200  1.0  -0.0932
  C  C358  1  0.868300  0.923900  0.164400  1.0  -0.1179
  C  C359  1  0.594400  0.083700  0.331500  1.0  -0.088
  C  C360  1  0.981200  0.936700  0.188100  1.0  0.005
  C  C361  1  0.006400  0.813900  0.192400  1.0  -0.0745
  C  C362  1  0.523300  0.820700  0.313100  1.0  0.7195
  C  C363  1  0.973700  0.067100  0.186900  1.0  0.6775
  C  C364  1  0.833200  0.859100  0.155500  1.0  -0.0772
  C  C365  1  0.903200  0.795300  0.167900  1.0  -0.0992
  C  C366  1  0.268000  0.663300  0.442100  1.0  -0.1058
  C  C367  1  0.184000  0.652900  0.414300  1.0  -0.0959
  C  C368  1  0.788000  0.737200  0.487000  1.0  0.1948
  C  C369  1  0.518600  0.956000  0.310900  1.0  -0.0325
  C  C370  1  0.180000  0.686100  0.466600  1.0  -0.0729
  C  C371  1  0.025000  0.666900  0.411000  1.0  -0.1326
  C  C372  1  0.305300  0.946900  0.262100  1.0  0.1826
  N  N373  1  0.652400  0.618900  0.726200  1.0  -0.469
  N  N374  1  0.841300  0.491600  0.772200  1.0  -0.464
  N  N375  1  0.440100  0.777000  0.989000  1.0  -0.4044
  N  N376  1  0.152400  0.118900  0.726200  1.0  -0.469
  N  N377  1  0.341300  0.991600  0.772200  1.0  -0.464
  N  N378  1  0.940100  0.277000  0.989000  1.0  -0.4044
  N  N379  1  0.347600  0.618900  0.773800  1.0  -0.47
  N  N380  1  0.158700  0.491600  0.727800  1.0  -0.4635
  N  N381  1  0.559900  0.777000  0.511000  1.0  -0.4049
  N  N382  1  0.847600  0.118900  0.773800  1.0  -0.47
  N  N383  1  0.658700  0.991600  0.727800  1.0  -0.4635
  N  N384  1  0.059900  0.277000  0.511000  1.0  -0.4049
  N  N385  1  0.347600  0.381100  0.273800  1.0  -0.4711
  N  N386  1  0.158700  0.508400  0.227800  1.0  -0.463
  N  N387  1  0.559900  0.223000  0.011000  1.0  -0.4046
  N  N388  1  0.847600  0.881100  0.273800  1.0  -0.4711
  N  N389  1  0.658700  0.008400  0.227800  1.0  -0.463
  N  N390  1  0.059900  0.723000  0.011000  1.0  -0.4046
  N  N391  1  0.652400  0.381100  0.226200  1.0  -0.4694
  N  N392  1  0.841300  0.508400  0.272200  1.0  -0.4623
  N  N393  1  0.440100  0.223000  0.489000  1.0  -0.4045
  N  N394  1  0.152400  0.881100  0.226200  1.0  -0.4694
  N  N395  1  0.341300  0.008400  0.272200  1.0  -0.4623
  N  N396  1  0.940100  0.723000  0.489000  1.0  -0.4045
  O  O397  1  0.012600  0.733300  0.797630  1.0  -0.653
  O  O398  1  0.163800  0.857100  0.892000  1.0  -0.6271
  O  O399  1  0.144100  0.743700  0.891600  1.0  -0.6158
  O  O400  1  0.277500  0.837700  0.750300  1.0  -0.5663
  O  O401  1  0.067200  0.676700  0.840270  1.0  -0.5581
  O  O402  1  0.482400  0.375600  0.701590  1.0  -0.7289
  O  O403  1  0.429400  0.425900  0.658900  1.0  -0.6543
  O  O404  1  0.279700  0.765900  0.750900  1.0  -0.5981
  O  O405  1  0.512600  0.233300  0.797630  1.0  -0.653
  O  O406  1  0.663800  0.357100  0.892000  1.0  -0.6271
  O  O407  1  0.644100  0.243700  0.891600  1.0  -0.6158
  O  O408  1  0.777500  0.337700  0.750300  1.0  -0.5663
  O  O409  1  0.567200  0.176700  0.840270  1.0  -0.5581
  O  O410  1  0.982400  0.875600  0.701590  1.0  -0.7289
  O  O411  1  0.929400  0.925900  0.658900  1.0  -0.6543
  O  O412  1  0.779700  0.265900  0.750900  1.0  -0.5981
  O  O413  1  0.987400  0.733300  0.702370  1.0  -0.6532
  O  O414  1  0.836200  0.857100  0.608000  1.0  -0.6277
  O  O415  1  0.855900  0.743700  0.608400  1.0  -0.6131
  O  O416  1  0.722500  0.837700  0.749700  1.0  -0.5668
  O  O417  1  0.932800  0.676700  0.659730  1.0  -0.5601
  O  O418  1  0.517600  0.375600  0.798410  1.0  -0.7288
  O  O419  1  0.570600  0.425900  0.841100  1.0  -0.6526
  O  O420  1  0.720300  0.765900  0.749100  1.0  -0.5987
  O  O421  1  0.487400  0.233300  0.702370  1.0  -0.6532
  O  O422  1  0.336200  0.357100  0.608000  1.0  -0.6277
  O  O423  1  0.355900  0.243700  0.608400  1.0  -0.6131
  O  O424  1  0.222500  0.337700  0.749700  1.0  -0.5668
  O  O425  1  0.432800  0.176700  0.659730  1.0  -0.5601
  O  O426  1  0.017600  0.875600  0.798410  1.0  -0.7288
  O  O427  1  0.070600  0.925900  0.841100  1.0  -0.6526
  O  O428  1  0.220300  0.265900  0.749100  1.0  -0.5987
  O  O429  1  0.987400  0.266700  0.202370  1.0  -0.6527
  O  O430  1  0.836200  0.142900  0.108000  1.0  -0.6226
  O  O431  1  0.855900  0.256300  0.108400  1.0  -0.6124
  O  O432  1  0.722500  0.162300  0.249700  1.0  -0.5675
  O  O433  1  0.932800  0.323300  0.159730  1.0  -0.5608
  O  O434  1  0.517600  0.624400  0.298410  1.0  -0.7275
  O  O435  1  0.570600  0.574100  0.341100  1.0  -0.6528
  O  O436  1  0.720300  0.234100  0.249100  1.0  -0.5975
  O  O437  1  0.487400  0.766700  0.202370  1.0  -0.6527
  O  O438  1  0.336200  0.642900  0.108000  1.0  -0.6226
  O  O439  1  0.355900  0.756300  0.108400  1.0  -0.6124
  O  O440  1  0.222500  0.662300  0.249700  1.0  -0.5675
  O  O441  1  0.432800  0.823300  0.159730  1.0  -0.5608
  O  O442  1  0.017600  0.124400  0.298410  1.0  -0.7275
  O  O443  1  0.070600  0.074100  0.341100  1.0  -0.6528
  O  O444  1  0.220300  0.734100  0.249100  1.0  -0.5975
  O  O445  1  0.012600  0.266700  0.297630  1.0  -0.6535
  O  O446  1  0.163800  0.142900  0.392000  1.0  -0.6222
  O  O447  1  0.144100  0.256300  0.391600  1.0  -0.6132
  O  O448  1  0.277500  0.162300  0.250300  1.0  -0.5676
  O  O449  1  0.067200  0.323300  0.340270  1.0  -0.5583
  O  O450  1  0.482400  0.624400  0.201590  1.0  -0.7281
  O  O451  1  0.429400  0.574100  0.158900  1.0  -0.6533
  O  O452  1  0.279700  0.234100  0.250900  1.0  -0.5966
  O  O453  1  0.512600  0.766700  0.297630  1.0  -0.6535
  O  O454  1  0.663800  0.642900  0.392000  1.0  -0.6222
  O  O455  1  0.644100  0.756300  0.391600  1.0  -0.6132
  O  O456  1  0.777500  0.662300  0.250300  1.0  -0.5676
  O  O457  1  0.567200  0.823300  0.340270  1.0  -0.5583
  O  O458  1  0.982400  0.124400  0.201590  1.0  -0.7281
  O  O459  1  0.929400  0.074100  0.158900  1.0  -0.6533
  O  O460  1  0.779700  0.734100  0.250900  1.0  -0.5966
