# generated using pymatgen
data_Cd3H6C18(NO)8
_symmetry_space_group_name_H-M   'P 1'
_cell_length_a   14.56100000
_cell_length_b   18.07800000
_cell_length_c   12.84500000
_cell_angle_alpha   90.00000000
_cell_angle_beta   116.60200000
_cell_angle_gamma   90.00000000
_symmetry_Int_Tables_number   1
_chemical_formula_structural   Cd3H6C18(NO)8
_chemical_formula_sum   'Cd12 H24 C72 N32 O32'
_cell_volume   3023.29509532
_cell_formula_units_Z   4
loop_
 _symmetry_equiv_pos_site_id
 _symmetry_equiv_pos_as_xyz
  1  'x, y, z'
loop_
 _atom_site_type_symbol
 _atom_site_label
 _atom_site_symmetry_multiplicity
 _atom_site_fract_x
 _atom_site_fract_y
 _atom_site_fract_z
 _atom_site_occupancy
 _atom_site_charge
  Cd  Cd1  1  0.192770  0.478650  0.052320  1.0  0.8512
  Cd  Cd2  1  0.692770  0.978650  0.052320  1.0  0.8512
  Cd  Cd3  1  0.807230  0.478650  0.447680  1.0  0.8487
  Cd  Cd4  1  0.307230  0.978650  0.447680  1.0  0.8487
  Cd  Cd5  1  0.807230  0.521350  0.947680  1.0  0.847
  Cd  Cd6  1  0.307230  0.021350  0.947680  1.0  0.847
  Cd  Cd7  1  0.192770  0.521350  0.552320  1.0  0.8507
  Cd  Cd8  1  0.692770  0.021350  0.552320  1.0  0.8507
  Cd  Cd9  1  0.000000  0.253330  0.250000  1.0  0.772
  Cd  Cd10  1  0.500000  0.753330  0.250000  1.0  0.772
  Cd  Cd11  1  0.000000  0.746670  0.750000  1.0  0.7729
  Cd  Cd12  1  0.500000  0.246670  0.750000  1.0  0.7729
  H  H13  1  0.120900  0.391700  0.832200  1.0  0.1139
  H  H14  1  0.187600  0.249700  0.635300  1.0  0.1126
  H  H15  1  0.132900  0.173900  0.895800  1.0  0.1164
  H  H16  1  0.620900  0.891700  0.832200  1.0  0.1139
  H  H17  1  0.687600  0.749700  0.635300  1.0  0.1126
  H  H18  1  0.632900  0.673900  0.895800  1.0  0.1164
  H  H19  1  0.879100  0.391700  0.667800  1.0  0.1141
  H  H20  1  0.812400  0.249700  0.864700  1.0  0.1119
  H  H21  1  0.867100  0.173900  0.604200  1.0  0.1155
  H  H22  1  0.379100  0.891700  0.667800  1.0  0.1141
  H  H23  1  0.312400  0.749700  0.864700  1.0  0.1119
  H  H24  1  0.367100  0.673900  0.604200  1.0  0.1155
  H  H25  1  0.879100  0.608300  0.167800  1.0  0.1147
  H  H26  1  0.812400  0.750300  0.364700  1.0  0.1113
  H  H27  1  0.867100  0.826100  0.104200  1.0  0.1153
  H  H28  1  0.379100  0.108300  0.167800  1.0  0.1147
  H  H29  1  0.312400  0.250300  0.364700  1.0  0.1113
  H  H30  1  0.367100  0.326100  0.104200  1.0  0.1153
  H  H31  1  0.120900  0.608300  0.332200  1.0  0.1143
  H  H32  1  0.187600  0.750300  0.135300  1.0  0.1122
  H  H33  1  0.132900  0.826100  0.395800  1.0  0.1158
  H  H34  1  0.620900  0.108300  0.332200  1.0  0.1143
  H  H35  1  0.687600  0.250300  0.135300  1.0  0.1122
  H  H36  1  0.632900  0.326100  0.395800  1.0  0.1158
  C  C37  1  0.102600  0.299470  0.980500  1.0  0.3452
  C  C38  1  0.125200  0.285560  0.881100  1.0  -0.0936
  C  C39  1  0.132700  0.343600  0.815400  1.0  -0.0149
  C  C40  1  0.157700  0.330550  0.724000  1.0  -0.1383
  C  C41  1  0.171600  0.258580  0.696600  1.0  0.0256
  C  C42  1  0.161500  0.199620  0.760200  1.0  -0.1237
  C  C43  1  0.138900  0.213240  0.852600  1.0  0.0299
  C  C44  1  0.168100  0.395080  0.656600  1.0  0.7034
  C  C45  1  0.178900  0.121390  0.731800  1.0  0.6959
  C  C46  1  0.602600  0.799470  0.980500  1.0  0.3452
  C  C47  1  0.625200  0.785560  0.881100  1.0  -0.0936
  C  C48  1  0.632700  0.843600  0.815400  1.0  -0.0149
  C  C49  1  0.657700  0.830550  0.724000  1.0  -0.1383
  C  C50  1  0.671600  0.758580  0.696600  1.0  0.0256
  C  C51  1  0.661500  0.699620  0.760200  1.0  -0.1237
  C  C52  1  0.638900  0.713240  0.852600  1.0  0.0299
  C  C53  1  0.668100  0.895080  0.656600  1.0  0.7034
  C  C54  1  0.678900  0.621390  0.731800  1.0  0.6959
  C  C55  1  0.897400  0.299470  0.519500  1.0  0.3438
  C  C56  1  0.874800  0.285560  0.618900  1.0  -0.0949
  C  C57  1  0.867300  0.343600  0.684600  1.0  -0.0136
  C  C58  1  0.842300  0.330550  0.776000  1.0  -0.1387
  C  C59  1  0.828400  0.258580  0.803400  1.0  0.0225
  C  C60  1  0.838500  0.199620  0.739800  1.0  -0.1232
  C  C61  1  0.861100  0.213240  0.647400  1.0  0.0309
  C  C62  1  0.831900  0.395080  0.843400  1.0  0.7018
  C  C63  1  0.821100  0.121390  0.768200  1.0  0.6966
  C  C64  1  0.397400  0.799470  0.519500  1.0  0.3438
  C  C65  1  0.374800  0.785560  0.618900  1.0  -0.0949
  C  C66  1  0.367300  0.843600  0.684600  1.0  -0.0136
  C  C67  1  0.342300  0.830550  0.776000  1.0  -0.1387
  C  C68  1  0.328400  0.758580  0.803400  1.0  0.0225
  C  C69  1  0.338500  0.699620  0.739800  1.0  -0.1232
  C  C70  1  0.361100  0.713240  0.647400  1.0  0.0309
  C  C71  1  0.331900  0.895080  0.843400  1.0  0.7018
  C  C72  1  0.321100  0.621390  0.768200  1.0  0.6966
  C  C73  1  0.897400  0.700530  0.019500  1.0  0.3442
  C  C74  1  0.874800  0.714440  0.118900  1.0  -0.0955
  C  C75  1  0.867300  0.656400  0.184600  1.0  -0.0132
  C  C76  1  0.842300  0.669450  0.276000  1.0  -0.1398
  C  C77  1  0.828400  0.741420  0.303400  1.0  0.0226
  C  C78  1  0.838500  0.800380  0.239800  1.0  -0.1213
  C  C79  1  0.861100  0.786760  0.147400  1.0  0.0294
  C  C80  1  0.831900  0.604920  0.343400  1.0  0.7022
  C  C81  1  0.821100  0.878610  0.268200  1.0  0.696
  C  C82  1  0.397400  0.200530  0.019500  1.0  0.3442
  C  C83  1  0.374800  0.214440  0.118900  1.0  -0.0955
  C  C84  1  0.367300  0.156400  0.184600  1.0  -0.0132
  C  C85  1  0.342300  0.169450  0.276000  1.0  -0.1398
  C  C86  1  0.328400  0.241420  0.303400  1.0  0.0226
  C  C87  1  0.338500  0.300380  0.239800  1.0  -0.1213
  C  C88  1  0.361100  0.286760  0.147400  1.0  0.0294
  C  C89  1  0.331900  0.104920  0.343400  1.0  0.7022
  C  C90  1  0.321100  0.378610  0.268200  1.0  0.696
  C  C91  1  0.102600  0.700530  0.480500  1.0  0.3453
  C  C92  1  0.125200  0.714440  0.381100  1.0  -0.0941
  C  C93  1  0.132700  0.656400  0.315400  1.0  -0.0138
  C  C94  1  0.157700  0.669450  0.224000  1.0  -0.1404
  C  C95  1  0.171600  0.741420  0.196600  1.0  0.0249
  C  C96  1  0.161500  0.800380  0.260200  1.0  -0.1201
  C  C97  1  0.138900  0.786760  0.352600  1.0  0.0287
  C  C98  1  0.168100  0.604920  0.156600  1.0  0.7033
  C  C99  1  0.178900  0.878610  0.231800  1.0  0.6981
  C  C100  1  0.602600  0.200530  0.480500  1.0  0.3453
  C  C101  1  0.625200  0.214440  0.381100  1.0  -0.0941
  C  C102  1  0.632700  0.156400  0.315400  1.0  -0.0138
  C  C103  1  0.657700  0.169450  0.224000  1.0  -0.1404
  C  C104  1  0.671600  0.241420  0.196600  1.0  0.0249
  C  C105  1  0.661500  0.300380  0.260200  1.0  -0.1201
  C  C106  1  0.638900  0.286760  0.352600  1.0  0.0287
  C  C107  1  0.668100  0.104920  0.156600  1.0  0.7033
  C  C108  1  0.678900  0.378610  0.231800  1.0  0.6981
  N  N109  1  0.109900  0.366040  0.030000  1.0  -0.2668
  N  N110  1  0.082200  0.355720  0.115900  1.0  -0.1018
  N  N111  1  0.060200  0.285480  0.116900  1.0  0.0176
  N  N112  1  0.071900  0.248610  0.032600  1.0  -0.2898
  N  N113  1  0.609900  0.866040  0.030000  1.0  -0.2668
  N  N114  1  0.582200  0.855720  0.115900  1.0  -0.1018
  N  N115  1  0.560200  0.785480  0.116900  1.0  0.0176
  N  N116  1  0.571900  0.748610  0.032600  1.0  -0.2898
  N  N117  1  0.890100  0.366040  0.470000  1.0  -0.2668
  N  N118  1  0.917800  0.355720  0.384100  1.0  -0.1027
  N  N119  1  0.939800  0.285480  0.383100  1.0  0.0208
  N  N120  1  0.928100  0.248610  0.467400  1.0  -0.2895
  N  N121  1  0.390100  0.866040  0.470000  1.0  -0.2668
  N  N122  1  0.417800  0.855720  0.384100  1.0  -0.1027
  N  N123  1  0.439800  0.785480  0.383100  1.0  0.0208
  N  N124  1  0.428100  0.748610  0.467400  1.0  -0.2895
  N  N125  1  0.890100  0.633960  0.970000  1.0  -0.2669
  N  N126  1  0.917800  0.644280  0.884100  1.0  -0.0997
  N  N127  1  0.939800  0.714520  0.883100  1.0  0.0215
  N  N128  1  0.928100  0.751390  0.967400  1.0  -0.2893
  N  N129  1  0.390100  0.133960  0.970000  1.0  -0.2669
  N  N130  1  0.417800  0.144280  0.884100  1.0  -0.0997
  N  N131  1  0.439800  0.214520  0.883100  1.0  0.0215
  N  N132  1  0.428100  0.251390  0.967400  1.0  -0.2893
  N  N133  1  0.109900  0.633960  0.530000  1.0  -0.2668
  N  N134  1  0.082200  0.644280  0.615900  1.0  -0.0996
  N  N135  1  0.060200  0.714520  0.616900  1.0  0.0173
  N  N136  1  0.071900  0.751390  0.532600  1.0  -0.291
  N  N137  1  0.609900  0.133960  0.530000  1.0  -0.2668
  N  N138  1  0.582200  0.144280  0.615900  1.0  -0.0996
  N  N139  1  0.560200  0.214520  0.616900  1.0  0.0173
  N  N140  1  0.571900  0.251390  0.532600  1.0  -0.291
  O  O141  1  0.135970  0.457470  0.667400  1.0  -0.5747
  O  O142  1  0.211940  0.385810  0.591950  1.0  -0.6111
  O  O143  1  0.201400  0.112110  0.649800  1.0  -0.5092
  O  O144  1  0.170230  0.069980  0.794000  1.0  -0.6692
  O  O145  1  0.635970  0.957470  0.667400  1.0  -0.5747
  O  O146  1  0.711940  0.885810  0.591950  1.0  -0.6111
  O  O147  1  0.701400  0.612110  0.649800  1.0  -0.5092
  O  O148  1  0.670230  0.569980  0.794000  1.0  -0.6692
  O  O149  1  0.864030  0.457470  0.832600  1.0  -0.5762
  O  O150  1  0.788060  0.385810  0.908050  1.0  -0.6123
  O  O151  1  0.798600  0.112110  0.850200  1.0  -0.5091
  O  O152  1  0.829770  0.069980  0.706000  1.0  -0.6702
  O  O153  1  0.364030  0.957470  0.832600  1.0  -0.5762
  O  O154  1  0.288060  0.885810  0.908050  1.0  -0.6123
  O  O155  1  0.298600  0.612110  0.850200  1.0  -0.5091
  O  O156  1  0.329770  0.569980  0.706000  1.0  -0.6702
  O  O157  1  0.864030  0.542530  0.332600  1.0  -0.5746
  O  O158  1  0.788060  0.614190  0.408050  1.0  -0.6122
  O  O159  1  0.798600  0.887890  0.350200  1.0  -0.5103
  O  O160  1  0.829770  0.930020  0.206000  1.0  -0.6719
  O  O161  1  0.364030  0.042530  0.332600  1.0  -0.5746
  O  O162  1  0.288060  0.114190  0.408050  1.0  -0.6122
  O  O163  1  0.298600  0.387890  0.350200  1.0  -0.5103
  O  O164  1  0.329770  0.430020  0.206000  1.0  -0.6719
  O  O165  1  0.135970  0.542530  0.167400  1.0  -0.5736
  O  O166  1  0.211940  0.614190  0.091950  1.0  -0.6107
  O  O167  1  0.201400  0.887890  0.149800  1.0  -0.511
  O  O168  1  0.170230  0.930020  0.294000  1.0  -0.6717
  O  O169  1  0.635970  0.042530  0.167400  1.0  -0.5736
  O  O170  1  0.711940  0.114190  0.091950  1.0  -0.6107
  O  O171  1  0.701400  0.387890  0.149800  1.0  -0.511
  O  O172  1  0.670230  0.430020  0.294000  1.0  -0.6717
