# generated using pymatgen
data_Cd3H6C18(NO)8
_symmetry_space_group_name_H-M   'P 1'
_cell_length_a   12.86880000
_cell_length_b   18.09250000
_cell_length_c   14.51900000
_cell_angle_alpha   90.00000000
_cell_angle_beta   116.05300000
_cell_angle_gamma   90.00000000
_symmetry_Int_Tables_number   1
_chemical_formula_structural   Cd3H6C18(NO)8
_chemical_formula_sum   'Cd12 H24 C72 N32 O32'
_cell_volume   3036.94800478
_cell_formula_units_Z   4
loop_
 _symmetry_equiv_pos_site_id
 _symmetry_equiv_pos_as_xyz
  1  'x, y, z'
loop_
 _atom_site_type_symbol
 _atom_site_label
 _atom_site_symmetry_multiplicity
 _atom_site_fract_x
 _atom_site_fract_y
 _atom_site_fract_z
 _atom_site_occupancy
 _atom_site_charge
  Cd  Cd1  1  0.109400  0.271230  0.557180  1.0  0.8486
  Cd  Cd2  1  0.609400  0.771230  0.057180  1.0  0.8486
  Cd  Cd3  1  0.890600  0.271230  0.942820  1.0  0.8486
  Cd  Cd4  1  0.390600  0.771230  0.442820  1.0  0.8486
  Cd  Cd5  1  0.890600  0.728770  0.442820  1.0  0.8493
  Cd  Cd6  1  0.390600  0.228770  0.942820  1.0  0.8493
  Cd  Cd7  1  0.109400  0.728770  0.057180  1.0  0.8515
  Cd  Cd8  1  0.609400  0.228770  0.557180  1.0  0.8515
  Cd  Cd9  1  0.500000  0.503280  0.250000  1.0  0.7717
  Cd  Cd10  1  0.000000  0.003280  0.750000  1.0  0.7717
  Cd  Cd11  1  0.500000  0.496720  0.750000  1.0  0.7726
  Cd  Cd12  1  0.000000  0.996720  0.250000  1.0  0.7726
  H  H13  1  0.987300  0.423900  0.382600  1.0  0.1204
  H  H14  1  0.038600  0.642000  0.370600  1.0  0.1188
  H  H15  1  0.302700  0.499700  0.439000  1.0  0.1161
  H  H16  1  0.487300  0.923900  0.882600  1.0  0.1204
  H  H17  1  0.538600  0.142000  0.870600  1.0  0.1188
  H  H18  1  0.802700  0.999700  0.939000  1.0  0.1161
  H  H19  1  0.012700  0.423900  0.117400  1.0  0.1207
  H  H20  1  0.961400  0.642000  0.129400  1.0  0.1186
  H  H21  1  0.697300  0.499700  0.061000  1.0  0.1155
  H  H22  1  0.512700  0.923900  0.617400  1.0  0.1207
  H  H23  1  0.461400  0.142000  0.629400  1.0  0.1186
  H  H24  1  0.197300  0.999700  0.561000  1.0  0.1155
  H  H25  1  0.012700  0.576100  0.617400  1.0  0.1204
  H  H26  1  0.961400  0.358000  0.629400  1.0  0.1193
  H  H27  1  0.697300  0.500300  0.561000  1.0  0.1152
  H  H28  1  0.512700  0.076100  0.117400  1.0  0.1204
  H  H29  1  0.461400  0.858000  0.129400  1.0  0.1193
  H  H30  1  0.197300  0.000300  0.061000  1.0  0.1152
  H  H31  1  0.987300  0.576100  0.882600  1.0  0.1204
  H  H32  1  0.038600  0.358000  0.870600  1.0  0.1194
  H  H33  1  0.302700  0.500300  0.939000  1.0  0.116
  H  H34  1  0.487300  0.076100  0.382600  1.0  0.1204
  H  H35  1  0.538600  0.858000  0.370600  1.0  0.1194
  H  H36  1  0.802700  0.000300  0.439000  1.0  0.116
  C  C37  1  0.993800  0.535700  0.375100  1.0  -0.1301
  C  C38  1  0.871700  0.549600  0.352200  1.0  0.3513
  C  C39  1  0.151900  0.449400  0.412000  1.0  -0.1255
  C  C40  1  0.183700  0.580900  0.407300  1.0  -0.1302
  C  C41  1  0.036500  0.463300  0.388900  1.0  0.0267
  C  C42  1  0.067100  0.593900  0.382400  1.0  -0.0042
  C  C43  1  0.261300  0.645100  0.418000  1.0  0.7064
  C  C44  1  0.196200  0.371000  0.429100  1.0  0.6844
  C  C45  1  0.225200  0.508500  0.422200  1.0  0.025
  C  C46  1  0.493800  0.035700  0.875100  1.0  -0.1301
  C  C47  1  0.371700  0.049600  0.852200  1.0  0.3513
  C  C48  1  0.651900  0.949400  0.912000  1.0  -0.1255
  C  C49  1  0.683700  0.080900  0.907300  1.0  -0.1302
  C  C50  1  0.536500  0.963300  0.888900  1.0  0.0267
  C  C51  1  0.567100  0.093900  0.882400  1.0  -0.0042
  C  C52  1  0.761300  0.145100  0.918000  1.0  0.7064
  C  C53  1  0.696200  0.871000  0.929100  1.0  0.6844
  C  C54  1  0.725200  0.008500  0.922200  1.0  0.025
  C  C55  1  0.006200  0.535700  0.124900  1.0  -0.1296
  C  C56  1  0.128300  0.549600  0.147800  1.0  0.3521
  C  C57  1  0.848100  0.449400  0.088000  1.0  -0.125
  C  C58  1  0.816300  0.580900  0.092700  1.0  -0.1298
  C  C59  1  0.963500  0.463300  0.111100  1.0  0.0261
  C  C60  1  0.932900  0.593900  0.117600  1.0  -0.0035
  C  C61  1  0.738700  0.645100  0.082000  1.0  0.7069
  C  C62  1  0.803800  0.371000  0.070900  1.0  0.6822
  C  C63  1  0.774800  0.508500  0.077800  1.0  0.0258
  C  C64  1  0.506200  0.035700  0.624900  1.0  -0.1296
  C  C65  1  0.628300  0.049600  0.647800  1.0  0.3521
  C  C66  1  0.348100  0.949400  0.588000  1.0  -0.125
  C  C67  1  0.316300  0.080900  0.592700  1.0  -0.1298
  C  C68  1  0.463500  0.963300  0.611100  1.0  0.0261
  C  C69  1  0.432900  0.093900  0.617600  1.0  -0.0035
  C  C70  1  0.238700  0.145100  0.582000  1.0  0.7069
  C  C71  1  0.303800  0.871000  0.570900  1.0  0.6822
  C  C72  1  0.274800  0.008500  0.577800  1.0  0.0258
  C  C73  1  0.006200  0.464300  0.624900  1.0  -0.1297
  C  C74  1  0.128300  0.450400  0.647800  1.0  0.3522
  C  C75  1  0.848100  0.550600  0.588000  1.0  -0.1248
  C  C76  1  0.816300  0.419100  0.592700  1.0  -0.132
  C  C77  1  0.963500  0.536700  0.611100  1.0  0.0241
  C  C78  1  0.932900  0.406100  0.617600  1.0  -0.0024
  C  C79  1  0.738700  0.354900  0.582000  1.0  0.7065
  C  C80  1  0.803800  0.629000  0.570900  1.0  0.6853
  C  C81  1  0.774800  0.491500  0.577800  1.0  0.0256
  C  C82  1  0.506200  0.964300  0.124900  1.0  -0.1297
  C  C83  1  0.628300  0.950400  0.147800  1.0  0.3522
  C  C84  1  0.348100  0.050600  0.088000  1.0  -0.1248
  C  C85  1  0.316300  0.919100  0.092700  1.0  -0.132
  C  C86  1  0.463500  0.036700  0.111100  1.0  0.0241
  C  C87  1  0.432900  0.906100  0.117600  1.0  -0.0024
  C  C88  1  0.238700  0.854900  0.082000  1.0  0.7065
  C  C89  1  0.303800  0.129000  0.070900  1.0  0.6853
  C  C90  1  0.274800  0.991500  0.077800  1.0  0.0256
  C  C91  1  0.993800  0.464300  0.875100  1.0  -0.1304
  C  C92  1  0.871700  0.450400  0.852200  1.0  0.3514
  C  C93  1  0.151900  0.550600  0.912000  1.0  -0.1245
  C  C94  1  0.183700  0.419100  0.907300  1.0  -0.1311
  C  C95  1  0.036500  0.536700  0.888900  1.0  0.0243
  C  C96  1  0.067100  0.406100  0.882400  1.0  -0.0026
  C  C97  1  0.261300  0.354900  0.918000  1.0  0.7075
  C  C98  1  0.196200  0.629000  0.929100  1.0  0.6867
  C  C99  1  0.225200  0.491500  0.922200  1.0  0.0252
  C  C100  1  0.493800  0.964300  0.375100  1.0  -0.1304
  C  C101  1  0.371700  0.950400  0.352200  1.0  0.3514
  C  C102  1  0.651900  0.050600  0.412000  1.0  -0.1245
  C  C103  1  0.683700  0.919100  0.407300  1.0  -0.1311
  C  C104  1  0.536500  0.036700  0.388900  1.0  0.0243
  C  C105  1  0.567100  0.906100  0.382400  1.0  -0.0026
  C  C106  1  0.761300  0.854900  0.418000  1.0  0.7075
  C  C107  1  0.696200  0.129000  0.429100  1.0  0.6867
  C  C108  1  0.725200  0.991500  0.422200  1.0  0.0252
  N  N109  1  0.716600  0.605640  0.332300  1.0  -0.0807
  N  N110  1  0.693200  0.535770  0.309800  1.0  0.0321
  N  N111  1  0.830100  0.616230  0.359800  1.0  -0.2864
  N  N112  1  0.789200  0.498710  0.322000  1.0  -0.2845
  N  N113  1  0.216600  0.105640  0.832300  1.0  -0.0807
  N  N114  1  0.193200  0.035770  0.809800  1.0  0.0321
  N  N115  1  0.330100  0.116230  0.859800  1.0  -0.2864
  N  N116  1  0.289200  0.998710  0.822000  1.0  -0.2845
  N  N117  1  0.283400  0.605640  0.167700  1.0  -0.0814
  N  N118  1  0.306800  0.535770  0.190200  1.0  0.0309
  N  N119  1  0.169900  0.616230  0.140200  1.0  -0.2845
  N  N120  1  0.210800  0.498710  0.178000  1.0  -0.2852
  N  N121  1  0.783400  0.105640  0.667700  1.0  -0.0814
  N  N122  1  0.806800  0.035770  0.690200  1.0  0.0309
  N  N123  1  0.669900  0.116230  0.640200  1.0  -0.2845
  N  N124  1  0.710800  0.998710  0.678000  1.0  -0.2852
  N  N125  1  0.283400  0.394360  0.667700  1.0  -0.0798
  N  N126  1  0.306800  0.464230  0.690200  1.0  0.0293
  N  N127  1  0.169900  0.383770  0.640200  1.0  -0.2862
  N  N128  1  0.210800  0.501290  0.678000  1.0  -0.2843
  N  N129  1  0.783400  0.894360  0.167700  1.0  -0.0798
  N  N130  1  0.806800  0.964230  0.190200  1.0  0.0293
  N  N131  1  0.669900  0.883770  0.140200  1.0  -0.2862
  N  N132  1  0.710800  0.001290  0.178000  1.0  -0.2843
  N  N133  1  0.716600  0.394360  0.832300  1.0  -0.0805
  N  N134  1  0.693200  0.464230  0.809800  1.0  0.0326
  N  N135  1  0.830100  0.383770  0.859800  1.0  -0.2864
  N  N136  1  0.789200  0.501290  0.822000  1.0  -0.2854
  N  N137  1  0.216600  0.894360  0.332300  1.0  -0.0805
  N  N138  1  0.193200  0.964230  0.309800  1.0  0.0326
  N  N139  1  0.330100  0.883770  0.359800  1.0  -0.2864
  N  N140  1  0.289200  0.001290  0.322000  1.0  -0.2854
  O  O141  1  0.126000  0.319810  0.420200  1.0  -0.652
  O  O142  1  0.370230  0.635440  0.462040  1.0  -0.6368
  O  O143  1  0.301400  0.361710  0.451800  1.0  -0.5128
  O  O144  1  0.218400  0.707500  0.385530  1.0  -0.5728
  O  O145  1  0.626000  0.819810  0.920200  1.0  -0.652
  O  O146  1  0.870230  0.135440  0.962040  1.0  -0.6368
  O  O147  1  0.801400  0.861710  0.951800  1.0  -0.5128
  O  O148  1  0.718400  0.207500  0.885530  1.0  -0.5728
  O  O149  1  0.874000  0.319810  0.079800  1.0  -0.651
  O  O150  1  0.629770  0.635440  0.037960  1.0  -0.6392
  O  O151  1  0.698600  0.361710  0.048200  1.0  -0.5116
  O  O152  1  0.781600  0.707500  0.114470  1.0  -0.5751
  O  O153  1  0.374000  0.819810  0.579800  1.0  -0.651
  O  O154  1  0.129770  0.135440  0.537960  1.0  -0.6392
  O  O155  1  0.198600  0.861710  0.548200  1.0  -0.5116
  O  O156  1  0.281600  0.207500  0.614470  1.0  -0.5751
  O  O157  1  0.874000  0.680190  0.579800  1.0  -0.6519
  O  O158  1  0.629770  0.364560  0.537960  1.0  -0.6393
  O  O159  1  0.698600  0.638290  0.548200  1.0  -0.5134
  O  O160  1  0.781600  0.292500  0.614470  1.0  -0.5716
  O  O161  1  0.374000  0.180190  0.079800  1.0  -0.6519
  O  O162  1  0.129770  0.864560  0.037960  1.0  -0.6393
  O  O163  1  0.198600  0.138290  0.048200  1.0  -0.5134
  O  O164  1  0.281600  0.792500  0.114470  1.0  -0.5716
  O  O165  1  0.126000  0.680190  0.920200  1.0  -0.6527
  O  O166  1  0.370230  0.364560  0.962040  1.0  -0.6368
  O  O167  1  0.301400  0.638290  0.951800  1.0  -0.513
  O  O168  1  0.218400  0.292500  0.885530  1.0  -0.5734
  O  O169  1  0.626000  0.180190  0.420200  1.0  -0.6527
  O  O170  1  0.870230  0.864560  0.462040  1.0  -0.6368
  O  O171  1  0.801400  0.138290  0.451800  1.0  -0.513
  O  O172  1  0.718400  0.792500  0.385530  1.0  -0.5734
