# generated using pymatgen
data_Zn3H58C90(N2O3)4
_symmetry_space_group_name_H-M   'P 1'
_cell_length_a   21.00700000
_cell_length_b   21.09900000
_cell_length_c   21.24000000
_cell_angle_alpha   63.47700000
_cell_angle_beta   63.69100000
_cell_angle_gamma   84.66000000
_symmetry_Int_Tables_number   1
_chemical_formula_structural   Zn3H58C90(N2O3)4
_chemical_formula_sum   'Zn6 H116 C180 N16 O24'
_cell_volume   7486.02955218
_cell_formula_units_Z   2
loop_
 _symmetry_equiv_pos_site_id
 _symmetry_equiv_pos_as_xyz
  1  'x, y, z'
loop_
 _atom_site_type_symbol
 _atom_site_label
 _atom_site_symmetry_multiplicity
 _atom_site_fract_x
 _atom_site_fract_y
 _atom_site_fract_z
 _atom_site_occupancy
 _atom_site_charge
  Zn  Zn1  1  0.038200  0.437340  0.339500  1.0  0.9743
  Zn  Zn2  1  0.101170  0.273850  0.359890  1.0  0.9409
  Zn  Zn3  1  0.086080  0.109950  0.350640  1.0  0.9512
  Zn  Zn4  1  0.961800  0.562660  0.660500  1.0  0.9731
  Zn  Zn5  1  0.898830  0.726150  0.640110  1.0  0.9391
  Zn  Zn6  1  0.913920  0.890050  0.649360  1.0  0.9515
  H  H7  1  0.087800  0.784900  0.399000  1.0  0.3835
  H  H8  1  0.081700  0.712600  0.404700  1.0  0.3371
  H  H9  1  0.214200  0.469800  0.512400  1.0  0.0925
  H  H10  1  0.215500  0.258500  0.596100  1.0  0.1015
  H  H11  1  0.029900  0.623100  0.428300  1.0  0.1236
  H  H12  1  0.041900  0.513400  0.428300  1.0  0.0732
  H  H13  1  0.059000  0.946600  0.448200  1.0  0.065
  H  H14  1  0.586700  0.304000  0.711700  1.0  0.1009
  H  H15  1  0.683200  0.413000  0.456500  1.0  0.1131
  H  H16  1  0.156800  0.466200  0.440200  1.0  0.1057
  H  H17  1  0.465500  0.451900  0.579500  1.0  0.115
  H  H18  1  0.826000  0.358600  0.584100  1.0  0.1092
  H  H19  1  0.702500  0.353200  0.653700  1.0  0.119
  H  H20  1  0.014300  0.581700  0.243000  1.0  0.0886
  H  H21  1  0.806400  0.422700  0.383900  1.0  0.1318
  H  H22  1  0.000000  0.976900  0.256100  1.0  0.135
  H  H23  1  0.394200  0.300500  0.642100  1.0  0.1269
  H  H24  1  0.417100  0.432700  0.783600  1.0  0.1081
  H  H25  1  0.263900  0.487500  0.967500  1.0  0.1005
  H  H26  1  0.272700  0.440700  0.703200  1.0  0.1188
  H  H27  1  0.464400  0.297900  0.777200  1.0  0.1321
  H  H28  1  0.170400  0.286200  0.081400  1.0  0.1079
  H  H29  1  0.034000  0.847900  0.441100  1.0  0.1527
  H  H30  1  0.153500  0.252500  0.533000  1.0  0.1183
  H  H31  1  0.188000  0.315700  0.953600  1.0  0.1153
  H  H32  1  0.330200  0.298000  0.577400  1.0  0.0918
  H  H33  1  0.359200  0.433600  0.902200  1.0  0.1196
  H  H34  1  0.996100  0.692000  0.238900  1.0  0.1222
  H  H35  1  0.104000  0.300900  0.195500  1.0  0.0975
  H  H36  1  0.588000  0.456100  0.513600  1.0  0.1139
  H  H37  1  0.210000  0.438900  0.637800  1.0  0.1034
  H  H38  1  0.250800  0.310600  0.834900  1.0  0.1038
  H  H39  1  0.194500  0.507700  0.075000  1.0  0.1229
  H  H40  1  0.030100  0.071700  0.267500  1.0  0.0921
  H  H41  1  0.299200  0.216500  0.458100  1.0  0.109
  H  H42  1  0.745300  0.071400  0.515900  1.0  0.1142
  H  H43  1  0.754400  0.252900  0.530600  1.0  0.0958
  H  H44  1  0.265900  0.181500  0.874500  1.0  0.1173
  H  H45  1  0.868600  0.084200  0.453900  1.0  0.0969
  H  H46  1  0.466700  0.067100  0.812500  1.0  0.1407
  H  H47  1  0.525400  0.204000  0.683400  1.0  0.1107
  H  H48  1  0.513600  0.068000  0.603600  1.0  0.1415
  H  H49  1  0.149700  0.149000  0.113000  1.0  0.0996
  H  H50  1  0.195900  0.023300  0.636300  1.0  0.1335
  H  H51  1  0.635400  0.085200  0.537300  1.0  0.1114
  H  H52  1  0.235600  0.215800  0.396100  1.0  0.1145
  H  H53  1  0.205200  0.149000  0.996200  1.0  0.1066
  H  H54  1  0.386500  0.186000  0.493700  1.0  0.1144
  H  H55  1  0.417200  0.078700  0.925600  1.0  0.1022
  H  H56  1  0.317200  0.174100  0.757800  1.0  0.1073
  H  H57  1  0.133200  0.022500  0.569100  1.0  0.0971
  H  H58  1  0.453700  0.189500  0.551400  1.0  0.1246
  H  H59  1  0.330200  0.115900  0.135000  1.0  0.1124
  H  H60  1  0.384900  0.114600  0.016500  1.0  0.1122
  H  H61  1  0.876600  0.263900  0.470500  1.0  0.0896
  H  H62  1  0.305900  0.047100  0.761600  1.0  0.1405
  H  H63  1  0.232800  0.054600  0.700800  1.0  0.1147
  H  H64  1  0.644600  0.221600  0.614500  1.0  0.0881
  H  H65  1  0.912200  0.215100  0.601000  1.0  0.3836
  H  H66  1  0.918300  0.287400  0.595300  1.0  0.3385
  H  H67  1  0.785800  0.530200  0.487600  1.0  0.0925
  H  H68  1  0.784500  0.741500  0.403900  1.0  0.1015
  H  H69  1  0.970100  0.376900  0.571700  1.0  0.123
  H  H70  1  0.958100  0.486600  0.571700  1.0  0.0736
  H  H71  1  0.941000  0.053400  0.551800  1.0  0.0665
  H  H72  1  0.413300  0.696000  0.288300  1.0  0.1003
  H  H73  1  0.316800  0.587000  0.543500  1.0  0.1135
  H  H74  1  0.843200  0.533800  0.559800  1.0  0.1054
  H  H75  1  0.534500  0.548100  0.420500  1.0  0.1148
  H  H76  1  0.174000  0.641400  0.415900  1.0  0.1082
  H  H77  1  0.297500  0.646800  0.346300  1.0  0.1198
  H  H78  1  0.985700  0.418300  0.757000  1.0  0.0903
  H  H79  1  0.193600  0.577300  0.616100  1.0  0.1314
  H  H80  1  0.000000  0.023100  0.743900  1.0  0.1314
  H  H81  1  0.605800  0.699500  0.357900  1.0  0.126
  H  H82  1  0.582900  0.567300  0.216400  1.0  0.1088
  H  H83  1  0.736100  0.512500  0.032500  1.0  0.0998
  H  H84  1  0.727300  0.559300  0.296800  1.0  0.1175
  H  H85  1  0.535600  0.702100  0.222800  1.0  0.1329
  H  H86  1  0.829600  0.713800  0.918600  1.0  0.1076
  H  H87  1  0.966000  0.152100  0.558900  1.0  0.1519
  H  H88  1  0.846500  0.747500  0.467000  1.0  0.1186
  H  H89  1  0.812000  0.684300  0.046400  1.0  0.1148
  H  H90  1  0.669800  0.702000  0.422600  1.0  0.0921
  H  H91  1  0.640800  0.566400  0.097800  1.0  0.1194
  H  H92  1  0.003900  0.308000  0.761100  1.0  0.1228
  H  H93  1  0.896000  0.699100  0.804500  1.0  0.0981
  H  H94  1  0.412000  0.543900  0.486400  1.0  0.1145
  H  H95  1  0.790000  0.561100  0.362200  1.0  0.1042
  H  H96  1  0.749200  0.689400  0.165100  1.0  0.1034
  H  H97  1  0.805500  0.492300  0.925000  1.0  0.1228
  H  H98  1  0.969900  0.928300  0.732500  1.0  0.0921
  H  H99  1  0.700800  0.783500  0.541900  1.0  0.1083
  H  H100  1  0.254700  0.928600  0.484100  1.0  0.1142
  H  H101  1  0.245600  0.747100  0.469400  1.0  0.0968
  H  H102  1  0.734100  0.818500  0.125500  1.0  0.1169
  H  H103  1  0.131400  0.915800  0.546100  1.0  0.0965
  H  H104  1  0.533300  0.932900  0.187500  1.0  0.1426
  H  H105  1  0.474600  0.796000  0.316600  1.0  0.1113
  H  H106  1  0.486400  0.932000  0.396400  1.0  0.143
  H  H107  1  0.850300  0.851000  0.887000  1.0  0.0975
  H  H108  1  0.804100  0.976700  0.363700  1.0  0.1339
  H  H109  1  0.364600  0.914800  0.462700  1.0  0.1115
  H  H110  1  0.764400  0.784200  0.603900  1.0  0.1147
  H  H111  1  0.794800  0.851000  0.003800  1.0  0.107
  H  H112  1  0.613500  0.814000  0.506300  1.0  0.1151
  H  H113  1  0.582800  0.921300  0.074400  1.0  0.1021
  H  H114  1  0.682800  0.825900  0.242200  1.0  0.1073
  H  H115  1  0.866800  0.977500  0.430900  1.0  0.0959
  H  H116  1  0.546300  0.810500  0.448600  1.0  0.124
  H  H117  1  0.669800  0.884100  0.865000  1.0  0.1127
  H  H118  1  0.615100  0.885400  0.983500  1.0  0.1122
  H  H119  1  0.123400  0.736100  0.529500  1.0  0.0893
  H  H120  1  0.694100  0.952900  0.238400  1.0  0.1404
  H  H121  1  0.767200  0.945400  0.299200  1.0  0.1153
  H  H122  1  0.355400  0.778400  0.385500  1.0  0.0877
  C  C123  1  0.010900  0.670800  0.333500  1.0  0.0564
  C  C124  1  0.221400  0.364100  0.561500  1.0  0.0245
  C  C125  1  0.997600  0.742900  0.329400  1.0  0.2432
  C  C126  1  0.149700  0.359100  0.479900  1.0  -0.1317
  C  C127  1  0.015600  0.900500  0.348000  1.0  0.0898
  C  C128  1  0.681400  0.383600  0.562500  1.0  0.0334
  C  C129  1  0.203200  0.426500  0.515300  1.0  -0.0959
  C  C130  1  0.262100  0.365500  0.602500  1.0  0.0545
  C  C131  1  0.101500  0.412200  0.223100  1.0  0.704
  C  C132  1  0.999800  0.840400  0.336000  1.0  0.3097
  C  C133  1  0.202800  0.300400  0.565800  1.0  -0.1062
  C  C134  1  0.908300  0.403100  0.429700  1.0  0.6242
  C  C135  1  0.025700  0.616300  0.390000  1.0  -0.2486
  C  C136  1  0.223300  0.387700  0.011100  1.0  0.043
  C  C137  1  0.034100  0.550600  0.388500  1.0  0.1927
  C  C138  1  0.601000  0.378600  0.607600  1.0  0.0731
  C  C139  1  0.338100  0.370400  0.680900  1.0  0.1703
  C  C140  1  0.048300  0.953300  0.407800  1.0  0.2032
  C  C141  1  0.562800  0.333900  0.684200  1.0  -0.1034
  C  C142  1  0.712500  0.403500  0.481200  1.0  -0.1335
  C  C143  1  0.167700  0.424400  0.472600  1.0  -0.0152
  C  C144  1  0.116000  0.357200  0.431200  1.0  0.694
  C  C145  1  0.489900  0.421800  0.606400  1.0  -0.1669
  C  C146  1  0.264900  0.379200  0.939300  1.0  0.0751
  C  C147  1  0.340800  0.371600  0.796200  1.0  0.1849
  C  C148  1  0.797700  0.371200  0.557900  1.0  -0.0653
  C  C149  1  0.723300  0.367200  0.599900  1.0  -0.0998
  C  C150  1  0.017200  0.590300  0.281000  1.0  0.1684
  C  C151  1  0.785900  0.409300  0.437500  1.0  -0.1095
  C  C152  1  0.013200  0.969500  0.295100  1.0  -0.1819
  C  C153  1  0.356700  0.327700  0.642200  1.0  -0.1811
  C  C154  1  0.371000  0.408500  0.818000  1.0  -0.109
  C  C155  1  0.230200  0.450500  0.012900  1.0  -0.1069
  C  C156  1  0.143800  0.404000  0.148700  1.0  -0.126
  C  C157  1  0.284100  0.411500  0.678400  1.0  -0.1871
  C  C158  1  0.453600  0.376100  0.683200  1.0  0.1588
  C  C159  1  0.489400  0.330200  0.724200  1.0  -0.1682
  C  C160  1  0.175700  0.329900  0.080600  1.0  -0.1388
  C  C161  1  0.032700  0.893000  0.404600  1.0  -0.2143
  C  C162  1  0.828800  0.394000  0.477500  1.0  -0.115
  C  C163  1  0.166500  0.296400  0.527400  1.0  -0.1331
  C  C164  1  0.234100  0.339900  0.919200  1.0  -0.129
  C  C165  1  0.317800  0.326300  0.603300  1.0  -0.1011
  C  C166  1  0.335800  0.410700  0.888200  1.0  -0.1442
  C  C167  1  0.006400  0.656800  0.278000  1.0  -0.1522
  C  C168  1  0.135800  0.338900  0.149400  1.0  -0.0473
  C  C169  1  0.563200  0.424400  0.566800  1.0  -0.1595
  C  C170  1  0.246200  0.410100  0.639500  1.0  -0.1312
  C  C171  1  0.272100  0.336600  0.847800  1.0  -0.1779
  C  C172  1  0.190600  0.462900  0.077800  1.0  -0.0957
  C  C173  1  0.030800  0.025700  0.303000  1.0  0.1651
  C  C174  1  0.138200  0.117800  0.432700  1.0  0.6662
  C  C175  1  0.735600  0.159700  0.531100  1.0  0.0373
  C  C176  1  0.177400  0.119500  0.475900  1.0  -0.1355
  C  C177  1  0.885900  0.176100  0.453600  1.0  -0.147
  C  C178  1  0.266100  0.177000  0.480800  1.0  -0.1163
  C  C179  1  0.964500  0.185900  0.411500  1.0  0.6809
  C  C180  1  0.301300  0.130900  0.992200  1.0  0.052
  C  C181  1  0.771300  0.110500  0.506900  1.0  -0.1199
  C  C182  1  0.777100  0.218400  0.515600  1.0  -0.1271
  C  C183  1  0.306600  0.158800  0.862400  1.0  -0.171
  C  C184  1  0.302000  0.119400  0.589900  1.0  0.0363
  C  C185  1  0.257700  0.121000  0.550300  1.0  0.0514
  C  C186  1  0.845600  0.118500  0.469100  1.0  -0.0311
  C  C187  1  0.655900  0.152200  0.571600  1.0  0.0418
  C  C188  1  0.427200  0.091600  0.823800  1.0  -0.1821
  C  C189  1  0.547600  0.179200  0.654200  1.0  -0.1852
  C  C190  1  0.540000  0.097900  0.607500  1.0  -0.2183
  C  C191  1  0.506300  0.132300  0.652900  1.0  0.1559
  C  C192  1  0.335800  0.128800  0.915800  1.0  0.0191
  C  C193  1  0.197900  0.142700  0.093800  1.0  -0.1397
  C  C194  1  0.204700  0.061100  0.587400  1.0  -0.1614
  C  C195  1  0.233900  0.134100  0.139000  1.0  -0.102
  C  C196  1  0.613000  0.108500  0.568200  1.0  -0.1326
  C  C197  1  0.387000  0.120800  0.660400  1.0  0.28
  C  C198  1  0.227900  0.176800  0.443800  1.0  -0.0857
  C  C199  1  0.231000  0.141900  0.024400  1.0  -0.1133
  C  C200  1  0.368700  0.159000  0.548000  1.0  -0.1384
  C  C201  1  0.395800  0.097600  0.892100  1.0  -0.1002
  C  C202  1  0.337800  0.154900  0.792200  1.0  -0.1975
  C  C203  1  0.166500  0.061600  0.547400  1.0  -0.0207
  C  C204  1  0.397900  0.123300  0.772300  1.0  0.168
  C  C205  1  0.409700  0.160700  0.582200  1.0  -0.2366
  C  C206  1  0.304100  0.122900  0.107200  1.0  -0.0649
  C  C207  1  0.197400  0.133000  0.216700  1.0  0.6624
  C  C208  1  0.337000  0.121800  0.036000  1.0  -0.1201
  C  C209  1  0.850300  0.225400  0.478800  1.0  -0.0246
  C  C210  1  0.321000  0.076800  0.708100  1.0  -0.2199
  C  C211  1  0.278500  0.080100  0.670100  1.0  -0.1249
  C  C212  1  0.618700  0.188600  0.613900  1.0  -0.1016
  C  C213  1  0.989100  0.329200  0.666500  1.0  0.0578
  C  C214  1  0.778600  0.635900  0.438500  1.0  0.0239
  C  C215  1  0.002400  0.257100  0.670600  1.0  0.2465
  C  C216  1  0.850300  0.640900  0.520100  1.0  -0.1326
  C  C217  1  0.984400  0.099500  0.652000  1.0  0.0902
  C  C218  1  0.318600  0.616400  0.437500  1.0  0.0331
  C  C219  1  0.796800  0.573500  0.484700  1.0  -0.0952
  C  C220  1  0.737900  0.634500  0.397500  1.0  0.0546
  C  C221  1  0.898500  0.587800  0.776900  1.0  0.7015
  C  C222  1  0.000200  0.159600  0.664000  1.0  0.3115
  C  C223  1  0.797200  0.699600  0.434200  1.0  -0.1074
  C  C224  1  0.091700  0.596900  0.570300  1.0  0.6246
  C  C225  1  0.974300  0.383700  0.610000  1.0  -0.2456
  C  C226  1  0.776700  0.612300  0.988900  1.0  0.0422
  C  C227  1  0.965900  0.449400  0.611500  1.0  0.1934
  C  C228  1  0.399000  0.621400  0.392400  1.0  0.073
  C  C229  1  0.661900  0.629600  0.319100  1.0  0.1707
  C  C230  1  0.951700  0.046700  0.592200  1.0  0.2025
  C  C231  1  0.437200  0.666100  0.315800  1.0  -0.1036
  C  C232  1  0.287500  0.596500  0.518800  1.0  -0.1369
  C  C233  1  0.832300  0.575600  0.527400  1.0  -0.0172
  C  C234  1  0.884000  0.642800  0.568800  1.0  0.6933
  C  C235  1  0.510100  0.578200  0.393600  1.0  -0.1664
  C  C236  1  0.735100  0.620800  0.060700  1.0  0.0741
  C  C237  1  0.659200  0.628400  0.203800  1.0  0.1852
  C  C238  1  0.202300  0.628800  0.442100  1.0  -0.0627
  C  C239  1  0.276700  0.632800  0.400100  1.0  -0.0985
  C  C240  1  0.982800  0.409700  0.719000  1.0  0.1682
  C  C241  1  0.214100  0.590700  0.562500  1.0  -0.1126
  C  C242  1  0.986800  0.030500  0.704900  1.0  -0.1785
  C  C243  1  0.643300  0.672300  0.357800  1.0  -0.1804
  C  C244  1  0.629000  0.591500  0.182000  1.0  -0.1077
  C  C245  1  0.769800  0.549500  0.987100  1.0  -0.1057
  C  C246  1  0.856200  0.596000  0.851300  1.0  -0.1269
  C  C247  1  0.715900  0.588500  0.321600  1.0  -0.1856
  C  C248  1  0.546400  0.623900  0.316800  1.0  0.1579
  C  C249  1  0.510600  0.669800  0.275800  1.0  -0.1693
  C  C250  1  0.824300  0.670100  0.919400  1.0  -0.1386
  C  C251  1  0.967300  0.107000  0.595400  1.0  -0.2143
  C  C252  1  0.171200  0.606000  0.522500  1.0  -0.1153
  C  C253  1  0.833500  0.703600  0.472600  1.0  -0.1339
  C  C254  1  0.765900  0.660100  0.080800  1.0  -0.1269
  C  C255  1  0.682200  0.673700  0.396700  1.0  -0.1015
  C  C256  1  0.664200  0.589300  0.111800  1.0  -0.1457
  C  C257  1  0.993600  0.343200  0.722000  1.0  -0.1494
  C  C258  1  0.864200  0.661100  0.850600  1.0  -0.048
  C  C259  1  0.436800  0.575600  0.433200  1.0  -0.1598
  C  C260  1  0.753800  0.589900  0.360500  1.0  -0.1307
  C  C261  1  0.727900  0.663400  0.152200  1.0  -0.1775
  C  C262  1  0.809400  0.537100  0.922200  1.0  -0.0945
  C  C263  1  0.969200  0.974300  0.697000  1.0  0.1649
  C  C264  1  0.861800  0.882200  0.567300  1.0  0.6652
  C  C265  1  0.264400  0.840300  0.468900  1.0  0.0396
  C  C266  1  0.822600  0.880500  0.524100  1.0  -0.1363
  C  C267  1  0.114100  0.823900  0.546400  1.0  -0.1464
  C  C268  1  0.733900  0.823000  0.519200  1.0  -0.1154
  C  C269  1  0.035500  0.814100  0.588500  1.0  0.6805
  C  C270  1  0.698700  0.869100  0.007800  1.0  0.0511
  C  C271  1  0.228700  0.889500  0.493100  1.0  -0.122
  C  C272  1  0.222900  0.781600  0.484400  1.0  -0.1287
  C  C273  1  0.693400  0.841200  0.137600  1.0  -0.1707
  C  C274  1  0.698000  0.880600  0.410100  1.0  0.0362
  C  C275  1  0.742300  0.879000  0.449700  1.0  0.0516
  C  C276  1  0.154400  0.881500  0.530900  1.0  -0.0316
  C  C277  1  0.344100  0.847800  0.428400  1.0  0.0438
  C  C278  1  0.572800  0.908400  0.176200  1.0  -0.1828
  C  C279  1  0.452400  0.820800  0.345800  1.0  -0.1872
  C  C280  1  0.460000  0.902100  0.392500  1.0  -0.2205
  C  C281  1  0.493700  0.867700  0.347100  1.0  0.1551
  C  C282  1  0.664200  0.871200  0.084200  1.0  0.0197
  C  C283  1  0.802100  0.857300  0.906200  1.0  -0.1396
  C  C284  1  0.795300  0.938900  0.412600  1.0  -0.1642
  C  C285  1  0.766100  0.865900  0.861000  1.0  -0.0989
  C  C286  1  0.387000  0.891500  0.431800  1.0  -0.131
  C  C287  1  0.613000  0.879200  0.339600  1.0  0.2813
  C  C288  1  0.772100  0.823200  0.556200  1.0  -0.084
  C  C289  1  0.769000  0.858100  0.975600  1.0  -0.1134
  C  C290  1  0.631300  0.841000  0.452000  1.0  -0.1373
  C  C291  1  0.604200  0.902400  0.107900  1.0  -0.0971
  C  C292  1  0.662200  0.845100  0.207800  1.0  -0.1964
  C  C293  1  0.833500  0.938400  0.452600  1.0  -0.0228
  C  C294  1  0.602100  0.876700  0.227700  1.0  0.1664
  C  C295  1  0.590300  0.839300  0.417800  1.0  -0.2384
  C  C296  1  0.695900  0.877100  0.892800  1.0  -0.0648
  C  C297  1  0.802600  0.867000  0.783300  1.0  0.6605
  C  C298  1  0.663000  0.878200  0.964000  1.0  -0.1235
  C  C299  1  0.149700  0.774600  0.521200  1.0  -0.0263
  C  C300  1  0.679000  0.923200  0.291900  1.0  -0.2199
  C  C301  1  0.721500  0.919900  0.329900  1.0  -0.1243
  C  C302  1  0.381300  0.811400  0.386100  1.0  -0.1029
  N  N303  1  0.022300  0.775900  0.358800  1.0  0.0638
  N  N304  1  0.049300  0.018100  0.359400  1.0  -0.322
  N  N305  1  0.963900  0.847700  0.296500  1.0  -0.2917
  N  N306  1  0.070100  0.755100  0.391800  1.0  -0.5679
  N  N307  1  0.375600  0.369800  0.722500  1.0  -0.2112
  N  N308  1  0.031600  0.538200  0.334900  1.0  -0.326
  N  N309  1  0.964400  0.784300  0.292000  1.0  -0.1918
  N  N310  1  0.428900  0.121400  0.696300  1.0  -0.2218
  N  N311  1  0.977700  0.224100  0.641200  1.0  0.0641
  N  N312  1  0.950700  0.981900  0.640600  1.0  -0.3234
  N  N313  1  0.036100  0.152300  0.703500  1.0  -0.2928
  N  N314  1  0.929900  0.244900  0.608200  1.0  -0.5661
  N  N315  1  0.624400  0.630200  0.277500  1.0  -0.211
  N  N316  1  0.968400  0.461800  0.665100  1.0  -0.3258
  N  N317  1  0.035600  0.215700  0.708000  1.0  -0.1934
  N  N318  1  0.571100  0.878600  0.303700  1.0  -0.2208
  O  O319  1  0.099510  0.474200  0.217200  1.0  -0.5691
  O  O320  1  0.097210  0.295580  0.442800  1.0  -0.6118
  O  O321  1  0.934140  0.428100  0.356300  1.0  -0.5591
  O  O322  1  0.069350  0.357700  0.287900  1.0  -0.6582
  O  O323  1  0.947810  0.386200  0.464000  1.0  -0.5777
  O  O324  1  0.109610  0.415800  0.382700  1.0  -0.6181
  O  O325  1  0.998760  0.230300  0.414300  1.0  -0.6089
  O  O326  1  0.137310  0.177300  0.375600  1.0  -0.7087
  O  O327  1  0.107910  0.061000  0.448700  1.0  -0.5634
  O  O328  1  0.137100  0.158800  0.232600  1.0  -0.6043
  O  O329  1  0.993680  0.148400  0.375600  1.0  -0.6299
  O  O330  1  0.220600  0.103700  0.265400  1.0  -0.5562
  O  O331  1  0.900490  0.525800  0.782800  1.0  -0.5677
  O  O332  1  0.902790  0.704420  0.557200  1.0  -0.6121
  O  O333  1  0.065860  0.571900  0.643700  1.0  -0.5572
  O  O334  1  0.930650  0.642300  0.712100  1.0  -0.6563
  O  O335  1  0.052190  0.613800  0.536000  1.0  -0.5776
  O  O336  1  0.890390  0.584200  0.617300  1.0  -0.6203
  O  O337  1  0.001240  0.769700  0.585700  1.0  -0.6077
  O  O338  1  0.862690  0.822700  0.624400  1.0  -0.7061
  O  O339  1  0.892090  0.939000  0.551300  1.0  -0.5669
  O  O340  1  0.862900  0.841200  0.767400  1.0  -0.6032
  O  O341  1  0.006320  0.851600  0.624400  1.0  -0.6278
  O  O342  1  0.779400  0.896300  0.734600  1.0  -0.5506
