# generated using pymatgen
data_CuH18C26(N2O)4
_symmetry_space_group_name_H-M   'P 1'
_cell_length_a   18.12000000
_cell_length_b   18.12000000
_cell_length_c   12.90500000
_cell_angle_alpha   90.00000000
_cell_angle_beta   90.00000000
_cell_angle_gamma   90.00000000
_symmetry_Int_Tables_number   1
_chemical_formula_structural   CuH18C26(N2O)4
_chemical_formula_sum   'Cu4 H72 C104 N32 O16'
_cell_volume   4237.15543200
_cell_formula_units_Z   4
loop_
 _symmetry_equiv_pos_site_id
 _symmetry_equiv_pos_as_xyz
  1  'x, y, z'
loop_
 _atom_site_type_symbol
 _atom_site_label
 _atom_site_symmetry_multiplicity
 _atom_site_fract_x
 _atom_site_fract_y
 _atom_site_fract_z
 _atom_site_occupancy
 _atom_site_charge
  Cu  Cu1  1  0.500000  0.000000  0.500000  1.0  0.3679
  Cu  Cu2  1  0.000000  0.500000  0.500000  1.0  0.3679
  Cu  Cu3  1  0.000000  0.000000  0.000000  1.0  0.3679
  Cu  Cu4  1  0.500000  0.500000  0.000000  1.0  0.3679
  H  H5  1  0.468300  0.998000  0.111300  1.0  0.1142
  H  H6  1  0.421600  0.960400  0.281200  1.0  0.1024
  H  H7  1  0.825100  0.998900  0.026600  1.0  0.1094
  H  H8  1  0.712600  0.167700  0.907200  1.0  0.1193
  H  H9  1  0.829400  0.215500  0.056300  1.0  0.1101
  H  H10  1  0.702300  0.044600  0.165800  1.0  0.1198
  H  H11  1  0.609200  0.065000  0.327300  1.0  0.0926
  H  H12  1  0.515600  0.119900  0.036400  1.0  0.1082
  H  H13  1  0.955800  0.171700  0.040700  1.0  0.0982
  H  H14  1  0.031700  0.502000  0.111300  1.0  0.1134
  H  H15  1  0.078400  0.539600  0.281200  1.0  0.1025
  H  H16  1  0.674900  0.501100  0.026600  1.0  0.1107
  H  H17  1  0.787400  0.332300  0.907200  1.0  0.1192
  H  H18  1  0.670600  0.284500  0.056300  1.0  0.1091
  H  H19  1  0.797700  0.455400  0.165800  1.0  0.1199
  H  H20  1  0.890800  0.435000  0.327300  1.0  0.0928
  H  H21  1  0.984400  0.380100  0.036400  1.0  0.1088
  H  H22  1  0.544200  0.328300  0.040700  1.0  0.098
  H  H23  1  0.002000  0.968300  0.611300  1.0  0.1137
  H  H24  1  0.039600  0.921600  0.781200  1.0  0.1042
  H  H25  1  0.001100  0.325100  0.526600  1.0  0.1085
  H  H26  1  0.832300  0.212600  0.407200  1.0  0.1188
  H  H27  1  0.784500  0.329400  0.556300  1.0  0.1106
  H  H28  1  0.955400  0.202300  0.665800  1.0  0.1178
  H  H29  1  0.935000  0.109200  0.827300  1.0  0.0917
  H  H30  1  0.880100  0.015600  0.536400  1.0  0.1077
  H  H31  1  0.828300  0.455800  0.540700  1.0  0.1009
  H  H32  1  0.498000  0.531700  0.611300  1.0  0.1137
  H  H33  1  0.460400  0.578400  0.781200  1.0  0.1039
  H  H34  1  0.498900  0.174900  0.526600  1.0  0.1086
  H  H35  1  0.667700  0.287400  0.407200  1.0  0.119
  H  H36  1  0.715500  0.170600  0.556300  1.0  0.1092
  H  H37  1  0.544600  0.297700  0.665800  1.0  0.1191
  H  H38  1  0.565000  0.390800  0.827300  1.0  0.0919
  H  H39  1  0.619900  0.484400  0.536400  1.0  0.1057
  H  H40  1  0.671700  0.044200  0.540700  1.0  0.0998
  H  H41  1  0.531700  0.002000  0.888700  1.0  0.113
  H  H42  1  0.578400  0.039600  0.718800  1.0  0.1029
  H  H43  1  0.174900  0.001100  0.973400  1.0  0.1101
  H  H44  1  0.287400  0.832300  0.092800  1.0  0.1193
  H  H45  1  0.170600  0.784500  0.943700  1.0  0.1099
  H  H46  1  0.297700  0.955400  0.834200  1.0  0.1206
  H  H47  1  0.390800  0.935000  0.672700  1.0  0.0928
  H  H48  1  0.484400  0.880100  0.963600  1.0  0.109
  H  H49  1  0.044200  0.828300  0.959300  1.0  0.0976
  H  H50  1  0.968300  0.498000  0.888700  1.0  0.1136
  H  H51  1  0.921600  0.460400  0.718800  1.0  0.1023
  H  H52  1  0.325100  0.498900  0.973400  1.0  0.1097
  H  H53  1  0.212600  0.667700  0.092800  1.0  0.1192
  H  H54  1  0.329400  0.715500  0.943700  1.0  0.1092
  H  H55  1  0.202300  0.544600  0.834200  1.0  0.1198
  H  H56  1  0.109200  0.565000  0.672700  1.0  0.0926
  H  H57  1  0.015600  0.619900  0.963600  1.0  0.1082
  H  H58  1  0.455800  0.671700  0.959300  1.0  0.0982
  H  H59  1  0.998000  0.031700  0.388700  1.0  0.1129
  H  H60  1  0.960400  0.078400  0.218800  1.0  0.1036
  H  H61  1  0.998900  0.674900  0.473400  1.0  0.1085
  H  H62  1  0.167700  0.787400  0.592800  1.0  0.119
  H  H63  1  0.215500  0.670600  0.443700  1.0  0.1096
  H  H64  1  0.044600  0.797700  0.334200  1.0  0.1187
  H  H65  1  0.065000  0.890800  0.172700  1.0  0.0917
  H  H66  1  0.119900  0.984400  0.463600  1.0  0.106
  H  H67  1  0.171700  0.544200  0.459300  1.0  0.0993
  H  H68  1  0.502000  0.468300  0.388700  1.0  0.1137
  H  H69  1  0.539600  0.421600  0.218800  1.0  0.1041
  H  H70  1  0.501100  0.825100  0.473400  1.0  0.1087
  H  H71  1  0.332300  0.712600  0.592800  1.0  0.1187
  H  H72  1  0.284500  0.829400  0.443700  1.0  0.1099
  H  H73  1  0.455400  0.702300  0.334200  1.0  0.1185
  H  H74  1  0.435000  0.609200  0.172700  1.0  0.092
  H  H75  1  0.380100  0.515600  0.463600  1.0  0.1075
  H  H76  1  0.328300  0.955800  0.459300  1.0  0.1007
  C  C77  1  0.491000  0.006500  0.174800  1.0  -0.1014
  C  C78  1  0.465100  0.986100  0.269200  1.0  0.0005
  C  C79  1  0.602300  0.076800  0.112300  1.0  0.1749
  C  C80  1  0.608200  0.150200  0.956200  1.0  -0.1474
  C  C81  1  0.842100  0.047300  0.029700  1.0  0.1589
  C  C82  1  0.684600  0.145600  0.959000  1.0  -0.1117
  C  C83  1  0.843900  0.166700  0.047000  1.0  -0.1086
  C  C84  1  0.678500  0.071700  0.114600  1.0  -0.1677
  C  C85  1  0.718800  0.108400  0.038100  1.0  0.168
  C  C86  1  0.568600  0.043400  0.295300  1.0  0.1794
  C  C87  1  0.566800  0.115900  0.035800  1.0  -0.1283
  C  C88  1  0.569600  0.192300  0.872700  1.0  0.6753
  C  C89  1  0.913700  0.142300  0.038200  1.0  -0.0049
  C  C90  1  0.009000  0.493500  0.174800  1.0  -0.1016
  C  C91  1  0.034900  0.513900  0.269200  1.0  0.0017
  C  C92  1  0.897700  0.423200  0.112300  1.0  0.1746
  C  C93  1  0.891800  0.349800  0.956200  1.0  -0.1469
  C  C94  1  0.657900  0.452700  0.029700  1.0  0.1569
  C  C95  1  0.815400  0.354400  0.959000  1.0  -0.1131
  C  C96  1  0.656100  0.333333  0.047000  1.0  -0.1074
  C  C97  1  0.821500  0.428300  0.114600  1.0  -0.1679
  C  C98  1  0.781200  0.391600  0.038100  1.0  0.1674
  C  C99  1  0.931400  0.456600  0.295300  1.0  0.1788
  C  C100  1  0.933200  0.384100  0.035800  1.0  -0.1276
  C  C101  1  0.930400  0.307700  0.872700  1.0  0.6743
  C  C102  1  0.586300  0.357700  0.038200  1.0  -0.0063
  C  C103  1  0.993500  0.991000  0.674800  1.0  -0.1023
  C  C104  1  0.013900  0.965100  0.769200  1.0  -0.0006
  C  C105  1  0.923200  0.102300  0.612300  1.0  0.1737
  C  C106  1  0.849800  0.108200  0.456200  1.0  -0.1436
  C  C107  1  0.952700  0.342100  0.529700  1.0  0.1599
  C  C108  1  0.854400  0.184600  0.459000  1.0  -0.1136
  C  C109  1  0.833300  0.343900  0.547000  1.0  -0.1074
  C  C110  1  0.928300  0.178500  0.614600  1.0  -0.1662
  C  C111  1  0.891600  0.218800  0.538100  1.0  0.169
  C  C112  1  0.956600  0.068600  0.795300  1.0  0.1788
  C  C113  1  0.884100  0.066800  0.535800  1.0  -0.129
  C  C114  1  0.807700  0.069600  0.372700  1.0  0.6725
  C  C115  1  0.857700  0.413700  0.538200  1.0  -0.0068
  C  C116  1  0.506500  0.509000  0.674800  1.0  -0.1029
  C  C117  1  0.486100  0.534900  0.769200  1.0  0.0007
  C  C118  1  0.576800  0.397700  0.612300  1.0  0.1728
  C  C119  1  0.650200  0.391800  0.456200  1.0  -0.1432
  C  C120  1  0.547300  0.157900  0.529700  1.0  0.1565
  C  C121  1  0.645600  0.315400  0.459000  1.0  -0.1124
  C  C122  1  0.666667  0.156100  0.547000  1.0  -0.1058
  C  C123  1  0.571700  0.321500  0.614600  1.0  -0.1664
  C  C124  1  0.608400  0.281200  0.538100  1.0  0.1677
  C  C125  1  0.543400  0.431400  0.795300  1.0  0.18
  C  C126  1  0.615900  0.433200  0.535800  1.0  -0.1289
  C  C127  1  0.692300  0.430400  0.372700  1.0  0.673
  C  C128  1  0.642300  0.086300  0.538200  1.0  -0.0078
  C  C129  1  0.509000  0.993500  0.825200  1.0  -0.1003
  C  C130  1  0.534900  0.013900  0.730800  1.0  0.0026
  C  C131  1  0.397700  0.923200  0.887700  1.0  0.1749
  C  C132  1  0.391800  0.849800  0.043800  1.0  -0.1462
  C  C133  1  0.157900  0.952700  0.970300  1.0  0.1598
  C  C134  1  0.315400  0.854400  0.041000  1.0  -0.1131
  C  C135  1  0.156100  0.833300  0.953000  1.0  -0.1075
  C  C136  1  0.321500  0.928300  0.885400  1.0  -0.1674
  C  C137  1  0.281200  0.891600  0.961900  1.0  0.1677
  C  C138  1  0.431400  0.956600  0.704700  1.0  0.1781
  C  C139  1  0.433200  0.884100  0.964200  1.0  -0.1278
  C  C140  1  0.430400  0.807700  0.127300  1.0  0.6745
  C  C141  1  0.086300  0.857700  0.961800  1.0  -0.0059
  C  C142  1  0.991000  0.506500  0.825200  1.0  -0.1005
  C  C143  1  0.965100  0.486100  0.730800  1.0  0.0014
  C  C144  1  0.102300  0.576800  0.887700  1.0  0.175
  C  C145  1  0.108200  0.650200  0.043800  1.0  -0.1475
  C  C146  1  0.342100  0.547300  0.970300  1.0  0.1561
  C  C147  1  0.184600  0.645600  0.041000  1.0  -0.1103
  C  C148  1  0.343900  0.666667  0.953000  1.0  -0.1082
  C  C149  1  0.178500  0.571700  0.885400  1.0  -0.1678
  C  C150  1  0.218800  0.608400  0.961900  1.0  0.1684
  C  C151  1  0.068600  0.543400  0.704700  1.0  0.1786
  C  C152  1  0.066800  0.615900  0.964200  1.0  -0.1284
  C  C153  1  0.069600  0.692300  0.127300  1.0  0.674
  C  C154  1  0.413700  0.642300  0.961800  1.0  -0.0056
  C  C155  1  0.006500  0.009000  0.325200  1.0  -0.1039
  C  C156  1  0.986100  0.034900  0.230800  1.0  0.0015
  C  C157  1  0.076800  0.897700  0.387700  1.0  0.1731
  C  C158  1  0.150200  0.891800  0.543800  1.0  -0.1433
  C  C159  1  0.047300  0.657900  0.470300  1.0  0.1592
  C  C160  1  0.145600  0.815400  0.541000  1.0  -0.1115
  C  C161  1  0.166700  0.656100  0.453000  1.0  -0.1057
  C  C162  1  0.071700  0.821500  0.385400  1.0  -0.1667
  C  C163  1  0.108400  0.781200  0.461900  1.0  0.1679
  C  C164  1  0.043400  0.931400  0.204700  1.0  0.1788
  C  C165  1  0.115900  0.933200  0.464200  1.0  -0.1289
  C  C166  1  0.192300  0.930400  0.627300  1.0  0.6728
  C  C167  1  0.142300  0.586300  0.461800  1.0  -0.0087
  C  C168  1  0.493500  0.491000  0.325200  1.0  -0.1021
  C  C169  1  0.513900  0.465100  0.230800  1.0  0.0006
  C  C170  1  0.423200  0.602300  0.387700  1.0  0.1739
  C  C171  1  0.349800  0.608200  0.543800  1.0  -0.1424
  C  C172  1  0.452700  0.842100  0.470300  1.0  0.1577
  C  C173  1  0.354400  0.684600  0.541000  1.0  -0.1131
  C  C174  1  0.333333  0.843900  0.453000  1.0  -0.1074
  C  C175  1  0.428300  0.678500  0.385400  1.0  -0.166
  C  C176  1  0.391600  0.718800  0.461900  1.0  0.1693
  C  C177  1  0.456600  0.568600  0.204700  1.0  0.1782
  C  C178  1  0.384100  0.566800  0.464200  1.0  -0.129
  C  C179  1  0.307700  0.569600  0.627300  1.0  0.6723
  C  C180  1  0.357700  0.913700  0.461800  1.0  -0.0093
  N  N181  1  0.514400  0.010000  0.345700  1.0  -0.391
  N  N182  1  0.557700  0.042400  0.190500  1.0  -0.0055
  N  N183  1  0.798000  0.107000  0.040000  1.0  0.0233
  N  N184  1  0.913200  0.066800  0.024800  1.0  -0.3483
  N  N185  1  0.985600  0.490000  0.345700  1.0  -0.3909
  N  N186  1  0.942300  0.457600  0.190500  1.0  -0.0053
  N  N187  1  0.702000  0.393000  0.040000  1.0  0.0234
  N  N188  1  0.586800  0.433200  0.024800  1.0  -0.3498
  N  N189  1  0.990000  0.014400  0.845700  1.0  -0.3909
  N  N190  1  0.957600  0.057700  0.690500  1.0  -0.0062
  N  N191  1  0.893000  0.298000  0.540000  1.0  0.0234
  N  N192  1  0.933200  0.413200  0.524800  1.0  -0.3489
  N  N193  1  0.510000  0.485600  0.845700  1.0  -0.3906
  N  N194  1  0.542400  0.442300  0.690500  1.0  -0.0062
  N  N195  1  0.607000  0.202000  0.540000  1.0  0.0238
  N  N196  1  0.566800  0.086800  0.524800  1.0  -0.3503
  N  N197  1  0.485600  0.990000  0.654300  1.0  -0.3899
  N  N198  1  0.442300  0.957600  0.809500  1.0  -0.0051
  N  N199  1  0.202000  0.893000  0.960000  1.0  0.0235
  N  N200  1  0.086800  0.933200  0.975200  1.0  -0.3501
  N  N201  1  0.014400  0.510000  0.654300  1.0  -0.3908
  N  N202  1  0.057700  0.542400  0.809500  1.0  -0.0052
  N  N203  1  0.298000  0.607000  0.960000  1.0  0.0232
  N  N204  1  0.413200  0.566800  0.975200  1.0  -0.3483
  N  N205  1  0.010000  0.985600  0.154300  1.0  -0.39
  N  N206  1  0.042400  0.942300  0.309500  1.0  -0.006
  N  N207  1  0.107000  0.702000  0.460000  1.0  0.0237
  N  N208  1  0.066800  0.586800  0.475200  1.0  -0.3502
  N  N209  1  0.490000  0.514400  0.154300  1.0  -0.3903
  N  N210  1  0.457600  0.557700  0.309500  1.0  -0.006
  N  N211  1  0.393000  0.798000  0.460000  1.0  0.0233
  N  N212  1  0.433200  0.913200  0.475200  1.0  -0.3492
  O  O213  1  0.602100  0.217100  0.800500  1.0  -0.5159
  O  O214  1  0.498900  0.202500  0.886500  1.0  -0.5027
  O  O215  1  0.897900  0.282900  0.800500  1.0  -0.5147
  O  O216  1  0.001100  0.297500  0.886500  1.0  -0.5036
  O  O217  1  0.782900  0.102100  0.300500  1.0  -0.5135
  O  O218  1  0.797500  0.998900  0.386500  1.0  -0.5097
  O  O219  1  0.717100  0.397900  0.300500  1.0  -0.5139
  O  O220  1  0.702500  0.501100  0.386500  1.0  -0.5072
  O  O221  1  0.397900  0.782900  0.199500  1.0  -0.5133
  O  O222  1  0.501100  0.797500  0.113500  1.0  -0.5042
  O  O223  1  0.102100  0.717100  0.199500  1.0  -0.5137
  O  O224  1  0.998900  0.702500  0.113500  1.0  -0.5038
  O  O225  1  0.217100  0.897900  0.699500  1.0  -0.512
  O  O226  1  0.202500  0.001100  0.613500  1.0  -0.508
  O  O227  1  0.282900  0.602100  0.699500  1.0  -0.5117
  O  O228  1  0.297500  0.498900  0.613500  1.0  -0.5103
