# generated using pymatgen
data_CuH18C26(N2O)4
_symmetry_space_group_name_H-M   'P 1'
_cell_length_a   18.00100000
_cell_length_b   18.00100000
_cell_length_c   12.94600000
_cell_angle_alpha   90.00000000
_cell_angle_beta   90.00000000
_cell_angle_gamma   90.00000000
_symmetry_Int_Tables_number   1
_chemical_formula_structural   CuH18C26(N2O)4
_chemical_formula_sum   'Cu4 H72 C104 N32 O16'
_cell_volume   4194.97006895
_cell_formula_units_Z   4
loop_
 _symmetry_equiv_pos_site_id
 _symmetry_equiv_pos_as_xyz
  1  'x, y, z'
loop_
 _atom_site_type_symbol
 _atom_site_label
 _atom_site_symmetry_multiplicity
 _atom_site_fract_x
 _atom_site_fract_y
 _atom_site_fract_z
 _atom_site_occupancy
 _atom_site_charge
  Cu  Cu1  1  0.000000  0.000000  0.500000  1.0  0.4005
  Cu  Cu2  1  0.500000  0.500000  0.500000  1.0  0.4005
  Cu  Cu3  1  0.000000  0.500000  0.000000  1.0  0.4005
  Cu  Cu4  1  0.500000  0.000000  0.000000  1.0  0.4005
  H  H5  1  0.824700  0.998900  0.478100  1.0  0.1078
  H  H6  1  0.702600  0.046500  0.330300  1.0  0.1249
  H  H7  1  0.610100  0.064500  0.172800  1.0  0.0899
  H  H8  1  0.420500  0.963000  0.217900  1.0  0.1009
  H  H9  1  0.514700  0.121800  0.462500  1.0  0.1177
  H  H10  1  0.713400  0.168600  0.588800  1.0  0.1201
  H  H11  1  0.467000  0.000100  0.386900  1.0  0.1325
  H  H12  1  0.957000  0.170500  0.456900  1.0  0.1016
  H  H13  1  0.830600  0.216300  0.437800  1.0  0.1274
  H  H14  1  0.675300  0.501100  0.478100  1.0  0.1083
  H  H15  1  0.797400  0.453500  0.330300  1.0  0.1243
  H  H16  1  0.889900  0.435500  0.172800  1.0  0.0905
  H  H17  1  0.079500  0.537000  0.217900  1.0  0.1013
  H  H18  1  0.985300  0.378200  0.462500  1.0  0.1183
  H  H19  1  0.786600  0.331400  0.588800  1.0  0.1203
  H  H20  1  0.033000  0.499900  0.386900  1.0  0.1319
  H  H21  1  0.543000  0.329500  0.456900  1.0  0.1016
  H  H22  1  0.669400  0.283700  0.437800  1.0  0.1269
  H  H23  1  0.001100  0.324700  0.978100  1.0  0.1071
  H  H24  1  0.953500  0.202600  0.830300  1.0  0.1228
  H  H25  1  0.935500  0.110100  0.672800  1.0  0.0882
  H  H26  1  0.037000  0.920500  0.717900  1.0  0.1021
  H  H27  1  0.878200  0.014700  0.962500  1.0  0.1178
  H  H28  1  0.831400  0.213400  0.088800  1.0  0.1198
  H  H29  1  0.999900  0.967000  0.886900  1.0  0.1326
  H  H30  1  0.829500  0.457000  0.956900  1.0  0.1042
  H  H31  1  0.783700  0.330600  0.937800  1.0  0.1276
  H  H32  1  0.498900  0.175300  0.978100  1.0  0.1082
  H  H33  1  0.546500  0.297400  0.830300  1.0  0.1208
  H  H34  1  0.564500  0.389900  0.672800  1.0  0.0895
  H  H35  1  0.463000  0.579500  0.717900  1.0  0.1018
  H  H36  1  0.621800  0.485300  0.962500  1.0  0.1182
  H  H37  1  0.668600  0.286600  0.088800  1.0  0.1199
  H  H38  1  0.500100  0.533000  0.886900  1.0  0.1315
  H  H39  1  0.670500  0.043000  0.956900  1.0  0.1029
  H  H40  1  0.716300  0.169400  0.937800  1.0  0.1273
  H  H41  1  0.175300  0.001100  0.521900  1.0  0.1088
  H  H42  1  0.297400  0.953500  0.669700  1.0  0.1237
  H  H43  1  0.389900  0.935500  0.827200  1.0  0.0892
  H  H44  1  0.579500  0.037000  0.782100  1.0  0.1012
  H  H45  1  0.485300  0.878200  0.537500  1.0  0.1181
  H  H46  1  0.286600  0.831400  0.411200  1.0  0.1208
  H  H47  1  0.533000  0.999900  0.613100  1.0  0.1315
  H  H48  1  0.043000  0.829500  0.543100  1.0  0.1037
  H  H49  1  0.169400  0.783700  0.562200  1.0  0.1272
  H  H50  1  0.324700  0.498900  0.521900  1.0  0.108
  H  H51  1  0.202600  0.546500  0.669700  1.0  0.1247
  H  H52  1  0.110100  0.564500  0.827200  1.0  0.0886
  H  H53  1  0.920500  0.463000  0.782100  1.0  0.1007
  H  H54  1  0.014700  0.621800  0.537500  1.0  0.1175
  H  H55  1  0.213400  0.668600  0.411200  1.0  0.1207
  H  H56  1  0.967000  0.500100  0.613100  1.0  0.1323
  H  H57  1  0.457000  0.670500  0.543100  1.0  0.1017
  H  H58  1  0.330600  0.716300  0.562200  1.0  0.1273
  H  H59  1  0.998900  0.675300  0.021900  1.0  0.1086
  H  H60  1  0.046500  0.797400  0.169700  1.0  0.1229
  H  H61  1  0.064500  0.889900  0.327200  1.0  0.0883
  H  H62  1  0.963000  0.079500  0.282100  1.0  0.1019
  H  H63  1  0.121800  0.985300  0.037500  1.0  0.1179
  H  H64  1  0.168600  0.786600  0.911200  1.0  0.1205
  H  H65  1  0.000100  0.033000  0.113100  1.0  0.1315
  H  H66  1  0.170500  0.543000  0.043100  1.0  0.104
  H  H67  1  0.216300  0.669400  0.062200  1.0  0.1279
  H  H68  1  0.501100  0.824700  0.021900  1.0  0.107
  H  H69  1  0.453500  0.702600  0.169700  1.0  0.122
  H  H70  1  0.435500  0.610100  0.327200  1.0  0.0883
  H  H71  1  0.537000  0.420500  0.282100  1.0  0.1018
  H  H72  1  0.378200  0.514700  0.037500  1.0  0.1179
  H  H73  1  0.331400  0.713400  0.911200  1.0  0.1204
  H  H74  1  0.499900  0.467000  0.113100  1.0  0.132
  H  H75  1  0.329500  0.957000  0.043100  1.0  0.1057
  H  H76  1  0.283700  0.830600  0.062200  1.0  0.1276
  C  C77  1  0.601300  0.077800  0.385500  1.0  0.1663
  C  C78  1  0.842100  0.047200  0.470900  1.0  0.1557
  C  C79  1  0.607600  0.151200  0.539600  1.0  -0.1651
  C  C80  1  0.678800  0.072800  0.382500  1.0  -0.1901
  C  C81  1  0.718800  0.108000  0.458900  1.0  0.1595
  C  C82  1  0.568600  0.043800  0.204600  1.0  0.1788
  C  C83  1  0.464700  0.988400  0.229900  1.0  0.0175
  C  C84  1  0.566200  0.117600  0.462400  1.0  -0.145
  C  C85  1  0.685100  0.146200  0.537400  1.0  -0.1005
  C  C86  1  0.490100  0.008400  0.323700  1.0  -0.1173
  C  C87  1  0.914300  0.141500  0.459200  1.0  -0.0096
  C  C88  1  0.844700  0.167200  0.448400  1.0  -0.1408
  C  C89  1  0.571800  0.196100  0.623500  1.0  0.6811
  C  C90  1  0.898700  0.422200  0.385500  1.0  0.1661
  C  C91  1  0.657900  0.452800  0.470900  1.0  0.1561
  C  C92  1  0.892400  0.348800  0.539600  1.0  -0.1649
  C  C93  1  0.821200  0.427200  0.382500  1.0  -0.1903
  C  C94  1  0.781200  0.392000  0.458900  1.0  0.1584
  C  C95  1  0.931400  0.456200  0.204600  1.0  0.1794
  C  C96  1  0.035300  0.511600  0.229900  1.0  0.0199
  C  C97  1  0.933800  0.382400  0.462400  1.0  -0.1444
  C  C98  1  0.814900  0.353800  0.537400  1.0  -0.1015
  C  C99  1  0.009900  0.491600  0.323700  1.0  -0.1191
  C  C100  1  0.585700  0.358500  0.459200  1.0  -0.009
  C  C101  1  0.655300  0.332800  0.448400  1.0  -0.1425
  C  C102  1  0.928200  0.303900  0.623500  1.0  0.6802
  C  C103  1  0.922200  0.101300  0.885500  1.0  0.1649
  C  C104  1  0.952800  0.342100  0.970900  1.0  0.1571
  C  C105  1  0.848800  0.107600  0.039600  1.0  -0.1617
  C  C106  1  0.927200  0.178800  0.882500  1.0  -0.1886
  C  C107  1  0.892000  0.218800  0.958900  1.0  0.1595
  C  C108  1  0.956200  0.068600  0.704600  1.0  0.179
  C  C109  1  0.011600  0.964700  0.729900  1.0  0.0184
  C  C110  1  0.882400  0.066200  0.962400  1.0  -0.1435
  C  C111  1  0.853800  0.185100  0.037400  1.0  -0.1021
  C  C112  1  0.991600  0.990100  0.823700  1.0  -0.1196
  C  C113  1  0.858500  0.414300  0.959200  1.0  -0.0119
  C  C114  1  0.832800  0.344700  0.948400  1.0  -0.1379
  C  C115  1  0.803900  0.071800  0.123500  1.0  0.6775
  C  C116  1  0.577800  0.398700  0.885500  1.0  0.1646
  C  C117  1  0.547200  0.157900  0.970900  1.0  0.1555
  C  C118  1  0.651200  0.392400  0.039600  1.0  -0.162
  C  C119  1  0.572800  0.321200  0.882500  1.0  -0.1881
  C  C120  1  0.608000  0.281200  0.958900  1.0  0.159
  C  C121  1  0.543800  0.431400  0.704600  1.0  0.1791
  C  C122  1  0.488400  0.535300  0.729900  1.0  0.0166
  C  C123  1  0.617600  0.433800  0.962400  1.0  -0.1421
  C  C124  1  0.646200  0.314900  0.037400  1.0  -0.1014
  C  C125  1  0.508400  0.509900  0.823700  1.0  -0.1208
  C  C126  1  0.641500  0.085700  0.959200  1.0  -0.0112
  C  C127  1  0.667200  0.155300  0.948400  1.0  -0.1386
  C  C128  1  0.696100  0.428200  0.123500  1.0  0.6782
  C  C129  1  0.398700  0.922200  0.614500  1.0  0.1659
  C  C130  1  0.157900  0.952800  0.529100  1.0  0.1557
  C  C131  1  0.392400  0.848800  0.460400  1.0  -0.1636
  C  C132  1  0.321200  0.927200  0.617500  1.0  -0.1911
  C  C133  1  0.281200  0.892000  0.541100  1.0  0.1583
  C  C134  1  0.431400  0.956200  0.795400  1.0  0.1793
  C  C135  1  0.535300  0.011600  0.770100  1.0  0.0193
  C  C136  1  0.433800  0.882400  0.537600  1.0  -0.1446
  C  C137  1  0.314900  0.853800  0.462600  1.0  -0.1012
  C  C138  1  0.509900  0.991600  0.676300  1.0  -0.1242
  C  C139  1  0.085700  0.858500  0.540800  1.0  -0.0092
  C  C140  1  0.155300  0.832800  0.551600  1.0  -0.1416
  C  C141  1  0.428200  0.803900  0.376500  1.0  0.6814
  C  C142  1  0.101300  0.577800  0.614500  1.0  0.1663
  C  C143  1  0.342100  0.547200  0.529100  1.0  0.1559
  C  C144  1  0.107600  0.651200  0.460400  1.0  -0.1642
  C  C145  1  0.178800  0.572800  0.617500  1.0  -0.1902
  C  C146  1  0.218800  0.608000  0.541100  1.0  0.1592
  C  C147  1  0.068600  0.543800  0.795400  1.0  0.1791
  C  C148  1  0.964700  0.488400  0.770100  1.0  0.0169
  C  C149  1  0.066200  0.617600  0.537600  1.0  -0.1454
  C  C150  1  0.185100  0.646200  0.462600  1.0  -0.101
  C  C151  1  0.990100  0.508400  0.676300  1.0  -0.1194
  C  C152  1  0.414300  0.641500  0.540800  1.0  -0.0102
  C  C153  1  0.344700  0.667200  0.551600  1.0  -0.1404
  C  C154  1  0.071800  0.696100  0.376500  1.0  0.6845
  C  C155  1  0.077800  0.898700  0.114500  1.0  0.1644
  C  C156  1  0.047200  0.657900  0.029100  1.0  0.1555
  C  C157  1  0.151200  0.892400  0.960400  1.0  -0.1606
  C  C158  1  0.072800  0.821200  0.117500  1.0  -0.1895
  C  C159  1  0.108000  0.781200  0.041100  1.0  0.1588
  C  C160  1  0.043800  0.931400  0.295400  1.0  0.1795
  C  C161  1  0.988400  0.035300  0.270100  1.0  0.0161
  C  C162  1  0.117600  0.933800  0.037600  1.0  -0.1424
  C  C163  1  0.146200  0.814900  0.962600  1.0  -0.1016
  C  C164  1  0.008400  0.009900  0.176300  1.0  -0.1209
  C  C165  1  0.141500  0.585700  0.040800  1.0  -0.0109
  C  C166  1  0.167200  0.655300  0.051600  1.0  -0.1381
  C  C167  1  0.196100  0.928200  0.876500  1.0  0.6801
  C  C168  1  0.422200  0.601300  0.114500  1.0  0.1648
  C  C169  1  0.452800  0.842100  0.029100  1.0  0.1566
  C  C170  1  0.348800  0.607600  0.960400  1.0  -0.1616
  C  C171  1  0.427200  0.678800  0.117500  1.0  -0.1886
  C  C172  1  0.392000  0.718800  0.041100  1.0  0.1593
  C  C173  1  0.456200  0.568600  0.295400  1.0  0.1791
  C  C174  1  0.511600  0.464700  0.270100  1.0  0.0175
  C  C175  1  0.382400  0.566200  0.037600  1.0  -0.144
  C  C176  1  0.353800  0.685100  0.962600  1.0  -0.1022
  C  C177  1  0.491600  0.490100  0.176300  1.0  -0.1238
  C  C178  1  0.358500  0.914300  0.040800  1.0  -0.0121
  C  C179  1  0.332800  0.844700  0.051600  1.0  -0.1472
  C  C180  1  0.303900  0.571800  0.876500  1.0  0.6793
  N  N181  1  0.557400  0.043700  0.307500  1.0  0.0503
  N  N182  1  0.514000  0.011200  0.153900  1.0  -0.3953
  N  N183  1  0.912900  0.066100  0.474200  1.0  -0.3305
  N  N184  1  0.798500  0.106500  0.456000  1.0  0.0229
  N  N185  1  0.942600  0.456300  0.307500  1.0  0.0504
  N  N186  1  0.986000  0.488800  0.153900  1.0  -0.3952
  N  N187  1  0.587100  0.433900  0.474200  1.0  -0.3314
  N  N188  1  0.701500  0.393500  0.456000  1.0  0.0239
  N  N189  1  0.956300  0.057400  0.807500  1.0  0.0498
  N  N190  1  0.988800  0.014000  0.653900  1.0  -0.3952
  N  N191  1  0.933900  0.412900  0.974200  1.0  -0.3299
  N  N192  1  0.893500  0.298500  0.956000  1.0  0.0247
  N  N193  1  0.543700  0.442600  0.807500  1.0  0.0498
  N  N194  1  0.511200  0.486000  0.653900  1.0  -0.3947
  N  N195  1  0.566100  0.087100  0.974200  1.0  -0.3321
  N  N196  1  0.606500  0.201500  0.956000  1.0  0.0243
  N  N197  1  0.442600  0.956300  0.692500  1.0  0.0498
  N  N198  1  0.486000  0.988800  0.846100  1.0  -0.3959
  N  N199  1  0.087100  0.933900  0.525800  1.0  -0.3311
  N  N200  1  0.201500  0.893500  0.544000  1.0  0.024
  N  N201  1  0.057400  0.543700  0.692500  1.0  0.0495
  N  N202  1  0.014000  0.511200  0.846100  1.0  -0.3956
  N  N203  1  0.412900  0.566100  0.525800  1.0  -0.3304
  N  N204  1  0.298500  0.606500  0.544000  1.0  0.0229
  N  N205  1  0.043700  0.942600  0.192500  1.0  0.0492
  N  N206  1  0.011200  0.986000  0.346100  1.0  -0.3956
  N  N207  1  0.066100  0.587100  0.025800  1.0  -0.3319
  N  N208  1  0.106500  0.701500  0.044000  1.0  0.0244
  N  N209  1  0.456300  0.557400  0.192500  1.0  0.0491
  N  N210  1  0.488800  0.514000  0.346100  1.0  -0.3956
  N  N211  1  0.433900  0.912900  0.025800  1.0  -0.3297
  N  N212  1  0.393500  0.798500  0.044000  1.0  0.0246
  O  O213  1  0.499700  0.198800  0.627900  1.0  -0.4948
  O  O214  1  0.609800  0.234500  0.680900  1.0  -0.5567
  O  O215  1  0.000300  0.301200  0.627900  1.0  -0.502
  O  O216  1  0.890200  0.265500  0.680900  1.0  -0.5574
  O  O217  1  0.801200  0.999700  0.127900  1.0  -0.5022
  O  O218  1  0.765500  0.109800  0.180900  1.0  -0.556
  O  O219  1  0.698800  0.500300  0.127900  1.0  -0.504
  O  O220  1  0.734500  0.390200  0.180900  1.0  -0.555
  O  O221  1  0.500300  0.801200  0.372100  1.0  -0.5025
  O  O222  1  0.390200  0.765500  0.319100  1.0  -0.5594
  O  O223  1  0.999700  0.698800  0.372100  1.0  -0.4949
  O  O224  1  0.109800  0.734500  0.319100  1.0  -0.5589
  O  O225  1  0.198800  0.000300  0.872100  1.0  -0.5036
  O  O226  1  0.234500  0.890200  0.819100  1.0  -0.5566
  O  O227  1  0.301200  0.499700  0.872100  1.0  -0.5023
  O  O228  1  0.265500  0.609800  0.819100  1.0  -0.5572
