# generated using pymatgen
data_Mn3H12(C11O5)2
_symmetry_space_group_name_H-M   'P 1'
_cell_length_a   10.89300000
_cell_length_b   6.61800000
_cell_length_c   17.33700000
_cell_angle_alpha   90.00000000
_cell_angle_beta   106.88500000
_cell_angle_gamma   90.00000000
_symmetry_Int_Tables_number   1
_chemical_formula_structural   Mn3H12(C11O5)2
_chemical_formula_sum   'Mn6 H24 C44 O20'
_cell_volume   1195.94188406
_cell_formula_units_Z   2
loop_
 _symmetry_equiv_pos_site_id
 _symmetry_equiv_pos_as_xyz
  1  'x, y, z'
loop_
 _atom_site_type_symbol
 _atom_site_label
 _atom_site_symmetry_multiplicity
 _atom_site_fract_x
 _atom_site_fract_y
 _atom_site_fract_z
 _atom_site_occupancy
 _atom_site_charge
  Mn  Mn1  1  0.468590  0.496770  0.087390  1.0  1.1616
  Mn  Mn2  1  0.531410  0.996770  0.412610  1.0  1.1592
  Mn  Mn3  1  0.531410  0.503230  0.912610  1.0  1.1592
  Mn  Mn4  1  0.468590  0.003230  0.587390  1.0  1.1615
  Mn  Mn5  1  0.500000  0.000000  0.000000  1.0  1.2032
  Mn  Mn6  1  0.500000  0.500000  0.500000  1.0  1.2054
  H  H7  1  0.654500  0.312800  0.046700  1.0  0.4917
  H  H8  1  0.211100  0.121800  0.199000  1.0  0.1106
  H  H9  1  0.180700  0.659500  0.298900  1.0  0.0923
  H  H10  1  0.016100  0.747400  0.186300  1.0  0.0905
  H  H11  1  0.942500  0.517000  0.081000  1.0  0.1015
  H  H12  1  0.148100  0.883100  0.939200  1.0  0.0899
  H  H13  1  0.345500  0.812800  0.453300  1.0  0.4948
  H  H14  1  0.788900  0.621800  0.301000  1.0  0.1105
  H  H15  1  0.819300  0.159500  0.201100  1.0  0.0931
  H  H16  1  0.983900  0.247400  0.313700  1.0  0.0898
  H  H17  1  0.057500  0.017000  0.419000  1.0  0.1009
  H  H18  1  0.851900  0.383100  0.560800  1.0  0.0901
  H  H19  1  0.345500  0.687200  0.953300  1.0  0.4958
  H  H20  1  0.788900  0.878200  0.801000  1.0  0.1107
  H  H21  1  0.819300  0.340500  0.701100  1.0  0.0929
  H  H22  1  0.983900  0.252600  0.813700  1.0  0.0897
  H  H23  1  0.057500  0.483000  0.919000  1.0  0.1013
  H  H24  1  0.851900  0.116900  0.060800  1.0  0.0901
  H  H25  1  0.654500  0.187200  0.546700  1.0  0.493
  H  H26  1  0.211100  0.378200  0.699000  1.0  0.1105
  H  H27  1  0.180700  0.840500  0.798900  1.0  0.0927
  H  H28  1  0.016100  0.752600  0.686300  1.0  0.0901
  H  H29  1  0.942500  0.983000  0.581000  1.0  0.1015
  H  H30  1  0.148100  0.616900  0.439200  1.0  0.0899
  C  C31  1  0.257400  0.165700  0.041400  1.0  0.712
  C  C32  1  0.123600  0.081800  0.022200  1.0  -0.1007
  C  C33  1  0.033800  0.150700  0.059900  1.0  -0.0477
  C  C34  1  0.072100  0.297900  0.128300  1.0  0.0157
  C  C35  1  0.171700  0.247300  0.196600  1.0  -0.0495
  C  C36  1  0.213500  0.379800  0.261200  1.0  -0.1879
  C  C37  1  0.153600  0.568500  0.256400  1.0  -0.0341
  C  C38  1  0.054400  0.620900  0.189100  1.0  -0.0914
  C  C39  1  0.011400  0.483700  0.125200  1.0  -0.0934
  C  C40  1  0.322600  0.322000  0.334500  1.0  0.6965
  C  C41  1  0.087700  0.930300  0.963300  1.0  -0.0826
  C  C42  1  0.742600  0.665700  0.458600  1.0  0.7106
  C  C43  1  0.876400  0.581800  0.477800  1.0  -0.1026
  C  C44  1  0.966200  0.650700  0.440100  1.0  -0.0472
  C  C45  1  0.927900  0.797900  0.371700  1.0  0.0154
  C  C46  1  0.828300  0.747300  0.303400  1.0  -0.0499
  C  C47  1  0.786500  0.879800  0.238800  1.0  -0.1889
  C  C48  1  0.846400  0.068500  0.243600  1.0  -0.0323
  C  C49  1  0.945600  0.120900  0.310900  1.0  -0.0904
  C  C50  1  0.988600  0.983700  0.374800  1.0  -0.0942
  C  C51  1  0.677400  0.822000  0.165500  1.0  0.6954
  C  C52  1  0.912300  0.430300  0.536700  1.0  -0.0824
  C  C53  1  0.742600  0.834300  0.958600  1.0  0.7107
  C  C54  1  0.876400  0.918200  0.977800  1.0  -0.1026
  C  C55  1  0.966200  0.849300  0.940100  1.0  -0.0474
  C  C56  1  0.927900  0.702100  0.871700  1.0  0.0153
  C  C57  1  0.828300  0.752700  0.803400  1.0  -0.0494
  C  C58  1  0.786500  0.620200  0.738800  1.0  -0.1888
  C  C59  1  0.846400  0.431500  0.743600  1.0  -0.0323
  C  C60  1  0.945600  0.379100  0.810900  1.0  -0.0921
  C  C61  1  0.988600  0.516300  0.874800  1.0  -0.0937
  C  C62  1  0.677400  0.678000  0.665500  1.0  0.6961
  C  C63  1  0.912300  0.069700  0.036700  1.0  -0.0829
  C  C64  1  0.257400  0.334300  0.541400  1.0  0.7121
  C  C65  1  0.123600  0.418200  0.522200  1.0  -0.1007
  C  C66  1  0.033800  0.349300  0.559900  1.0  -0.048
  C  C67  1  0.072100  0.202100  0.628300  1.0  0.0157
  C  C68  1  0.171700  0.252700  0.696600  1.0  -0.0496
  C  C69  1  0.213500  0.120200  0.761200  1.0  -0.188
  C  C70  1  0.153600  0.931500  0.756400  1.0  -0.0337
  C  C71  1  0.054400  0.879100  0.689100  1.0  -0.0925
  C  C72  1  0.011400  0.016300  0.625200  1.0  -0.0931
  C  C73  1  0.322600  0.178000  0.834500  1.0  0.6968
  C  C74  1  0.087700  0.569700  0.463300  1.0  -0.0829
  O  O75  1  0.273400  0.352800  0.038200  1.0  -0.594
  O  O76  1  0.348500  0.038500  0.060100  1.0  -0.657
  O  O77  1  0.362800  0.145400  0.338100  1.0  -0.6327
  O  O78  1  0.359900  0.454400  0.386200  1.0  -0.6234
  O  O79  1  0.562400  0.312700  0.018600  1.0  -0.9688
  O  O80  1  0.726600  0.852800  0.461800  1.0  -0.5951
  O  O81  1  0.651500  0.538500  0.439900  1.0  -0.6575
  O  O82  1  0.637200  0.645400  0.161900  1.0  -0.6335
  O  O83  1  0.640100  0.954400  0.113800  1.0  -0.624
  O  O84  1  0.437600  0.812700  0.481400  1.0  -0.9678
  O  O85  1  0.726600  0.647200  0.961800  1.0  -0.593
  O  O86  1  0.651500  0.961500  0.939900  1.0  -0.657
  O  O87  1  0.637200  0.854600  0.661900  1.0  -0.633
  O  O88  1  0.640100  0.545600  0.613800  1.0  -0.6237
  O  O89  1  0.437600  0.687300  0.981400  1.0  -0.9683
  O  O90  1  0.273400  0.147200  0.538200  1.0  -0.5929
  O  O91  1  0.348500  0.461500  0.560100  1.0  -0.6572
  O  O92  1  0.362800  0.354600  0.838100  1.0  -0.6318
  O  O93  1  0.359900  0.045600  0.886200  1.0  -0.6234
  O  O94  1  0.562400  0.187300  0.518600  1.0  -0.9692
