# generated using pymatgen
data_Cu3H24C42(NO6)2
_symmetry_space_group_name_H-M   'P 1'
_cell_length_a   34.14490000
_cell_length_b   34.14490000
_cell_length_c   19.88430000
_cell_angle_alpha   90.00000000
_cell_angle_beta   90.00000000
_cell_angle_gamma   90.00000000
_symmetry_Int_Tables_number   1
_chemical_formula_structural   Cu3H24C42(NO6)2
_chemical_formula_sum   'Cu24 H192 C336 N16 O96'
_cell_volume   23182.59227572
_cell_formula_units_Z   8
loop_
 _symmetry_equiv_pos_site_id
 _symmetry_equiv_pos_as_xyz
  1  'x, y, z'
loop_
 _atom_site_type_symbol
 _atom_site_label
 _atom_site_symmetry_multiplicity
 _atom_site_fract_x
 _atom_site_fract_y
 _atom_site_fract_z
 _atom_site_occupancy
 _atom_site_charge
  Cu  Cu1  1  0.246580  0.254580  0.314620  1.0  0.9615
  Cu  Cu2  1  0.746580  0.754580  0.814620  1.0  0.9615
  Cu  Cu3  1  0.753420  0.745420  0.314620  1.0  0.9617
  Cu  Cu4  1  0.253420  0.245420  0.814620  1.0  0.9617
  Cu  Cu5  1  0.753420  0.254580  0.685380  1.0  0.9615
  Cu  Cu6  1  0.253420  0.754580  0.185380  1.0  0.9615
  Cu  Cu7  1  0.246580  0.745420  0.685380  1.0  0.9617
  Cu  Cu8  1  0.746580  0.245420  0.185380  1.0  0.9617
  Cu  Cu9  1  0.753420  0.745420  0.685380  1.0  0.9616
  Cu  Cu10  1  0.253420  0.245420  0.185380  1.0  0.9616
  Cu  Cu11  1  0.246580  0.254580  0.685380  1.0  0.9616
  Cu  Cu12  1  0.746580  0.754580  0.185380  1.0  0.9616
  Cu  Cu13  1  0.246580  0.745420  0.314620  1.0  0.9616
  Cu  Cu14  1  0.746580  0.245420  0.814620  1.0  0.9616
  Cu  Cu15  1  0.753420  0.254580  0.314620  1.0  0.9617
  Cu  Cu16  1  0.253420  0.754580  0.814620  1.0  0.9617
  Cu  Cu17  1  0.038290  0.500000  0.000000  1.0  0.9025
  Cu  Cu18  1  0.538290  0.000000  0.500000  1.0  0.9025
  Cu  Cu19  1  0.961710  0.500000  0.000000  1.0  0.9015
  Cu  Cu20  1  0.461710  0.000000  0.500000  1.0  0.9015
  Cu  Cu21  1  0.500000  0.461780  0.000000  1.0  0.9058
  Cu  Cu22  1  0.000000  0.961780  0.500000  1.0  0.9058
  Cu  Cu23  1  0.500000  0.538220  0.000000  1.0  0.9052
  Cu  Cu24  1  0.000000  0.038220  0.500000  1.0  0.9052
  H  H25  1  0.150000  0.305500  0.120100  1.0  0.123
  H  H26  1  0.311700  0.348400  0.117300  1.0  0.1433
  H  H27  1  0.089200  0.337300  0.107900  1.0  0.092
  H  H28  1  0.336400  0.413500  0.108500  1.0  0.108
  H  H29  1  0.307900  0.368100  0.328900  1.0  0.1163
  H  H30  1  0.058100  0.404700  0.137600  1.0  0.115
  H  H31  1  0.130800  0.310800  0.324000  1.0  0.1169
  H  H32  1  0.069600  0.336900  0.296000  1.0  0.1147
  H  H33  1  0.336300  0.430500  0.301500  1.0  0.1901
  H  H34  1  0.022000  0.307000  0.266000  1.0  0.2732
  H  H35  1  0.306000  0.473000  0.274000  1.0  0.1546
  H  H36  1  0.410100  0.442200  0.147000  1.0  0.1139
  H  H37  1  0.650000  0.805500  0.620100  1.0  0.123
  H  H38  1  0.811700  0.848400  0.617300  1.0  0.1433
  H  H39  1  0.589200  0.837300  0.607900  1.0  0.092
  H  H40  1  0.836400  0.913500  0.608500  1.0  0.108
  H  H41  1  0.807900  0.868100  0.828900  1.0  0.1163
  H  H42  1  0.558100  0.904700  0.637600  1.0  0.115
  H  H43  1  0.630800  0.810800  0.824000  1.0  0.1169
  H  H44  1  0.569600  0.836900  0.796000  1.0  0.1147
  H  H45  1  0.836300  0.930500  0.801500  1.0  0.1901
  H  H46  1  0.522000  0.807000  0.766000  1.0  0.2732
  H  H47  1  0.806000  0.973000  0.774000  1.0  0.1546
  H  H48  1  0.910100  0.942200  0.647000  1.0  0.1139
  H  H49  1  0.850000  0.694500  0.120100  1.0  0.123
  H  H50  1  0.688300  0.651600  0.117300  1.0  0.1432
  H  H51  1  0.910800  0.662700  0.107900  1.0  0.092
  H  H52  1  0.663600  0.586500  0.108500  1.0  0.1083
  H  H53  1  0.692100  0.631900  0.328900  1.0  0.1164
  H  H54  1  0.941900  0.595300  0.137600  1.0  0.1148
  H  H55  1  0.869200  0.689200  0.324000  1.0  0.1168
  H  H56  1  0.930400  0.663100  0.296000  1.0  0.1153
  H  H57  1  0.663700  0.569500  0.301500  1.0  0.1902
  H  H58  1  0.978000  0.693000  0.266000  1.0  0.2787
  H  H59  1  0.694000  0.527000  0.274000  1.0  0.1543
  H  H60  1  0.589900  0.557800  0.147000  1.0  0.1133
  H  H61  1  0.350000  0.194500  0.620100  1.0  0.123
  H  H62  1  0.188300  0.151600  0.617300  1.0  0.1432
  H  H63  1  0.410800  0.162700  0.607900  1.0  0.092
  H  H64  1  0.163600  0.086500  0.608500  1.0  0.1083
  H  H65  1  0.192100  0.131900  0.828900  1.0  0.1164
  H  H66  1  0.441900  0.095300  0.637600  1.0  0.1148
  H  H67  1  0.369200  0.189200  0.824000  1.0  0.1168
  H  H68  1  0.430400  0.163100  0.796000  1.0  0.1153
  H  H69  1  0.163700  0.069500  0.801500  1.0  0.1902
  H  H70  1  0.478000  0.193000  0.766000  1.0  0.2787
  H  H71  1  0.194000  0.027000  0.774000  1.0  0.1543
  H  H72  1  0.089900  0.057800  0.647000  1.0  0.1133
  H  H73  1  0.850000  0.305500  0.879900  1.0  0.1234
  H  H74  1  0.688300  0.348400  0.882700  1.0  0.1433
  H  H75  1  0.910800  0.337300  0.892100  1.0  0.0919
  H  H76  1  0.663600  0.413500  0.891500  1.0  0.1089
  H  H77  1  0.692100  0.368100  0.671100  1.0  0.116
  H  H78  1  0.941900  0.404700  0.862400  1.0  0.115
  H  H79  1  0.869200  0.310800  0.676000  1.0  0.1172
  H  H80  1  0.930400  0.336900  0.704000  1.0  0.117
  H  H81  1  0.663700  0.430500  0.698500  1.0  0.19
  H  H82  1  0.978000  0.307000  0.734000  1.0  0.2755
  H  H83  1  0.694000  0.473000  0.726000  1.0  0.1547
  H  H84  1  0.589900  0.442200  0.853000  1.0  0.1138
  H  H85  1  0.350000  0.805500  0.379900  1.0  0.1234
  H  H86  1  0.188300  0.848400  0.382700  1.0  0.1433
  H  H87  1  0.410800  0.837300  0.392100  1.0  0.0919
  H  H88  1  0.163600  0.913500  0.391500  1.0  0.1089
  H  H89  1  0.192100  0.868100  0.171100  1.0  0.116
  H  H90  1  0.441900  0.904700  0.362400  1.0  0.115
  H  H91  1  0.369200  0.810800  0.176000  1.0  0.1172
  H  H92  1  0.430400  0.836900  0.204000  1.0  0.117
  H  H93  1  0.163700  0.930500  0.198500  1.0  0.19
  H  H94  1  0.478000  0.807000  0.234000  1.0  0.2755
  H  H95  1  0.194000  0.973000  0.226000  1.0  0.1547
  H  H96  1  0.089900  0.942200  0.353000  1.0  0.1138
  H  H97  1  0.150000  0.694500  0.879900  1.0  0.1231
  H  H98  1  0.311700  0.651600  0.882700  1.0  0.143
  H  H99  1  0.089200  0.662700  0.892100  1.0  0.0912
  H  H100  1  0.336400  0.586500  0.891500  1.0  0.1085
  H  H101  1  0.307900  0.631900  0.671100  1.0  0.116
  H  H102  1  0.058100  0.595300  0.862400  1.0  0.1147
  H  H103  1  0.130800  0.689200  0.676000  1.0  0.1174
  H  H104  1  0.069600  0.663100  0.704000  1.0  0.1169
  H  H105  1  0.336300  0.569500  0.698500  1.0  0.189
  H  H106  1  0.022000  0.693000  0.734000  1.0  0.2749
  H  H107  1  0.306000  0.527000  0.726000  1.0  0.1544
  H  H108  1  0.410100  0.557800  0.853000  1.0  0.1136
  H  H109  1  0.650000  0.194500  0.379900  1.0  0.1231
  H  H110  1  0.811700  0.151600  0.382700  1.0  0.143
  H  H111  1  0.589200  0.162700  0.392100  1.0  0.0912
  H  H112  1  0.836400  0.086500  0.391500  1.0  0.1085
  H  H113  1  0.807900  0.131900  0.171100  1.0  0.116
  H  H114  1  0.558100  0.095300  0.362400  1.0  0.1147
  H  H115  1  0.630800  0.189200  0.176000  1.0  0.1174
  H  H116  1  0.569600  0.163100  0.204000  1.0  0.1169
  H  H117  1  0.836300  0.069500  0.198500  1.0  0.189
  H  H118  1  0.522000  0.193000  0.234000  1.0  0.2749
  H  H119  1  0.806000  0.027000  0.226000  1.0  0.1544
  H  H120  1  0.910100  0.057800  0.353000  1.0  0.1136
  H  H121  1  0.850000  0.694500  0.879900  1.0  0.1233
  H  H122  1  0.688300  0.651600  0.882700  1.0  0.1432
  H  H123  1  0.910800  0.662700  0.892100  1.0  0.0917
  H  H124  1  0.663600  0.586500  0.891500  1.0  0.1085
  H  H125  1  0.692100  0.631900  0.671100  1.0  0.1161
  H  H126  1  0.941900  0.595300  0.862400  1.0  0.1149
  H  H127  1  0.869200  0.689200  0.676000  1.0  0.1173
  H  H128  1  0.930400  0.663100  0.704000  1.0  0.1168
  H  H129  1  0.663700  0.569500  0.698500  1.0  0.1894
  H  H130  1  0.978000  0.693000  0.734000  1.0  0.2783
  H  H131  1  0.694000  0.527000  0.726000  1.0  0.1547
  H  H132  1  0.589900  0.557800  0.853000  1.0  0.1135
  H  H133  1  0.350000  0.194500  0.379900  1.0  0.1233
  H  H134  1  0.188300  0.151600  0.382700  1.0  0.1432
  H  H135  1  0.410800  0.162700  0.392100  1.0  0.0917
  H  H136  1  0.163600  0.086500  0.391500  1.0  0.1085
  H  H137  1  0.192100  0.131900  0.171100  1.0  0.1161
  H  H138  1  0.441900  0.095300  0.362400  1.0  0.1149
  H  H139  1  0.369200  0.189200  0.176000  1.0  0.1173
  H  H140  1  0.430400  0.163100  0.204000  1.0  0.1168
  H  H141  1  0.163700  0.069500  0.198500  1.0  0.1894
  H  H142  1  0.478000  0.193000  0.234000  1.0  0.2783
  H  H143  1  0.194000  0.027000  0.226000  1.0  0.1547
  H  H144  1  0.089900  0.057800  0.353000  1.0  0.1135
  H  H145  1  0.150000  0.305500  0.879900  1.0  0.1231
  H  H146  1  0.311700  0.348400  0.882700  1.0  0.1433
  H  H147  1  0.089200  0.337300  0.892100  1.0  0.0915
  H  H148  1  0.336400  0.413500  0.891500  1.0  0.1088
  H  H149  1  0.307900  0.368100  0.671100  1.0  0.1159
  H  H150  1  0.058100  0.404700  0.862400  1.0  0.1148
  H  H151  1  0.130800  0.310800  0.676000  1.0  0.1172
  H  H152  1  0.069600  0.336900  0.704000  1.0  0.1174
  H  H153  1  0.336300  0.430500  0.698500  1.0  0.1895
  H  H154  1  0.022000  0.307000  0.734000  1.0  0.2733
  H  H155  1  0.306000  0.473000  0.726000  1.0  0.1543
  H  H156  1  0.410100  0.442200  0.853000  1.0  0.114
  H  H157  1  0.650000  0.805500  0.379900  1.0  0.1231
  H  H158  1  0.811700  0.848400  0.382700  1.0  0.1433
  H  H159  1  0.589200  0.837300  0.392100  1.0  0.0915
  H  H160  1  0.836400  0.913500  0.391500  1.0  0.1088
  H  H161  1  0.807900  0.868100  0.171100  1.0  0.1159
  H  H162  1  0.558100  0.904700  0.362400  1.0  0.1148
  H  H163  1  0.630800  0.810800  0.176000  1.0  0.1172
  H  H164  1  0.569600  0.836900  0.204000  1.0  0.1174
  H  H165  1  0.836300  0.930500  0.198500  1.0  0.1895
  H  H166  1  0.522000  0.807000  0.234000  1.0  0.2733
  H  H167  1  0.806000  0.973000  0.226000  1.0  0.1543
  H  H168  1  0.910100  0.942200  0.353000  1.0  0.114
  H  H169  1  0.150000  0.694500  0.120100  1.0  0.1231
  H  H170  1  0.311700  0.651600  0.117300  1.0  0.1433
  H  H171  1  0.089200  0.662700  0.107900  1.0  0.092
  H  H172  1  0.336400  0.586500  0.108500  1.0  0.1079
  H  H173  1  0.307900  0.631900  0.328900  1.0  0.1161
  H  H174  1  0.058100  0.595300  0.137600  1.0  0.1149
  H  H175  1  0.130800  0.689200  0.324000  1.0  0.117
  H  H176  1  0.069600  0.663100  0.296000  1.0  0.1146
  H  H177  1  0.336300  0.569500  0.301500  1.0  0.1901
  H  H178  1  0.022000  0.693000  0.266000  1.0  0.2754
  H  H179  1  0.306000  0.527000  0.274000  1.0  0.1541
  H  H180  1  0.410100  0.557800  0.147000  1.0  0.1134
  H  H181  1  0.650000  0.194500  0.620100  1.0  0.1231
  H  H182  1  0.811700  0.151600  0.617300  1.0  0.1433
  H  H183  1  0.589200  0.162700  0.607900  1.0  0.092
  H  H184  1  0.836400  0.086500  0.608500  1.0  0.1079
  H  H185  1  0.807900  0.131900  0.828900  1.0  0.1161
  H  H186  1  0.558100  0.095300  0.637600  1.0  0.1149
  H  H187  1  0.630800  0.189200  0.824000  1.0  0.117
  H  H188  1  0.569600  0.163100  0.796000  1.0  0.1146
  H  H189  1  0.836300  0.069500  0.801500  1.0  0.1901
  H  H190  1  0.522000  0.193000  0.766000  1.0  0.2754
  H  H191  1  0.806000  0.027000  0.774000  1.0  0.1541
  H  H192  1  0.910100  0.057800  0.647000  1.0  0.1134
  H  H193  1  0.850000  0.305500  0.120100  1.0  0.1227
  H  H194  1  0.688300  0.348400  0.117300  1.0  0.1432
  H  H195  1  0.910800  0.337300  0.107900  1.0  0.0919
  H  H196  1  0.663600  0.413500  0.108500  1.0  0.1084
  H  H197  1  0.692100  0.368100  0.328900  1.0  0.1165
  H  H198  1  0.941900  0.404700  0.137600  1.0  0.115
  H  H199  1  0.869200  0.310800  0.324000  1.0  0.1168
  H  H200  1  0.930400  0.336900  0.296000  1.0  0.1152
  H  H201  1  0.663700  0.430500  0.301500  1.0  0.1902
  H  H202  1  0.978000  0.307000  0.266000  1.0  0.2759
  H  H203  1  0.694000  0.473000  0.274000  1.0  0.1545
  H  H204  1  0.589900  0.442200  0.147000  1.0  0.1137
  H  H205  1  0.350000  0.805500  0.620100  1.0  0.1227
  H  H206  1  0.188300  0.848400  0.617300  1.0  0.1432
  H  H207  1  0.410800  0.837300  0.607900  1.0  0.0919
  H  H208  1  0.163600  0.913500  0.608500  1.0  0.1084
  H  H209  1  0.192100  0.868100  0.828900  1.0  0.1165
  H  H210  1  0.441900  0.904700  0.637600  1.0  0.115
  H  H211  1  0.369200  0.810800  0.824000  1.0  0.1168
  H  H212  1  0.430400  0.836900  0.796000  1.0  0.1152
  H  H213  1  0.163700  0.930500  0.801500  1.0  0.1902
  H  H214  1  0.478000  0.807000  0.766000  1.0  0.2759
  H  H215  1  0.194000  0.973000  0.774000  1.0  0.1545
  H  H216  1  0.089900  0.942200  0.647000  1.0  0.1137
  C  C217  1  0.134600  0.312400  0.156900  1.0  -0.1045
  C  C218  1  0.315600  0.364600  0.154200  1.0  -0.0961
  C  C219  1  0.074280  0.341070  0.202300  1.0  0.1693
  C  C220  1  0.097800  0.331200  0.151100  1.0  -0.0986
  C  C221  1  0.331800  0.403500  0.151300  1.0  -0.0828
  C  C222  1  0.341340  0.427300  0.203500  1.0  0.1233
  C  C223  1  0.313100  0.375700  0.284800  1.0  -0.1161
  C  C224  1  0.305100  0.353400  0.230200  1.0  -0.1744
  C  C225  1  0.034650  0.393260  0.151000  1.0  -0.0693
  C  C226  1  0.359700  0.464480  0.193100  1.0  -0.0663
  C  C227  1  0.394570  0.464220  0.149900  1.0  -0.1043
  C  C228  1  0.035910  0.359400  0.190300  1.0  -0.0022
  C  C229  1  0.123190  0.314900  0.279600  1.0  -0.0905
  C  C230  1  0.086700  0.331800  0.260800  1.0  -0.0388
  C  C231  1  0.145830  0.305110  0.225600  1.0  -0.1723
  C  C232  1  0.331200  0.413600  0.266000  1.0  -0.072
  C  C233  1  0.285200  0.314300  0.238600  1.0  0.473
  C  C234  1  0.186160  0.284340  0.241900  1.0  0.5843
  C  C235  1  0.634600  0.812400  0.656900  1.0  -0.1045
  C  C236  1  0.815600  0.864600  0.654200  1.0  -0.0961
  C  C237  1  0.574280  0.841070  0.702300  1.0  0.1693
  C  C238  1  0.597800  0.831200  0.651100  1.0  -0.0986
  C  C239  1  0.831800  0.903500  0.651300  1.0  -0.0828
  C  C240  1  0.841340  0.927300  0.703500  1.0  0.1233
  C  C241  1  0.813100  0.875700  0.784800  1.0  -0.1161
  C  C242  1  0.805100  0.853400  0.730200  1.0  -0.1744
  C  C243  1  0.534650  0.893260  0.651000  1.0  -0.0693
  C  C244  1  0.859700  0.964480  0.693100  1.0  -0.0663
  C  C245  1  0.894570  0.964220  0.649900  1.0  -0.1043
  C  C246  1  0.535910  0.859400  0.690300  1.0  -0.0022
  C  C247  1  0.623190  0.814900  0.779600  1.0  -0.0905
  C  C248  1  0.586700  0.831800  0.760800  1.0  -0.0388
  C  C249  1  0.645830  0.805110  0.725600  1.0  -0.1723
  C  C250  1  0.831200  0.913600  0.766000  1.0  -0.072
  C  C251  1  0.785200  0.814300  0.738600  1.0  0.473
  C  C252  1  0.686160  0.784340  0.741900  1.0  0.5843
  C  C253  1  0.865400  0.687600  0.156900  1.0  -0.1044
  C  C254  1  0.684400  0.635400  0.154200  1.0  -0.0976
  C  C255  1  0.925720  0.658930  0.202300  1.0  0.1702
  C  C256  1  0.902200  0.668800  0.151100  1.0  -0.0991
  C  C257  1  0.668200  0.596500  0.151300  1.0  -0.0832
  C  C258  1  0.658660  0.572700  0.203500  1.0  0.1225
  C  C259  1  0.686900  0.624300  0.284800  1.0  -0.1144
  C  C260  1  0.694900  0.646600  0.230200  1.0  -0.1754
  C  C261  1  0.965350  0.606740  0.151000  1.0  -0.0696
  C  C262  1  0.640300  0.535520  0.193100  1.0  -0.0667
  C  C263  1  0.605430  0.535780  0.149900  1.0  -0.105
  C  C264  1  0.964090  0.640600  0.190300  1.0  -0.0026
  C  C265  1  0.876810  0.685100  0.279600  1.0  -0.0917
  C  C266  1  0.913300  0.668200  0.260800  1.0  -0.0386
  C  C267  1  0.854170  0.694890  0.225600  1.0  -0.1725
  C  C268  1  0.668800  0.586400  0.266000  1.0  -0.0724
  C  C269  1  0.714800  0.685700  0.238600  1.0  0.4726
  C  C270  1  0.813840  0.715660  0.241900  1.0  0.5854
  C  C271  1  0.365400  0.187600  0.656900  1.0  -0.1044
  C  C272  1  0.184400  0.135400  0.654200  1.0  -0.0976
  C  C273  1  0.425720  0.158930  0.702300  1.0  0.1702
  C  C274  1  0.402200  0.168800  0.651100  1.0  -0.0991
  C  C275  1  0.168200  0.096500  0.651300  1.0  -0.0832
  C  C276  1  0.158660  0.072700  0.703500  1.0  0.1225
  C  C277  1  0.186900  0.124300  0.784800  1.0  -0.1144
  C  C278  1  0.194900  0.146600  0.730200  1.0  -0.1754
  C  C279  1  0.465350  0.106740  0.651000  1.0  -0.0696
  C  C280  1  0.140300  0.035520  0.693100  1.0  -0.0667
  C  C281  1  0.105430  0.035780  0.649900  1.0  -0.105
  C  C282  1  0.464090  0.140600  0.690300  1.0  -0.0026
  C  C283  1  0.376810  0.185100  0.779600  1.0  -0.0917
  C  C284  1  0.413300  0.168200  0.760800  1.0  -0.0386
  C  C285  1  0.354170  0.194890  0.725600  1.0  -0.1725
  C  C286  1  0.168800  0.086400  0.766000  1.0  -0.0724
  C  C287  1  0.214800  0.185700  0.738600  1.0  0.4726
  C  C288  1  0.313840  0.215660  0.741900  1.0  0.5854
  C  C289  1  0.865400  0.312400  0.843100  1.0  -0.1061
  C  C290  1  0.684400  0.364600  0.845800  1.0  -0.0969
  C  C291  1  0.925720  0.341070  0.797700  1.0  0.17
  C  C292  1  0.902200  0.331200  0.848900  1.0  -0.0957
  C  C293  1  0.668200  0.403500  0.848700  1.0  -0.0804
  C  C294  1  0.658660  0.427300  0.796500  1.0  0.1226
  C  C295  1  0.686900  0.375700  0.715200  1.0  -0.115
  C  C296  1  0.694900  0.353400  0.769800  1.0  -0.175
  C  C297  1  0.965350  0.393260  0.849000  1.0  -0.0702
  C  C298  1  0.640300  0.464480  0.806900  1.0  -0.0664
  C  C299  1  0.605430  0.464220  0.850100  1.0  -0.1056
  C  C300  1  0.964090  0.359400  0.809700  1.0  -0.0017
  C  C301  1  0.876810  0.314900  0.720400  1.0  -0.0895
  C  C302  1  0.913300  0.331800  0.739200  1.0  -0.0395
  C  C303  1  0.854170  0.305110  0.774400  1.0  -0.1721
  C  C304  1  0.668800  0.413600  0.734000  1.0  -0.0728
  C  C305  1  0.714800  0.314300  0.761400  1.0  0.4724
  C  C306  1  0.813840  0.284340  0.758100  1.0  0.5846
  C  C307  1  0.365400  0.812400  0.343100  1.0  -0.1061
  C  C308  1  0.184400  0.864600  0.345800  1.0  -0.0969
  C  C309  1  0.425720  0.841070  0.297700  1.0  0.17
  C  C310  1  0.402200  0.831200  0.348900  1.0  -0.0957
  C  C311  1  0.168200  0.903500  0.348700  1.0  -0.0804
  C  C312  1  0.158660  0.927300  0.296500  1.0  0.1226
  C  C313  1  0.186900  0.875700  0.215200  1.0  -0.115
  C  C314  1  0.194900  0.853400  0.269800  1.0  -0.175
  C  C315  1  0.465350  0.893260  0.349000  1.0  -0.0702
  C  C316  1  0.140300  0.964480  0.306900  1.0  -0.0664
  C  C317  1  0.105430  0.964220  0.350100  1.0  -0.1056
  C  C318  1  0.464090  0.859400  0.309700  1.0  -0.0017
  C  C319  1  0.376810  0.814900  0.220400  1.0  -0.0895
  C  C320  1  0.413300  0.831800  0.239200  1.0  -0.0395
  C  C321  1  0.354170  0.805110  0.274400  1.0  -0.1721
  C  C322  1  0.168800  0.913600  0.234000  1.0  -0.0728
  C  C323  1  0.214800  0.814300  0.261400  1.0  0.4724
  C  C324  1  0.313840  0.784340  0.258100  1.0  0.5846
  C  C325  1  0.134600  0.687600  0.843100  1.0  -0.104
  C  C326  1  0.315600  0.635400  0.845800  1.0  -0.0979
  C  C327  1  0.074280  0.658930  0.797700  1.0  0.1696
  C  C328  1  0.097800  0.668800  0.848900  1.0  -0.0958
  C  C329  1  0.331800  0.596500  0.848700  1.0  -0.0789
  C  C330  1  0.341340  0.572700  0.796500  1.0  0.1228
  C  C331  1  0.313100  0.624300  0.715200  1.0  -0.1176
  C  C332  1  0.305100  0.646600  0.769800  1.0  -0.1755
  C  C333  1  0.034650  0.606740  0.849000  1.0  -0.0682
  C  C334  1  0.359700  0.535520  0.806900  1.0  -0.066
  C  C335  1  0.394570  0.535780  0.850100  1.0  -0.1042
  C  C336  1  0.035910  0.640600  0.809700  1.0  -0.0018
  C  C337  1  0.123190  0.685100  0.720400  1.0  -0.0903
  C  C338  1  0.086700  0.668200  0.739200  1.0  -0.0379
  C  C339  1  0.145830  0.694890  0.774400  1.0  -0.1725
  C  C340  1  0.331200  0.586400  0.734000  1.0  -0.0721
  C  C341  1  0.285200  0.685700  0.761400  1.0  0.4738
  C  C342  1  0.186160  0.715660  0.758100  1.0  0.5843
  C  C343  1  0.634600  0.187600  0.343100  1.0  -0.104
  C  C344  1  0.815600  0.135400  0.345800  1.0  -0.0979
  C  C345  1  0.574280  0.158930  0.297700  1.0  0.1696
  C  C346  1  0.597800  0.168800  0.348900  1.0  -0.0958
  C  C347  1  0.831800  0.096500  0.348700  1.0  -0.0789
  C  C348  1  0.841340  0.072700  0.296500  1.0  0.1228
  C  C349  1  0.813100  0.124300  0.215200  1.0  -0.1176
  C  C350  1  0.805100  0.146600  0.269800  1.0  -0.1755
  C  C351  1  0.534650  0.106740  0.349000  1.0  -0.0682
  C  C352  1  0.859700  0.035520  0.306900  1.0  -0.066
  C  C353  1  0.894570  0.035780  0.350100  1.0  -0.1042
  C  C354  1  0.535910  0.140600  0.309700  1.0  -0.0018
  C  C355  1  0.623190  0.185100  0.220400  1.0  -0.0903
  C  C356  1  0.586700  0.168200  0.239200  1.0  -0.0379
  C  C357  1  0.645830  0.194890  0.274400  1.0  -0.1725
  C  C358  1  0.831200  0.086400  0.234000  1.0  -0.0721
  C  C359  1  0.785200  0.185700  0.261400  1.0  0.4738
  C  C360  1  0.686160  0.215660  0.258100  1.0  0.5843
  C  C361  1  0.865400  0.687600  0.843100  1.0  -0.1059
  C  C362  1  0.684400  0.635400  0.845800  1.0  -0.0975
  C  C363  1  0.925720  0.658930  0.797700  1.0  0.1699
  C  C364  1  0.902200  0.668800  0.848900  1.0  -0.0955
  C  C365  1  0.668200  0.596500  0.848700  1.0  -0.0793
  C  C366  1  0.658660  0.572700  0.796500  1.0  0.1223
  C  C367  1  0.686900  0.624300  0.715200  1.0  -0.1161
  C  C368  1  0.694900  0.646600  0.769800  1.0  -0.1758
  C  C369  1  0.965350  0.606740  0.849000  1.0  -0.0693
  C  C370  1  0.640300  0.535520  0.806900  1.0  -0.0663
  C  C371  1  0.605430  0.535780  0.850100  1.0  -0.1052
  C  C372  1  0.964090  0.640600  0.809700  1.0  -0.0021
  C  C373  1  0.876810  0.685100  0.720400  1.0  -0.09
  C  C374  1  0.913300  0.668200  0.739200  1.0  -0.0394
  C  C375  1  0.854170  0.694890  0.774400  1.0  -0.1722
  C  C376  1  0.668800  0.586400  0.734000  1.0  -0.0724
  C  C377  1  0.714800  0.685700  0.761400  1.0  0.4727
  C  C378  1  0.813840  0.715660  0.758100  1.0  0.585
  C  C379  1  0.365400  0.187600  0.343100  1.0  -0.1059
  C  C380  1  0.184400  0.135400  0.345800  1.0  -0.0975
  C  C381  1  0.425720  0.158930  0.297700  1.0  0.1699
  C  C382  1  0.402200  0.168800  0.348900  1.0  -0.0955
  C  C383  1  0.168200  0.096500  0.348700  1.0  -0.0793
  C  C384  1  0.158660  0.072700  0.296500  1.0  0.1223
  C  C385  1  0.186900  0.124300  0.215200  1.0  -0.1161
  C  C386  1  0.194900  0.146600  0.269800  1.0  -0.1758
  C  C387  1  0.465350  0.106740  0.349000  1.0  -0.0693
  C  C388  1  0.140300  0.035520  0.306900  1.0  -0.0663
  C  C389  1  0.105430  0.035780  0.350100  1.0  -0.1052
  C  C390  1  0.464090  0.140600  0.309700  1.0  -0.0021
  C  C391  1  0.376810  0.185100  0.220400  1.0  -0.09
  C  C392  1  0.413300  0.168200  0.239200  1.0  -0.0394
  C  C393  1  0.354170  0.194890  0.274400  1.0  -0.1722
  C  C394  1  0.168800  0.086400  0.234000  1.0  -0.0724
  C  C395  1  0.214800  0.185700  0.261400  1.0  0.4727
  C  C396  1  0.313840  0.215660  0.258100  1.0  0.585
  C  C397  1  0.134600  0.312400  0.843100  1.0  -0.1045
  C  C398  1  0.315600  0.364600  0.845800  1.0  -0.0973
  C  C399  1  0.074280  0.341070  0.797700  1.0  0.1691
  C  C400  1  0.097800  0.331200  0.848900  1.0  -0.096
  C  C401  1  0.331800  0.403500  0.848700  1.0  -0.0797
  C  C402  1  0.341340  0.427300  0.796500  1.0  0.1231
  C  C403  1  0.313100  0.375700  0.715200  1.0  -0.1166
  C  C404  1  0.305100  0.353400  0.769800  1.0  -0.1748
  C  C405  1  0.034650  0.393260  0.849000  1.0  -0.0692
  C  C406  1  0.359700  0.464480  0.806900  1.0  -0.0662
  C  C407  1  0.394570  0.464220  0.850100  1.0  -0.1044
  C  C408  1  0.035910  0.359400  0.809700  1.0  -0.0015
  C  C409  1  0.123190  0.314900  0.720400  1.0  -0.0899
  C  C410  1  0.086700  0.331800  0.739200  1.0  -0.0383
  C  C411  1  0.145830  0.305110  0.774400  1.0  -0.1722
  C  C412  1  0.331200  0.413600  0.734000  1.0  -0.0729
  C  C413  1  0.285200  0.314300  0.761400  1.0  0.4736
  C  C414  1  0.186160  0.284340  0.758100  1.0  0.5839
  C  C415  1  0.634600  0.812400  0.343100  1.0  -0.1045
  C  C416  1  0.815600  0.864600  0.345800  1.0  -0.0973
  C  C417  1  0.574280  0.841070  0.297700  1.0  0.1691
  C  C418  1  0.597800  0.831200  0.348900  1.0  -0.096
  C  C419  1  0.831800  0.903500  0.348700  1.0  -0.0797
  C  C420  1  0.841340  0.927300  0.296500  1.0  0.1231
  C  C421  1  0.813100  0.875700  0.215200  1.0  -0.1166
  C  C422  1  0.805100  0.853400  0.269800  1.0  -0.1748
  C  C423  1  0.534650  0.893260  0.349000  1.0  -0.0692
  C  C424  1  0.859700  0.964480  0.306900  1.0  -0.0662
  C  C425  1  0.894570  0.964220  0.350100  1.0  -0.1044
  C  C426  1  0.535910  0.859400  0.309700  1.0  -0.0015
  C  C427  1  0.623190  0.814900  0.220400  1.0  -0.0899
  C  C428  1  0.586700  0.831800  0.239200  1.0  -0.0383
  C  C429  1  0.645830  0.805110  0.274400  1.0  -0.1722
  C  C430  1  0.831200  0.913600  0.234000  1.0  -0.0729
  C  C431  1  0.785200  0.814300  0.261400  1.0  0.4736
  C  C432  1  0.686160  0.784340  0.258100  1.0  0.5839
  C  C433  1  0.134600  0.687600  0.156900  1.0  -0.1043
  C  C434  1  0.315600  0.635400  0.154200  1.0  -0.0967
  C  C435  1  0.074280  0.658930  0.202300  1.0  0.1697
  C  C436  1  0.097800  0.668800  0.151100  1.0  -0.0984
  C  C437  1  0.331800  0.596500  0.151300  1.0  -0.0827
  C  C438  1  0.341340  0.572700  0.203500  1.0  0.123
  C  C439  1  0.313100  0.624300  0.284800  1.0  -0.1166
  C  C440  1  0.305100  0.646600  0.230200  1.0  -0.1751
  C  C441  1  0.034650  0.606740  0.151000  1.0  -0.0685
  C  C442  1  0.359700  0.535520  0.193100  1.0  -0.0663
  C  C443  1  0.394570  0.535780  0.149900  1.0  -0.1036
  C  C444  1  0.035910  0.640600  0.190300  1.0  -0.0024
  C  C445  1  0.123190  0.685100  0.279600  1.0  -0.0905
  C  C446  1  0.086700  0.668200  0.260800  1.0  -0.038
  C  C447  1  0.145830  0.694890  0.225600  1.0  -0.1727
  C  C448  1  0.331200  0.586400  0.266000  1.0  -0.0714
  C  C449  1  0.285200  0.685700  0.238600  1.0  0.4734
  C  C450  1  0.186160  0.715660  0.241900  1.0  0.5847
  C  C451  1  0.634600  0.187600  0.656900  1.0  -0.1043
  C  C452  1  0.815600  0.135400  0.654200  1.0  -0.0967
  C  C453  1  0.574280  0.158930  0.702300  1.0  0.1697
  C  C454  1  0.597800  0.168800  0.651100  1.0  -0.0984
  C  C455  1  0.831800  0.096500  0.651300  1.0  -0.0827
  C  C456  1  0.841340  0.072700  0.703500  1.0  0.123
  C  C457  1  0.813100  0.124300  0.784800  1.0  -0.1166
  C  C458  1  0.805100  0.146600  0.730200  1.0  -0.1751
  C  C459  1  0.534650  0.106740  0.651000  1.0  -0.0685
  C  C460  1  0.859700  0.035520  0.693100  1.0  -0.0663
  C  C461  1  0.894570  0.035780  0.649900  1.0  -0.1036
  C  C462  1  0.535910  0.140600  0.690300  1.0  -0.0024
  C  C463  1  0.623190  0.185100  0.779600  1.0  -0.0905
  C  C464  1  0.586700  0.168200  0.760800  1.0  -0.038
  C  C465  1  0.645830  0.194890  0.725600  1.0  -0.1727
  C  C466  1  0.831200  0.086400  0.766000  1.0  -0.0714
  C  C467  1  0.785200  0.185700  0.738600  1.0  0.4734
  C  C468  1  0.686160  0.215660  0.741900  1.0  0.5847
  C  C469  1  0.865400  0.312400  0.156900  1.0  -0.1045
  C  C470  1  0.684400  0.364600  0.154200  1.0  -0.0971
  C  C471  1  0.925720  0.341070  0.202300  1.0  0.1704
  C  C472  1  0.902200  0.331200  0.151100  1.0  -0.0994
  C  C473  1  0.668200  0.403500  0.151300  1.0  -0.0832
  C  C474  1  0.658660  0.427300  0.203500  1.0  0.1228
  C  C475  1  0.686900  0.375700  0.284800  1.0  -0.1138
  C  C476  1  0.694900  0.353400  0.230200  1.0  -0.1746
  C  C477  1  0.965350  0.393260  0.151000  1.0  -0.0702
  C  C478  1  0.640300  0.464480  0.193100  1.0  -0.0666
  C  C479  1  0.605430  0.464220  0.149900  1.0  -0.1058
  C  C480  1  0.964090  0.359400  0.190300  1.0  -0.0023
  C  C481  1  0.876810  0.314900  0.279600  1.0  -0.0915
  C  C482  1  0.913300  0.331800  0.260800  1.0  -0.039
  C  C483  1  0.854170  0.305110  0.225600  1.0  -0.1725
  C  C484  1  0.668800  0.413600  0.266000  1.0  -0.0731
  C  C485  1  0.714800  0.314300  0.238600  1.0  0.4721
  C  C486  1  0.813840  0.284340  0.241900  1.0  0.5851
  C  C487  1  0.365400  0.812400  0.656900  1.0  -0.1045
  C  C488  1  0.184400  0.864600  0.654200  1.0  -0.0971
  C  C489  1  0.425720  0.841070  0.702300  1.0  0.1704
  C  C490  1  0.402200  0.831200  0.651100  1.0  -0.0994
  C  C491  1  0.168200  0.903500  0.651300  1.0  -0.0832
  C  C492  1  0.158660  0.927300  0.703500  1.0  0.1228
  C  C493  1  0.186900  0.875700  0.784800  1.0  -0.1138
  C  C494  1  0.194900  0.853400  0.730200  1.0  -0.1746
  C  C495  1  0.465350  0.893260  0.651000  1.0  -0.0702
  C  C496  1  0.140300  0.964480  0.693100  1.0  -0.0666
  C  C497  1  0.105430  0.964220  0.649900  1.0  -0.1058
  C  C498  1  0.464090  0.859400  0.690300  1.0  -0.0023
  C  C499  1  0.376810  0.814900  0.779600  1.0  -0.0915
  C  C500  1  0.413300  0.831800  0.760800  1.0  -0.039
  C  C501  1  0.354170  0.805110  0.725600  1.0  -0.1725
  C  C502  1  0.168800  0.913600  0.766000  1.0  -0.0731
  C  C503  1  0.214800  0.814300  0.738600  1.0  0.4721
  C  C504  1  0.313840  0.784340  0.741900  1.0  0.5851
  C  C505  1  0.000000  0.410300  0.131500  1.0  -0.1198
  C  C506  1  0.000000  0.342300  0.213400  1.0  0.1799
  C  C507  1  0.000000  0.446800  0.087400  1.0  0.6751
  C  C508  1  0.500000  0.910300  0.631500  1.0  -0.1198
  C  C509  1  0.500000  0.842300  0.713400  1.0  0.1799
  C  C510  1  0.500000  0.946800  0.587400  1.0  0.6751
  C  C511  1  0.000000  0.589700  0.131500  1.0  -0.1201
  C  C512  1  0.000000  0.657700  0.213400  1.0  0.1799
  C  C513  1  0.000000  0.553200  0.087400  1.0  0.6757
  C  C514  1  0.500000  0.089700  0.631500  1.0  -0.1201
  C  C515  1  0.500000  0.157700  0.713400  1.0  0.1799
  C  C516  1  0.500000  0.053200  0.587400  1.0  0.6757
  C  C517  1  0.000000  0.410300  0.868500  1.0  -0.1199
  C  C518  1  0.000000  0.342300  0.786600  1.0  0.1785
  C  C519  1  0.000000  0.446800  0.912600  1.0  0.6748
  C  C520  1  0.500000  0.910300  0.368500  1.0  -0.1199
  C  C521  1  0.500000  0.842300  0.286600  1.0  0.1785
  C  C522  1  0.500000  0.946800  0.412600  1.0  0.6748
  C  C523  1  0.000000  0.589700  0.868500  1.0  -0.12
  C  C524  1  0.000000  0.657700  0.786600  1.0  0.1785
  C  C525  1  0.000000  0.553200  0.912600  1.0  0.6753
  C  C526  1  0.500000  0.089700  0.368500  1.0  -0.12
  C  C527  1  0.500000  0.157700  0.286600  1.0  0.1785
  C  C528  1  0.500000  0.053200  0.412600  1.0  0.6753
  C  C529  1  0.411600  0.500000  0.131400  1.0  -0.0546
  C  C530  1  0.342500  0.500000  0.209700  1.0  0.0579
  C  C531  1  0.446900  0.500000  0.090600  1.0  0.674
  C  C532  1  0.911600  0.000000  0.631400  1.0  -0.0546
  C  C533  1  0.842500  0.000000  0.709700  1.0  0.0579
  C  C534  1  0.946900  0.000000  0.590600  1.0  0.674
  C  C535  1  0.588400  0.500000  0.131400  1.0  -0.0547
  C  C536  1  0.657500  0.500000  0.209700  1.0  0.0592
  C  C537  1  0.553100  0.500000  0.090600  1.0  0.6722
  C  C538  1  0.088400  0.000000  0.631400  1.0  -0.0547
  C  C539  1  0.157500  0.000000  0.709700  1.0  0.0592
  C  C540  1  0.053100  0.000000  0.590600  1.0  0.6722
  C  C541  1  0.588400  0.500000  0.868600  1.0  -0.0546
  C  C542  1  0.657500  0.500000  0.790300  1.0  0.0601
  C  C543  1  0.553100  0.500000  0.909400  1.0  0.6712
  C  C544  1  0.088400  0.000000  0.368600  1.0  -0.0546
  C  C545  1  0.157500  0.000000  0.290300  1.0  0.0601
  C  C546  1  0.053100  0.000000  0.409400  1.0  0.6712
  C  C547  1  0.411600  0.500000  0.868600  1.0  -0.0548
  C  C548  1  0.342500  0.500000  0.790300  1.0  0.0594
  C  C549  1  0.446900  0.500000  0.909400  1.0  0.6729
  C  C550  1  0.911600  0.000000  0.368600  1.0  -0.0548
  C  C551  1  0.842500  0.000000  0.290300  1.0  0.0594
  C  C552  1  0.946900  0.000000  0.409400  1.0  0.6729
  N  N553  1  0.000000  0.308700  0.248600  1.0  -0.5015
  N  N554  1  0.500000  0.808700  0.748600  1.0  -0.5015
  N  N555  1  0.000000  0.691300  0.248600  1.0  -0.5049
  N  N556  1  0.500000  0.191300  0.748600  1.0  -0.5049
  N  N557  1  0.000000  0.308700  0.751400  1.0  -0.5018
  N  N558  1  0.500000  0.808700  0.251400  1.0  -0.5018
  N  N559  1  0.000000  0.691300  0.751400  1.0  -0.5055
  N  N560  1  0.500000  0.191300  0.251400  1.0  -0.5055
  N  N561  1  0.308300  0.500000  0.252000  1.0  -0.3505
  N  N562  1  0.808300  0.000000  0.752000  1.0  -0.3505
  N  N563  1  0.691700  0.500000  0.252000  1.0  -0.3502
  N  N564  1  0.191700  0.000000  0.752000  1.0  -0.3502
  N  N565  1  0.691700  0.500000  0.748000  1.0  -0.3483
  N  N566  1  0.191700  0.000000  0.248000  1.0  -0.3483
  N  N567  1  0.308300  0.500000  0.748000  1.0  -0.3489
  N  N568  1  0.808300  0.000000  0.248000  1.0  -0.3489
  O  O569  1  0.197850  0.280480  0.300700  1.0  -0.5569
  O  O570  1  0.458420  0.467010  0.066000  1.0  -0.5865
  O  O571  1  0.033120  0.459240  0.067700  1.0  -0.5611
  O  O572  1  0.273890  0.302990  0.303700  1.0  -0.5706
  O  O573  1  0.281610  0.297610  0.191700  1.0  -0.5688
  O  O574  1  0.204070  0.272370  0.183200  1.0  -0.5754
  O  O575  1  0.697850  0.780480  0.800700  1.0  -0.5569
  O  O576  1  0.958420  0.967010  0.566000  1.0  -0.5865
  O  O577  1  0.533120  0.959240  0.567700  1.0  -0.5611
  O  O578  1  0.773890  0.802990  0.803700  1.0  -0.5706
  O  O579  1  0.781610  0.797610  0.691700  1.0  -0.5688
  O  O580  1  0.704070  0.772370  0.683200  1.0  -0.5754
  O  O581  1  0.802150  0.719520  0.300700  1.0  -0.5565
  O  O582  1  0.541580  0.532990  0.066000  1.0  -0.5868
  O  O583  1  0.966880  0.540760  0.067700  1.0  -0.5611
  O  O584  1  0.726110  0.697010  0.303700  1.0  -0.5719
  O  O585  1  0.718390  0.702390  0.191700  1.0  -0.5684
  O  O586  1  0.795930  0.727630  0.183200  1.0  -0.5754
  O  O587  1  0.302150  0.219520  0.800700  1.0  -0.5565
  O  O588  1  0.041580  0.032990  0.566000  1.0  -0.5868
  O  O589  1  0.466880  0.040760  0.567700  1.0  -0.5611
  O  O590  1  0.226110  0.197010  0.803700  1.0  -0.5719
  O  O591  1  0.218390  0.202390  0.691700  1.0  -0.5684
  O  O592  1  0.295930  0.227630  0.683200  1.0  -0.5754
  O  O593  1  0.802150  0.280480  0.699300  1.0  -0.5566
  O  O594  1  0.541580  0.467010  0.934000  1.0  -0.5863
  O  O595  1  0.966880  0.459240  0.932300  1.0  -0.5609
  O  O596  1  0.726110  0.302990  0.696300  1.0  -0.5752
  O  O597  1  0.718390  0.297610  0.808300  1.0  -0.5667
  O  O598  1  0.795930  0.272370  0.816800  1.0  -0.5732
  O  O599  1  0.302150  0.780480  0.199300  1.0  -0.5566
  O  O600  1  0.041580  0.967010  0.434000  1.0  -0.5863
  O  O601  1  0.466880  0.959240  0.432300  1.0  -0.5609
  O  O602  1  0.226110  0.802990  0.196300  1.0  -0.5752
  O  O603  1  0.218390  0.797610  0.308300  1.0  -0.5667
  O  O604  1  0.295930  0.772370  0.316800  1.0  -0.5732
  O  O605  1  0.197850  0.719520  0.699300  1.0  -0.5569
  O  O606  1  0.458420  0.532990  0.934000  1.0  -0.587
  O  O607  1  0.033120  0.540760  0.932300  1.0  -0.5613
  O  O608  1  0.273890  0.697010  0.696300  1.0  -0.5745
  O  O609  1  0.281610  0.702390  0.808300  1.0  -0.5665
  O  O610  1  0.204070  0.727630  0.816800  1.0  -0.5729
  O  O611  1  0.697850  0.219520  0.199300  1.0  -0.5569
  O  O612  1  0.958420  0.032990  0.434000  1.0  -0.587
  O  O613  1  0.533120  0.040760  0.432300  1.0  -0.5613
  O  O614  1  0.773890  0.197010  0.196300  1.0  -0.5745
  O  O615  1  0.781610  0.202390  0.308300  1.0  -0.5665
  O  O616  1  0.704070  0.227630  0.316800  1.0  -0.5729
  O  O617  1  0.802150  0.719520  0.699300  1.0  -0.5564
  O  O618  1  0.541580  0.532990  0.934000  1.0  -0.5863
  O  O619  1  0.966880  0.540760  0.932300  1.0  -0.5609
  O  O620  1  0.726110  0.697010  0.696300  1.0  -0.5749
  O  O621  1  0.718390  0.702390  0.808300  1.0  -0.5674
  O  O622  1  0.795930  0.727630  0.816800  1.0  -0.5727
  O  O623  1  0.302150  0.219520  0.199300  1.0  -0.5564
  O  O624  1  0.041580  0.032990  0.434000  1.0  -0.5863
  O  O625  1  0.466880  0.040760  0.432300  1.0  -0.5609
  O  O626  1  0.226110  0.197010  0.196300  1.0  -0.5749
  O  O627  1  0.218390  0.202390  0.308300  1.0  -0.5674
  O  O628  1  0.295930  0.227630  0.316800  1.0  -0.5727
  O  O629  1  0.197850  0.280480  0.699300  1.0  -0.5571
  O  O630  1  0.458420  0.467010  0.934000  1.0  -0.5867
  O  O631  1  0.033120  0.459240  0.932300  1.0  -0.5609
  O  O632  1  0.273890  0.302990  0.696300  1.0  -0.5735
  O  O633  1  0.281610  0.297610  0.808300  1.0  -0.567
  O  O634  1  0.204070  0.272370  0.816800  1.0  -0.5734
  O  O635  1  0.697850  0.780480  0.199300  1.0  -0.5571
  O  O636  1  0.958420  0.967010  0.434000  1.0  -0.5867
  O  O637  1  0.533120  0.959240  0.432300  1.0  -0.5609
  O  O638  1  0.773890  0.802990  0.196300  1.0  -0.5735
  O  O639  1  0.781610  0.797610  0.308300  1.0  -0.567
  O  O640  1  0.704070  0.772370  0.316800  1.0  -0.5734
  O  O641  1  0.197850  0.719520  0.300700  1.0  -0.5573
  O  O642  1  0.458420  0.532990  0.066000  1.0  -0.5875
  O  O643  1  0.033120  0.540760  0.067700  1.0  -0.5612
  O  O644  1  0.273890  0.697010  0.303700  1.0  -0.5705
  O  O645  1  0.281610  0.702390  0.191700  1.0  -0.5686
  O  O646  1  0.204070  0.727630  0.183200  1.0  -0.5752
  O  O647  1  0.697850  0.219520  0.800700  1.0  -0.5573
  O  O648  1  0.958420  0.032990  0.566000  1.0  -0.5875
  O  O649  1  0.533120  0.040760  0.567700  1.0  -0.5612
  O  O650  1  0.773890  0.197010  0.803700  1.0  -0.5705
  O  O651  1  0.781610  0.202390  0.691700  1.0  -0.5686
  O  O652  1  0.704070  0.227630  0.683200  1.0  -0.5752
  O  O653  1  0.802150  0.280480  0.300700  1.0  -0.5563
  O  O654  1  0.541580  0.467010  0.066000  1.0  -0.5863
  O  O655  1  0.966880  0.459240  0.067700  1.0  -0.5612
  O  O656  1  0.726110  0.302990  0.303700  1.0  -0.5712
  O  O657  1  0.718390  0.297610  0.191700  1.0  -0.5693
  O  O658  1  0.795930  0.272370  0.183200  1.0  -0.5757
  O  O659  1  0.302150  0.780480  0.800700  1.0  -0.5563
  O  O660  1  0.041580  0.967010  0.566000  1.0  -0.5861
  O  O661  1  0.466880  0.959240  0.567700  1.0  -0.5612
  O  O662  1  0.226110  0.802990  0.803700  1.0  -0.5712
  O  O663  1  0.218390  0.797610  0.691700  1.0  -0.5693
  O  O664  1  0.295930  0.772370  0.683200  1.0  -0.5757
