# generated using pymatgen
data_VC8O5
_symmetry_space_group_name_H-M   'P 1'
_cell_length_a   17.69560000
_cell_length_b   6.87450000
_cell_length_c   11.93030000
_cell_angle_alpha   90.00000000
_cell_angle_beta   90.00000000
_cell_angle_gamma   90.00000000
_symmetry_Int_Tables_number   1
_chemical_formula_structural   VC8O5
_chemical_formula_sum   'V4 C32 O20'
_cell_volume   1451.30193277
_cell_formula_units_Z   4
loop_
 _symmetry_equiv_pos_site_id
 _symmetry_equiv_pos_as_xyz
  1  'x, y, z'
loop_
 _atom_site_type_symbol
 _atom_site_label
 _atom_site_symmetry_multiplicity
 _atom_site_fract_x
 _atom_site_fract_y
 _atom_site_fract_z
 _atom_site_occupancy
 _atom_site_charge
  V  V1  1  0.000000  0.000000  0.000000  1.0  1.8018
  V  V2  1  0.500000  0.000000  0.500000  1.0  1.8018
  V  V3  1  0.000000  0.500000  0.000000  1.0  1.8018
  V  V4  1  0.500000  0.500000  0.500000  1.0  1.8018
  C  C5  1  0.206800  0.074300  0.760600  1.0  -0.0476
  C  C6  1  0.274300  0.074300  0.702900  1.0  -0.0419
  C  C7  1  0.293200  0.925700  0.260600  1.0  -0.0482
  C  C8  1  0.225700  0.925700  0.202900  1.0  -0.041
  C  C9  1  0.793200  0.574300  0.239400  1.0  -0.0479
  C  C10  1  0.725700  0.574300  0.297100  1.0  -0.0414
  C  C11  1  0.706800  0.425700  0.739400  1.0  -0.0501
  C  C12  1  0.774300  0.425700  0.797100  1.0  -0.0414
  C  C13  1  0.793200  0.925700  0.239400  1.0  -0.048
  C  C14  1  0.725700  0.925700  0.297100  1.0  -0.0398
  C  C15  1  0.706800  0.074300  0.739400  1.0  -0.0477
  C  C16  1  0.774300  0.074300  0.797100  1.0  -0.0406
  C  C17  1  0.206800  0.425700  0.760600  1.0  -0.0491
  C  C18  1  0.274300  0.425700  0.702900  1.0  -0.0421
  C  C19  1  0.293200  0.574300  0.260600  1.0  -0.0468
  C  C20  1  0.225700  0.574300  0.202900  1.0  -0.0427
  C  C21  1  0.100900  0.250000  0.857100  1.0  0.7018
  C  C22  1  0.172600  0.250000  0.789600  1.0  -0.0433
  C  C23  1  0.308300  0.250000  0.674700  1.0  -0.0352
  C  C24  1  0.383600  0.250000  0.613600  1.0  0.7102
  C  C25  1  0.399100  0.750000  0.357100  1.0  0.7024
  C  C26  1  0.327400  0.750000  0.289600  1.0  -0.0446
  C  C27  1  0.191700  0.750000  0.174700  1.0  -0.0346
  C  C28  1  0.116400  0.750000  0.113600  1.0  0.7068
  C  C29  1  0.899100  0.750000  0.142900  1.0  0.7034
  C  C30  1  0.827400  0.750000  0.210400  1.0  -0.0437
  C  C31  1  0.691700  0.750000  0.325300  1.0  -0.0349
  C  C32  1  0.616400  0.750000  0.386400  1.0  0.7066
  C  C33  1  0.600900  0.250000  0.642900  1.0  0.7028
  C  C34  1  0.672600  0.250000  0.710400  1.0  -0.0426
  C  C35  1  0.808300  0.250000  0.825300  1.0  -0.0354
  C  C36  1  0.883600  0.250000  0.886400  1.0  0.7099
  O  O37  1  0.074070  0.086400  0.883100  1.0  -0.5886
  O  O38  1  0.411470  0.085900  0.591000  1.0  -0.5641
  O  O39  1  0.425930  0.913600  0.383100  1.0  -0.5869
  O  O40  1  0.088530  0.914100  0.091000  1.0  -0.5626
  O  O41  1  0.925930  0.586400  0.116900  1.0  -0.5869
  O  O42  1  0.588530  0.585900  0.409000  1.0  -0.5643
  O  O43  1  0.574070  0.413600  0.616900  1.0  -0.5874
  O  O44  1  0.911470  0.414100  0.909000  1.0  -0.5625
  O  O45  1  0.925930  0.913600  0.116900  1.0  -0.5875
  O  O46  1  0.588530  0.914100  0.409000  1.0  -0.5627
  O  O47  1  0.574070  0.086400  0.616900  1.0  -0.5877
  O  O48  1  0.911470  0.085900  0.909000  1.0  -0.5638
  O  O49  1  0.074070  0.413600  0.883100  1.0  -0.5877
  O  O50  1  0.411470  0.414100  0.591000  1.0  -0.5625
  O  O51  1  0.425930  0.586400  0.383100  1.0  -0.5877
  O  O52  1  0.088530  0.585900  0.091000  1.0  -0.5646
  O  O53  1  0.006400  0.250000  0.073800  1.0  -0.6518
  O  O54  1  0.493600  0.750000  0.573800  1.0  -0.6514
  O  O55  1  0.993600  0.750000  0.926200  1.0  -0.6547
  O  O56  1  0.506400  0.250000  0.426200  1.0  -0.6552
