# generated using pymatgen
data_Cu2SiH12(C9O4)2
_symmetry_space_group_name_H-M   'P 1'
_cell_length_a   18.51850000
_cell_length_b   18.51850000
_cell_length_c   19.12150000
_cell_angle_alpha   90.00000000
_cell_angle_beta   90.00000000
_cell_angle_gamma   120.00000000
_symmetry_Int_Tables_number   1
_chemical_formula_structural   Cu2SiH12(C9O4)2
_chemical_formula_sum   'Cu12 Si6 H72 C108 O48'
_cell_volume   5678.89973905
_cell_formula_units_Z   6
loop_
 _symmetry_equiv_pos_site_id
 _symmetry_equiv_pos_as_xyz
  1  'x, y, z'
loop_
 _atom_site_type_symbol
 _atom_site_label
 _atom_site_symmetry_multiplicity
 _atom_site_fract_x
 _atom_site_fract_y
 _atom_site_fract_z
 _atom_site_occupancy
 _atom_site_charge
  Cu  Cu1  1  0.476420  0.952840  0.056260  1.0  0.8993
  Cu  Cu2  1  0.047160  0.523580  0.056260  1.0  0.899
  Cu  Cu3  1  0.476420  0.523580  0.056260  1.0  0.8983
  Cu  Cu4  1  0.523580  0.047160  0.556260  1.0  0.9001
  Cu  Cu5  1  0.952840  0.476420  0.556260  1.0  0.8982
  Cu  Cu6  1  0.523580  0.476420  0.556260  1.0  0.8987
  Cu  Cu7  1  0.952840  0.476420  0.943740  1.0  0.8983
  Cu  Cu8  1  0.523580  0.047160  0.943740  1.0  0.8992
  Cu  Cu9  1  0.523580  0.476420  0.943740  1.0  0.8973
  Cu  Cu10  1  0.047160  0.523580  0.443740  1.0  0.8976
  Cu  Cu11  1  0.476420  0.952840  0.443740  1.0  0.8998
  Cu  Cu12  1  0.476420  0.523580  0.443740  1.0  0.8988
  Si  Si13  1  0.265650  0.132830  0.250000  1.0  1.0316
  Si  Si14  1  0.867180  0.132820  0.250000  1.0  1.0316
  Si  Si15  1  0.867180  0.734350  0.250000  1.0  1.0315
  Si  Si16  1  0.734350  0.867180  0.750000  1.0  1.0302
  Si  Si17  1  0.132830  0.867180  0.750000  1.0  1.0303
  Si  Si18  1  0.132830  0.265650  0.750000  1.0  1.0333
  H  H19  1  0.346900  0.064600  0.161900  1.0  0.1045
  H  H20  1  0.163900  0.165500  0.208200  1.0  0.134
  H  H21  1  0.935400  0.282300  0.161900  1.0  0.1043
  H  H22  1  0.834500  0.998400  0.208200  1.0  0.1346
  H  H23  1  0.717700  0.653100  0.161900  1.0  0.1037
  H  H24  1  0.001600  0.836100  0.208200  1.0  0.1344
  H  H25  1  0.653100  0.935400  0.661900  1.0  0.1047
  H  H26  1  0.836100  0.834500  0.708200  1.0  0.1347
  H  H27  1  0.064600  0.717700  0.661900  1.0  0.1036
  H  H28  1  0.165500  0.001600  0.708200  1.0  0.1342
  H  H29  1  0.282300  0.346900  0.661900  1.0  0.1043
  H  H30  1  0.998400  0.163900  0.708200  1.0  0.1339
  H  H31  1  0.064600  0.346900  0.838100  1.0  0.1038
  H  H32  1  0.165500  0.163900  0.791800  1.0  0.1341
  H  H33  1  0.282300  0.935400  0.838100  1.0  0.1049
  H  H34  1  0.998400  0.834500  0.791800  1.0  0.1344
  H  H35  1  0.653100  0.717700  0.838100  1.0  0.1043
  H  H36  1  0.836100  0.001600  0.791800  1.0  0.1341
  H  H37  1  0.935400  0.653100  0.338100  1.0  0.1042
  H  H38  1  0.834500  0.836100  0.291800  1.0  0.1343
  H  H39  1  0.717700  0.064600  0.338100  1.0  0.1046
  H  H40  1  0.001600  0.165500  0.291800  1.0  0.1341
  H  H41  1  0.346900  0.282300  0.338100  1.0  0.104
  H  H42  1  0.163900  0.998400  0.291800  1.0  0.1346
  H  H43  1  0.653100  0.935400  0.838100  1.0  0.1047
  H  H44  1  0.836100  0.834500  0.791800  1.0  0.1341
  H  H45  1  0.064600  0.717700  0.838100  1.0  0.1035
  H  H46  1  0.165500  0.001600  0.791800  1.0  0.1342
  H  H47  1  0.282300  0.346900  0.838100  1.0  0.1045
  H  H48  1  0.998400  0.163900  0.791800  1.0  0.1343
  H  H49  1  0.346900  0.064600  0.338100  1.0  0.1046
  H  H50  1  0.163900  0.165500  0.291800  1.0  0.1344
  H  H51  1  0.935400  0.282300  0.338100  1.0  0.1044
  H  H52  1  0.834500  0.998400  0.291800  1.0  0.1347
  H  H53  1  0.717700  0.653100  0.338100  1.0  0.1037
  H  H54  1  0.001600  0.836100  0.291800  1.0  0.1341
  H  H55  1  0.935400  0.653100  0.161900  1.0  0.1039
  H  H56  1  0.834500  0.836100  0.208200  1.0  0.134
  H  H57  1  0.717700  0.064600  0.161900  1.0  0.1046
  H  H58  1  0.001600  0.165500  0.208200  1.0  0.1346
  H  H59  1  0.346900  0.282300  0.161900  1.0  0.1039
  H  H60  1  0.163900  0.998400  0.208200  1.0  0.1344
  H  H61  1  0.064600  0.346900  0.661900  1.0  0.1039
  H  H62  1  0.165500  0.163900  0.708200  1.0  0.1343
  H  H63  1  0.282300  0.935400  0.661900  1.0  0.1049
  H  H64  1  0.998400  0.834500  0.708200  1.0  0.1341
  H  H65  1  0.653100  0.717700  0.661900  1.0  0.1042
  H  H66  1  0.836100  0.001600  0.708200  1.0  0.1342
  H  H67  1  0.477600  0.238800  0.015900  1.0  0.1207
  H  H68  1  0.761200  0.238800  0.015900  1.0  0.121
  H  H69  1  0.761200  0.522400  0.015900  1.0  0.1212
  H  H70  1  0.522400  0.761200  0.515900  1.0  0.1206
  H  H71  1  0.238800  0.761200  0.515900  1.0  0.1206
  H  H72  1  0.238800  0.477600  0.515900  1.0  0.1208
  H  H73  1  0.238800  0.477600  0.984100  1.0  0.1214
  H  H74  1  0.238800  0.761200  0.984100  1.0  0.1211
  H  H75  1  0.522400  0.761200  0.984100  1.0  0.1213
  H  H76  1  0.761200  0.522400  0.484100  1.0  0.1214
  H  H77  1  0.761200  0.238800  0.484100  1.0  0.121
  H  H78  1  0.477600  0.238800  0.484100  1.0  0.1208
  H  H79  1  0.234900  0.243600  0.250000  1.0  0.1386
  H  H80  1  0.756400  0.991300  0.250000  1.0  0.1379
  H  H81  1  0.008700  0.765100  0.250000  1.0  0.1381
  H  H82  1  0.765100  0.756400  0.750000  1.0  0.1384
  H  H83  1  0.243600  0.008700  0.750000  1.0  0.138
  H  H84  1  0.991300  0.234900  0.750000  1.0  0.1389
  H  H85  1  0.243600  0.234900  0.750000  1.0  0.1382
  H  H86  1  0.991300  0.756400  0.750000  1.0  0.138
  H  H87  1  0.765100  0.008700  0.750000  1.0  0.1379
  H  H88  1  0.756400  0.765100  0.250000  1.0  0.1383
  H  H89  1  0.008700  0.243600  0.250000  1.0  0.1389
  H  H90  1  0.234900  0.991300  0.250000  1.0  0.1384
  C  C91  1  0.364400  0.117900  0.142110  1.0  0.0092
  C  C92  1  0.417900  0.144370  0.084940  1.0  -0.1328
  C  C93  1  0.448500  0.090000  0.054020  1.0  0.6985
  C  C94  1  0.882100  0.246500  0.142110  1.0  0.0071
  C  C95  1  0.855630  0.273530  0.084940  1.0  -0.1325
  C  C96  1  0.910000  0.358500  0.054020  1.0  0.6985
  C  C97  1  0.753500  0.635600  0.142110  1.0  0.0073
  C  C98  1  0.726470  0.582100  0.084940  1.0  -0.1332
  C  C99  1  0.641500  0.551500  0.054020  1.0  0.6991
  C  C100  1  0.635600  0.882100  0.642110  1.0  0.0085
  C  C101  1  0.582100  0.855630  0.584940  1.0  -0.1334
  C  C102  1  0.551500  0.910000  0.554020  1.0  0.699
  C  C103  1  0.117900  0.753500  0.642110  1.0  0.0073
  C  C104  1  0.144370  0.726470  0.584940  1.0  -0.1331
  C  C105  1  0.090000  0.641500  0.554020  1.0  0.6986
  C  C106  1  0.246500  0.364400  0.642110  1.0  0.0077
  C  C107  1  0.273530  0.417900  0.584940  1.0  -0.1328
  C  C108  1  0.358500  0.448500  0.554020  1.0  0.6984
  C  C109  1  0.117900  0.364400  0.857890  1.0  0.0074
  C  C110  1  0.144370  0.417900  0.915060  1.0  -0.1331
  C  C111  1  0.090000  0.448500  0.945980  1.0  0.6996
  C  C112  1  0.246500  0.882100  0.857890  1.0  0.0087
  C  C113  1  0.273530  0.855630  0.915060  1.0  -0.133
  C  C114  1  0.358500  0.910000  0.945980  1.0  0.6991
  C  C115  1  0.635600  0.753500  0.857890  1.0  0.0075
  C  C116  1  0.582100  0.726470  0.915060  1.0  -0.133
  C  C117  1  0.551500  0.641500  0.945980  1.0  0.6987
  C  C118  1  0.882100  0.635600  0.357890  1.0  0.0077
  C  C119  1  0.855630  0.582100  0.415060  1.0  -0.1328
  C  C120  1  0.910000  0.551500  0.445980  1.0  0.6985
  C  C121  1  0.753500  0.117900  0.357890  1.0  0.0096
  C  C122  1  0.726470  0.144370  0.415060  1.0  -0.1335
  C  C123  1  0.641500  0.090000  0.445980  1.0  0.6989
  C  C124  1  0.364400  0.246500  0.357890  1.0  0.0073
  C  C125  1  0.417900  0.273530  0.415060  1.0  -0.1325
  C  C126  1  0.448500  0.358500  0.445980  1.0  0.6991
  C  C127  1  0.635600  0.882100  0.857890  1.0  0.0088
  C  C128  1  0.582100  0.855630  0.915060  1.0  -0.1339
  C  C129  1  0.551500  0.910000  0.945980  1.0  0.6992
  C  C130  1  0.117900  0.753500  0.857890  1.0  0.0075
  C  C131  1  0.144370  0.726470  0.915060  1.0  -0.1333
  C  C132  1  0.090000  0.641500  0.945980  1.0  0.6989
  C  C133  1  0.246500  0.364400  0.857890  1.0  0.0078
  C  C134  1  0.273530  0.417900  0.915060  1.0  -0.1332
  C  C135  1  0.358500  0.448500  0.945980  1.0  0.6987
  C  C136  1  0.364400  0.117900  0.357890  1.0  0.0095
  C  C137  1  0.417900  0.144370  0.415060  1.0  -0.1331
  C  C138  1  0.448500  0.090000  0.445980  1.0  0.6988
  C  C139  1  0.882100  0.246500  0.357890  1.0  0.0073
  C  C140  1  0.855630  0.273530  0.415060  1.0  -0.1331
  C  C141  1  0.910000  0.358500  0.445980  1.0  0.6989
  C  C142  1  0.753500  0.635600  0.357890  1.0  0.0074
  C  C143  1  0.726470  0.582100  0.415060  1.0  -0.1335
  C  C144  1  0.641500  0.551500  0.445980  1.0  0.6994
  C  C145  1  0.882100  0.635600  0.142110  1.0  0.0076
  C  C146  1  0.855630  0.582100  0.084940  1.0  -0.133
  C  C147  1  0.910000  0.551500  0.054020  1.0  0.6982
  C  C148  1  0.753500  0.117900  0.142110  1.0  0.0092
  C  C149  1  0.726470  0.144370  0.084940  1.0  -0.134
  C  C150  1  0.641500  0.090000  0.054020  1.0  0.6987
  C  C151  1  0.364400  0.246500  0.142110  1.0  0.0071
  C  C152  1  0.417900  0.273530  0.084940  1.0  -0.1327
  C  C153  1  0.448500  0.358500  0.054020  1.0  0.6987
  C  C154  1  0.117900  0.364400  0.642110  1.0  0.0073
  C  C155  1  0.144370  0.417900  0.584940  1.0  -0.1335
  C  C156  1  0.090000  0.448500  0.554020  1.0  0.6993
  C  C157  1  0.246500  0.882100  0.642110  1.0  0.0085
  C  C158  1  0.273530  0.855630  0.584940  1.0  -0.1331
  C  C159  1  0.358500  0.910000  0.554020  1.0  0.6988
  C  C160  1  0.635600  0.753500  0.642110  1.0  0.0073
  C  C161  1  0.582100  0.726470  0.584940  1.0  -0.1335
  C  C162  1  0.551500  0.641500  0.554020  1.0  0.6984
  C  C163  1  0.336000  0.168000  0.170900  1.0  -0.3188
  C  C164  1  0.442900  0.221450  0.056100  1.0  0.0139
  C  C165  1  0.832000  0.168000  0.170900  1.0  -0.3185
  C  C166  1  0.778550  0.221450  0.056100  1.0  0.0135
  C  C167  1  0.832000  0.664000  0.170900  1.0  -0.3186
  C  C168  1  0.778550  0.557100  0.056100  1.0  0.0144
  C  C169  1  0.664000  0.832000  0.670900  1.0  -0.3186
  C  C170  1  0.557100  0.778550  0.556100  1.0  0.0134
  C  C171  1  0.168000  0.832000  0.670900  1.0  -0.3185
  C  C172  1  0.221450  0.778550  0.556100  1.0  0.0139
  C  C173  1  0.168000  0.336000  0.670900  1.0  -0.3189
  C  C174  1  0.221450  0.442900  0.556100  1.0  0.0149
  C  C175  1  0.168000  0.336000  0.829100  1.0  -0.3199
  C  C176  1  0.221450  0.442900  0.943900  1.0  0.014
  C  C177  1  0.168000  0.832000  0.829100  1.0  -0.3191
  C  C178  1  0.221450  0.778550  0.943900  1.0  0.013
  C  C179  1  0.664000  0.832000  0.829100  1.0  -0.3193
  C  C180  1  0.557100  0.778550  0.943900  1.0  0.0123
  C  C181  1  0.832000  0.664000  0.329100  1.0  -0.3192
  C  C182  1  0.778550  0.557100  0.443900  1.0  0.0139
  C  C183  1  0.832000  0.168000  0.329100  1.0  -0.3194
  C  C184  1  0.778550  0.221450  0.443900  1.0  0.012
  C  C185  1  0.336000  0.168000  0.329100  1.0  -0.3194
  C  C186  1  0.442900  0.221450  0.443900  1.0  0.0128
  C  C187  1  0.199200  0.182800  0.250000  1.0  -0.7277
  C  C188  1  0.817200  0.016400  0.250000  1.0  -0.7313
  C  C189  1  0.983600  0.800800  0.250000  1.0  -0.7286
  C  C190  1  0.800800  0.817200  0.750000  1.0  -0.7306
  C  C191  1  0.182800  0.983600  0.750000  1.0  -0.7289
  C  C192  1  0.016400  0.199200  0.750000  1.0  -0.7273
  C  C193  1  0.182800  0.199200  0.750000  1.0  -0.7288
  C  C194  1  0.016400  0.817200  0.750000  1.0  -0.7281
  C  C195  1  0.800800  0.983600  0.750000  1.0  -0.7294
  C  C196  1  0.817200  0.800800  0.250000  1.0  -0.7264
  C  C197  1  0.983600  0.182800  0.250000  1.0  -0.731
  C  C198  1  0.199200  0.016400  0.250000  1.0  -0.7311
  O  O199  1  0.439490  0.029180  0.089880  1.0  -0.5629
  O  O200  1  0.480690  0.109630  0.994660  1.0  -0.5681
  O  O201  1  0.970820  0.410310  0.089880  1.0  -0.5635
  O  O202  1  0.890370  0.371060  0.994660  1.0  -0.5676
  O  O203  1  0.589690  0.560510  0.089880  1.0  -0.5637
  O  O204  1  0.628940  0.519310  0.994660  1.0  -0.5675
  O  O205  1  0.560510  0.970820  0.589880  1.0  -0.5631
  O  O206  1  0.519310  0.890370  0.494660  1.0  -0.5681
  O  O207  1  0.029180  0.589690  0.589880  1.0  -0.5638
  O  O208  1  0.109630  0.628940  0.494660  1.0  -0.5676
  O  O209  1  0.410310  0.439490  0.589880  1.0  -0.5634
  O  O210  1  0.371060  0.480690  0.494660  1.0  -0.5676
  O  O211  1  0.029180  0.439490  0.910120  1.0  -0.5645
  O  O212  1  0.109630  0.480690  0.005340  1.0  -0.5675
  O  O213  1  0.410310  0.970820  0.910120  1.0  -0.5638
  O  O214  1  0.371060  0.890370  0.005340  1.0  -0.5679
  O  O215  1  0.560510  0.589690  0.910120  1.0  -0.5644
  O  O216  1  0.519310  0.628940  0.005340  1.0  -0.5673
  O  O217  1  0.970820  0.560510  0.410120  1.0  -0.5643
  O  O218  1  0.890370  0.519310  0.505340  1.0  -0.5676
  O  O219  1  0.589690  0.029180  0.410120  1.0  -0.5636
  O  O220  1  0.628940  0.109630  0.505340  1.0  -0.5682
  O  O221  1  0.439490  0.410310  0.410120  1.0  -0.5644
  O  O222  1  0.480690  0.371060  0.505340  1.0  -0.5673
  O  O223  1  0.560510  0.970820  0.910120  1.0  -0.564
  O  O224  1  0.519310  0.890370  0.005340  1.0  -0.5685
  O  O225  1  0.029180  0.589690  0.910120  1.0  -0.565
  O  O226  1  0.109630  0.628940  0.005340  1.0  -0.5675
  O  O227  1  0.410310  0.439490  0.910120  1.0  -0.5645
  O  O228  1  0.371060  0.480690  0.005340  1.0  -0.568
  O  O229  1  0.439490  0.029180  0.410120  1.0  -0.5643
  O  O230  1  0.480690  0.109630  0.505340  1.0  -0.5683
  O  O231  1  0.970820  0.410310  0.410120  1.0  -0.5645
  O  O232  1  0.890370  0.371060  0.505340  1.0  -0.5679
  O  O233  1  0.589690  0.560510  0.410120  1.0  -0.5645
  O  O234  1  0.628940  0.519310  0.505340  1.0  -0.5677
  O  O235  1  0.970820  0.560510  0.089880  1.0  -0.5641
  O  O236  1  0.890370  0.519310  0.994660  1.0  -0.5677
  O  O237  1  0.589690  0.029180  0.089880  1.0  -0.5633
  O  O238  1  0.628940  0.109630  0.994660  1.0  -0.5679
  O  O239  1  0.439490  0.410310  0.089880  1.0  -0.5643
  O  O240  1  0.480690  0.371060  0.994660  1.0  -0.5672
  O  O241  1  0.029180  0.439490  0.589880  1.0  -0.5639
  O  O242  1  0.109630  0.480690  0.494660  1.0  -0.5672
  O  O243  1  0.410310  0.970820  0.589880  1.0  -0.5637
  O  O244  1  0.371060  0.890370  0.494660  1.0  -0.5676
  O  O245  1  0.560510  0.589690  0.589880  1.0  -0.5639
  O  O246  1  0.519310  0.628940  0.494660  1.0  -0.5673
