# generated using pymatgen
data_CaH20(C15O2)2
_symmetry_space_group_name_H-M   'P 1'
_cell_length_a   8.98360000
_cell_length_b   10.59180000
_cell_length_c   32.71960000
_cell_angle_alpha   90.00000000
_cell_angle_beta   90.00000000
_cell_angle_gamma   90.00000000
_symmetry_Int_Tables_number   1
_chemical_formula_structural   CaH20(C15O2)2
_chemical_formula_sum   'Ca4 H80 C120 O16'
_cell_volume   3113.35155839
_cell_formula_units_Z   4
loop_
 _symmetry_equiv_pos_site_id
 _symmetry_equiv_pos_as_xyz
  1  'x, y, z'
loop_
 _atom_site_type_symbol
 _atom_site_label
 _atom_site_symmetry_multiplicity
 _atom_site_fract_x
 _atom_site_fract_y
 _atom_site_fract_z
 _atom_site_occupancy
 _atom_site_charge
  Ca  Ca1  1  0.454250  0.901150  0.248890  1.0  1.6146
  Ca  Ca2  1  0.045750  0.098850  0.748890  1.0  1.6151
  Ca  Ca3  1  0.545750  0.401150  0.251110  1.0  1.6148
  Ca  Ca4  1  0.954250  0.598850  0.751110  1.0  1.6144
  H  H5  1  0.456200  0.430000  0.144900  1.0  0.0912
  H  H6  1  0.316300  0.395600  0.085900  1.0  0.0993
  H  H7  1  0.205800  0.763800  0.083600  1.0  0.0937
  H  H8  1  0.351100  0.801300  0.140400  1.0  0.0976
  H  H9  1  0.950100  0.656500  0.991000  1.0  0.1042
  H  H10  1  0.696300  0.692700  0.000000  1.0  0.0938
  H  H11  1  0.585200  0.651800  0.062200  1.0  0.0977
  H  H12  1  0.721800  0.569100  0.115200  1.0  0.1002
  H  H13  1  0.977000  0.523200  0.105900  1.0  0.1123
  H  H14  1  0.132400  0.499300  0.985300  1.0  0.0849
  H  H15  1  0.428400  0.500600  0.018000  1.0  0.0848
  H  H16  1  0.614300  0.346300  0.010700  1.0  0.1079
  H  H17  1  0.870800  0.307100  0.999700  1.0  0.1072
  H  H18  1  0.975100  0.353100  0.937100  1.0  0.0895
  H  H19  1  0.829500  0.438900  0.884600  1.0  0.1086
  H  H20  1  0.578600  0.475100  0.896100  1.0  0.0949
  H  H21  1  0.345500  0.231500  0.921400  1.0  0.107
  H  H22  1  0.209100  0.198600  0.862200  1.0  0.0974
  H  H23  1  0.111600  0.568300  0.856100  1.0  0.0936
  H  H24  1  0.240800  0.603000  0.916800  1.0  0.0985
  H  H25  1  0.043800  0.570000  0.644900  1.0  0.091
  H  H26  1  0.183700  0.604400  0.585900  1.0  0.0985
  H  H27  1  0.294200  0.236200  0.583600  1.0  0.094
  H  H28  1  0.148900  0.198700  0.640400  1.0  0.0976
  H  H29  1  0.549900  0.343500  0.491000  1.0  0.1041
  H  H30  1  0.803700  0.307300  0.500000  1.0  0.0933
  H  H31  1  0.914800  0.348200  0.562200  1.0  0.0974
  H  H32  1  0.778200  0.430900  0.615200  1.0  0.1004
  H  H33  1  0.523000  0.476800  0.605900  1.0  0.1121
  H  H34  1  0.367600  0.500700  0.485300  1.0  0.085
  H  H35  1  0.071600  0.499400  0.518000  1.0  0.0852
  H  H36  1  0.885700  0.653700  0.510700  1.0  0.1081
  H  H37  1  0.629200  0.692900  0.499700  1.0  0.1071
  H  H38  1  0.524900  0.646900  0.437100  1.0  0.0897
  H  H39  1  0.670500  0.561100  0.384600  1.0  0.1086
  H  H40  1  0.921400  0.524900  0.396100  1.0  0.0951
  H  H41  1  0.154500  0.768500  0.421400  1.0  0.1074
  H  H42  1  0.290900  0.801400  0.362200  1.0  0.0974
  H  H43  1  0.388400  0.431700  0.356100  1.0  0.0932
  H  H44  1  0.259200  0.397000  0.416800  1.0  0.0984
  H  H45  1  0.543800  0.930000  0.355100  1.0  0.0905
  H  H46  1  0.683700  0.895600  0.414100  1.0  0.0987
  H  H47  1  0.794200  0.263800  0.416400  1.0  0.0934
  H  H48  1  0.648900  0.301300  0.359600  1.0  0.0982
  H  H49  1  0.049900  0.156500  0.509000  1.0  0.1041
  H  H50  1  0.303700  0.192700  0.500000  1.0  0.094
  H  H51  1  0.414800  0.151800  0.437800  1.0  0.0978
  H  H52  1  0.278200  0.069100  0.384800  1.0  0.1004
  H  H53  1  0.023000  0.023200  0.394100  1.0  0.1128
  H  H54  1  0.867600  0.999300  0.514700  1.0  0.0846
  H  H55  1  0.571600  0.000600  0.482000  1.0  0.0862
  H  H56  1  0.385700  0.846300  0.489300  1.0  0.1085
  H  H57  1  0.129200  0.807100  0.500300  1.0  0.1067
  H  H58  1  0.024900  0.853100  0.562900  1.0  0.0896
  H  H59  1  0.170500  0.938900  0.615400  1.0  0.1078
  H  H60  1  0.421400  0.975100  0.603900  1.0  0.0948
  H  H61  1  0.654500  0.731500  0.578600  1.0  0.1081
  H  H62  1  0.790900  0.698600  0.637800  1.0  0.0969
  H  H63  1  0.888400  0.068300  0.643900  1.0  0.0935
  H  H64  1  0.759200  0.103000  0.583200  1.0  0.0991
  H  H65  1  0.956200  0.070000  0.855100  1.0  0.0904
  H  H66  1  0.816300  0.104400  0.914100  1.0  0.0989
  H  H67  1  0.705800  0.736200  0.916400  1.0  0.0932
  H  H68  1  0.851100  0.698700  0.859600  1.0  0.0974
  H  H69  1  0.450100  0.843500  0.009000  1.0  0.1043
  H  H70  1  0.196300  0.807300  0.000000  1.0  0.0941
  H  H71  1  0.085200  0.848200  0.937800  1.0  0.0974
  H  H72  1  0.221800  0.930900  0.884800  1.0  0.1003
  H  H73  1  0.477000  0.976800  0.894100  1.0  0.1127
  H  H74  1  0.632400  0.000700  0.014700  1.0  0.0844
  H  H75  1  0.928400  0.999400  0.982000  1.0  0.0856
  H  H76  1  0.114300  0.153700  0.989300  1.0  0.1083
  H  H77  1  0.370800  0.192900  0.000300  1.0  0.1067
  H  H78  1  0.475100  0.146900  0.062900  1.0  0.0899
  H  H79  1  0.329500  0.061100  0.115400  1.0  0.1087
  H  H80  1  0.078600  0.024900  0.103900  1.0  0.0945
  H  H81  1  0.845500  0.268500  0.078600  1.0  0.1074
  H  H82  1  0.709100  0.301400  0.137800  1.0  0.097
  H  H83  1  0.611600  0.931700  0.143900  1.0  0.0934
  H  H84  1  0.740800  0.897000  0.083200  1.0  0.0989
  C  C85  1  0.511200  0.642300  0.186400  1.0  0.7702
  C  C86  1  0.421500  0.621100  0.148500  1.0  -0.1259
  C  C87  1  0.407500  0.498900  0.132100  1.0  -0.0364
  C  C88  1  0.322900  0.478200  0.097100  1.0  -0.1199
  C  C89  1  0.248900  0.576100  0.078500  1.0  0.0358
  C  C90  1  0.259200  0.695900  0.095700  1.0  -0.1237
  C  C91  1  0.344600  0.718100  0.129700  1.0  -0.0269
  C  C92  1  0.151200  0.555700  0.042000  1.0  -0.0047
  C  C93  1  0.989100  0.587600  0.047300  1.0  0.0124
  C  C94  1  0.904800  0.637200  0.016400  1.0  -0.1394
  C  C95  1  0.754000  0.659700  0.021900  1.0  -0.0619
  C  C96  1  0.688200  0.634700  0.058600  1.0  -0.0949
  C  C97  1  0.768300  0.585900  0.089600  1.0  -0.0679
  C  C98  1  0.921000  0.559700  0.084300  1.0  -0.1147
  C  C99  1  0.203100  0.513400  0.006300  1.0  -0.1458
  C  C100  1  0.357800  0.487000  0.996900  1.0  -0.1498
  C  C101  1  0.410800  0.444800  0.960600  1.0  -0.0041
  C  C102  1  0.571900  0.419700  0.954700  1.0  0.0057
  C  C103  1  0.658100  0.366600  0.985100  1.0  -0.1482
  C  C104  1  0.811400  0.342100  0.978500  1.0  -0.1125
  C  C105  1  0.872400  0.369100  0.941700  1.0  -0.0999
  C  C106  1  0.786600  0.420000  0.910400  1.0  -0.1186
  C  C107  1  0.638000  0.442400  0.917700  1.0  -0.0657
  C  C108  1  0.313100  0.422600  0.924600  1.0  0.0335
  C  C109  1  0.298900  0.300900  0.908200  1.0  -0.1431
  C  C110  1  0.217400  0.281600  0.873000  1.0  0.0096
  C  C111  1  0.147600  0.380400  0.853100  1.0  -0.1693
  C  C112  1  0.158700  0.499400  0.869500  1.0  -0.0292
  C  C113  1  0.238000  0.520600  0.905300  1.0  -0.138
  C  C114  1  0.063600  0.358700  0.813500  1.0  0.7658
  C  C115  1  0.988800  0.357700  0.686400  1.0  0.7671
  C  C116  1  0.078500  0.378900  0.648500  1.0  -0.1242
  C  C117  1  0.092500  0.501100  0.632100  1.0  -0.0357
  C  C118  1  0.177100  0.521800  0.597100  1.0  -0.1185
  C  C119  1  0.251100  0.423900  0.578500  1.0  0.0363
  C  C120  1  0.240800  0.304100  0.595700  1.0  -0.1228
  C  C121  1  0.155400  0.281900  0.629700  1.0  -0.0268
  C  C122  1  0.348800  0.444300  0.542000  1.0  -0.0046
  C  C123  1  0.510900  0.412400  0.547300  1.0  0.0134
  C  C124  1  0.595200  0.362800  0.516400  1.0  -0.139
  C  C125  1  0.746000  0.340300  0.521900  1.0  -0.063
  C  C126  1  0.811800  0.365300  0.558600  1.0  -0.0957
  C  C127  1  0.731700  0.414100  0.589600  1.0  -0.0686
  C  C128  1  0.579000  0.440300  0.584300  1.0  -0.1152
  C  C129  1  0.296900  0.486600  0.506300  1.0  -0.1451
  C  C130  1  0.142200  0.513000  0.496900  1.0  -0.1502
  C  C131  1  0.089200  0.555200  0.460600  1.0  -0.0048
  C  C132  1  0.928100  0.580300  0.454700  1.0  0.0051
  C  C133  1  0.841900  0.633400  0.485100  1.0  -0.1486
  C  C134  1  0.688600  0.657900  0.478500  1.0  -0.113
  C  C135  1  0.627600  0.630900  0.441700  1.0  -0.0968
  C  C136  1  0.713400  0.580000  0.410400  1.0  -0.1194
  C  C137  1  0.862000  0.557600  0.417700  1.0  -0.0671
  C  C138  1  0.186900  0.577400  0.424600  1.0  0.0327
  C  C139  1  0.201100  0.699100  0.408200  1.0  -0.1419
  C  C140  1  0.282600  0.718400  0.373000  1.0  0.0108
  C  C141  1  0.352400  0.619600  0.353100  1.0  -0.167
  C  C142  1  0.341300  0.500600  0.369500  1.0  -0.0312
  C  C143  1  0.262000  0.479400  0.405300  1.0  -0.1394
  C  C144  1  0.436400  0.641300  0.313500  1.0  0.7648
  C  C145  1  0.488800  0.142300  0.313600  1.0  0.7669
  C  C146  1  0.578500  0.121100  0.351500  1.0  -0.1285
  C  C147  1  0.592500  0.998900  0.367900  1.0  -0.0358
  C  C148  1  0.677100  0.978200  0.402900  1.0  -0.1193
  C  C149  1  0.751100  0.076100  0.421500  1.0  0.0378
  C  C150  1  0.740800  0.195900  0.404300  1.0  -0.1204
  C  C151  1  0.655400  0.218100  0.370300  1.0  -0.0269
  C  C152  1  0.848800  0.055700  0.458000  1.0  -0.0045
  C  C153  1  0.010900  0.087600  0.452700  1.0  0.0132
  C  C154  1  0.095200  0.137200  0.483600  1.0  -0.1394
  C  C155  1  0.246000  0.159700  0.478100  1.0  -0.0621
  C  C156  1  0.311800  0.134700  0.441400  1.0  -0.0963
  C  C157  1  0.231700  0.085900  0.410400  1.0  -0.068
  C  C158  1  0.079000  0.059700  0.415700  1.0  -0.1101
  C  C159  1  0.796900  0.013400  0.493700  1.0  -0.1453
  C  C160  1  0.642200  0.987000  0.503100  1.0  -0.1499
  C  C161  1  0.589200  0.944800  0.539400  1.0  -0.0049
  C  C162  1  0.428100  0.919700  0.545300  1.0  0.0052
  C  C163  1  0.341900  0.866600  0.514900  1.0  -0.1472
  C  C164  1  0.188600  0.842100  0.521500  1.0  -0.1118
  C  C165  1  0.127600  0.869100  0.558300  1.0  -0.0969
  C  C166  1  0.213400  0.920000  0.589600  1.0  -0.1195
  C  C167  1  0.362000  0.942400  0.582300  1.0  -0.0693
  C  C168  1  0.686900  0.922600  0.575400  1.0  0.0315
  C  C169  1  0.701100  0.800900  0.591800  1.0  -0.1424
  C  C170  1  0.782600  0.781600  0.627000  1.0  0.0108
  C  C171  1  0.852400  0.880400  0.646900  1.0  -0.1658
  C  C172  1  0.841300  0.999400  0.630500  1.0  -0.028
  C  C173  1  0.762000  0.020600  0.594700  1.0  -0.1399
  C  C174  1  0.936400  0.858700  0.686500  1.0  0.7642
  C  C175  1  0.011200  0.857700  0.813600  1.0  0.7657
  C  C176  1  0.921500  0.878900  0.851500  1.0  -0.128
  C  C177  1  0.907500  0.001100  0.867900  1.0  -0.0335
  C  C178  1  0.822900  0.021800  0.902900  1.0  -0.1179
  C  C179  1  0.748900  0.923900  0.921500  1.0  0.0374
  C  C180  1  0.759200  0.804100  0.904300  1.0  -0.1206
  C  C181  1  0.844600  0.781900  0.870300  1.0  -0.0267
  C  C182  1  0.651200  0.944300  0.958000  1.0  -0.005
  C  C183  1  0.489100  0.912400  0.952700  1.0  0.0123
  C  C184  1  0.404800  0.862800  0.983600  1.0  -0.1392
  C  C185  1  0.254000  0.840300  0.978100  1.0  -0.0617
  C  C186  1  0.188200  0.865300  0.941400  1.0  -0.0947
  C  C187  1  0.268300  0.914100  0.910400  1.0  -0.0672
  C  C188  1  0.421000  0.940300  0.915700  1.0  -0.1116
  C  C189  1  0.703100  0.986600  0.993700  1.0  -0.1459
  C  C190  1  0.857800  0.013000  0.003100  1.0  -0.1499
  C  C191  1  0.910800  0.055200  0.039400  1.0  -0.0042
  C  C192  1  0.071900  0.080300  0.045300  1.0  0.0062
  C  C193  1  0.158100  0.133400  0.014900  1.0  -0.148
  C  C194  1  0.311400  0.157900  0.021500  1.0  -0.1114
  C  C195  1  0.372400  0.130900  0.058300  1.0  -0.099
  C  C196  1  0.286600  0.080000  0.089600  1.0  -0.118
  C  C197  1  0.138000  0.057600  0.082300  1.0  -0.068
  C  C198  1  0.813100  0.077400  0.075400  1.0  0.0324
  C  C199  1  0.798900  0.199100  0.091800  1.0  -0.1447
  C  C200  1  0.717400  0.218400  0.127000  1.0  0.0118
  C  C201  1  0.647600  0.119600  0.146900  1.0  -0.1646
  C  C202  1  0.658700  0.000600  0.130500  1.0  -0.0291
  C  C203  1  0.738000  0.979400  0.094700  1.0  -0.1395
  C  C204  1  0.563600  0.141300  0.186500  1.0  0.7627
  O  O205  1  0.513200  0.751300  0.200100  1.0  -0.7586
  O  O206  1  0.584100  0.550700  0.201040  1.0  -0.7182
  O  O207  1  0.989500  0.444800  0.799400  1.0  -0.7381
  O  O208  1  0.079700  0.251000  0.797600  1.0  -0.7596
  O  O209  1  0.986800  0.248700  0.700100  1.0  -0.7586
  O  O210  1  0.915900  0.449300  0.701040  1.0  -0.7158
  O  O211  1  0.510500  0.555200  0.299400  1.0  -0.74
  O  O212  1  0.420300  0.749000  0.297600  1.0  -0.7599
  O  O213  1  0.486800  0.251300  0.299900  1.0  -0.7588
  O  O214  1  0.415900  0.050700  0.298960  1.0  -0.7182
  O  O215  1  0.010500  0.944800  0.700600  1.0  -0.739
  O  O216  1  0.920300  0.751000  0.702400  1.0  -0.7598
  O  O217  1  0.013200  0.748700  0.799900  1.0  -0.7586
  O  O218  1  0.084100  0.949300  0.798960  1.0  -0.7194
  O  O219  1  0.489500  0.055200  0.200600  1.0  -0.7381
  O  O220  1  0.579700  0.249000  0.202400  1.0  -0.7572
