# generated using pymatgen
data_Eu2H9C24(NO4)3
_symmetry_space_group_name_H-M   'P 1'
_cell_length_a   10.94400000
_cell_length_b   11.12900000
_cell_length_c   15.99800000
_cell_angle_alpha   75.57000000
_cell_angle_beta   82.96000000
_cell_angle_gamma   75.56000000
_symmetry_Int_Tables_number   1
_chemical_formula_structural   Eu2H9C24(NO4)3
_chemical_formula_sum   'Eu4 H18 C48 N6 O24'
_cell_volume   1823.61096081
_cell_formula_units_Z   2
loop_
 _symmetry_equiv_pos_site_id
 _symmetry_equiv_pos_as_xyz
  1  'x, y, z'
loop_
 _atom_site_type_symbol
 _atom_site_label
 _atom_site_symmetry_multiplicity
 _atom_site_fract_x
 _atom_site_fract_y
 _atom_site_fract_z
 _atom_site_occupancy
 _atom_site_charge
  Eu  Eu1  1  0.412550  0.160000  0.626720  1.0  2.1009
  Eu  Eu2  1  0.207680  0.994810  0.866430  1.0  2.1372
  Eu  Eu3  1  0.587450  0.840000  0.373280  1.0  2.0949
  Eu  Eu4  1  0.792320  0.005190  0.133570  1.0  2.1422
  H  H5  1  0.340800  0.042600  0.067000  1.0  0.1094
  H  H6  1  0.332700  0.518400  0.723400  1.0  0.0958
  H  H7  1  0.797100  0.166900  0.438100  1.0  0.1118
  H  H8  1  0.130200  0.712300  0.893600  1.0  0.107
  H  H9  1  0.026200  0.122200  0.217600  1.0  0.0946
  H  H10  1  0.144500  0.158300  0.506400  1.0  0.1087
  H  H11  1  0.849900  0.159700  0.681300  1.0  0.1007
  H  H12  1  0.125900  0.344400  0.917700  1.0  0.1073
  H  H13  1  0.362500  0.100700  0.302600  1.0  0.115
  H  H14  1  0.659200  0.957400  0.933000  1.0  0.1093
  H  H15  1  0.667300  0.481600  0.276600  1.0  0.0965
  H  H16  1  0.202900  0.833100  0.561900  1.0  0.1114
  H  H17  1  0.869800  0.287700  0.106400  1.0  0.1074
  H  H18  1  0.973800  0.877800  0.782400  1.0  0.0947
  H  H19  1  0.855500  0.841700  0.493600  1.0  0.1073
  H  H20  1  0.150100  0.840300  0.318700  1.0  0.1015
  H  H21  1  0.874100  0.655600  0.082300  1.0  0.1071
  H  H22  1  0.637500  0.899300  0.697400  1.0  0.1148
  C  C23  1  0.093500  0.074600  0.065200  1.0  0.7181
  C  C24  1  0.514400  0.023300  0.174800  1.0  0.6954
  C  C25  1  0.374000  0.062500  0.183100  1.0  -0.1245
  C  C26  1  0.302600  0.059800  0.119200  1.0  -0.0093
  C  C27  1  0.277200  0.290900  0.787400  1.0  0.7716
  C  C28  1  0.235100  0.414100  0.816500  1.0  -0.1525
  C  C29  1  0.277700  0.521900  0.772400  1.0  0.0174
  C  C30  1  0.670700  0.157100  0.589600  1.0  0.6834
  C  C31  1  0.804100  0.162900  0.563700  1.0  -0.1121
  C  C32  1  0.850700  0.163900  0.479800  1.0  -0.0992
  C  C33  1  0.285300  0.747600  0.755300  1.0  0.7437
  C  C34  1  0.156300  0.637800  0.873400  1.0  -0.0745
  C  C35  1  0.240400  0.632000  0.799800  1.0  -0.168
  C  C36  1  0.010300  0.155300  0.603800  1.0  -0.1307
  C  C37  1  0.182800  0.121900  0.271300  1.0  0.1791
  C  C38  1  0.113500  0.110700  0.208400  1.0  -0.0598
  C  C39  1  0.059600  0.158000  0.521100  1.0  -0.0559
  C  C40  1  0.100200  0.138900  0.672700  1.0  0.7514
  C  C41  1  0.882500  0.159400  0.624800  1.0  -0.0882
  C  C42  1  0.153700  0.416800  0.887900  1.0  -0.0559
  C  C43  1  0.977600  0.160300  0.457600  1.0  0.1326
  C  C44  1  0.170400  0.083600  0.134400  1.0  -0.1627
  C  C45  1  0.314500  0.096000  0.259900  1.0  -0.1052
  C  C46  1  0.113500  0.529300  0.915100  1.0  0.1772
  C  C47  1  0.906500  0.925400  0.934800  1.0  0.7164
  C  C48  1  0.485600  0.976700  0.825200  1.0  0.695
  C  C49  1  0.626000  0.937500  0.816900  1.0  -0.1238
  C  C50  1  0.697400  0.940200  0.880800  1.0  -0.0111
  C  C51  1  0.722800  0.709100  0.212600  1.0  0.7716
  C  C52  1  0.764900  0.585900  0.183500  1.0  -0.1524
  C  C53  1  0.722300  0.478100  0.227600  1.0  0.0169
  C  C54  1  0.329300  0.842900  0.410400  1.0  0.6853
  C  C55  1  0.195900  0.837100  0.436300  1.0  -0.1148
  C  C56  1  0.149300  0.836100  0.520200  1.0  -0.0994
  C  C57  1  0.714700  0.252400  0.244700  1.0  0.741
  C  C58  1  0.843700  0.362200  0.126600  1.0  -0.0753
  C  C59  1  0.759600  0.368000  0.200200  1.0  -0.1682
  C  C60  1  0.989700  0.844700  0.396200  1.0  -0.1294
  C  C61  1  0.817200  0.878100  0.728700  1.0  0.1785
  C  C62  1  0.886500  0.889300  0.791600  1.0  -0.061
  C  C63  1  0.940400  0.842000  0.478900  1.0  -0.0553
  C  C64  1  0.899800  0.861100  0.327300  1.0  0.7499
  C  C65  1  0.117500  0.840600  0.375200  1.0  -0.0866
  C  C66  1  0.846300  0.583200  0.112100  1.0  -0.0563
  C  C67  1  0.022400  0.839700  0.542400  1.0  0.1333
  C  C68  1  0.829600  0.916400  0.865600  1.0  -0.1634
  C  C69  1  0.685500  0.904000  0.740100  1.0  -0.1047
  C  C70  1  0.886500  0.470700  0.084900  1.0  0.1806
  N  N71  1  0.019800  0.154400  0.369800  1.0  -0.148
  N  N72  1  0.136400  0.139000  0.355800  1.0  -0.1919
  N  N73  1  0.026800  0.545400  0.985500  1.0  -0.2237
  N  N74  1  0.980200  0.845600  0.630200  1.0  -0.147
  N  N75  1  0.863600  0.861000  0.644200  1.0  -0.1907
  N  N76  1  0.973200  0.454600  0.014500  1.0  -0.2244
  O  O77  1  0.359600  0.286600  0.727000  1.0  -0.7291
  O  O78  1  0.573900  0.996000  0.243500  1.0  -0.7716
  O  O79  1  0.979500  0.073700  0.084500  1.0  -0.7176
  O  O80  1  0.147500  0.069700  0.992300  1.0  -0.7719
  O  O81  1  0.226400  0.202000  0.826200  1.0  -0.667
  O  O82  1  0.571400  0.020000  0.103700  1.0  -0.6137
  O  O83  1  0.610800  0.117400  0.541800  1.0  -0.6722
  O  O84  1  0.620200  0.183200  0.658200  1.0  -0.6273
  O  O85  1  0.068300  0.095200  0.749300  1.0  -0.6343
  O  O86  1  0.244800  0.847200  0.784300  1.0  -0.6842
  O  O87  1  0.357900  0.746000  0.689900  1.0  -0.4883
  O  O88  1  0.203400  0.166100  0.646800  1.0  -0.7188
  O  O89  1  0.640400  0.713400  0.273000  1.0  -0.7275
  O  O90  1  0.426100  0.004000  0.756500  1.0  -0.7709
  O  O91  1  0.020500  0.926300  0.915500  1.0  -0.7171
  O  O92  1  0.852500  0.930300  0.007700  1.0  -0.7734
  O  O93  1  0.773600  0.798000  0.173800  1.0  -0.6677
  O  O94  1  0.428600  0.980000  0.896300  1.0  -0.6133
  O  O95  1  0.389200  0.882600  0.458200  1.0  -0.6745
  O  O96  1  0.379800  0.816800  0.341800  1.0  -0.6267
  O  O97  1  0.931700  0.904800  0.250700  1.0  -0.6324
  O  O98  1  0.755200  0.152800  0.215700  1.0  -0.6824
  O  O99  1  0.642100  0.254000  0.310100  1.0  -0.4869
  O  O100  1  0.796600  0.833900  0.353200  1.0  -0.7196
