# generated using pymatgen
data_ZnH7C12N5O4
_symmetry_space_group_name_H-M   'P 1'
_cell_length_a   19.37700000
_cell_length_b   16.27700000
_cell_length_c   10.72000000
_cell_angle_alpha   90.00000000
_cell_angle_beta   101.38400000
_cell_angle_gamma   90.00000000
_symmetry_Int_Tables_number   1
_chemical_formula_structural   ZnH7C12N5O4
_chemical_formula_sum   'Zn8 H56 C96 N40 O32'
_cell_volume   3314.56359902
_cell_formula_units_Z   8
loop_
 _symmetry_equiv_pos_site_id
 _symmetry_equiv_pos_as_xyz
  1  'x, y, z'
loop_
 _atom_site_type_symbol
 _atom_site_label
 _atom_site_symmetry_multiplicity
 _atom_site_fract_x
 _atom_site_fract_y
 _atom_site_fract_z
 _atom_site_occupancy
 _atom_site_charge
  Zn  Zn1  1  0.010630  0.658560  0.047940  1.0  0.9679
  Zn  Zn2  1  0.499050  0.653120  0.018720  1.0  0.9564
  Zn  Zn3  1  0.989370  0.158560  0.452060  1.0  0.968
  Zn  Zn4  1  0.500950  0.153120  0.481280  1.0  0.9575
  Zn  Zn5  1  0.989370  0.341440  0.952060  1.0  0.9679
  Zn  Zn6  1  0.500950  0.346880  0.981280  1.0  0.9576
  Zn  Zn7  1  0.010630  0.841440  0.547940  1.0  0.9679
  Zn  Zn8  1  0.499050  0.846880  0.518720  1.0  0.9566
  H  H9  1  0.993100  0.895500  0.261700  1.0  0.1329
  H  H10  1  0.998000  0.852100  0.133600  1.0  0.1537
  H  H11  1  0.141800  0.798600  0.186200  1.0  0.1095
  H  H12  1  0.245400  0.863200  0.174500  1.0  0.1103
  H  H13  1  0.160600  0.077200  0.249000  1.0  0.1124
  H  H14  1  0.059100  0.008500  0.264200  1.0  0.104
  H  H15  1  0.348100  0.925600  0.227900  1.0  0.1197
  H  H16  1  0.723400  0.375100  0.916700  1.0  0.1163
  H  H17  1  0.767800  0.651900  0.990200  1.0  0.1125
  H  H18  1  0.446700  0.994400  0.198900  1.0  0.1105
  H  H19  1  0.340200  0.200700  0.134600  1.0  0.1081
  H  H20  1  0.240700  0.136400  0.171500  1.0  0.1195
  H  H21  1  0.453100  0.158800  0.037500  1.0  0.1417
  H  H22  1  0.502800  0.105400  0.138900  1.0  0.1297
  H  H23  1  0.006900  0.395500  0.238300  1.0  0.1322
  H  H24  1  0.002000  0.352100  0.366400  1.0  0.1539
  H  H25  1  0.858200  0.298600  0.313800  1.0  0.1093
  H  H26  1  0.754600  0.363200  0.325500  1.0  0.1107
  H  H27  1  0.839400  0.577200  0.251000  1.0  0.1123
  H  H28  1  0.940900  0.508500  0.235800  1.0  0.104
  H  H29  1  0.651900  0.425600  0.272100  1.0  0.1196
  H  H30  1  0.276600  0.875100  0.583300  1.0  0.1165
  H  H31  1  0.232200  0.151900  0.509800  1.0  0.1124
  H  H32  1  0.553300  0.494400  0.301100  1.0  0.1108
  H  H33  1  0.659800  0.700700  0.365400  1.0  0.1078
  H  H34  1  0.759300  0.636400  0.328500  1.0  0.1194
  H  H35  1  0.546900  0.658800  0.462500  1.0  0.1421
  H  H36  1  0.497200  0.605400  0.361100  1.0  0.1289
  H  H37  1  0.006900  0.104500  0.738300  1.0  0.1319
  H  H38  1  0.002000  0.147900  0.866400  1.0  0.1539
  H  H39  1  0.858200  0.201400  0.813800  1.0  0.1096
  H  H40  1  0.754600  0.136800  0.825500  1.0  0.1111
  H  H41  1  0.839400  0.922800  0.751000  1.0  0.113
  H  H42  1  0.940900  0.991500  0.735800  1.0  0.1036
  H  H43  1  0.651900  0.074400  0.772100  1.0  0.1193
  H  H44  1  0.276600  0.624900  0.083300  1.0  0.1161
  H  H45  1  0.232200  0.348100  0.009800  1.0  0.1143
  H  H46  1  0.553300  0.005600  0.801100  1.0  0.1108
  H  H47  1  0.659800  0.799300  0.865400  1.0  0.108
  H  H48  1  0.759300  0.863600  0.828500  1.0  0.119
  H  H49  1  0.546900  0.841200  0.962500  1.0  0.1421
  H  H50  1  0.497200  0.894600  0.861100  1.0  0.1287
  H  H51  1  0.993100  0.604500  0.761700  1.0  0.1329
  H  H52  1  0.998000  0.647900  0.633600  1.0  0.1532
  H  H53  1  0.141800  0.701400  0.686200  1.0  0.1096
  H  H54  1  0.245400  0.636800  0.674500  1.0  0.111
  H  H55  1  0.160600  0.422800  0.749000  1.0  0.1128
  H  H56  1  0.059100  0.491500  0.764200  1.0  0.1036
  H  H57  1  0.348100  0.574400  0.727900  1.0  0.1196
  H  H58  1  0.723400  0.124900  0.416700  1.0  0.1166
  H  H59  1  0.767800  0.848100  0.490200  1.0  0.114
  H  H60  1  0.446700  0.505600  0.698900  1.0  0.1109
  H  H61  1  0.340200  0.299300  0.634600  1.0  0.1077
  H  H62  1  0.240700  0.363600  0.671500  1.0  0.1192
  H  H63  1  0.453100  0.341200  0.537500  1.0  0.1422
  H  H64  1  0.502800  0.394600  0.638900  1.0  0.1301
  C  C65  1  0.023620  0.777200  0.285500  1.0  0.355
  C  C66  1  0.021500  0.858500  0.221700  1.0  -0.1708
  C  C67  1  0.145900  0.855000  0.198900  1.0  0.044
  C  C68  1  0.207700  0.893900  0.191100  1.0  -0.1121
  C  C69  1  0.215200  0.978300  0.207300  1.0  0.0872
  C  C70  1  0.157700  0.020800  0.235800  1.0  -0.1417
  C  C71  1  0.096900  0.979600  0.244500  1.0  0.0179
  C  C72  1  0.281500  0.022300  0.194700  1.0  0.0692
  C  C73  1  0.345300  0.981200  0.207500  1.0  -0.1577
  C  C74  1  0.799580  0.461300  0.934200  1.0  -0.1424
  C  C75  1  0.732200  0.430700  0.931500  1.0  -0.0426
  C  C76  1  0.677580  0.482100  0.950800  1.0  -0.0409
  C  C77  1  0.691650  0.565200  0.976900  1.0  -0.1457
  C  C78  1  0.758970  0.596200  0.976200  1.0  -0.0484
  C  C79  1  0.812740  0.544900  0.954800  1.0  -0.0359
  C  C80  1  0.856900  0.401700  0.920900  1.0  0.71
  C  C81  1  0.605400  0.444200  0.934100  1.0  0.7014
  C  C82  1  0.635950  0.621700  0.006700  1.0  0.6557
  C  C83  1  0.404200  0.022400  0.190100  1.0  0.0165
  C  C84  1  0.341400  0.144800  0.153100  1.0  0.0109
  C  C85  1  0.281500  0.106100  0.172900  1.0  -0.1203
  C  C86  1  0.464000  0.144100  0.126900  1.0  -0.0914
  C  C87  1  0.487100  0.219800  0.203400  1.0  0.3731
  C  C88  1  0.883400  0.583300  0.948300  1.0  0.6945
  C  C89  1  0.976380  0.277200  0.214500  1.0  0.3553
  C  C90  1  0.978500  0.358500  0.278300  1.0  -0.1702
  C  C91  1  0.854100  0.355000  0.301100  1.0  0.0462
  C  C92  1  0.792300  0.393900  0.308900  1.0  -0.1108
  C  C93  1  0.784800  0.478300  0.292700  1.0  0.0886
  C  C94  1  0.842300  0.520800  0.264200  1.0  -0.1434
  C  C95  1  0.903100  0.479600  0.255500  1.0  0.0189
  C  C96  1  0.718500  0.522300  0.305300  1.0  0.0733
  C  C97  1  0.654700  0.481200  0.292500  1.0  -0.1571
  C  C98  1  0.200420  0.961300  0.565800  1.0  -0.1402
  C  C99  1  0.267800  0.930700  0.568500  1.0  -0.0413
  C  C100  1  0.322420  0.982100  0.549200  1.0  -0.039
  C  C101  1  0.308350  0.065200  0.523100  1.0  -0.1458
  C  C102  1  0.241030  0.096200  0.523800  1.0  -0.0501
  C  C103  1  0.187260  0.044900  0.545200  1.0  -0.0309
  C  C104  1  0.143100  0.901700  0.579100  1.0  0.7128
  C  C105  1  0.394600  0.944200  0.565900  1.0  0.7015
  C  C106  1  0.364050  0.121700  0.493300  1.0  0.6568
  C  C107  1  0.595800  0.522400  0.309900  1.0  0.0165
  C  C108  1  0.658600  0.644800  0.346900  1.0  0.0101
  C  C109  1  0.718500  0.606100  0.327100  1.0  -0.1206
  C  C110  1  0.536000  0.644100  0.373100  1.0  -0.0925
  C  C111  1  0.512900  0.719800  0.296600  1.0  0.374
  C  C112  1  0.116600  0.083300  0.551700  1.0  0.6938
  C  C113  1  0.976380  0.222800  0.714500  1.0  0.355
  C  C114  1  0.978500  0.141500  0.778300  1.0  -0.1706
  C  C115  1  0.854100  0.145000  0.801100  1.0  0.0454
  C  C116  1  0.792300  0.106100  0.808900  1.0  -0.1108
  C  C117  1  0.784800  0.021700  0.792700  1.0  0.089
  C  C118  1  0.842300  0.979200  0.764200  1.0  -0.1425
  C  C119  1  0.903100  0.020400  0.755500  1.0  0.0202
  C  C120  1  0.718500  0.977700  0.805300  1.0  0.0717
  C  C121  1  0.654700  0.018800  0.792500  1.0  -0.1585
  C  C122  1  0.200420  0.538700  0.065800  1.0  -0.14
  C  C123  1  0.267800  0.569300  0.068500  1.0  -0.042
  C  C124  1  0.322420  0.517900  0.049200  1.0  -0.0392
  C  C125  1  0.308350  0.434800  0.023100  1.0  -0.1463
  C  C126  1  0.241030  0.403800  0.023800  1.0  -0.0466
  C  C127  1  0.187260  0.455100  0.045200  1.0  -0.0324
  C  C128  1  0.143100  0.598300  0.079100  1.0  0.7115
  C  C129  1  0.394600  0.555800  0.065900  1.0  0.7012
  C  C130  1  0.364050  0.378300  0.993300  1.0  0.6572
  C  C131  1  0.595800  0.977600  0.809900  1.0  0.017
  C  C132  1  0.658600  0.855200  0.846900  1.0  0.0107
  C  C133  1  0.718500  0.893900  0.827100  1.0  -0.1201
  C  C134  1  0.536000  0.855900  0.873100  1.0  -0.0926
  C  C135  1  0.512900  0.780200  0.796600  1.0  0.3741
  C  C136  1  0.116600  0.416700  0.051700  1.0  0.6948
  C  C137  1  0.023620  0.722800  0.785500  1.0  0.355
  C  C138  1  0.021500  0.641500  0.721700  1.0  -0.1711
  C  C139  1  0.145900  0.645000  0.698900  1.0  0.0435
  C  C140  1  0.207700  0.606100  0.691100  1.0  -0.1118
  C  C141  1  0.215200  0.521700  0.707300  1.0  0.0866
  C  C142  1  0.157700  0.479200  0.735800  1.0  -0.1437
  C  C143  1  0.096900  0.520400  0.744500  1.0  0.0189
  C  C144  1  0.281500  0.477700  0.694700  1.0  0.0699
  C  C145  1  0.345300  0.518800  0.707500  1.0  -0.1569
  C  C146  1  0.799580  0.038700  0.434200  1.0  -0.1421
  C  C147  1  0.732200  0.069300  0.431500  1.0  -0.0442
  C  C148  1  0.677580  0.017900  0.450800  1.0  -0.0402
  C  C149  1  0.691650  0.934800  0.476900  1.0  -0.1471
  C  C150  1  0.758970  0.903800  0.476200  1.0  -0.0477
  C  C151  1  0.812740  0.955100  0.454800  1.0  -0.036
  C  C152  1  0.856900  0.098300  0.420900  1.0  0.7087
  C  C153  1  0.605400  0.055800  0.434100  1.0  0.7011
  C  C154  1  0.635950  0.878300  0.506700  1.0  0.656
  C  C155  1  0.404200  0.477600  0.690100  1.0  0.0189
  C  C156  1  0.341400  0.355200  0.653100  1.0  0.0099
  C  C157  1  0.281500  0.393900  0.672900  1.0  -0.1201
  C  C158  1  0.464000  0.355900  0.626900  1.0  -0.0936
  C  C159  1  0.487100  0.280200  0.703400  1.0  0.3737
  C  C160  1  0.883400  0.916700  0.448300  1.0  0.6939
  N  N161  1  0.021970  0.763900  0.407100  1.0  -0.2844
  N  N162  1  0.022900  0.681800  0.423200  1.0  -0.0756
  N  N163  1  0.024000  0.646300  0.314900  1.0  -0.0768
  N  N164  1  0.024180  0.705200  0.225400  1.0  -0.3249
  N  N165  1  0.497970  0.227240  0.329400  1.0  -0.2959
  N  N166  1  0.522240  0.304200  0.356400  1.0  -0.0934
  N  N167  1  0.526400  0.341300  0.251000  1.0  -0.0962
  N  N168  1  0.504430  0.289220  0.152500  1.0  -0.281
  N  N169  1  0.091300  0.897630  0.224700  1.0  0.0395
  N  N170  1  0.401560  0.102760  0.160300  1.0  0.0541
  N  N171  1  0.978030  0.263900  0.092900  1.0  -0.2834
  N  N172  1  0.977100  0.181800  0.076800  1.0  -0.0754
  N  N173  1  0.976000  0.146300  0.185100  1.0  -0.0778
  N  N174  1  0.975820  0.205200  0.274600  1.0  -0.3239
  N  N175  1  0.502030  0.727240  0.170600  1.0  -0.2942
  N  N176  1  0.477760  0.804200  0.143600  1.0  -0.0923
  N  N177  1  0.473600  0.841300  0.249000  1.0  -0.0966
  N  N178  1  0.495570  0.789220  0.347500  1.0  -0.2814
  N  N179  1  0.908700  0.397630  0.275300  1.0  0.0409
  N  N180  1  0.598440  0.602760  0.339700  1.0  0.053
  N  N181  1  0.978030  0.236100  0.592900  1.0  -0.283
  N  N182  1  0.977100  0.318200  0.576800  1.0  -0.0764
  N  N183  1  0.976000  0.353700  0.685100  1.0  -0.0786
  N  N184  1  0.975820  0.294800  0.774600  1.0  -0.3244
  N  N185  1  0.502030  0.772760  0.670600  1.0  -0.2946
  N  N186  1  0.477760  0.695800  0.643600  1.0  -0.0927
  N  N187  1  0.473600  0.658700  0.749000  1.0  -0.0965
  N  N188  1  0.495570  0.710780  0.847500  1.0  -0.2803
  N  N189  1  0.908700  0.102370  0.775300  1.0  0.0411
  N  N190  1  0.598440  0.897240  0.839700  1.0  0.0531
  N  N191  1  0.021970  0.736100  0.907100  1.0  -0.2838
  N  N192  1  0.022900  0.818200  0.923200  1.0  -0.0768
  N  N193  1  0.024000  0.853700  0.814900  1.0  -0.0783
  N  N194  1  0.024180  0.794800  0.725400  1.0  -0.3257
  N  N195  1  0.497970  0.272760  0.829400  1.0  -0.2966
  N  N196  1  0.522240  0.195800  0.856400  1.0  -0.0917
  N  N197  1  0.526400  0.158700  0.751000  1.0  -0.0962
  N  N198  1  0.504430  0.210780  0.652500  1.0  -0.2809
  N  N199  1  0.091300  0.602370  0.724700  1.0  0.0398
  N  N200  1  0.401560  0.397240  0.660300  1.0  0.054
  O  O201  1  0.919050  0.610120  0.051200  1.0  -0.5829
  O  O202  1  0.899740  0.590800  0.843400  1.0  -0.5544
  O  O203  1  0.644630  0.696690  0.008800  1.0  -0.5739
  O  O204  1  0.581850  0.585700  0.032800  1.0  -0.5946
  O  O205  1  0.562010  0.457160  0.835600  1.0  -0.5812
  O  O206  1  0.595060  0.394770  0.021300  1.0  -0.5964
  O  O207  1  0.841990  0.334300  0.873200  1.0  -0.5999
  O  O208  1  0.919440  0.424590  0.965300  1.0  -0.5842
  O  O209  1  0.080950  0.110120  0.448800  1.0  -0.582
  O  O210  1  0.100260  0.090800  0.656600  1.0  -0.5542
  O  O211  1  0.355370  0.196690  0.491200  1.0  -0.5753
  O  O212  1  0.418150  0.085700  0.467200  1.0  -0.5925
  O  O213  1  0.437990  0.957160  0.664400  1.0  -0.5816
  O  O214  1  0.404940  0.894770  0.478700  1.0  -0.5965
  O  O215  1  0.158010  0.834300  0.626800  1.0  -0.6003
  O  O216  1  0.080560  0.924590  0.534700  1.0  -0.5835
  O  O217  1  0.080950  0.389880  0.948800  1.0  -0.5826
  O  O218  1  0.100260  0.409200  0.156600  1.0  -0.5533
  O  O219  1  0.355370  0.303310  0.991200  1.0  -0.5751
  O  O220  1  0.418150  0.414300  0.967200  1.0  -0.5927
  O  O221  1  0.437990  0.542840  0.164400  1.0  -0.5817
  O  O222  1  0.404940  0.605230  0.978700  1.0  -0.5984
  O  O223  1  0.158010  0.665700  0.126800  1.0  -0.6006
  O  O224  1  0.080560  0.575410  0.034700  1.0  -0.5834
  O  O225  1  0.919050  0.889880  0.551200  1.0  -0.582
  O  O226  1  0.899740  0.909200  0.343400  1.0  -0.5539
  O  O227  1  0.644630  0.803310  0.508800  1.0  -0.5741
  O  O228  1  0.581850  0.914300  0.532800  1.0  -0.5949
  O  O229  1  0.562010  0.042840  0.335600  1.0  -0.5821
  O  O230  1  0.595060  0.105230  0.521300  1.0  -0.5978
  O  O231  1  0.841990  0.165700  0.373200  1.0  -0.6004
  O  O232  1  0.919440  0.075410  0.465300  1.0  -0.5841
