# generated using pymatgen
data_Zn2H23C38(NO)6
_symmetry_space_group_name_H-M   'P 1'
_cell_length_a   14.99530000
_cell_length_b   17.53350000
_cell_length_c   20.23810000
_cell_angle_alpha   115.22500000
_cell_angle_beta   92.32900000
_cell_angle_gamma   105.60600000
_symmetry_Int_Tables_number   1
_chemical_formula_structural   Zn2H23C38(NO)6
_chemical_formula_sum   'Zn8 H92 C152 N24 O24'
_cell_volume   4561.91536043
_cell_formula_units_Z   4
loop_
 _symmetry_equiv_pos_site_id
 _symmetry_equiv_pos_as_xyz
  1  'x, y, z'
loop_
 _atom_site_type_symbol
 _atom_site_label
 _atom_site_symmetry_multiplicity
 _atom_site_fract_x
 _atom_site_fract_y
 _atom_site_fract_z
 _atom_site_occupancy
 _atom_site_charge
  Zn  Zn1  1  0.731280  0.639950  0.347360  1.0  0.8678
  Zn  Zn2  1  0.797100  0.701820  0.942550  1.0  0.849
  Zn  Zn3  1  0.858080  0.778130  0.678500  1.0  0.8362
  Zn  Zn4  1  0.687620  0.556970  0.607390  1.0  0.801
  Zn  Zn5  1  0.268720  0.360050  0.652640  1.0  0.8662
  Zn  Zn6  1  0.202900  0.298180  0.057450  1.0  0.8524
  Zn  Zn7  1  0.141920  0.221870  0.321500  1.0  0.837
  Zn  Zn8  1  0.312380  0.443030  0.392610  1.0  0.7982
  H  H9  1  0.680000  0.206600  0.173100  1.0  0.1269
  H  H10  1  0.607500  0.690300  0.992000  1.0  0.0943
  H  H11  1  0.529800  0.610400  0.286000  1.0  0.0763
  H  H12  1  0.428600  0.691200  0.295200  1.0  0.1111
  H  H13  1  0.346500  0.122100  0.419100  1.0  0.1121
  H  H14  1  0.608300  0.121000  0.471200  1.0  0.1181
  H  H15  1  0.558100  0.981200  0.401800  1.0  0.1149
  H  H16  1  0.404400  0.273600  0.460700  1.0  0.0964
  H  H17  1  0.635500  0.062800  0.105000  1.0  0.1233
  H  H18  1  0.771200  0.056000  0.743500  1.0  0.1102
  H  H19  1  0.695300  0.569300  0.773100  1.0  0.0786
  H  H20  1  0.333800  0.767100  0.343600  1.0  0.1236
  H  H21  1  0.869400  0.971500  0.719700  1.0  0.0808
  H  H22  1  0.719300  0.361200  0.241100  1.0  0.1103
  H  H23  1  0.469300  0.913300  0.720400  1.0  0.1185
  H  H24  1  0.806900  0.892600  0.003000  1.0  0.0744
  H  H25  1  0.687800  0.140100  0.808300  1.0  0.12
  H  H26  1  0.883100  0.797700  0.841000  1.0  0.0709
  H  H27  1  0.636100  0.908700  0.429500  1.0  0.1101
  H  H28  1  0.669300  0.771600  0.713200  1.0  0.0821
  H  H29  1  0.568900  0.853600  0.741600  1.0  0.1005
  H  H30  1  0.647000  0.543100  0.444200  1.0  0.0874
  H  H31  1  0.846100  0.767100  0.516400  1.0  0.0886
  H  H32  1  0.413400  0.841100  0.030200  1.0  0.1116
  H  H33  1  0.409500  0.193200  0.139600  1.0  0.0927
  H  H34  1  0.723400  0.273600  0.819400  1.0  0.1091
  H  H35  1  0.511800  0.776200  0.033700  1.0  0.1047
  H  H36  1  0.462000  0.268400  0.853300  1.0  0.1042
  H  H37  1  0.103500  0.734800  0.993000  1.0  0.1083
  H  H38  1  0.660900  0.274800  0.522200  1.0  0.1067
  H  H39  1  0.450200  0.344300  0.203100  1.0  0.1179
  H  H40  1  0.249500  0.032500  0.100000  1.0  0.0813
  H  H41  1  0.734400  0.824200  0.412600  1.0  0.0858
  H  H42  1  0.769100  0.423600  0.866300  1.0  0.1094
  H  H43  1  0.507300  0.422100  0.892800  1.0  0.1077
  H  H44  1  0.265300  0.788100  0.015800  1.0  0.1264
  H  H45  1  0.714500  0.981000  0.041700  1.0  0.115
  H  H46  1  0.091000  0.980300  0.064700  1.0  0.1202
  H  H47  1  0.162400  0.810100  0.712500  1.0  0.112
  H  H48  1  0.324500  0.876300  0.744100  1.0  0.1113
  H  H49  1  0.299900  0.074200  0.701400  1.0  0.0999
  H  H50  1  0.137900  0.008100  0.669800  1.0  0.1045
  H  H51  1  0.023300  0.915100  0.429200  1.0  0.1098
  H  H52  1  0.184400  0.967000  0.434900  1.0  0.1062
  H  H53  1  0.182200  0.718400  0.302600  1.0  0.1109
  H  H54  1  0.021100  0.666400  0.296900  1.0  0.1065
  H  H55  1  0.320000  0.793400  0.826900  1.0  0.1277
  H  H56  1  0.392500  0.309700  0.008000  1.0  0.0936
  H  H57  1  0.470200  0.389600  0.714000  1.0  0.0731
  H  H58  1  0.571400  0.308800  0.704800  1.0  0.1109
  H  H59  1  0.653500  0.877900  0.580900  1.0  0.1133
  H  H60  1  0.391700  0.879000  0.528800  1.0  0.1182
  H  H61  1  0.441900  0.018800  0.598200  1.0  0.1157
  H  H62  1  0.595600  0.726400  0.539300  1.0  0.096
  H  H63  1  0.364500  0.937200  0.895000  1.0  0.1233
  H  H64  1  0.228800  0.944000  0.256500  1.0  0.1108
  H  H65  1  0.304700  0.430700  0.226900  1.0  0.0787
  H  H66  1  0.666200  0.232900  0.656400  1.0  0.123
  H  H67  1  0.130600  0.028500  0.280300  1.0  0.0798
  H  H68  1  0.280700  0.638800  0.758900  1.0  0.1106
  H  H69  1  0.530700  0.086700  0.279600  1.0  0.1186
  H  H70  1  0.193100  0.107400  0.997000  1.0  0.0746
  H  H71  1  0.312200  0.859900  0.191700  1.0  0.1189
  H  H72  1  0.116900  0.202300  0.159000  1.0  0.0706
  H  H73  1  0.363900  0.091300  0.570500  1.0  0.1104
  H  H74  1  0.330700  0.228400  0.286800  1.0  0.0825
  H  H75  1  0.431100  0.146400  0.258400  1.0  0.1005
  H  H76  1  0.353000  0.456900  0.555800  1.0  0.0878
  H  H77  1  0.153900  0.232900  0.483600  1.0  0.0883
  H  H78  1  0.586600  0.158900  0.969800  1.0  0.1119
  H  H79  1  0.590500  0.806800  0.860400  1.0  0.0925
  H  H80  1  0.276600  0.726400  0.180600  1.0  0.1078
  H  H81  1  0.488200  0.223800  0.966300  1.0  0.1046
  H  H82  1  0.538000  0.731600  0.146700  1.0  0.105
  H  H83  1  0.896500  0.265200  0.007000  1.0  0.1081
  H  H84  1  0.339100  0.725200  0.477800  1.0  0.1071
  H  H85  1  0.549800  0.655700  0.796900  1.0  0.1183
  H  H86  1  0.750500  0.967500  0.900000  1.0  0.0814
  H  H87  1  0.265600  0.175800  0.587400  1.0  0.0856
  H  H88  1  0.230900  0.576400  0.133700  1.0  0.1081
  H  H89  1  0.492700  0.577900  0.107200  1.0  0.1068
  H  H90  1  0.734700  0.211900  0.984200  1.0  0.1264
  H  H91  1  0.285500  0.019000  0.958300  1.0  0.1154
  H  H92  1  0.909000  0.019700  0.935300  1.0  0.1214
  H  H93  1  0.837600  0.189900  0.287500  1.0  0.1116
  H  H94  1  0.675500  0.123700  0.255900  1.0  0.1105
  H  H95  1  0.700100  0.925800  0.298600  1.0  0.0998
  H  H96  1  0.862100  0.991900  0.330200  1.0  0.1042
  H  H97  1  0.976700  0.084900  0.570800  1.0  0.11
  H  H98  1  0.815600  0.033000  0.565100  1.0  0.1067
  H  H99  1  0.817800  0.281600  0.697400  1.0  0.1114
  H  H100  1  0.978900  0.333600  0.703100  1.0  0.1066
  C  C101  1  0.520500  0.810000  0.362200  1.0  0.0485
  C  C102  1  0.633300  0.233700  0.180500  1.0  -0.1207
  C  C103  1  0.629700  0.749700  0.002000  1.0  0.1694
  C  C104  1  0.552900  0.671900  0.313800  1.0  0.1749
  C  C105  1  0.539500  0.290700  0.493400  1.0  -0.0462
  C  C106  1  0.471600  0.105300  0.440500  1.0  -0.1232
  C  C107  1  0.490600  0.720400  0.320000  1.0  -0.1958
  C  C108  1  0.613000  0.465500  0.278800  1.0  0.6962
  C  C109  1  0.410300  0.152000  0.437900  1.0  -0.087
  C  C110  1  0.566600  0.151400  0.470300  1.0  -0.1219
  C  C111  1  0.493700  0.955400  0.396800  1.0  -0.0973
  C  C112  1  0.591000  0.017300  0.759900  1.0  0.0206
  C  C113  1  0.445400  0.243200  0.463600  1.0  -0.0378
  C  C114  1  0.571000  0.034200  0.095500  1.0  -0.0741
  C  C115  1  0.749000  0.998400  0.738200  1.0  -0.1815
  C  C116  1  0.535500  0.942100  0.063200  1.0  0.0037
  C  C117  1  0.434800  0.008000  0.412900  1.0  0.1987
  C  C118  1  0.737200  0.620200  0.774500  1.0  0.232
  C  C119  1  0.361100  0.828100  0.361900  1.0  -0.1061
  C  C120  1  0.807600  0.946800  0.723000  1.0  0.1786
  C  C121  1  0.656700  0.326800  0.220900  1.0  -0.0518
  C  C122  1  0.557800  0.156200  0.802400  1.0  0.1597
  C  C123  1  0.275500  0.918200  0.055900  1.0  -0.0653
  C  C124  1  0.456700  0.864400  0.373400  1.0  0.0113
  C  C125  1  0.589100  0.254700  0.833800  1.0  -0.0373
  C  C126  1  0.589100  0.367000  0.230800  1.0  -0.0971
  C  C127  1  0.507200  0.084000  0.113900  1.0  0.1765
  C  C128  1  0.493500  0.974900  0.741200  1.0  -0.0956
  C  C129  1  0.577500  0.389200  0.521700  1.0  0.697
  C  C130  1  0.539200  0.182900  0.151700  1.0  -0.0716
  C  C131  1  0.746000  0.867700  0.008000  1.0  0.1924
  C  C132  1  0.623600  0.109500  0.792800  1.0  -0.0934
  C  C133  1  0.838000  0.743300  0.810700  1.0  0.2587
  C  C134  1  0.613000  0.847900  0.398200  1.0  -0.1501
  C  C135  1  0.690600  0.829800  0.719800  1.0  0.1712
  C  C136  1  0.629500  0.879000  0.736400  1.0  -0.1816
  C  C137  1  0.694900  0.595300  0.474900  1.0  0.2193
  C  C138  1  0.802700  0.716600  0.514300  1.0  0.2618
  C  C139  1  0.439000  0.902600  0.050600  1.0  -0.0979
  C  C140  1  0.472200  0.226500  0.160400  1.0  -0.0323
  C  C141  1  0.656200  0.964600  0.745500  1.0  0.0692
  C  C142  1  0.679700  0.303100  0.836300  1.0  -0.1213
  C  C143  1  0.380400  0.956200  0.069000  1.0  0.1979
  C  C144  1  0.433300  0.025700  0.754100  1.0  0.2138
  C  C145  1  0.079700  0.853000  0.022200  1.0  -0.0993
  C  C146  1  0.303900  0.884000  0.378000  1.0  0.1871
  C  C147  1  0.571600  0.801300  0.026900  1.0  -0.1858
  C  C148  1  0.523800  0.299400  0.855100  1.0  -0.0575
  C  C149  1  0.133800  0.795300  0.010900  1.0  -0.0733
  C  C150  1  0.598500  0.243800  0.498900  1.0  -0.0487
  C  C151  1  0.496200  0.316600  0.198600  1.0  -0.0925
  C  C152  1  0.220400  0.971400  0.073600  1.0  -0.0717
  C  C153  1  0.672100  0.796700  0.388400  1.0  0.1574
  C  C154  1  0.706600  0.392800  0.862800  1.0  -0.0693
  C  C155  1  0.551600  0.392400  0.879800  1.0  -0.11
  C  C156  1  0.230400  0.827000  0.025700  1.0  -0.0862
  C  C157  1  0.691000  0.921700  0.032000  1.0  -0.2005
  C  C158  1  0.903300  0.751600  0.363100  1.0  0.7065
  C  C159  1  0.600500  0.888500  0.041700  1.0  0.0707
  C  C160  1  0.643300  0.439100  0.884700  1.0  -0.0431
  C  C161  1  0.124900  0.940500  0.054800  1.0  -0.1529
  C  C162  1  0.670000  0.533500  0.903500  1.0  0.693
  C  C163  1  0.973600  0.814700  0.993400  1.0  0.7038
  C  C164  1  0.134100  0.902500  0.688000  1.0  -0.1311
  C  C165  1  0.190000  0.863000  0.710300  1.0  -0.0367
  C  C166  1  0.287100  0.902700  0.729200  1.0  -0.1109
  C  C167  1  0.328200  0.981800  0.725900  1.0  -0.015
  C  C168  1  0.272300  0.021300  0.703600  1.0  -0.0612
  C  C169  1  0.175300  0.981600  0.684700  1.0  -0.0644
  C  C170  1  0.029600  0.864500  0.676700  1.0  0.6723
  C  C171  1  0.055200  0.875700  0.403800  1.0  -0.0604
  C  C172  1  0.151700  0.906800  0.407200  1.0  -0.0333
  C  C173  1  0.199300  0.847800  0.369300  1.0  -0.0394
  C  C174  1  0.150400  0.757800  0.328000  1.0  -0.1258
  C  C175  1  0.053900  0.726700  0.324500  1.0  -0.0581
  C  C176  1  0.006300  0.785600  0.362500  1.0  -0.1399
  C  C177  1  0.479500  0.190000  0.637800  1.0  0.0482
  C  C178  1  0.366700  0.766300  0.819500  1.0  -0.1222
  C  C179  1  0.370300  0.250300  0.998000  1.0  0.1708
  C  C180  1  0.447100  0.328100  0.686200  1.0  0.1757
  C  C181  1  0.460500  0.709300  0.506600  1.0  -0.0505
  C  C182  1  0.528400  0.894700  0.559500  1.0  -0.1226
  C  C183  1  0.509400  0.279600  0.680000  1.0  -0.1984
  C  C184  1  0.387000  0.534500  0.721200  1.0  0.6952
  C  C185  1  0.589700  0.848000  0.562100  1.0  -0.0885
  C  C186  1  0.433400  0.848600  0.529700  1.0  -0.1225
  C  C187  1  0.506300  0.044600  0.603200  1.0  -0.0983
  C  C188  1  0.409000  0.982700  0.240100  1.0  0.0209
  C  C189  1  0.554600  0.756800  0.536400  1.0  -0.0389
  C  C190  1  0.429000  0.965800  0.904500  1.0  -0.0742
  C  C191  1  0.251000  0.001600  0.261800  1.0  -0.181
  C  C192  1  0.464500  0.057900  0.936800  1.0  0.0042
  C  C193  1  0.565200  0.992000  0.587100  1.0  0.1984
  C  C194  1  0.262800  0.379800  0.225500  1.0  0.2323
  C  C195  1  0.638900  0.171900  0.638100  1.0  -0.1082
  C  C196  1  0.192400  0.053200  0.277000  1.0  0.1778
  C  C197  1  0.343300  0.673200  0.779100  1.0  -0.0524
  C  C198  1  0.442200  0.843800  0.197600  1.0  0.1599
  C  C199  1  0.724500  0.081800  0.944100  1.0  -0.066
  C  C200  1  0.543300  0.135600  0.626600  1.0  0.0114
  C  C201  1  0.410900  0.745300  0.166200  1.0  -0.0366
  C  C202  1  0.410900  0.633000  0.769200  1.0  -0.0963
  C  C203  1  0.492800  0.916000  0.886100  1.0  0.1758
  C  C204  1  0.506500  0.025100  0.258800  1.0  -0.0962
  C  C205  1  0.422500  0.610800  0.478300  1.0  0.6975
  C  C206  1  0.460800  0.817100  0.848300  1.0  -0.0741
  C  C207  1  0.254000  0.132300  0.992000  1.0  0.1921
  C  C208  1  0.376400  0.890500  0.207200  1.0  -0.0952
  C  C209  1  0.162000  0.256700  0.189300  1.0  0.2593
  C  C210  1  0.387000  0.152100  0.601800  1.0  -0.1464
  C  C211  1  0.309400  0.170200  0.280200  1.0  0.1706
  C  C212  1  0.370500  0.121000  0.263600  1.0  -0.1835
  C  C213  1  0.305100  0.404700  0.525100  1.0  0.219
  C  C214  1  0.197300  0.283400  0.485700  1.0  0.2614
  C  C215  1  0.561000  0.097400  0.949400  1.0  -0.0968
  C  C216  1  0.527800  0.773500  0.839600  1.0  -0.0327
  C  C217  1  0.343800  0.035400  0.254500  1.0  0.0696
  C  C218  1  0.320300  0.696900  0.163700  1.0  -0.1182
  C  C219  1  0.619600  0.043800  0.931000  1.0  0.1987
  C  C220  1  0.566700  0.974300  0.245900  1.0  0.2141
  C  C221  1  0.920300  0.147000  0.977800  1.0  -0.0972
  C  C222  1  0.696100  0.116000  0.622000  1.0  0.1875
  C  C223  1  0.428400  0.198700  0.973100  1.0  -0.1866
  C  C224  1  0.476200  0.700600  0.144900  1.0  -0.058
  C  C225  1  0.866200  0.204700  0.989100  1.0  -0.0709
  C  C226  1  0.401500  0.756200  0.501100  1.0  -0.0467
  C  C227  1  0.503800  0.683400  0.801400  1.0  -0.0958
  C  C228  1  0.779600  0.028600  0.926400  1.0  -0.0744
  C  C229  1  0.327900  0.203300  0.611600  1.0  0.1565
  C  C230  1  0.293400  0.607200  0.137200  1.0  -0.0696
  C  C231  1  0.448400  0.607600  0.120200  1.0  -0.1126
  C  C232  1  0.769600  0.173000  0.974300  1.0  -0.0855
  C  C233  1  0.309000  0.078300  0.968000  1.0  -0.1984
  C  C234  1  0.096700  0.248400  0.636900  1.0  0.7051
  C  C235  1  0.399500  0.111500  0.958300  1.0  0.0709
  C  C236  1  0.356700  0.560900  0.115300  1.0  -0.0448
  C  C237  1  0.875100  0.059500  0.945200  1.0  -0.1534
  C  C238  1  0.330000  0.466500  0.096500  1.0  0.6943
  C  C239  1  0.026400  0.185300  0.006600  1.0  0.7046
  C  C240  1  0.865900  0.097500  0.312000  1.0  -0.1297
  C  C241  1  0.810000  0.137000  0.289700  1.0  -0.038
  C  C242  1  0.712900  0.097300  0.270800  1.0  -0.1091
  C  C243  1  0.671800  0.018200  0.274100  1.0  -0.0139
  C  C244  1  0.727700  0.978700  0.296400  1.0  -0.061
  C  C245  1  0.824700  0.018400  0.315300  1.0  -0.0631
  C  C246  1  0.970400  0.135500  0.323300  1.0  0.6707
  C  C247  1  0.944800  0.124300  0.596200  1.0  -0.0596
  C  C248  1  0.848300  0.093200  0.592800  1.0  -0.0309
  C  C249  1  0.800700  0.152200  0.630700  1.0  -0.0381
  C  C250  1  0.849600  0.242200  0.672000  1.0  -0.1269
  C  C251  1  0.946100  0.273300  0.675500  1.0  -0.0569
  C  C252  1  0.993700  0.214400  0.637500  1.0  -0.14
  N  N253  1  0.641900  0.708200  0.344800  1.0  -0.316
  N  N254  1  0.721800  0.621200  0.545300  1.0  -0.2382
  N  N255  1  0.464000  0.114700  0.783500  1.0  -0.4654
  N  N256  1  0.779900  0.862700  0.713000  1.0  -0.3351
  N  N257  1  0.815900  0.714000  0.739900  1.0  -0.2832
  N  N258  1  0.341200  0.972100  0.404300  1.0  -0.4623
  N  N259  1  0.414000  0.044400  0.100100  1.0  -0.5477
  N  N260  1  0.750500  0.632300  0.715300  1.0  -0.227
  N  N261  1  0.792200  0.700900  0.571500  1.0  -0.2908
  N  N262  1  0.718200  0.782200  0.991600  1.0  -0.3281
  N  N263  1  0.743600  0.651800  0.452100  1.0  -0.4076
  N  N264  1  0.790900  0.689200  0.837200  1.0  -0.4264
  N  N265  1  0.358100  0.291800  0.655200  1.0  -0.3148
  N  N266  1  0.278200  0.378800  0.454700  1.0  -0.234
  N  N267  1  0.536000  0.885300  0.216500  1.0  -0.4629
  N  N268  1  0.220100  0.137300  0.287000  1.0  -0.3378
  N  N269  1  0.184100  0.286000  0.260100  1.0  -0.2845
  N  N270  1  0.658800  0.027900  0.595700  1.0  -0.4604
  N  N271  1  0.586000  0.955600  0.899900  1.0  -0.547
  N  N272  1  0.249500  0.367700  0.284700  1.0  -0.227
  N  N273  1  0.207800  0.299100  0.428500  1.0  -0.2886
  N  N274  1  0.281800  0.217800  0.008400  1.0  -0.3274
  N  N275  1  0.256400  0.348200  0.547900  1.0  -0.4082
  N  N276  1  0.209100  0.310800  0.162800  1.0  -0.4268
  O  O277  1  0.640100  0.431600  0.580200  1.0  -0.6187
  O  O278  1  0.695200  0.513100  0.278900  1.0  -0.6079
  O  O279  1  0.557100  0.495800  0.315900  1.0  -0.5655
  O  O280  1  0.752700  0.581000  0.929100  1.0  -0.5955
  O  O281  1  0.929200  0.741000  0.986300  1.0  -0.5793
  O  O282  1  0.548700  0.424200  0.488000  1.0  -0.5884
  O  O283  1  0.858500  0.673900  0.326900  1.0  -0.5571
  O  O284  1  0.937900  0.860200  0.976600  1.0  -0.5008
  O  O285  1  0.609300  0.563400  0.885000  1.0  -0.566
  O  O286  1  0.872400  0.806500  0.416000  1.0  -0.549
  O  O287  1  0.992700  0.806400  0.692400  1.0  -0.5517
  O  O288  1  0.975100  0.886700  0.641200  1.0  -0.6206
  O  O289  1  0.359900  0.568400  0.419800  1.0  -0.6202
  O  O290  1  0.304800  0.486900  0.721100  1.0  -0.6089
  O  O291  1  0.442900  0.504200  0.684100  1.0  -0.5664
  O  O292  1  0.247300  0.419000  0.070900  1.0  -0.5971
  O  O293  1  0.070800  0.259000  0.013700  1.0  -0.5834
  O  O294  1  0.451300  0.575800  0.512000  1.0  -0.5891
  O  O295  1  0.141500  0.326100  0.673100  1.0  -0.5587
  O  O296  1  0.062100  0.139800  0.023400  1.0  -0.5015
  O  O297  1  0.390700  0.436600  0.115000  1.0  -0.5668
  O  O298  1  0.127600  0.193500  0.584000  1.0  -0.5488
  O  O299  1  0.007300  0.193600  0.307600  1.0  -0.5502
  O  O300  1  0.024900  0.113300  0.358800  1.0  -0.6193
