# generated using pymatgen
data_ZnHC5O4
_symmetry_space_group_name_H-M   'P 1'
_cell_length_a   11.81050000
_cell_length_b   18.77750000
_cell_length_c   18.77750000
_cell_angle_alpha   90.00000000
_cell_angle_beta   90.00000000
_cell_angle_gamma   90.00000000
_symmetry_Int_Tables_number   1
_chemical_formula_structural   ZnHC5O4
_chemical_formula_sum   'Zn16 H16 C80 O64'
_cell_volume   4164.31741607
_cell_formula_units_Z   16
loop_
 _symmetry_equiv_pos_site_id
 _symmetry_equiv_pos_as_xyz
  1  'x, y, z'
loop_
 _atom_site_type_symbol
 _atom_site_label
 _atom_site_symmetry_multiplicity
 _atom_site_fract_x
 _atom_site_fract_y
 _atom_site_fract_z
 _atom_site_occupancy
 _atom_site_charge
  Zn  Zn1  1  0.500040  0.147280  0.810090  1.0  1.1839
  Zn  Zn2  1  0.321540  0.277390  0.773200  1.0  1.0442
  Zn  Zn3  1  0.500040  0.852720  0.189910  1.0  1.1842
  Zn  Zn4  1  0.321540  0.722610  0.226800  1.0  1.0442
  Zn  Zn5  1  0.000040  0.189910  0.147280  1.0  1.1837
  Zn  Zn6  1  0.821540  0.226800  0.277390  1.0  1.046
  Zn  Zn7  1  0.000040  0.810090  0.852720  1.0  1.1838
  Zn  Zn8  1  0.821540  0.773200  0.722610  1.0  1.0448
  Zn  Zn9  1  0.500040  0.647280  0.689910  1.0  1.1842
  Zn  Zn10  1  0.321540  0.777390  0.726800  1.0  1.0443
  Zn  Zn11  1  0.500040  0.352720  0.310090  1.0  1.1837
  Zn  Zn12  1  0.321540  0.222610  0.273200  1.0  1.0441
  Zn  Zn13  1  0.000040  0.689910  0.352720  1.0  1.183
  Zn  Zn14  1  0.821540  0.726800  0.222610  1.0  1.0444
  Zn  Zn15  1  0.000040  0.310090  0.647280  1.0  1.1831
  Zn  Zn16  1  0.821540  0.273200  0.777390  1.0  1.0462
  H  H17  1  0.764700  0.230900  0.001100  1.0  0.1118
  H  H18  1  0.387800  0.273500  0.047500  1.0  0.1154
  H  H19  1  0.764700  0.769100  0.998900  1.0  0.1118
  H  H20  1  0.387800  0.726500  0.952500  1.0  0.1161
  H  H21  1  0.264700  0.998900  0.230900  1.0  0.112
  H  H22  1  0.887800  0.952500  0.273500  1.0  0.1154
  H  H23  1  0.264700  0.001100  0.769100  1.0  0.1117
  H  H24  1  0.887800  0.047500  0.726500  1.0  0.1158
  H  H25  1  0.764700  0.730900  0.498900  1.0  0.1118
  H  H26  1  0.387800  0.773500  0.452500  1.0  0.116
  H  H27  1  0.764700  0.269100  0.501100  1.0  0.1123
  H  H28  1  0.387800  0.226500  0.547500  1.0  0.1156
  H  H29  1  0.264700  0.498900  0.269100  1.0  0.1117
  H  H30  1  0.887800  0.452500  0.226500  1.0  0.116
  H  H31  1  0.264700  0.501100  0.730900  1.0  0.1116
  H  H32  1  0.887800  0.547500  0.773500  1.0  0.1152
  C  C33  1  0.500400  0.260400  0.967600  1.0  -0.1197
  C  C34  1  0.615200  0.247000  0.953800  1.0  -0.1178
  C  C35  1  0.688400  0.238800  0.010400  1.0  -0.0214
  C  C36  1  0.652100  0.241800  0.081000  1.0  -0.1305
  C  C37  1  0.538100  0.256400  0.095600  1.0  -0.0501
  C  C38  1  0.463900  0.264800  0.038400  1.0  -0.0334
  C  C39  1  0.410300  0.269000  0.910900  1.0  0.6753
  C  C40  1  0.670400  0.240700  0.881000  1.0  0.721
  C  C41  1  0.739900  0.226700  0.136900  1.0  0.7423
  C  C42  1  0.488600  0.264200  0.169300  1.0  0.7379
  C  C43  1  0.500400  0.739600  0.032400  1.0  -0.1192
  C  C44  1  0.615200  0.753000  0.046200  1.0  -0.1174
  C  C45  1  0.688400  0.761200  0.989600  1.0  -0.0217
  C  C46  1  0.652100  0.758200  0.919000  1.0  -0.1314
  C  C47  1  0.538100  0.743600  0.904400  1.0  -0.0502
  C  C48  1  0.463900  0.735200  0.961600  1.0  -0.0335
  C  C49  1  0.410300  0.731000  0.089100  1.0  0.6761
  C  C50  1  0.670400  0.759300  0.119000  1.0  0.7224
  C  C51  1  0.739900  0.773300  0.863100  1.0  0.742
  C  C52  1  0.488600  0.735800  0.830700  1.0  0.7374
  C  C53  1  0.000400  0.032400  0.260400  1.0  -0.1197
  C  C54  1  0.115200  0.046200  0.247000  1.0  -0.1179
  C  C55  1  0.188400  0.989600  0.238800  1.0  -0.0217
  C  C56  1  0.152100  0.919000  0.241800  1.0  -0.1317
  C  C57  1  0.038100  0.904400  0.256400  1.0  -0.0511
  C  C58  1  0.963900  0.961600  0.264800  1.0  -0.0339
  C  C59  1  0.910300  0.089100  0.269000  1.0  0.6767
  C  C60  1  0.170400  0.119000  0.240700  1.0  0.7204
  C  C61  1  0.239900  0.863100  0.226700  1.0  0.7409
  C  C62  1  0.988600  0.830700  0.264200  1.0  0.7366
  C  C63  1  0.000400  0.967600  0.739600  1.0  -0.1198
  C  C64  1  0.115200  0.953800  0.753000  1.0  -0.1186
  C  C65  1  0.188400  0.010400  0.761200  1.0  -0.0216
  C  C66  1  0.152100  0.081000  0.758200  1.0  -0.1315
  C  C67  1  0.038100  0.095600  0.743600  1.0  -0.0505
  C  C68  1  0.963900  0.038400  0.735200  1.0  -0.0342
  C  C69  1  0.910300  0.910900  0.731000  1.0  0.6755
  C  C70  1  0.170400  0.881000  0.759300  1.0  0.7201
  C  C71  1  0.239900  0.136900  0.773300  1.0  0.742
  C  C72  1  0.988600  0.169300  0.735800  1.0  0.7372
  C  C73  1  0.500400  0.760400  0.532400  1.0  -0.1195
  C  C74  1  0.615200  0.747000  0.546200  1.0  -0.1175
  C  C75  1  0.688400  0.738800  0.489600  1.0  -0.0218
  C  C76  1  0.652100  0.741800  0.419000  1.0  -0.1315
  C  C77  1  0.538100  0.756400  0.404400  1.0  -0.0502
  C  C78  1  0.463900  0.764800  0.461600  1.0  -0.0334
  C  C79  1  0.410300  0.769000  0.589100  1.0  0.6754
  C  C80  1  0.670400  0.740700  0.619000  1.0  0.7224
  C  C81  1  0.739900  0.726700  0.363100  1.0  0.7424
  C  C82  1  0.488600  0.764200  0.330700  1.0  0.7376
  C  C83  1  0.500400  0.239600  0.467600  1.0  -0.1198
  C  C84  1  0.615200  0.253000  0.453800  1.0  -0.1177
  C  C85  1  0.688400  0.261200  0.510400  1.0  -0.0214
  C  C86  1  0.652100  0.258200  0.581000  1.0  -0.1304
  C  C87  1  0.538100  0.243600  0.595600  1.0  -0.0501
  C  C88  1  0.463900  0.235200  0.538400  1.0  -0.0335
  C  C89  1  0.410300  0.231000  0.410900  1.0  0.676
  C  C90  1  0.670400  0.259300  0.381000  1.0  0.721
  C  C91  1  0.739900  0.273300  0.636900  1.0  0.7418
  C  C92  1  0.488600  0.235800  0.669300  1.0  0.7378
  C  C93  1  0.000400  0.532400  0.239600  1.0  -0.1199
  C  C94  1  0.115200  0.546200  0.253000  1.0  -0.1179
  C  C95  1  0.188400  0.489600  0.261200  1.0  -0.0218
  C  C96  1  0.152100  0.419000  0.258200  1.0  -0.1316
  C  C97  1  0.038100  0.404400  0.243600  1.0  -0.051
  C  C98  1  0.963900  0.461600  0.235200  1.0  -0.0342
  C  C99  1  0.910300  0.589100  0.231000  1.0  0.676
  C  C100  1  0.170400  0.619000  0.259300  1.0  0.7203
  C  C101  1  0.239900  0.363100  0.273300  1.0  0.7414
  C  C102  1  0.988600  0.330700  0.235800  1.0  0.7369
  C  C103  1  0.000400  0.467600  0.760400  1.0  -0.1198
  C  C104  1  0.115200  0.453800  0.747000  1.0  -0.1187
  C  C105  1  0.188400  0.510400  0.738800  1.0  -0.0215
  C  C106  1  0.152100  0.581000  0.741800  1.0  -0.1314
  C  C107  1  0.038100  0.595600  0.756400  1.0  -0.0506
  C  C108  1  0.963900  0.538400  0.764800  1.0  -0.0339
  C  C109  1  0.910300  0.410900  0.769000  1.0  0.676
  C  C110  1  0.170400  0.381000  0.740700  1.0  0.7201
  C  C111  1  0.239900  0.636900  0.726700  1.0  0.7415
  C  C112  1  0.988600  0.669300  0.764200  1.0  0.7369
  O  O113  1  0.439100  0.255800  0.846200  1.0  -0.7115
  O  O114  1  0.316000  0.285200  0.927500  1.0  -0.4882
  O  O115  1  0.650300  0.191500  0.839400  1.0  -0.6189
  O  O116  1  0.747700  0.286400  0.869800  1.0  -0.5351
  O  O117  1  0.837500  0.212800  0.116000  1.0  -0.6803
  O  O118  1  0.709400  0.226500  0.200300  1.0  -0.5726
  O  O119  1  0.415900  0.217600  0.186400  1.0  -0.6218
  O  O120  1  0.515400  0.316100  0.205500  1.0  -0.6289
  O  O121  1  0.439100  0.744200  0.153800  1.0  -0.7099
  O  O122  1  0.316000  0.714800  0.072500  1.0  -0.4874
  O  O123  1  0.650300  0.808500  0.160600  1.0  -0.6191
  O  O124  1  0.747700  0.713600  0.130200  1.0  -0.5347
  O  O125  1  0.837500  0.787200  0.884000  1.0  -0.6797
  O  O126  1  0.709400  0.773500  0.799700  1.0  -0.5725
  O  O127  1  0.415900  0.782400  0.813600  1.0  -0.6216
  O  O128  1  0.515400  0.683900  0.794500  1.0  -0.6279
  O  O129  1  0.939100  0.153800  0.255800  1.0  -0.7105
  O  O130  1  0.816000  0.072500  0.285200  1.0  -0.4869
  O  O131  1  0.150300  0.160600  0.191500  1.0  -0.6208
  O  O132  1  0.247700  0.130200  0.286400  1.0  -0.5346
  O  O133  1  0.337500  0.884000  0.212800  1.0  -0.6834
  O  O134  1  0.209400  0.799700  0.226500  1.0  -0.5734
  O  O135  1  0.915900  0.813600  0.217600  1.0  -0.6212
  O  O136  1  0.015400  0.794500  0.316100  1.0  -0.6287
  O  O137  1  0.939100  0.846200  0.744200  1.0  -0.7113
  O  O138  1  0.816000  0.927500  0.714800  1.0  -0.4874
  O  O139  1  0.150300  0.839400  0.808500  1.0  -0.6203
  O  O140  1  0.247700  0.869800  0.713600  1.0  -0.5347
  O  O141  1  0.337500  0.116000  0.787200  1.0  -0.6819
  O  O142  1  0.209400  0.200300  0.773500  1.0  -0.5737
  O  O143  1  0.915900  0.186400  0.782400  1.0  -0.6219
  O  O144  1  0.015400  0.205500  0.683900  1.0  -0.6277
  O  O145  1  0.439100  0.755800  0.653800  1.0  -0.7104
  O  O146  1  0.316000  0.785200  0.572500  1.0  -0.4879
  O  O147  1  0.650300  0.691500  0.660600  1.0  -0.6182
  O  O148  1  0.747700  0.786400  0.630200  1.0  -0.5351
  O  O149  1  0.837500  0.712800  0.384000  1.0  -0.679
  O  O150  1  0.709400  0.726500  0.299700  1.0  -0.5723
  O  O151  1  0.415900  0.717600  0.313600  1.0  -0.6221
  O  O152  1  0.515400  0.816100  0.294500  1.0  -0.6284
  O  O153  1  0.439100  0.244200  0.346200  1.0  -0.7111
  O  O154  1  0.316000  0.214800  0.427500  1.0  -0.4869
  O  O155  1  0.650300  0.308500  0.339400  1.0  -0.6195
  O  O156  1  0.747700  0.213600  0.369800  1.0  -0.5351
  O  O157  1  0.837500  0.287200  0.616000  1.0  -0.6802
  O  O158  1  0.709400  0.273500  0.700300  1.0  -0.5729
  O  O159  1  0.415900  0.282400  0.686400  1.0  -0.6218
  O  O160  1  0.515400  0.183900  0.705500  1.0  -0.6286
  O  O161  1  0.939100  0.653800  0.244200  1.0  -0.7103
  O  O162  1  0.816000  0.572500  0.214800  1.0  -0.4871
  O  O163  1  0.150300  0.660600  0.308500  1.0  -0.6212
  O  O164  1  0.247700  0.630200  0.213600  1.0  -0.5351
  O  O165  1  0.337500  0.384000  0.287200  1.0  -0.6834
  O  O166  1  0.209400  0.299700  0.273500  1.0  -0.573
  O  O167  1  0.915900  0.313600  0.282400  1.0  -0.6221
  O  O168  1  0.015400  0.294500  0.183900  1.0  -0.628
  O  O169  1  0.939100  0.346200  0.755800  1.0  -0.7109
  O  O170  1  0.816000  0.427500  0.785200  1.0  -0.4876
  O  O171  1  0.150300  0.339400  0.691500  1.0  -0.6212
  O  O172  1  0.247700  0.369800  0.786400  1.0  -0.534
  O  O173  1  0.337500  0.616000  0.712800  1.0  -0.6819
  O  O174  1  0.209400  0.700300  0.726500  1.0  -0.5742
  O  O175  1  0.915900  0.686400  0.717600  1.0  -0.6213
  O  O176  1  0.015400  0.705500  0.816100  1.0  -0.6285
