# generated using pymatgen
data_Zn2H10C22NO8F
_symmetry_space_group_name_H-M   'P 1'
_cell_length_a   18.55700000
_cell_length_b   18.55700000
_cell_length_c   24.18900000
_cell_angle_alpha   90.00000000
_cell_angle_beta   90.00000000
_cell_angle_gamma   120.00000000
_symmetry_Int_Tables_number   1
_chemical_formula_structural   Zn2H10C22NO8F
_chemical_formula_sum   'Zn12 H60 C132 N6 O48 F6'
_cell_volume   7213.79973785
_cell_formula_units_Z   6
loop_
 _symmetry_equiv_pos_site_id
 _symmetry_equiv_pos_as_xyz
  1  'x, y, z'
loop_
 _atom_site_type_symbol
 _atom_site_label
 _atom_site_symmetry_multiplicity
 _atom_site_fract_x
 _atom_site_fract_y
 _atom_site_fract_z
 _atom_site_occupancy
 _atom_site_charge
  Zn  Zn1  1  0.946030  0.473020  0.449750  1.0  1.129
  Zn  Zn2  1  0.526980  0.473020  0.449750  1.0  1.1188
  Zn  Zn3  1  0.526980  0.053970  0.449750  1.0  1.1238
  Zn  Zn4  1  0.053970  0.526980  0.949750  1.0  1.129
  Zn  Zn5  1  0.473020  0.526980  0.949750  1.0  1.1187
  Zn  Zn6  1  0.473020  0.946030  0.949750  1.0  1.1324
  Zn  Zn7  1  0.473020  0.946030  0.550250  1.0  1.1136
  Zn  Zn8  1  0.473020  0.526990  0.550250  1.0  1.1262
  Zn  Zn9  1  0.053970  0.526980  0.550250  1.0  1.1339
  Zn  Zn10  1  0.526980  0.053970  0.050250  1.0  1.1247
  Zn  Zn11  1  0.526980  0.473020  0.050250  1.0  1.1191
  Zn  Zn12  1  0.946030  0.473020  0.050250  1.0  1.128
  H  H13  1  0.925200  0.633200  0.638400  1.0  0.0991
  H  H14  1  0.366800  0.292000  0.638400  1.0  0.1005
  H  H15  1  0.708000  0.074800  0.638400  1.0  0.0997
  H  H16  1  0.074800  0.366800  0.138400  1.0  0.0996
  H  H17  1  0.633200  0.708000  0.138400  1.0  0.1001
  H  H18  1  0.292000  0.925200  0.138400  1.0  0.0992
  H  H19  1  0.633200  0.925200  0.361600  1.0  0.0996
  H  H20  1  0.292000  0.366800  0.361600  1.0  0.0997
  H  H21  1  0.074800  0.708000  0.361600  1.0  0.0995
  H  H22  1  0.366800  0.074800  0.861600  1.0  0.0997
  H  H23  1  0.708000  0.633200  0.861600  1.0  0.1003
  H  H24  1  0.925200  0.292000  0.861600  1.0  0.0999
  H  H25  1  0.074800  0.366800  0.361600  1.0  0.0995
  H  H26  1  0.633200  0.708000  0.361600  1.0  0.1003
  H  H27  1  0.292000  0.925200  0.361600  1.0  0.0995
  H  H28  1  0.925200  0.633200  0.861600  1.0  0.0997
  H  H29  1  0.366800  0.292000  0.861600  1.0  0.1007
  H  H30  1  0.708000  0.074800  0.861600  1.0  0.0999
  H  H31  1  0.366800  0.074800  0.638400  1.0  0.0994
  H  H32  1  0.708000  0.633200  0.638400  1.0  0.0993
  H  H33  1  0.925200  0.292000  0.638400  1.0  0.0994
  H  H34  1  0.633200  0.925200  0.138400  1.0  0.0993
  H  H35  1  0.292000  0.366800  0.138400  1.0  0.0996
  H  H36  1  0.074800  0.708000  0.138400  1.0  0.0996
  H  H37  1  0.898050  0.796100  0.663900  1.0  0.0925
  H  H38  1  0.765000  0.530000  0.510500  1.0  0.1037
  H  H39  1  0.765650  0.531300  0.781500  1.0  0.3187
  H  H40  1  0.203900  0.101950  0.663900  1.0  0.0916
  H  H41  1  0.470000  0.235000  0.510500  1.0  0.1031
  H  H42  1  0.468700  0.234350  0.781500  1.0  0.3199
  H  H43  1  0.898050  0.101950  0.663900  1.0  0.0919
  H  H44  1  0.765000  0.235000  0.510500  1.0  0.1035
  H  H45  1  0.765650  0.234350  0.781500  1.0  0.3195
  H  H46  1  0.101950  0.203900  0.163900  1.0  0.092
  H  H47  1  0.235000  0.470000  0.010500  1.0  0.1032
  H  H48  1  0.234350  0.468700  0.281500  1.0  0.3195
  H  H49  1  0.796100  0.898050  0.163900  1.0  0.0924
  H  H50  1  0.530000  0.765000  0.010500  1.0  0.1031
  H  H51  1  0.531300  0.765650  0.281500  1.0  0.3192
  H  H52  1  0.101950  0.898050  0.163900  1.0  0.0918
  H  H53  1  0.235000  0.765000  0.010500  1.0  0.1039
  H  H54  1  0.234350  0.765650  0.281500  1.0  0.3192
  H  H55  1  0.796100  0.898050  0.336100  1.0  0.0925
  H  H56  1  0.530000  0.765000  0.489500  1.0  0.1044
  H  H57  1  0.531300  0.765650  0.218500  1.0  0.3185
  H  H58  1  0.101950  0.203900  0.336100  1.0  0.0924
  H  H59  1  0.235000  0.470000  0.489500  1.0  0.1035
  H  H60  1  0.234350  0.468700  0.218500  1.0  0.319
  H  H61  1  0.101950  0.898050  0.336100  1.0  0.093
  H  H62  1  0.235000  0.765000  0.489500  1.0  0.1045
  H  H63  1  0.234350  0.765650  0.218500  1.0  0.3181
  H  H64  1  0.203900  0.101950  0.836100  1.0  0.0929
  H  H65  1  0.470000  0.235000  0.989500  1.0  0.1037
  H  H66  1  0.468700  0.234350  0.718500  1.0  0.3186
  H  H67  1  0.898050  0.796100  0.836100  1.0  0.0937
  H  H68  1  0.765000  0.530000  0.989500  1.0  0.104
  H  H69  1  0.765650  0.531300  0.718500  1.0  0.3181
  H  H70  1  0.898050  0.101950  0.836100  1.0  0.092
  H  H71  1  0.765000  0.235000  0.989500  1.0  0.1041
  H  H72  1  0.765650  0.234350  0.718500  1.0  0.318
  C  C73  1  0.908800  0.550200  0.545200  1.0  0.689
  C  C74  1  0.854100  0.577400  0.571250  1.0  -0.1538
  C  C75  1  0.874100  0.619400  0.620900  1.0  -0.0882
  C  C76  1  0.449800  0.358600  0.545200  1.0  0.69
  C  C77  1  0.422600  0.276700  0.571250  1.0  -0.1528
  C  C78  1  0.380600  0.254700  0.620900  1.0  -0.0888
  C  C79  1  0.641400  0.091200  0.545200  1.0  0.6894
  C  C80  1  0.723300  0.145900  0.571250  1.0  -0.153
  C  C81  1  0.745300  0.125900  0.620900  1.0  -0.0892
  C  C82  1  0.091200  0.449800  0.045200  1.0  0.6888
  C  C83  1  0.145900  0.422600  0.071250  1.0  -0.154
  C  C84  1  0.125900  0.380600  0.120900  1.0  -0.0887
  C  C85  1  0.550200  0.641400  0.045200  1.0  0.6897
  C  C86  1  0.577400  0.723300  0.071250  1.0  -0.1534
  C  C87  1  0.619400  0.745300  0.120900  1.0  -0.0876
  C  C88  1  0.358600  0.908800  0.045200  1.0  0.6901
  C  C89  1  0.276700  0.854100  0.071250  1.0  -0.1528
  C  C90  1  0.254700  0.874100  0.120900  1.0  -0.088
  C  C91  1  0.550200  0.908800  0.454800  1.0  0.6894
  C  C92  1  0.577400  0.854100  0.428750  1.0  -0.1527
  C  C93  1  0.619400  0.874100  0.379100  1.0  -0.0882
  C  C94  1  0.358600  0.449800  0.454800  1.0  0.6888
  C  C95  1  0.276700  0.422600  0.428750  1.0  -0.1548
  C  C96  1  0.254700  0.380600  0.379100  1.0  -0.0879
  C  C97  1  0.091200  0.641400  0.454800  1.0  0.6899
  C  C98  1  0.145900  0.723300  0.428750  1.0  -0.1533
  C  C99  1  0.125900  0.745300  0.379100  1.0  -0.0889
  C  C100  1  0.449800  0.091200  0.954800  1.0  0.6895
  C  C101  1  0.422600  0.145900  0.928750  1.0  -0.1534
  C  C102  1  0.380600  0.125900  0.879100  1.0  -0.089
  C  C103  1  0.641400  0.550200  0.954800  1.0  0.6885
  C  C104  1  0.723300  0.577400  0.928750  1.0  -0.1543
  C  C105  1  0.745300  0.619400  0.879100  1.0  -0.0891
  C  C106  1  0.908800  0.358600  0.954800  1.0  0.6894
  C  C107  1  0.854100  0.276700  0.928750  1.0  -0.1536
  C  C108  1  0.874100  0.254700  0.879100  1.0  -0.0875
  C  C109  1  0.091200  0.449800  0.454800  1.0  0.6886
  C  C110  1  0.145900  0.422600  0.428750  1.0  -0.1544
  C  C111  1  0.125900  0.380600  0.379100  1.0  -0.0886
  C  C112  1  0.550200  0.641400  0.454800  1.0  0.6894
  C  C113  1  0.577400  0.723300  0.428750  1.0  -0.1537
  C  C114  1  0.619400  0.745300  0.379100  1.0  -0.0876
  C  C115  1  0.358600  0.908800  0.454800  1.0  0.6898
  C  C116  1  0.276700  0.854100  0.428750  1.0  -0.1531
  C  C117  1  0.254700  0.874100  0.379100  1.0  -0.088
  C  C118  1  0.908800  0.550200  0.954800  1.0  0.6886
  C  C119  1  0.854100  0.577400  0.928750  1.0  -0.1548
  C  C120  1  0.874100  0.619400  0.879100  1.0  -0.0884
  C  C121  1  0.449800  0.358600  0.954800  1.0  0.6898
  C  C122  1  0.422600  0.276700  0.928750  1.0  -0.153
  C  C123  1  0.380600  0.254700  0.879100  1.0  -0.0887
  C  C124  1  0.641400  0.091200  0.954800  1.0  0.6891
  C  C125  1  0.723300  0.145900  0.928750  1.0  -0.1531
  C  C126  1  0.745300  0.125900  0.879100  1.0  -0.089
  C  C127  1  0.449800  0.091200  0.545200  1.0  0.6897
  C  C128  1  0.422600  0.145900  0.571250  1.0  -0.1531
  C  C129  1  0.380600  0.125900  0.620900  1.0  -0.089
  C  C130  1  0.641400  0.550200  0.545200  1.0  0.6889
  C  C131  1  0.723300  0.577400  0.571250  1.0  -0.1539
  C  C132  1  0.745300  0.619400  0.620900  1.0  -0.0892
  C  C133  1  0.908800  0.358600  0.545200  1.0  0.6896
  C  C134  1  0.854100  0.276700  0.571250  1.0  -0.1533
  C  C135  1  0.874100  0.254700  0.620900  1.0  -0.0878
  C  C136  1  0.550200  0.908800  0.045200  1.0  0.6897
  C  C137  1  0.577400  0.854100  0.071250  1.0  -0.1525
  C  C138  1  0.619400  0.874100  0.120900  1.0  -0.0884
  C  C139  1  0.358600  0.449800  0.045200  1.0  0.6891
  C  C140  1  0.276700  0.422600  0.071250  1.0  -0.1538
  C  C141  1  0.254700  0.380600  0.120900  1.0  -0.0876
  C  C142  1  0.091200  0.641400  0.045200  1.0  0.6902
  C  C143  1  0.145900  0.723300  0.071250  1.0  -0.1533
  C  C144  1  0.125900  0.745300  0.120900  1.0  -0.0889
  C  C145  1  0.883200  0.766400  0.697900  1.0  -0.0931
  C  C146  1  0.778600  0.557200  0.545300  1.0  0.0011
  C  C147  1  0.843250  0.686500  0.700200  1.0  0.1366
  C  C148  1  0.820900  0.641800  0.645700  1.0  0.0511
  C  C149  1  0.233600  0.116800  0.697900  1.0  -0.0968
  C  C150  1  0.442800  0.221400  0.545300  1.0  0.0002
  C  C151  1  0.313500  0.156750  0.700200  1.0  0.1371
  C  C152  1  0.358200  0.179100  0.645700  1.0  0.0479
  C  C153  1  0.883200  0.116800  0.697900  1.0  -0.0957
  C  C154  1  0.778600  0.221400  0.545300  1.0  0.001
  C  C155  1  0.843250  0.156750  0.700200  1.0  0.1369
  C  C156  1  0.820900  0.179100  0.645700  1.0  0.0497
  C  C157  1  0.116800  0.233600  0.197900  1.0  -0.094
  C  C158  1  0.221400  0.442800  0.045300  1.0  0.0007
  C  C159  1  0.156750  0.313500  0.200200  1.0  0.1363
  C  C160  1  0.179100  0.358200  0.145700  1.0  0.0505
  C  C161  1  0.766400  0.883200  0.197900  1.0  -0.0953
  C  C162  1  0.557200  0.778600  0.045300  1.0  0.001
  C  C163  1  0.686500  0.843250  0.200200  1.0  0.137
  C  C164  1  0.641800  0.820900  0.145700  1.0  0.0498
  C  C165  1  0.116800  0.883200  0.197900  1.0  -0.096
  C  C166  1  0.221400  0.778600  0.045300  1.0  0.0003
  C  C167  1  0.156750  0.843250  0.200200  1.0  0.1372
  C  C168  1  0.179100  0.820900  0.145700  1.0  0.0482
  C  C169  1  0.766400  0.883200  0.302100  1.0  -0.0955
  C  C170  1  0.557200  0.778600  0.454700  1.0  -0.001
  C  C171  1  0.686500  0.843250  0.299800  1.0  0.1368
  C  C172  1  0.641800  0.820900  0.354300  1.0  0.0493
  C  C173  1  0.116800  0.233600  0.302100  1.0  -0.0928
  C  C174  1  0.221400  0.442800  0.454700  1.0  -0.0005
  C  C175  1  0.156750  0.313500  0.299800  1.0  0.1362
  C  C176  1  0.179100  0.358200  0.354300  1.0  0.0501
  C  C177  1  0.116800  0.883200  0.302100  1.0  -0.0963
  C  C178  1  0.221400  0.778600  0.454700  1.0  0.0002
  C  C179  1  0.156750  0.843250  0.299800  1.0  0.137
  C  C180  1  0.179100  0.820900  0.354300  1.0  0.0478
  C  C181  1  0.233600  0.116800  0.802100  1.0  -0.0951
  C  C182  1  0.442800  0.221400  0.954700  1.0  0.0002
  C  C183  1  0.313500  0.156750  0.799800  1.0  0.137
  C  C184  1  0.358200  0.179100  0.854300  1.0  0.0475
  C  C185  1  0.883200  0.766400  0.802100  1.0  -0.0947
  C  C186  1  0.778600  0.557200  0.954700  1.0  0.0003
  C  C187  1  0.843250  0.686500  0.799800  1.0  0.1361
  C  C188  1  0.820900  0.641800  0.854300  1.0  0.0506
  C  C189  1  0.883200  0.116800  0.802100  1.0  -0.0939
  C  C190  1  0.778600  0.221400  0.954700  1.0  -0.001
  C  C191  1  0.843250  0.156750  0.799800  1.0  0.1367
  C  C192  1  0.820900  0.179100  0.854300  1.0  0.0491
  C  C193  1  0.903350  0.806700  0.750000  1.0  0.068
  C  C194  1  0.823750  0.647500  0.750000  1.0  0.2336
  C  C195  1  0.193300  0.096650  0.750000  1.0  0.0633
  C  C196  1  0.352500  0.176250  0.750000  1.0  0.2339
  C  C197  1  0.903350  0.096650  0.750000  1.0  0.0664
  C  C198  1  0.823750  0.176250  0.750000  1.0  0.2337
  C  C199  1  0.096650  0.193300  0.250000  1.0  0.0688
  C  C200  1  0.176250  0.352500  0.250000  1.0  0.234
  C  C201  1  0.806700  0.903350  0.250000  1.0  0.0665
  C  C202  1  0.647500  0.823750  0.250000  1.0  0.2334
  C  C203  1  0.096650  0.903350  0.250000  1.0  0.0649
  C  C204  1  0.176250  0.823750  0.250000  1.0  0.2337
  N  N205  1  0.779350  0.558700  0.750000  1.0  -0.7189
  N  N206  1  0.441300  0.220650  0.750000  1.0  -0.7195
  N  N207  1  0.779350  0.220650  0.750000  1.0  -0.7186
  N  N208  1  0.220650  0.441300  0.250000  1.0  -0.7191
  N  N209  1  0.558700  0.779350  0.250000  1.0  -0.7192
  N  N210  1  0.220650  0.779350  0.250000  1.0  -0.7192
  O  O211  1  0.890410  0.519300  0.497780  1.0  -0.6292
  O  O212  1  0.971700  0.562600  0.572410  1.0  -0.6216
  O  O213  1  0.480700  0.371110  0.497780  1.0  -0.6294
  O  O214  1  0.437400  0.409100  0.572410  1.0  -0.6211
  O  O215  1  0.628890  0.109590  0.497780  1.0  -0.6297
  O  O216  1  0.590900  0.028300  0.572410  1.0  -0.6208
  O  O217  1  0.109590  0.480700  0.997780  1.0  -0.6292
  O  O218  1  0.028300  0.437400  0.072410  1.0  -0.6208
  O  O219  1  0.519300  0.628890  0.997780  1.0  -0.6292
  O  O220  1  0.562600  0.590900  0.072410  1.0  -0.6212
  O  O221  1  0.371110  0.890410  0.997780  1.0  -0.63
  O  O222  1  0.409100  0.971700  0.072410  1.0  -0.6212
  O  O223  1  0.519300  0.890410  0.502220  1.0  -0.628
  O  O224  1  0.562600  0.971700  0.427590  1.0  -0.6227
  O  O225  1  0.371110  0.480700  0.502220  1.0  -0.6286
  O  O226  1  0.409100  0.437400  0.427590  1.0  -0.6231
  O  O227  1  0.109590  0.628890  0.502220  1.0  -0.6275
  O  O228  1  0.028300  0.590900  0.427590  1.0  -0.6221
  O  O229  1  0.480700  0.109590  0.002220  1.0  -0.6289
  O  O230  1  0.437400  0.028300  0.927590  1.0  -0.622
  O  O231  1  0.628890  0.519300  0.002220  1.0  -0.628
  O  O232  1  0.590900  0.562600  0.927590  1.0  -0.6228
  O  O233  1  0.890410  0.371110  0.002220  1.0  -0.6283
  O  O234  1  0.971700  0.409100  0.927590  1.0  -0.6227
  O  O235  1  0.109590  0.480700  0.502220  1.0  -0.628
  O  O236  1  0.028300  0.437400  0.427590  1.0  -0.6226
  O  O237  1  0.519300  0.628890  0.502220  1.0  -0.6276
  O  O238  1  0.562600  0.590900  0.427590  1.0  -0.6223
  O  O239  1  0.371110  0.890410  0.502220  1.0  -0.6286
  O  O240  1  0.409100  0.971700  0.427590  1.0  -0.6226
  O  O241  1  0.890410  0.519300  0.002220  1.0  -0.6283
  O  O242  1  0.971700  0.562600  0.927590  1.0  -0.6233
  O  O243  1  0.480700  0.371110  0.002220  1.0  -0.6279
  O  O244  1  0.437400  0.409100  0.927590  1.0  -0.6226
  O  O245  1  0.628890  0.109590  0.002220  1.0  -0.6284
  O  O246  1  0.590900  0.028300  0.927590  1.0  -0.6219
  O  O247  1  0.480700  0.109590  0.497780  1.0  -0.6297
  O  O248  1  0.437400  0.028300  0.572410  1.0  -0.6209
  O  O249  1  0.628890  0.519300  0.497780  1.0  -0.6293
  O  O250  1  0.590900  0.562600  0.572410  1.0  -0.6211
  O  O251  1  0.890410  0.371110  0.497780  1.0  -0.6296
  O  O252  1  0.971700  0.409100  0.572410  1.0  -0.6212
  O  O253  1  0.519300  0.890410  0.997780  1.0  -0.6295
  O  O254  1  0.562600  0.971700  0.072410  1.0  -0.6215
  O  O255  1  0.371110  0.480700  0.997780  1.0  -0.6295
  O  O256  1  0.409100  0.437400  0.072410  1.0  -0.6212
  O  O257  1  0.109590  0.628890  0.997780  1.0  -0.6291
  O  O258  1  0.028300  0.590900  0.072410  1.0  -0.6205
  F  F259  1  0.948350  0.896700  0.750000  1.0  -0.2292
  F  F260  1  0.103300  0.051650  0.750000  1.0  -0.2283
  F  F261  1  0.948350  0.051650  0.750000  1.0  -0.2303
  F  F262  1  0.051650  0.103300  0.250000  1.0  -0.2293
  F  F263  1  0.896700  0.948350  0.250000  1.0  -0.2302
  F  F264  1  0.051650  0.948350  0.250000  1.0  -0.228
