# generated using pymatgen
data_Cu2H10C22N(O4F)2
_symmetry_space_group_name_H-M   'P 1'
_cell_length_a   18.43470000
_cell_length_b   18.43470000
_cell_length_c   23.83200000
_cell_angle_alpha   90.00000000
_cell_angle_beta   90.00000000
_cell_angle_gamma   120.00000000
_symmetry_Int_Tables_number   1
_chemical_formula_structural   Cu2H10C22N(O4F)2
_chemical_formula_sum   'Cu12 H60 C132 N6 O48 F12'
_cell_volume   7013.95977347
_cell_formula_units_Z   6
loop_
 _symmetry_equiv_pos_site_id
 _symmetry_equiv_pos_as_xyz
  1  'x, y, z'
loop_
 _atom_site_type_symbol
 _atom_site_label
 _atom_site_symmetry_multiplicity
 _atom_site_fract_x
 _atom_site_fract_y
 _atom_site_fract_z
 _atom_site_occupancy
 _atom_site_charge
  Cu  Cu1  1  0.524060  0.048130  0.454480  1.0  0.9255
  Cu  Cu2  1  0.951870  0.475930  0.454480  1.0  0.9189
  Cu  Cu3  1  0.524060  0.475940  0.454480  1.0  0.9218
  Cu  Cu4  1  0.475940  0.951870  0.954480  1.0  0.9252
  Cu  Cu5  1  0.048130  0.524070  0.954480  1.0  0.9234
  Cu  Cu6  1  0.475930  0.524060  0.954480  1.0  0.925
  Cu  Cu7  1  0.048130  0.524060  0.545520  1.0  0.9248
  Cu  Cu8  1  0.475930  0.951870  0.545520  1.0  0.9248
  Cu  Cu9  1  0.475940  0.524070  0.545520  1.0  0.9239
  Cu  Cu10  1  0.951870  0.475940  0.045520  1.0  0.9254
  Cu  Cu11  1  0.524060  0.048130  0.045520  1.0  0.923
  Cu  Cu12  1  0.524060  0.475930  0.045520  1.0  0.9229
  H  H13  1  0.363800  0.075000  0.636900  1.0  0.1209
  H  H14  1  0.925000  0.288800  0.636900  1.0  0.1211
  H  H15  1  0.711200  0.636200  0.636900  1.0  0.1211
  H  H16  1  0.636200  0.925000  0.136900  1.0  0.1219
  H  H17  1  0.075000  0.711200  0.136900  1.0  0.1209
  H  H18  1  0.288800  0.363800  0.136900  1.0  0.1214
  H  H19  1  0.075000  0.363800  0.363100  1.0  0.1217
  H  H20  1  0.288800  0.925000  0.363100  1.0  0.121
  H  H21  1  0.636200  0.711200  0.363100  1.0  0.1231
  H  H22  1  0.925000  0.636200  0.863100  1.0  0.1227
  H  H23  1  0.711200  0.075000  0.863100  1.0  0.1216
  H  H24  1  0.363800  0.288800  0.863100  1.0  0.1218
  H  H25  1  0.636200  0.925000  0.363100  1.0  0.1227
  H  H26  1  0.075000  0.711200  0.363100  1.0  0.1168
  H  H27  1  0.288800  0.363800  0.363100  1.0  0.1218
  H  H28  1  0.363800  0.075000  0.863100  1.0  0.1212
  H  H29  1  0.925000  0.288800  0.863100  1.0  0.1215
  H  H30  1  0.711200  0.636200  0.863100  1.0  0.1217
  H  H31  1  0.925000  0.636200  0.636900  1.0  0.1217
  H  H32  1  0.711200  0.075000  0.636900  1.0  0.1205
  H  H33  1  0.363800  0.288800  0.636900  1.0  0.1216
  H  H34  1  0.075000  0.363800  0.136900  1.0  0.1177
  H  H35  1  0.288800  0.925000  0.136900  1.0  0.1206
  H  H36  1  0.636200  0.711200  0.136900  1.0  0.1228
  H  H37  1  0.471300  0.235650  0.511600  1.0  0.1216
  H  H38  1  0.197500  0.098750  0.666667  1.0  0.1096
  H  H39  1  0.467600  0.233800  0.781300  1.0  0.3651
  H  H40  1  0.764350  0.235650  0.511600  1.0  0.1217
  H  H41  1  0.901250  0.098750  0.666667  1.0  0.1099
  H  H42  1  0.766200  0.233800  0.781300  1.0  0.365
  H  H43  1  0.764350  0.528700  0.511600  1.0  0.1203
  H  H44  1  0.901250  0.802500  0.666667  1.0  0.1091
  H  H45  1  0.766200  0.532400  0.781300  1.0  0.3659
  H  H46  1  0.528700  0.764350  0.011600  1.0  0.122
  H  H47  1  0.802500  0.901250  0.166700  1.0  0.1093
  H  H48  1  0.532400  0.766200  0.281300  1.0  0.3655
  H  H49  1  0.235650  0.764350  0.011600  1.0  0.1221
  H  H50  1  0.098750  0.901250  0.166700  1.0  0.1089
  H  H51  1  0.233800  0.766200  0.281300  1.0  0.3655
  H  H52  1  0.235650  0.471300  0.011600  1.0  0.1221
  H  H53  1  0.098750  0.197500  0.166700  1.0  0.1095
  H  H54  1  0.233800  0.467600  0.281300  1.0  0.3651
  H  H55  1  0.235650  0.471300  0.488400  1.0  0.122
  H  H56  1  0.098750  0.197500  0.333333  1.0  0.109
  H  H57  1  0.233800  0.467600  0.218700  1.0  0.365
  H  H58  1  0.235650  0.764350  0.488400  1.0  0.1217
  H  H59  1  0.098750  0.901250  0.333333  1.0  0.1095
  H  H60  1  0.233800  0.766200  0.218700  1.0  0.3656
  H  H61  1  0.528700  0.764350  0.488400  1.0  0.1217
  H  H62  1  0.802500  0.901250  0.333333  1.0  0.1093
  H  H63  1  0.532400  0.766200  0.218700  1.0  0.3653
  H  H64  1  0.764350  0.528700  0.988400  1.0  0.1219
  H  H65  1  0.901250  0.802500  0.833300  1.0  0.1093
  H  H66  1  0.766200  0.532400  0.718700  1.0  0.3658
  H  H67  1  0.764350  0.235650  0.988400  1.0  0.1206
  H  H68  1  0.901250  0.098750  0.833300  1.0  0.1093
  H  H69  1  0.766200  0.233800  0.718700  1.0  0.3641
  H  H70  1  0.471300  0.235650  0.988400  1.0  0.1206
  H  H71  1  0.197500  0.098750  0.833300  1.0  0.1096
  H  H72  1  0.467600  0.233800  0.718700  1.0  0.3651
  C  C73  1  0.449200  0.090500  0.542600  1.0  0.679
  C  C74  1  0.422000  0.146100  0.569900  1.0  -0.158
  C  C75  1  0.378600  0.125900  0.619740  1.0  -0.077
  C  C76  1  0.909500  0.358700  0.542600  1.0  0.6793
  C  C77  1  0.853900  0.275900  0.569900  1.0  -0.1581
  C  C78  1  0.874100  0.252700  0.619740  1.0  -0.0762
  C  C79  1  0.641300  0.550800  0.542600  1.0  0.6789
  C  C80  1  0.724100  0.578000  0.569900  1.0  -0.1589
  C  C81  1  0.747300  0.621400  0.619740  1.0  -0.0748
  C  C82  1  0.550800  0.909500  0.042600  1.0  0.6794
  C  C83  1  0.578000  0.853900  0.069900  1.0  -0.1571
  C  C84  1  0.621400  0.874100  0.119740  1.0  -0.0761
  C  C85  1  0.090500  0.641300  0.042600  1.0  0.6792
  C  C86  1  0.146100  0.724100  0.069900  1.0  -0.1588
  C  C87  1  0.125900  0.747300  0.119740  1.0  -0.0754
  C  C88  1  0.358700  0.449200  0.042600  1.0  0.679
  C  C89  1  0.275900  0.422000  0.069900  1.0  -0.1597
  C  C90  1  0.252700  0.378600  0.119740  1.0  -0.0729
  C  C91  1  0.090500  0.449200  0.457400  1.0  0.6793
  C  C92  1  0.146100  0.422000  0.430100  1.0  -0.1602
  C  C93  1  0.125900  0.378600  0.380260  1.0  -0.0751
  C  C94  1  0.358700  0.909500  0.457400  1.0  0.6793
  C  C95  1  0.275900  0.853900  0.430100  1.0  -0.1592
  C  C96  1  0.252700  0.874100  0.380260  1.0  -0.0765
  C  C97  1  0.550800  0.641300  0.457400  1.0  0.6794
  C  C98  1  0.578000  0.724100  0.430100  1.0  -0.1598
  C  C99  1  0.621400  0.747300  0.380260  1.0  -0.0755
  C  C100  1  0.909500  0.550800  0.957400  1.0  0.6788
  C  C101  1  0.853900  0.578000  0.930100  1.0  -0.1615
  C  C102  1  0.874100  0.621400  0.880260  1.0  -0.0741
  C  C103  1  0.641300  0.090500  0.957400  1.0  0.6792
  C  C104  1  0.724100  0.146100  0.930100  1.0  -0.159
  C  C105  1  0.747300  0.125900  0.880260  1.0  -0.0775
  C  C106  1  0.449200  0.358700  0.957400  1.0  0.6794
  C  C107  1  0.422000  0.275900  0.930100  1.0  -0.1595
  C  C108  1  0.378600  0.252700  0.880260  1.0  -0.077
  C  C109  1  0.550800  0.909500  0.457400  1.0  0.6794
  C  C110  1  0.578000  0.853900  0.430100  1.0  -0.1587
  C  C111  1  0.621400  0.874100  0.380260  1.0  -0.0764
  C  C112  1  0.090500  0.641300  0.457400  1.0  0.6792
  C  C113  1  0.146100  0.724100  0.430100  1.0  -0.1597
  C  C114  1  0.125900  0.747300  0.380260  1.0  -0.0761
  C  C115  1  0.358700  0.449200  0.457400  1.0  0.6792
  C  C116  1  0.275900  0.422000  0.430100  1.0  -0.1614
  C  C117  1  0.252700  0.378600  0.380260  1.0  -0.0736
  C  C118  1  0.449200  0.090500  0.957400  1.0  0.6791
  C  C119  1  0.422000  0.146100  0.930100  1.0  -0.1589
  C  C120  1  0.378600  0.125900  0.880260  1.0  -0.0777
  C  C121  1  0.909500  0.358700  0.957400  1.0  0.6795
  C  C122  1  0.853900  0.275900  0.930100  1.0  -0.1598
  C  C123  1  0.874100  0.252700  0.880260  1.0  -0.0765
  C  C124  1  0.641300  0.550800  0.957400  1.0  0.6789
  C  C125  1  0.724100  0.578000  0.930100  1.0  -0.1602
  C  C126  1  0.747300  0.621400  0.880260  1.0  -0.0753
  C  C127  1  0.909500  0.550800  0.542600  1.0  0.6787
  C  C128  1  0.853900  0.578000  0.569900  1.0  -0.1597
  C  C129  1  0.874100  0.621400  0.619740  1.0  -0.0734
  C  C130  1  0.641300  0.090500  0.542600  1.0  0.6793
  C  C131  1  0.724100  0.146100  0.569900  1.0  -0.1582
  C  C132  1  0.747300  0.125900  0.619740  1.0  -0.0768
  C  C133  1  0.449200  0.358700  0.542600  1.0  0.6792
  C  C134  1  0.422000  0.275900  0.569900  1.0  -0.1578
  C  C135  1  0.378600  0.252700  0.619740  1.0  -0.0767
  C  C136  1  0.090500  0.449200  0.042600  1.0  0.6791
  C  C137  1  0.146100  0.422000  0.069900  1.0  -0.159
  C  C138  1  0.125900  0.378600  0.119740  1.0  -0.0745
  C  C139  1  0.358700  0.909500  0.042600  1.0  0.6792
  C  C140  1  0.275900  0.853900  0.069900  1.0  -0.1577
  C  C141  1  0.252700  0.874100  0.119740  1.0  -0.0762
  C  C142  1  0.550800  0.641300  0.042600  1.0  0.6793
  C  C143  1  0.578000  0.724100  0.069900  1.0  -0.1588
  C  C144  1  0.621400  0.747300  0.119740  1.0  -0.0748
  C  C145  1  0.442600  0.221300  0.545600  1.0  0.0073
  C  C146  1  0.356900  0.178450  0.644200  1.0  0.0883
  C  C147  1  0.309500  0.154750  0.699700  1.0  0.0201
  C  C148  1  0.225600  0.112800  0.700800  1.0  -0.0604
  C  C149  1  0.778700  0.221300  0.545600  1.0  0.0082
  C  C150  1  0.821550  0.178450  0.644200  1.0  0.0887
  C  C151  1  0.845250  0.154750  0.699700  1.0  0.0199
  C  C152  1  0.887200  0.112800  0.700800  1.0  -0.0597
  C  C153  1  0.778700  0.557400  0.545600  1.0  0.0075
  C  C154  1  0.821550  0.643100  0.644200  1.0  0.0896
  C  C155  1  0.845250  0.690500  0.699700  1.0  0.0191
  C  C156  1  0.887200  0.774400  0.700800  1.0  -0.0617
  C  C157  1  0.557400  0.778700  0.045600  1.0  0.0083
  C  C158  1  0.643100  0.821550  0.144200  1.0  0.0888
  C  C159  1  0.690500  0.845250  0.199700  1.0  0.0201
  C  C160  1  0.774400  0.887200  0.200800  1.0  -0.0633
  C  C161  1  0.221300  0.778700  0.045600  1.0  0.0074
  C  C162  1  0.178450  0.821550  0.144200  1.0  0.0884
  C  C163  1  0.154750  0.845250  0.199700  1.0  0.0204
  C  C164  1  0.112800  0.887200  0.200800  1.0  -0.0635
  C  C165  1  0.221300  0.442600  0.045600  1.0  0.0076
  C  C166  1  0.178450  0.356900  0.144200  1.0  0.0901
  C  C167  1  0.154750  0.309500  0.199700  1.0  0.0202
  C  C168  1  0.112800  0.225600  0.200800  1.0  -0.0654
  C  C169  1  0.221300  0.442600  0.454400  1.0  0.0065
  C  C170  1  0.178450  0.356900  0.355800  1.0  0.0902
  C  C171  1  0.154750  0.309500  0.300300  1.0  0.0195
  C  C172  1  0.112800  0.225600  0.299200  1.0  -0.0621
  C  C173  1  0.221300  0.778700  0.454400  1.0  0.0071
  C  C174  1  0.178450  0.821550  0.355800  1.0  0.0882
  C  C175  1  0.154750  0.845250  0.300300  1.0  0.0196
  C  C176  1  0.112800  0.887200  0.299200  1.0  -0.0603
  C  C177  1  0.557400  0.778700  0.454400  1.0  0.0066
  C  C178  1  0.643100  0.821550  0.355800  1.0  0.0887
  C  C179  1  0.690500  0.845250  0.300300  1.0  0.0194
  C  C180  1  0.774400  0.887200  0.299200  1.0  -0.0594
  C  C181  1  0.778700  0.557400  0.954400  1.0  0.0064
  C  C182  1  0.821550  0.643100  0.855800  1.0  0.0894
  C  C183  1  0.845250  0.690500  0.800300  1.0  0.0194
  C  C184  1  0.887200  0.774400  0.799200  1.0  -0.0655
  C  C185  1  0.778700  0.221300  0.954400  1.0  0.0066
  C  C186  1  0.821550  0.178450  0.855800  1.0  0.0888
  C  C187  1  0.845250  0.154750  0.800300  1.0  0.0201
  C  C188  1  0.887200  0.112800  0.799200  1.0  -0.0624
  C  C189  1  0.442600  0.221300  0.954400  1.0  0.0073
  C  C190  1  0.356900  0.178450  0.855800  1.0  0.0882
  C  C191  1  0.309500  0.154750  0.800300  1.0  0.0204
  C  C192  1  0.225600  0.112800  0.799200  1.0  -0.0637
  C  C193  1  0.353900  0.176950  0.750000  1.0  0.1969
  C  C194  1  0.177300  0.088650  0.750000  1.0  0.147
  C  C195  1  0.823050  0.176950  0.750000  1.0  0.1964
  C  C196  1  0.911350  0.088650  0.750000  1.0  0.1472
  C  C197  1  0.823050  0.646100  0.750000  1.0  0.197
  C  C198  1  0.911350  0.822700  0.750000  1.0  0.1463
  C  C199  1  0.646100  0.823050  0.250000  1.0  0.1961
  C  C200  1  0.822700  0.911350  0.250000  1.0  0.1472
  C  C201  1  0.176950  0.823050  0.250000  1.0  0.1965
  C  C202  1  0.088650  0.911350  0.250000  1.0  0.1472
  C  C203  1  0.176950  0.353900  0.250000  1.0  0.1972
  C  C204  1  0.088650  0.177300  0.250000  1.0  0.1472
  N  N205  1  0.440700  0.220350  0.750000  1.0  -0.7023
  N  N206  1  0.779650  0.220350  0.750000  1.0  -0.7002
  N  N207  1  0.779650  0.559300  0.750000  1.0  -0.7006
  N  N208  1  0.559300  0.779650  0.250000  1.0  -0.7008
  N  N209  1  0.220350  0.779650  0.250000  1.0  -0.7022
  N  N210  1  0.220350  0.440700  0.250000  1.0  -0.702
  O  O211  1  0.480900  0.110540  0.494550  1.0  -0.5508
  O  O212  1  0.437900  0.028200  0.571590  1.0  -0.544
  O  O213  1  0.889460  0.370360  0.494550  1.0  -0.5495
  O  O214  1  0.971800  0.409700  0.571590  1.0  -0.5435
  O  O215  1  0.629640  0.519100  0.494550  1.0  -0.5501
  O  O216  1  0.590300  0.562100  0.571590  1.0  -0.5438
  O  O217  1  0.519100  0.889460  0.994550  1.0  -0.5502
  O  O218  1  0.562100  0.971800  0.071590  1.0  -0.5447
  O  O219  1  0.110540  0.629640  0.994550  1.0  -0.5492
  O  O220  1  0.028200  0.590300  0.071590  1.0  -0.5437
  O  O221  1  0.370360  0.480900  0.994550  1.0  -0.5501
  O  O222  1  0.409700  0.437900  0.071590  1.0  -0.5435
  O  O223  1  0.110540  0.480900  0.505450  1.0  -0.5493
  O  O224  1  0.028200  0.437900  0.428410  1.0  -0.5445
  O  O225  1  0.370360  0.889460  0.505450  1.0  -0.55
  O  O226  1  0.409700  0.971800  0.428410  1.0  -0.5444
  O  O227  1  0.519100  0.629640  0.505450  1.0  -0.5491
  O  O228  1  0.562100  0.590300  0.428410  1.0  -0.5433
  O  O229  1  0.889460  0.519100  0.005450  1.0  -0.5496
  O  O230  1  0.971800  0.562100  0.928410  1.0  -0.5437
  O  O231  1  0.629640  0.110540  0.005450  1.0  -0.5497
  O  O232  1  0.590300  0.028200  0.928410  1.0  -0.5449
  O  O233  1  0.480900  0.370360  0.005450  1.0  -0.5485
  O  O234  1  0.437900  0.409700  0.928410  1.0  -0.5442
  O  O235  1  0.519100  0.889460  0.505450  1.0  -0.5494
  O  O236  1  0.562100  0.971800  0.428410  1.0  -0.5447
  O  O237  1  0.110540  0.629640  0.505450  1.0  -0.5486
  O  O238  1  0.028200  0.590300  0.428410  1.0  -0.5426
  O  O239  1  0.370360  0.480900  0.505450  1.0  -0.5497
  O  O240  1  0.409700  0.437900  0.428410  1.0  -0.5438
  O  O241  1  0.480900  0.110540  0.005450  1.0  -0.5501
  O  O242  1  0.437900  0.028200  0.928410  1.0  -0.5435
  O  O243  1  0.889460  0.370360  0.005450  1.0  -0.5489
  O  O244  1  0.971800  0.409700  0.928410  1.0  -0.5417
  O  O245  1  0.629640  0.519100  0.005450  1.0  -0.5492
  O  O246  1  0.590300  0.562100  0.928410  1.0  -0.5421
  O  O247  1  0.889460  0.519100  0.494550  1.0  -0.5501
  O  O248  1  0.971800  0.562100  0.571590  1.0  -0.5412
  O  O249  1  0.629640  0.110540  0.494550  1.0  -0.5502
  O  O250  1  0.590300  0.028200  0.571590  1.0  -0.5424
  O  O251  1  0.480900  0.370360  0.494550  1.0  -0.5494
  O  O252  1  0.437900  0.409700  0.571590  1.0  -0.5419
  O  O253  1  0.110540  0.480900  0.994550  1.0  -0.55
  O  O254  1  0.028200  0.437900  0.071590  1.0  -0.5418
  O  O255  1  0.370360  0.889460  0.994550  1.0  -0.5508
  O  O256  1  0.409700  0.971800  0.071590  1.0  -0.5441
  O  O257  1  0.519100  0.629640  0.994550  1.0  -0.5495
  O  O258  1  0.562100  0.590300  0.071590  1.0  -0.5435
  F  F259  1  0.101900  0.006000  0.750000  1.0  -0.3426
  F  F260  1  0.994000  0.095900  0.750000  1.0  -0.3388
  F  F261  1  0.904100  0.898100  0.750000  1.0  -0.3375
  F  F262  1  0.898100  0.994000  0.250000  1.0  -0.3425
  F  F263  1  0.006000  0.904100  0.250000  1.0  -0.3372
  F  F264  1  0.095900  0.101900  0.250000  1.0  -0.3404
  F  F265  1  0.006000  0.101900  0.250000  1.0  -0.3373
  F  F266  1  0.095900  0.994000  0.250000  1.0  -0.3425
  F  F267  1  0.898100  0.904100  0.250000  1.0  -0.3388
  F  F268  1  0.994000  0.898100  0.750000  1.0  -0.341
  F  F269  1  0.904100  0.006000  0.750000  1.0  -0.3425
  F  F270  1  0.101900  0.095900  0.750000  1.0  -0.3372
