# generated using pymatgen
data_Zn2H16C21N7O4
_symmetry_space_group_name_H-M   'P 1'
_cell_length_a   10.94880000
_cell_length_b   11.73120000
_cell_length_c   21.68640000
_cell_angle_alpha   90.00000000
_cell_angle_beta   90.00000000
_cell_angle_gamma   90.00000000
_symmetry_Int_Tables_number   1
_chemical_formula_structural   Zn2H16C21N7O4
_chemical_formula_sum   'Zn8 H64 C84 N28 O16'
_cell_volume   2785.45678870
_cell_formula_units_Z   4
loop_
 _symmetry_equiv_pos_site_id
 _symmetry_equiv_pos_as_xyz
  1  'x, y, z'
loop_
 _atom_site_type_symbol
 _atom_site_label
 _atom_site_symmetry_multiplicity
 _atom_site_fract_x
 _atom_site_fract_y
 _atom_site_fract_z
 _atom_site_occupancy
 _atom_site_charge
  Zn  Zn1  1  0.864510  0.893410  0.884030  1.0  0.9089
  Zn  Zn2  1  0.654650  0.191540  0.841500  1.0  0.8654
  Zn  Zn3  1  0.635490  0.106590  0.384030  1.0  0.9083
  Zn  Zn4  1  0.845350  0.808460  0.341500  1.0  0.8685
  Zn  Zn5  1  0.135490  0.393410  0.615970  1.0  0.9079
  Zn  Zn6  1  0.345350  0.691540  0.658500  1.0  0.8677
  Zn  Zn7  1  0.364510  0.606590  0.115970  1.0  0.9082
  Zn  Zn8  1  0.154650  0.308460  0.158500  1.0  0.8698
  H  H9  1  0.820000  0.850000  0.093600  1.0  0.1016
  H  H10  1  0.683400  0.875100  0.628300  1.0  0.1018
  H  H11  1  0.245000  0.009600  0.312000  1.0  0.1216
  H  H12  1  0.509100  0.731300  0.020800  1.0  0.0902
  H  H13  1  0.566500  0.828200  0.714300  1.0  0.1057
  H  H14  1  0.553600  0.792000  0.830500  1.0  0.0956
  H  H15  1  0.560500  0.709400  0.200500  1.0  0.0906
  H  H16  1  0.992500  0.878200  0.467500  1.0  0.0649
  H  H17  1  0.960000  0.950300  0.743700  1.0  0.072
  H  H18  1  0.076400  0.956500  0.236400  1.0  0.1059
  H  H19  1  0.881200  0.943000  0.642600  1.0  0.1112
  H  H20  1  0.181500  0.954700  0.493900  1.0  0.1062
  H  H21  1  0.312300  0.015000  0.415800  1.0  0.0923
  H  H22  1  0.882000  0.283000  0.915900  1.0  0.1404
  H  H23  1  0.955500  0.267700  0.852700  1.0  0.1304
  H  H24  1  0.018700  0.234600  0.916700  1.0  0.1323
  H  H25  1  0.680000  0.150000  0.593600  1.0  0.1012
  H  H26  1  0.816600  0.124900  0.128300  1.0  0.102
  H  H27  1  0.255000  0.990400  0.812000  1.0  0.1217
  H  H28  1  0.990900  0.268700  0.520800  1.0  0.0909
  H  H29  1  0.933500  0.171800  0.214300  1.0  0.1062
  H  H30  1  0.946400  0.208000  0.330500  1.0  0.0953
  H  H31  1  0.939500  0.290600  0.700500  1.0  0.0904
  H  H32  1  0.507500  0.121800  0.967500  1.0  0.065
  H  H33  1  0.540000  0.049700  0.243700  1.0  0.0713
  H  H34  1  0.423600  0.043500  0.736400  1.0  0.1059
  H  H35  1  0.618800  0.057000  0.142600  1.0  0.1111
  H  H36  1  0.318500  0.045300  0.993900  1.0  0.1066
  H  H37  1  0.187700  0.985000  0.915800  1.0  0.0922
  H  H38  1  0.618000  0.717000  0.415900  1.0  0.1408
  H  H39  1  0.544500  0.732300  0.352700  1.0  0.1315
  H  H40  1  0.481300  0.765400  0.416700  1.0  0.1317
  H  H41  1  0.180000  0.350000  0.406400  1.0  0.101
  H  H42  1  0.316600  0.375100  0.871700  1.0  0.1011
  H  H43  1  0.755000  0.509600  0.188000  1.0  0.1217
  H  H44  1  0.490900  0.231300  0.479200  1.0  0.0916
  H  H45  1  0.433500  0.328200  0.785700  1.0  0.1057
  H  H46  1  0.446400  0.292000  0.669500  1.0  0.0953
  H  H47  1  0.439500  0.209400  0.299500  1.0  0.0904
  H  H48  1  0.007500  0.378200  0.032500  1.0  0.065
  H  H49  1  0.040000  0.450300  0.756300  1.0  0.0715
  H  H50  1  0.923600  0.456500  0.263600  1.0  0.1065
  H  H51  1  0.118800  0.443000  0.857400  1.0  0.1116
  H  H52  1  0.818500  0.454700  0.006100  1.0  0.1059
  H  H53  1  0.687700  0.515000  0.084200  1.0  0.0928
  H  H54  1  0.118000  0.783000  0.584100  1.0  0.1409
  H  H55  1  0.044500  0.767700  0.647300  1.0  0.1291
  H  H56  1  0.981300  0.734600  0.583300  1.0  0.1312
  H  H57  1  0.320000  0.650000  0.906400  1.0  0.1022
  H  H58  1  0.183400  0.624900  0.371700  1.0  0.1011
  H  H59  1  0.745000  0.490400  0.688000  1.0  0.1218
  H  H60  1  0.009100  0.768700  0.979200  1.0  0.0911
  H  H61  1  0.066500  0.671800  0.285700  1.0  0.1048
  H  H62  1  0.053600  0.708000  0.169500  1.0  0.0954
  H  H63  1  0.060500  0.790600  0.799500  1.0  0.0898
  H  H64  1  0.492500  0.621800  0.532500  1.0  0.0645
  H  H65  1  0.460000  0.549700  0.256300  1.0  0.072
  H  H66  1  0.576400  0.543500  0.763600  1.0  0.1067
  H  H67  1  0.381200  0.557000  0.357400  1.0  0.1113
  H  H68  1  0.681500  0.545300  0.506100  1.0  0.1056
  H  H69  1  0.812300  0.485000  0.584200  1.0  0.0924
  H  H70  1  0.382000  0.217000  0.084100  1.0  0.1392
  H  H71  1  0.455500  0.232300  0.147300  1.0  0.129
  H  H72  1  0.518700  0.265400  0.083300  1.0  0.1332
  C  C73  1  0.892700  0.115300  0.887900  1.0  0.7637
  C  C74  1  0.701100  0.784900  0.156900  1.0  -0.1995
  C  C75  1  0.741900  0.815900  0.098300  1.0  -0.0552
  C  C76  1  0.717100  0.881100  0.668600  1.0  -0.1562
  C  C77  1  0.670300  0.797600  0.047600  1.0  -0.1875
  C  C78  1  0.700200  0.854500  0.776900  1.0  0.1462
  C  C79  1  0.195200  0.982000  0.344600  1.0  -0.1052
  C  C80  1  0.558500  0.745400  0.056000  1.0  0.1659
  C  C81  1  0.649100  0.851200  0.719200  1.0  -0.0959
  C  C82  1  0.711900  0.828200  0.983800  1.0  0.5023
  C  C83  1  0.634700  0.820500  0.832400  1.0  0.0945
  C  C84  1  0.588200  0.732700  0.160900  1.0  0.1642
  C  C85  1  0.045000  0.904000  0.435500  1.0  0.1287
  C  C86  1  0.879300  0.922600  0.737600  1.0  0.164
  C  C87  1  0.034100  0.924900  0.270600  1.0  0.0887
  C  C88  1  0.080900  0.935500  0.333600  1.0  0.1377
  C  C89  1  0.832800  0.919300  0.676600  1.0  -0.1578
  C  C90  1  0.157800  0.949500  0.451900  1.0  -0.1294
  C  C91  1  0.233500  0.986400  0.406000  1.0  -0.1009
  C  C92  1  0.941500  0.235800  0.893800  1.0  -0.4886
  C  C93  1  0.772900  0.802800  0.214400  1.0  0.5242
  C  C94  1  0.607300  0.884700  0.387900  1.0  0.7637
  C  C95  1  0.798900  0.215100  0.656900  1.0  -0.1998
  C  C96  1  0.758100  0.184100  0.598300  1.0  -0.0566
  C  C97  1  0.782900  0.118900  0.168600  1.0  -0.1529
  C  C98  1  0.829700  0.202400  0.547600  1.0  -0.1883
  C  C99  1  0.799800  0.145500  0.276900  1.0  0.146
  C  C100  1  0.304800  0.018000  0.844600  1.0  -0.105
  C  C101  1  0.941500  0.254600  0.556000  1.0  0.1658
  C  C102  1  0.850900  0.148800  0.219200  1.0  -0.0974
  C  C103  1  0.788100  0.171800  0.483800  1.0  0.5017
  C  C104  1  0.865300  0.179500  0.332400  1.0  0.0948
  C  C105  1  0.911800  0.267300  0.660900  1.0  0.1646
  C  C106  1  0.455000  0.096000  0.935500  1.0  0.1284
  C  C107  1  0.620700  0.077400  0.237600  1.0  0.1639
  C  C108  1  0.465900  0.075100  0.770600  1.0  0.0877
  C  C109  1  0.419100  0.064500  0.833600  1.0  0.137
  C  C110  1  0.667200  0.080700  0.176600  1.0  -0.1588
  C  C111  1  0.342200  0.050500  0.951900  1.0  -0.1311
  C  C112  1  0.266500  0.013600  0.906000  1.0  -0.1033
  C  C113  1  0.558500  0.764200  0.393800  1.0  -0.4902
  C  C114  1  0.727100  0.197200  0.714400  1.0  0.5243
  C  C115  1  0.107300  0.615300  0.612100  1.0  0.7646
  C  C116  1  0.298900  0.284900  0.343100  1.0  -0.2001
  C  C117  1  0.258100  0.315900  0.401700  1.0  -0.0565
  C  C118  1  0.282900  0.381100  0.831400  1.0  -0.1524
  C  C119  1  0.329700  0.297600  0.452400  1.0  -0.1869
  C  C120  1  0.299800  0.354500  0.723100  1.0  0.1449
  C  C121  1  0.804800  0.482000  0.155400  1.0  -0.1059
  C  C122  1  0.441500  0.245400  0.444000  1.0  0.1666
  C  C123  1  0.350900  0.351200  0.780800  1.0  -0.0974
  C  C124  1  0.288100  0.328200  0.516200  1.0  0.5025
  C  C125  1  0.365300  0.320500  0.667600  1.0  0.0934
  C  C126  1  0.411800  0.232700  0.339100  1.0  0.163
  C  C127  1  0.955000  0.404000  0.064500  1.0  0.127
  C  C128  1  0.120700  0.422600  0.762400  1.0  0.1632
  C  C129  1  0.965900  0.424900  0.229400  1.0  0.0875
  C  C130  1  0.919100  0.435500  0.166400  1.0  0.1365
  C  C131  1  0.167200  0.419300  0.823400  1.0  -0.1598
  C  C132  1  0.842200  0.449500  0.048100  1.0  -0.1301
  C  C133  1  0.766500  0.486400  0.094000  1.0  -0.1033
  C  C134  1  0.058500  0.735800  0.606200  1.0  -0.4884
  C  C135  1  0.227100  0.302800  0.285600  1.0  0.5236
  C  C136  1  0.392700  0.384700  0.112100  1.0  0.7652
  C  C137  1  0.201100  0.715100  0.843100  1.0  -0.1999
  C  C138  1  0.241900  0.684100  0.901700  1.0  -0.0558
  C  C139  1  0.217100  0.618900  0.331400  1.0  -0.1567
  C  C140  1  0.170300  0.702400  0.952400  1.0  -0.1869
  C  C141  1  0.200200  0.645500  0.223100  1.0  0.1453
  C  C142  1  0.695200  0.518000  0.655400  1.0  -0.1052
  C  C143  1  0.058500  0.754600  0.944000  1.0  0.1663
  C  C144  1  0.149100  0.648800  0.280800  1.0  -0.0966
  C  C145  1  0.211900  0.671800  0.016200  1.0  0.5022
  C  C146  1  0.134700  0.679500  0.167600  1.0  0.0937
  C  C147  1  0.088200  0.767300  0.839100  1.0  0.1635
  C  C148  1  0.545000  0.596000  0.564500  1.0  0.1265
  C  C149  1  0.379300  0.577400  0.262400  1.0  0.1634
  C  C150  1  0.534100  0.575100  0.729400  1.0  0.0881
  C  C151  1  0.580900  0.564500  0.666400  1.0  0.1384
  C  C152  1  0.332800  0.580700  0.323400  1.0  -0.1576
  C  C153  1  0.657800  0.550500  0.548100  1.0  -0.1302
  C  C154  1  0.733500  0.513600  0.594000  1.0  -0.1011
  C  C155  1  0.441500  0.264200  0.106200  1.0  -0.4899
  C  C156  1  0.272900  0.697200  0.785600  1.0  0.5233
  N  N157  1  0.817000  0.889500  0.786400  1.0  -0.3191
  N  N158  1  0.006100  0.894700  0.376600  1.0  -0.318
  N  N159  1  0.515400  0.713000  0.112300  1.0  -0.3527
  N  N160  1  0.691600  0.831000  0.884200  1.0  -0.3341
  N  N161  1  0.636100  0.800500  0.938900  1.0  -0.3203
  N  N162  1  0.881000  0.854300  0.206000  1.0  -0.3194
  N  N163  1  0.931600  0.870000  0.263700  1.0  -0.2485
  N  N164  1  0.683000  0.110500  0.286400  1.0  -0.3206
  N  N165  1  0.493900  0.105300  0.876600  1.0  -0.3184
  N  N166  1  0.984600  0.287000  0.612300  1.0  -0.3522
  N  N167  1  0.808400  0.169000  0.384200  1.0  -0.3348
  N  N168  1  0.863900  0.199500  0.438900  1.0  -0.3219
  N  N169  1  0.619000  0.145700  0.706000  1.0  -0.3207
  N  N170  1  0.568400  0.130000  0.763700  1.0  -0.2491
  N  N171  1  0.183000  0.389500  0.713600  1.0  -0.3213
  N  N172  1  0.993900  0.394700  0.123400  1.0  -0.3168
  N  N173  1  0.484600  0.213000  0.387700  1.0  -0.3522
  N  N174  1  0.308400  0.331000  0.615800  1.0  -0.3344
  N  N175  1  0.363900  0.300500  0.561100  1.0  -0.3201
  N  N176  1  0.119000  0.354300  0.294000  1.0  -0.3208
  N  N177  1  0.068400  0.370000  0.236300  1.0  -0.2496
  N  N178  1  0.317000  0.610500  0.213600  1.0  -0.3211
  N  N179  1  0.506100  0.605300  0.623400  1.0  -0.3192
  N  N180  1  0.015400  0.787000  0.887700  1.0  -0.3521
  N  N181  1  0.191600  0.669000  0.115800  1.0  -0.3352
  N  N182  1  0.136100  0.699500  0.061100  1.0  -0.3218
  N  N183  1  0.381000  0.645700  0.794000  1.0  -0.3194
  N  N184  1  0.431600  0.630000  0.736300  1.0  -0.2478
  O  O185  1  0.779900  0.098300  0.882210  1.0  -0.6215
  O  O186  1  0.815800  0.878600  0.978760  1.0  -0.6087
  O  O187  1  0.966500  0.034000  0.890880  1.0  -0.5959
  O  O188  1  0.725400  0.772800  0.265010  1.0  -0.5934
  O  O189  1  0.720100  0.901700  0.382210  1.0  -0.6226
  O  O190  1  0.684200  0.121400  0.478760  1.0  -0.6083
  O  O191  1  0.533500  0.966000  0.390880  1.0  -0.5966
  O  O192  1  0.774600  0.227200  0.765010  1.0  -0.5925
  O  O193  1  0.220100  0.598300  0.617790  1.0  -0.6222
  O  O194  1  0.184200  0.378600  0.521240  1.0  -0.609
  O  O195  1  0.033500  0.534000  0.609120  1.0  -0.5965
  O  O196  1  0.274600  0.272800  0.234990  1.0  -0.5931
  O  O197  1  0.279900  0.401700  0.117790  1.0  -0.6209
  O  O198  1  0.315800  0.621400  0.021240  1.0  -0.6076
  O  O199  1  0.466500  0.466000  0.109120  1.0  -0.5956
  O  O200  1  0.225400  0.727200  0.734990  1.0  -0.593
