# generated using pymatgen
data_CoH28(C7N2)4
_symmetry_space_group_name_H-M   'P 1'
_cell_length_a   28.13200000
_cell_length_b   12.61500000
_cell_length_c   24.74600000
_cell_angle_alpha   90.00000000
_cell_angle_beta   120.02600000
_cell_angle_gamma   90.00000000
_symmetry_Int_Tables_number   1
_chemical_formula_structural   CoH28(C7N2)4
_chemical_formula_sum   'Co4 H112 C112 N32'
_cell_volume   7603.43192600
_cell_formula_units_Z   4
loop_
 _symmetry_equiv_pos_site_id
 _symmetry_equiv_pos_as_xyz
  1  'x, y, z'
loop_
 _atom_site_type_symbol
 _atom_site_label
 _atom_site_symmetry_multiplicity
 _atom_site_fract_x
 _atom_site_fract_y
 _atom_site_fract_z
 _atom_site_occupancy
 _atom_site_charge
  Co  Co1  1  0.250000  0.250000  0.500000  1.0  0.7231
  Co  Co2  1  0.750000  0.250000  0.000000  1.0  0.7231
  Co  Co3  1  0.750000  0.750000  0.500000  1.0  0.7231
  Co  Co4  1  0.250000  0.750000  0.000000  1.0  0.7231
  H  H5  1  0.322300  0.450300  0.502300  1.0  0.06
  H  H6  1  0.312000  0.184500  0.417600  1.0  0.0746
  H  H7  1  0.368600  0.304100  0.396000  1.0  0.0965
  H  H8  1  0.373400  0.566200  0.466300  1.0  0.0886
  H  H9  1  0.365600  0.529300  0.401900  1.0  0.0809
  H  H10  1  0.461100  0.445900  0.558300  1.0  0.0862
  H  H11  1  0.444900  0.555100  0.397800  1.0  0.0842
  H  H12  1  0.178200  0.459400  0.504300  1.0  0.0748
  H  H13  1  0.188500  0.353000  0.363200  1.0  0.0627
  H  H14  1  0.120600  0.573100  0.415000  1.0  0.0989
  H  H15  1  0.127400  0.479600  0.276800  1.0  0.0802
  H  H16  1  0.130700  0.593500  0.304000  1.0  0.0676
  H  H17  1  0.046800  0.363000  0.271100  1.0  0.0859
  H  H18  1  0.047000  0.679700  0.272000  1.0  0.0842
  H  H19  1  0.822300  0.950300  0.502300  1.0  0.06
  H  H20  1  0.812000  0.684500  0.417600  1.0  0.0746
  H  H21  1  0.868600  0.804100  0.396000  1.0  0.0965
  H  H22  1  0.873400  0.066200  0.466300  1.0  0.0886
  H  H23  1  0.865600  0.029300  0.401900  1.0  0.0809
  H  H24  1  0.961100  0.945900  0.558300  1.0  0.0862
  H  H25  1  0.944900  0.055100  0.397800  1.0  0.0842
  H  H26  1  0.678200  0.959400  0.504300  1.0  0.0748
  H  H27  1  0.688500  0.853000  0.363200  1.0  0.0627
  H  H28  1  0.620600  0.073100  0.415000  1.0  0.0989
  H  H29  1  0.627400  0.979600  0.276800  1.0  0.0802
  H  H30  1  0.630700  0.093500  0.304000  1.0  0.0676
  H  H31  1  0.546800  0.863000  0.271100  1.0  0.0859
  H  H32  1  0.547000  0.179700  0.272000  1.0  0.0842
  H  H33  1  0.677700  0.450300  0.997700  1.0  0.0597
  H  H34  1  0.688000  0.184500  0.082400  1.0  0.0746
  H  H35  1  0.631400  0.304100  0.104000  1.0  0.0973
  H  H36  1  0.626600  0.566200  0.033700  1.0  0.0892
  H  H37  1  0.634400  0.529300  0.098100  1.0  0.0811
  H  H38  1  0.538900  0.445900  0.941700  1.0  0.0868
  H  H39  1  0.555100  0.555100  0.102200  1.0  0.084
  H  H40  1  0.821800  0.459400  0.995700  1.0  0.0743
  H  H41  1  0.811500  0.353000  0.136800  1.0  0.0638
  H  H42  1  0.879400  0.573100  0.085000  1.0  0.0984
  H  H43  1  0.872600  0.479600  0.223200  1.0  0.0825
  H  H44  1  0.869300  0.593500  0.196000  1.0  0.0684
  H  H45  1  0.953200  0.363000  0.228900  1.0  0.0859
  H  H46  1  0.953000  0.679700  0.228000  1.0  0.0842
  H  H47  1  0.177700  0.950300  0.997700  1.0  0.0597
  H  H48  1  0.188000  0.684500  0.082400  1.0  0.0746
  H  H49  1  0.131400  0.804100  0.104000  1.0  0.0973
  H  H50  1  0.126600  0.066200  0.033700  1.0  0.0892
  H  H51  1  0.134400  0.029300  0.098100  1.0  0.0811
  H  H52  1  0.038900  0.945900  0.941700  1.0  0.0868
  H  H53  1  0.055100  0.055100  0.102200  1.0  0.084
  H  H54  1  0.321800  0.959400  0.995700  1.0  0.0743
  H  H55  1  0.311500  0.853000  0.136800  1.0  0.0638
  H  H56  1  0.379400  0.073100  0.085000  1.0  0.0984
  H  H57  1  0.372600  0.979600  0.223200  1.0  0.0825
  H  H58  1  0.369300  0.093500  0.196000  1.0  0.0684
  H  H59  1  0.453200  0.863000  0.228900  1.0  0.0859
  H  H60  1  0.453000  0.179700  0.228000  1.0  0.0842
  H  H61  1  0.677700  0.549700  0.497700  1.0  0.0594
  H  H62  1  0.688000  0.815500  0.582400  1.0  0.076
  H  H63  1  0.631400  0.695900  0.604000  1.0  0.0975
  H  H64  1  0.626600  0.433800  0.533700  1.0  0.0895
  H  H65  1  0.634400  0.470700  0.598100  1.0  0.0804
  H  H66  1  0.538900  0.554100  0.441700  1.0  0.087
  H  H67  1  0.555100  0.444900  0.602200  1.0  0.0836
  H  H68  1  0.821800  0.540600  0.495700  1.0  0.0743
  H  H69  1  0.811500  0.647000  0.636800  1.0  0.0639
  H  H70  1  0.879400  0.426900  0.585000  1.0  0.0979
  H  H71  1  0.872600  0.520400  0.723200  1.0  0.0829
  H  H72  1  0.869300  0.406500  0.696000  1.0  0.0677
  H  H73  1  0.953200  0.637000  0.728900  1.0  0.0854
  H  H74  1  0.953000  0.320300  0.728000  1.0  0.0845
  H  H75  1  0.177700  0.049700  0.497700  1.0  0.0594
  H  H76  1  0.188000  0.315500  0.582400  1.0  0.076
  H  H77  1  0.131400  0.195900  0.604000  1.0  0.0975
  H  H78  1  0.126600  0.933800  0.533700  1.0  0.0895
  H  H79  1  0.134400  0.970700  0.598100  1.0  0.0804
  H  H80  1  0.038900  0.054100  0.441700  1.0  0.087
  H  H81  1  0.055100  0.944900  0.602200  1.0  0.0836
  H  H82  1  0.321800  0.040600  0.495700  1.0  0.0743
  H  H83  1  0.311500  0.147000  0.636800  1.0  0.0639
  H  H84  1  0.379400  0.926900  0.585000  1.0  0.0979
  H  H85  1  0.372600  0.020400  0.723200  1.0  0.0829
  H  H86  1  0.369300  0.906500  0.696000  1.0  0.0677
  H  H87  1  0.453200  0.137000  0.728900  1.0  0.0854
  H  H88  1  0.453000  0.820300  0.728000  1.0  0.0845
  H  H89  1  0.322300  0.549700  0.002300  1.0  0.0602
  H  H90  1  0.312000  0.815500  0.917600  1.0  0.0752
  H  H91  1  0.368600  0.695900  0.896000  1.0  0.0966
  H  H92  1  0.373400  0.433800  0.966300  1.0  0.0895
  H  H93  1  0.365600  0.470700  0.901900  1.0  0.0808
  H  H94  1  0.461100  0.554100  0.058300  1.0  0.0862
  H  H95  1  0.444900  0.444900  0.897800  1.0  0.0839
  H  H96  1  0.178200  0.540600  0.004300  1.0  0.0751
  H  H97  1  0.188500  0.647000  0.863200  1.0  0.0626
  H  H98  1  0.120600  0.426900  0.915000  1.0  0.0985
  H  H99  1  0.127400  0.520400  0.776800  1.0  0.0801
  H  H100  1  0.130700  0.406500  0.804000  1.0  0.0676
  H  H101  1  0.046800  0.637000  0.771100  1.0  0.0851
  H  H102  1  0.047000  0.320300  0.772000  1.0  0.0846
  H  H103  1  0.822300  0.049700  0.002300  1.0  0.0602
  H  H104  1  0.812000  0.315500  0.917600  1.0  0.0752
  H  H105  1  0.868600  0.195900  0.896000  1.0  0.0966
  H  H106  1  0.873400  0.933800  0.966300  1.0  0.0895
  H  H107  1  0.865600  0.970700  0.901900  1.0  0.0808
  H  H108  1  0.961100  0.054100  0.058300  1.0  0.0862
  H  H109  1  0.944900  0.944900  0.897800  1.0  0.0839
  H  H110  1  0.678200  0.040600  0.004300  1.0  0.0751
  H  H111  1  0.688500  0.147000  0.863200  1.0  0.0626
  H  H112  1  0.620600  0.926900  0.915000  1.0  0.0985
  H  H113  1  0.627400  0.020400  0.776800  1.0  0.0801
  H  H114  1  0.630700  0.906500  0.804000  1.0  0.0676
  H  H115  1  0.546800  0.137000  0.771100  1.0  0.0851
  H  H116  1  0.547000  0.820300  0.772000  1.0  0.0846
  C  C117  1  0.326650  0.398300  0.478500  1.0  0.0904
  C  C118  1  0.321220  0.253600  0.432200  1.0  -0.0454
  C  C119  1  0.352500  0.319200  0.420000  1.0  -0.1488
  C  C120  1  0.381620  0.509800  0.445500  1.0  -0.0904
  C  C121  1  0.442950  0.501800  0.473900  1.0  0.0688
  C  C122  1  0.476680  0.468100  0.534800  1.0  -0.1314
  C  C123  1  0.466950  0.533200  0.439000  1.0  -0.1566
  C  C124  1  0.173250  0.452100  0.464400  1.0  -0.0395
  C  C125  1  0.179100  0.394000  0.387600  1.0  0.0819
  C  C126  1  0.141300  0.515500  0.415300  1.0  -0.1511
  C  C127  1  0.118000  0.521700  0.303000  1.0  -0.0562
  C  C128  1  0.028000  0.427000  0.262600  1.0  -0.1071
  C  C129  1  0.056800  0.522000  0.275500  1.0  0.0793
  C  C130  1  0.028200  0.615700  0.263000  1.0  -0.1641
  C  C131  1  0.826650  0.898300  0.478500  1.0  0.0904
  C  C132  1  0.821220  0.753600  0.432200  1.0  -0.0454
  C  C133  1  0.852500  0.819200  0.420000  1.0  -0.1488
  C  C134  1  0.881620  0.009800  0.445500  1.0  -0.0904
  C  C135  1  0.942950  0.001800  0.473900  1.0  0.0688
  C  C136  1  0.976680  0.968100  0.534800  1.0  -0.1314
  C  C137  1  0.966950  0.033200  0.439000  1.0  -0.1566
  C  C138  1  0.673250  0.952100  0.464400  1.0  -0.0395
  C  C139  1  0.679100  0.894000  0.387600  1.0  0.0819
  C  C140  1  0.641300  0.015500  0.415300  1.0  -0.1511
  C  C141  1  0.618000  0.021700  0.303000  1.0  -0.0562
  C  C142  1  0.528000  0.927000  0.262600  1.0  -0.1071
  C  C143  1  0.556800  0.022000  0.275500  1.0  0.0793
  C  C144  1  0.528200  0.115700  0.263000  1.0  -0.1641
  C  C145  1  0.673350  0.398300  0.021500  1.0  0.0918
  C  C146  1  0.678780  0.253600  0.067800  1.0  -0.0454
  C  C147  1  0.647500  0.319200  0.080000  1.0  -0.1523
  C  C148  1  0.618380  0.509800  0.054500  1.0  -0.091
  C  C149  1  0.557050  0.501800  0.026100  1.0  0.0689
  C  C150  1  0.523320  0.468100  0.965200  1.0  -0.1309
  C  C151  1  0.533050  0.533200  0.061000  1.0  -0.1571
  C  C152  1  0.826750  0.452100  0.035600  1.0  -0.0392
  C  C153  1  0.820900  0.394000  0.112400  1.0  0.0819
  C  C154  1  0.858700  0.515500  0.084700  1.0  -0.1506
  C  C155  1  0.882000  0.521700  0.197000  1.0  -0.0563
  C  C156  1  0.972000  0.427000  0.237400  1.0  -0.1076
  C  C157  1  0.943200  0.522000  0.224500  1.0  0.0769
  C  C158  1  0.971800  0.615700  0.237000  1.0  -0.165
  C  C159  1  0.173350  0.898300  0.021500  1.0  0.0918
  C  C160  1  0.178780  0.753600  0.067800  1.0  -0.0454
  C  C161  1  0.147500  0.819200  0.080000  1.0  -0.1523
  C  C162  1  0.118380  0.009800  0.054500  1.0  -0.091
  C  C163  1  0.057050  0.001800  0.026100  1.0  0.0689
  C  C164  1  0.023320  0.968100  0.965200  1.0  -0.1309
  C  C165  1  0.033050  0.033200  0.061000  1.0  -0.1571
  C  C166  1  0.326750  0.952100  0.035600  1.0  -0.0392
  C  C167  1  0.320900  0.894000  0.112400  1.0  0.0819
  C  C168  1  0.358700  0.015500  0.084700  1.0  -0.1506
  C  C169  1  0.382000  0.021700  0.197000  1.0  -0.0563
  C  C170  1  0.472000  0.927000  0.237400  1.0  -0.1076
  C  C171  1  0.443200  0.022000  0.224500  1.0  0.0769
  C  C172  1  0.471800  0.115700  0.237000  1.0  -0.165
  C  C173  1  0.673350  0.601700  0.521500  1.0  0.092
  C  C174  1  0.678780  0.746400  0.567800  1.0  -0.0448
  C  C175  1  0.647500  0.680800  0.580000  1.0  -0.1517
  C  C176  1  0.618380  0.490200  0.554500  1.0  -0.0887
  C  C177  1  0.557050  0.498200  0.526100  1.0  0.0686
  C  C178  1  0.523320  0.531900  0.465200  1.0  -0.1324
  C  C179  1  0.533050  0.466800  0.561000  1.0  -0.1576
  C  C180  1  0.826750  0.547900  0.535600  1.0  -0.0384
  C  C181  1  0.820900  0.606000  0.612400  1.0  0.0815
  C  C182  1  0.858700  0.484500  0.584700  1.0  -0.1504
  C  C183  1  0.882000  0.478300  0.697000  1.0  -0.0567
  C  C184  1  0.972000  0.573000  0.737400  1.0  -0.1075
  C  C185  1  0.943200  0.478000  0.724500  1.0  0.0772
  C  C186  1  0.971800  0.384300  0.737000  1.0  -0.1672
  C  C187  1  0.173350  0.101700  0.521500  1.0  0.092
  C  C188  1  0.178780  0.246400  0.567800  1.0  -0.0448
  C  C189  1  0.147500  0.180800  0.580000  1.0  -0.1517
  C  C190  1  0.118380  0.990200  0.554500  1.0  -0.0887
  C  C191  1  0.057050  0.998200  0.526100  1.0  0.0686
  C  C192  1  0.023320  0.031900  0.465200  1.0  -0.1324
  C  C193  1  0.033050  0.966800  0.561000  1.0  -0.1576
  C  C194  1  0.326750  0.047900  0.535600  1.0  -0.0384
  C  C195  1  0.320900  0.106000  0.612400  1.0  0.0815
  C  C196  1  0.358700  0.984500  0.584700  1.0  -0.1504
  C  C197  1  0.382000  0.978300  0.697000  1.0  -0.0567
  C  C198  1  0.472000  0.073000  0.737400  1.0  -0.1075
  C  C199  1  0.443200  0.978000  0.724500  1.0  0.0772
  C  C200  1  0.471800  0.884300  0.737000  1.0  -0.1672
  C  C201  1  0.326650  0.601700  0.978500  1.0  0.0906
  C  C202  1  0.321220  0.746400  0.932200  1.0  -0.045
  C  C203  1  0.352500  0.680800  0.920000  1.0  -0.1493
  C  C204  1  0.381620  0.490200  0.945500  1.0  -0.0884
  C  C205  1  0.442950  0.498200  0.973900  1.0  0.0684
  C  C206  1  0.476680  0.531900  0.034800  1.0  -0.1318
  C  C207  1  0.466950  0.466800  0.939000  1.0  -0.1577
  C  C208  1  0.173250  0.547900  0.964400  1.0  -0.0385
  C  C209  1  0.179100  0.606000  0.887600  1.0  0.0829
  C  C210  1  0.141300  0.484500  0.915300  1.0  -0.1529
  C  C211  1  0.118000  0.478300  0.803000  1.0  -0.0552
  C  C212  1  0.028000  0.573000  0.762600  1.0  -0.1075
  C  C213  1  0.056800  0.478000  0.775500  1.0  0.0798
  C  C214  1  0.028200  0.384300  0.763000  1.0  -0.1681
  C  C215  1  0.826650  0.101700  0.978500  1.0  0.0906
  C  C216  1  0.821220  0.246400  0.932200  1.0  -0.045
  C  C217  1  0.852500  0.180800  0.920000  1.0  -0.1493
  C  C218  1  0.881620  0.990200  0.945500  1.0  -0.0884
  C  C219  1  0.942950  0.998200  0.973900  1.0  0.0684
  C  C220  1  0.976680  0.031900  0.034800  1.0  -0.1318
  C  C221  1  0.966950  0.966800  0.939000  1.0  -0.1577
  C  C222  1  0.673250  0.047900  0.964400  1.0  -0.0385
  C  C223  1  0.679100  0.106000  0.887600  1.0  0.0829
  C  C224  1  0.641300  0.984500  0.915300  1.0  -0.1529
  C  C225  1  0.618000  0.978300  0.803000  1.0  -0.0552
  C  C226  1  0.528000  0.073000  0.762600  1.0  -0.1075
  C  C227  1  0.556800  0.978000  0.775500  1.0  0.0798
  C  C228  1  0.528200  0.884300  0.763000  1.0  -0.1681
  N  N229  1  0.305060  0.303600  0.469180  1.0  -0.3769
  N  N230  1  0.355780  0.411900  0.449720  1.0  0.0217
  N  N231  1  0.196910  0.376500  0.446890  1.0  -0.3807
  N  N232  1  0.145820  0.477800  0.366730  1.0  0.0219
  N  N233  1  0.805060  0.803600  0.469180  1.0  -0.3769
  N  N234  1  0.855780  0.911900  0.449720  1.0  0.0217
  N  N235  1  0.696910  0.876500  0.446890  1.0  -0.3807
  N  N236  1  0.645820  0.977800  0.366730  1.0  0.0219
  N  N237  1  0.694940  0.303600  0.030820  1.0  -0.3783
  N  N238  1  0.644220  0.411900  0.050280  1.0  0.0213
  N  N239  1  0.803090  0.376500  0.053110  1.0  -0.3823
  N  N240  1  0.854180  0.477800  0.133270  1.0  0.0213
  N  N241  1  0.194940  0.803600  0.030820  1.0  -0.3783
  N  N242  1  0.144220  0.911900  0.050280  1.0  0.0213
  N  N243  1  0.303090  0.876500  0.053110  1.0  -0.3823
  N  N244  1  0.354180  0.977800  0.133270  1.0  0.0213
  N  N245  1  0.694940  0.696400  0.530820  1.0  -0.3776
  N  N246  1  0.644220  0.588100  0.550280  1.0  0.0213
  N  N247  1  0.803090  0.623500  0.553110  1.0  -0.3812
  N  N248  1  0.854180  0.522200  0.633270  1.0  0.0212
  N  N249  1  0.194940  0.196400  0.530820  1.0  -0.3776
  N  N250  1  0.144220  0.088100  0.550280  1.0  0.0213
  N  N251  1  0.303090  0.123500  0.553110  1.0  -0.3812
  N  N252  1  0.354180  0.022200  0.633270  1.0  0.0212
  N  N253  1  0.305060  0.696400  0.969180  1.0  -0.3773
  N  N254  1  0.355780  0.588100  0.949720  1.0  0.0214
  N  N255  1  0.196910  0.623500  0.946890  1.0  -0.3812
  N  N256  1  0.145820  0.522200  0.866730  1.0  0.0222
  N  N257  1  0.805060  0.196400  0.969180  1.0  -0.3773
  N  N258  1  0.855780  0.088100  0.949720  1.0  0.0214
  N  N259  1  0.696910  0.123500  0.946890  1.0  -0.3812
  N  N260  1  0.645820  0.022200  0.866730  1.0  0.0222
