# generated using pymatgen
data_Er3H44(C5O)16
_symmetry_space_group_name_H-M   'P 1'
_cell_length_a   32.31800000
_cell_length_b   29.35400000
_cell_length_c   18.52320000
_cell_angle_alpha   90.00000000
_cell_angle_beta   104.27700000
_cell_angle_gamma   90.00000000
_symmetry_Int_Tables_number   1
_chemical_formula_structural   Er3H44(C5O)16
_chemical_formula_sum   'Er12 H176 C320 O64'
_cell_volume   17029.54367611
_cell_formula_units_Z   4
loop_
 _symmetry_equiv_pos_site_id
 _symmetry_equiv_pos_as_xyz
  1  'x, y, z'
loop_
 _atom_site_type_symbol
 _atom_site_label
 _atom_site_symmetry_multiplicity
 _atom_site_fract_x
 _atom_site_fract_y
 _atom_site_fract_z
 _atom_site_occupancy
 _atom_site_charge
  Er  Er1  1  0.014360  0.228320  0.046230  1.0  1.5555
  Er  Er2  1  0.514360  0.728320  0.046230  1.0  1.5555
  Er  Er3  1  0.985640  0.228320  0.453770  1.0  1.5532
  Er  Er4  1  0.485640  0.728320  0.453770  1.0  1.5532
  Er  Er5  1  0.985640  0.771680  0.953770  1.0  1.5533
  Er  Er6  1  0.485640  0.271680  0.953770  1.0  1.5533
  Er  Er7  1  0.014360  0.771680  0.546230  1.0  1.5558
  Er  Er8  1  0.514360  0.271680  0.546230  1.0  1.5558
  Er  Er9  1  0.000000  0.306180  0.250000  1.0  1.5642
  Er  Er10  1  0.500000  0.806180  0.250000  1.0  1.5642
  Er  Er11  1  0.000000  0.693820  0.750000  1.0  1.5637
  Er  Er12  1  0.500000  0.193820  0.750000  1.0  1.5637
  H  H13  1  0.183700  0.047900  0.345700  1.0  0.1135
  H  H14  1  0.244100  0.167200  0.402500  1.0  0.1186
  H  H15  1  0.306900  0.048800  0.455400  1.0  0.0978
  H  H16  1  0.170600  0.181000  0.413700  1.0  0.1059
  H  H17  1  0.110400  0.222200  0.361000  1.0  0.1073
  H  H18  1  0.090800  0.142900  0.179600  1.0  0.1015
  H  H19  1  0.149600  0.099700  0.235800  1.0  0.11
  H  H20  1  0.339500  0.094100  0.559500  1.0  0.1107
  H  H21  1  0.402500  0.129900  0.615600  1.0  0.1077
  H  H22  1  0.379200  0.224800  0.456800  1.0  0.1047
  H  H23  1  0.316100  0.189300  0.400200  1.0  0.1137
  H  H24  1  0.304800  0.982600  0.381200  1.0  0.1046
  H  H25  1  0.254500  0.863500  0.424500  1.0  0.1061
  H  H26  1  0.190000  0.980200  0.425400  1.0  0.1085
  H  H27  1  0.326800  0.845300  0.470600  1.0  0.1137
  H  H28  1  0.387000  0.808200  0.456700  1.0  0.1033
  H  H29  1  0.393000  0.892800  0.289500  1.0  0.1112
  H  H30  1  0.336600  0.933200  0.310600  1.0  0.1039
  H  H31  1  0.091000  0.903100  0.485500  1.0  0.093
  H  H32  1  0.199700  0.833000  0.433800  1.0  0.1744
  H  H33  1  0.159700  0.802800  0.525400  1.0  0.1007
  H  H34  1  0.141600  0.940500  0.443300  1.0  0.1124
  H  H35  1  0.683700  0.547900  0.345700  1.0  0.1141
  H  H36  1  0.744100  0.667200  0.402500  1.0  0.1186
  H  H37  1  0.806900  0.548800  0.455400  1.0  0.0978
  H  H38  1  0.670600  0.681000  0.413700  1.0  0.1059
  H  H39  1  0.610400  0.722200  0.361000  1.0  0.1073
  H  H40  1  0.590800  0.642900  0.179600  1.0  0.1015
  H  H41  1  0.649600  0.599700  0.235800  1.0  0.11
  H  H42  1  0.839500  0.594100  0.559500  1.0  0.1107
  H  H43  1  0.902500  0.629900  0.615600  1.0  0.1077
  H  H44  1  0.879200  0.724800  0.456800  1.0  0.1047
  H  H45  1  0.816100  0.689300  0.400200  1.0  0.1137
  H  H46  1  0.804800  0.482600  0.381200  1.0  0.1046
  H  H47  1  0.754500  0.363500  0.424500  1.0  0.1061
  H  H48  1  0.690000  0.480200  0.425400  1.0  0.1085
  H  H49  1  0.826800  0.345300  0.470600  1.0  0.1137
  H  H50  1  0.887000  0.308200  0.456700  1.0  0.1033
  H  H51  1  0.893000  0.392800  0.289500  1.0  0.1112
  H  H52  1  0.836600  0.433200  0.310600  1.0  0.1039
  H  H53  1  0.591000  0.403100  0.485500  1.0  0.093
  H  H54  1  0.699700  0.333000  0.433800  1.0  0.1744
  H  H55  1  0.659700  0.302800  0.525400  1.0  0.1007
  H  H56  1  0.641600  0.440500  0.443300  1.0  0.1124
  H  H57  1  0.816300  0.047900  0.154300  1.0  0.1145
  H  H58  1  0.755900  0.167200  0.097500  1.0  0.1184
  H  H59  1  0.693100  0.048800  0.044600  1.0  0.0977
  H  H60  1  0.829400  0.181000  0.086300  1.0  0.1068
  H  H61  1  0.889600  0.222200  0.139000  1.0  0.1074
  H  H62  1  0.909200  0.142900  0.320400  1.0  0.1016
  H  H63  1  0.850400  0.099700  0.264200  1.0  0.1105
  H  H64  1  0.660500  0.094100  0.940500  1.0  0.1105
  H  H65  1  0.597500  0.129900  0.884400  1.0  0.1076
  H  H66  1  0.620800  0.224800  0.043200  1.0  0.1055
  H  H67  1  0.683900  0.189300  0.099800  1.0  0.114
  H  H68  1  0.695200  0.982600  0.118800  1.0  0.105
  H  H69  1  0.745500  0.863500  0.075500  1.0  0.106
  H  H70  1  0.810000  0.980200  0.074600  1.0  0.1084
  H  H71  1  0.673200  0.845300  0.029400  1.0  0.1138
  H  H72  1  0.613000  0.808200  0.043300  1.0  0.1034
  H  H73  1  0.607000  0.892800  0.210500  1.0  0.1108
  H  H74  1  0.663400  0.933200  0.189400  1.0  0.1041
  H  H75  1  0.909000  0.903100  0.014500  1.0  0.0929
  H  H76  1  0.800300  0.833000  0.066200  1.0  0.1756
  H  H77  1  0.840300  0.802800  0.974600  1.0  0.1012
  H  H78  1  0.858400  0.940500  0.056700  1.0  0.1116
  H  H79  1  0.316300  0.547900  0.154300  1.0  0.1145
  H  H80  1  0.255900  0.667200  0.097500  1.0  0.1184
  H  H81  1  0.193100  0.548800  0.044600  1.0  0.0977
  H  H82  1  0.329400  0.681000  0.086300  1.0  0.1056
  H  H83  1  0.389600  0.722200  0.139000  1.0  0.1074
  H  H84  1  0.409200  0.642900  0.320400  1.0  0.1016
  H  H85  1  0.350400  0.599700  0.264200  1.0  0.1105
  H  H86  1  0.160500  0.594100  0.940500  1.0  0.1105
  H  H87  1  0.097500  0.629900  0.884400  1.0  0.1076
  H  H88  1  0.120800  0.724800  0.043200  1.0  0.1055
  H  H89  1  0.183900  0.689300  0.099800  1.0  0.114
  H  H90  1  0.195200  0.482600  0.118800  1.0  0.105
  H  H91  1  0.245500  0.363500  0.075500  1.0  0.106
  H  H92  1  0.310000  0.480200  0.074600  1.0  0.1084
  H  H93  1  0.173200  0.345300  0.029400  1.0  0.1138
  H  H94  1  0.113000  0.308200  0.043300  1.0  0.1034
  H  H95  1  0.107000  0.392800  0.210500  1.0  0.1113
  H  H96  1  0.163400  0.433200  0.189400  1.0  0.1041
  H  H97  1  0.409000  0.403100  0.014500  1.0  0.0929
  H  H98  1  0.300300  0.333000  0.066200  1.0  0.1756
  H  H99  1  0.340300  0.302800  0.974600  1.0  0.1012
  H  H100  1  0.358400  0.440500  0.056700  1.0  0.1116
  H  H101  1  0.816300  0.952100  0.654300  1.0  0.1136
  H  H102  1  0.755900  0.832800  0.597500  1.0  0.1182
  H  H103  1  0.693100  0.951200  0.544600  1.0  0.0974
  H  H104  1  0.829400  0.819000  0.586300  1.0  0.1057
  H  H105  1  0.889600  0.777800  0.639000  1.0  0.1076
  H  H106  1  0.909200  0.857100  0.820400  1.0  0.1016
  H  H107  1  0.850400  0.900300  0.764200  1.0  0.1105
  H  H108  1  0.660500  0.905900  0.440500  1.0  0.1109
  H  H109  1  0.597500  0.870100  0.384400  1.0  0.1076
  H  H110  1  0.620800  0.775200  0.543200  1.0  0.1049
  H  H111  1  0.683900  0.810700  0.599800  1.0  0.1142
  H  H112  1  0.695200  0.017400  0.618800  1.0  0.1053
  H  H113  1  0.745500  0.136500  0.575500  1.0  0.1053
  H  H114  1  0.810000  0.019800  0.574600  1.0  0.1084
  H  H115  1  0.673200  0.154700  0.529400  1.0  0.114
  H  H116  1  0.613000  0.191800  0.543300  1.0  0.1031
  H  H117  1  0.607000  0.107200  0.710500  1.0  0.1115
  H  H118  1  0.663400  0.066800  0.689400  1.0  0.1041
  H  H119  1  0.909000  0.096900  0.514500  1.0  0.092
  H  H120  1  0.800300  0.167000  0.566200  1.0  0.1775
  H  H121  1  0.840300  0.197200  0.474600  1.0  0.1017
  H  H122  1  0.858400  0.059500  0.556700  1.0  0.1122
  H  H123  1  0.316300  0.452100  0.654300  1.0  0.1144
  H  H124  1  0.255900  0.332800  0.597500  1.0  0.1182
  H  H125  1  0.193100  0.451200  0.544600  1.0  0.0974
  H  H126  1  0.329400  0.319000  0.586300  1.0  0.1057
  H  H127  1  0.389600  0.277800  0.639000  1.0  0.1076
  H  H128  1  0.409200  0.357100  0.820400  1.0  0.1016
  H  H129  1  0.350400  0.400300  0.764200  1.0  0.1105
  H  H130  1  0.160500  0.405900  0.440500  1.0  0.1109
  H  H131  1  0.097500  0.370100  0.384400  1.0  0.1076
  H  H132  1  0.120800  0.275200  0.543200  1.0  0.1049
  H  H133  1  0.183900  0.310700  0.599800  1.0  0.1142
  H  H134  1  0.195200  0.517400  0.618800  1.0  0.1053
  H  H135  1  0.245500  0.636500  0.575500  1.0  0.1053
  H  H136  1  0.310000  0.519800  0.574600  1.0  0.1084
  H  H137  1  0.173200  0.654700  0.529400  1.0  0.114
  H  H138  1  0.113000  0.691800  0.543300  1.0  0.1031
  H  H139  1  0.107000  0.607200  0.710500  1.0  0.1115
  H  H140  1  0.163400  0.566800  0.689400  1.0  0.1041
  H  H141  1  0.409000  0.596900  0.514500  1.0  0.092
  H  H142  1  0.300300  0.667000  0.566200  1.0  0.1775
  H  H143  1  0.340300  0.697200  0.474600  1.0  0.1017
  H  H144  1  0.358400  0.559500  0.556700  1.0  0.1122
  H  H145  1  0.183700  0.952100  0.845700  1.0  0.1143
  H  H146  1  0.244100  0.832800  0.902500  1.0  0.1184
  H  H147  1  0.306900  0.951200  0.955400  1.0  0.0976
  H  H148  1  0.170600  0.819000  0.913700  1.0  0.1072
  H  H149  1  0.110400  0.777800  0.861000  1.0  0.1077
  H  H150  1  0.090800  0.857100  0.679600  1.0  0.1019
  H  H151  1  0.149600  0.900300  0.735800  1.0  0.1106
  H  H152  1  0.339500  0.905900  0.059500  1.0  0.1107
  H  H153  1  0.402500  0.870100  0.115600  1.0  0.1076
  H  H154  1  0.379200  0.775200  0.956800  1.0  0.104
  H  H155  1  0.316100  0.810700  0.900200  1.0  0.1134
  H  H156  1  0.304800  0.017400  0.881200  1.0  0.1048
  H  H157  1  0.254500  0.136500  0.924500  1.0  0.1054
  H  H158  1  0.190000  0.019800  0.925400  1.0  0.1089
  H  H159  1  0.326800  0.154700  0.970600  1.0  0.114
  H  H160  1  0.387000  0.191800  0.956700  1.0  0.1035
  H  H161  1  0.393000  0.107200  0.789500  1.0  0.1108
  H  H162  1  0.336600  0.066800  0.810600  1.0  0.1031
  H  H163  1  0.091000  0.096900  0.985500  1.0  0.0923
  H  H164  1  0.199700  0.167000  0.933800  1.0  0.1755
  H  H165  1  0.159700  0.197200  0.025400  1.0  0.1006
  H  H166  1  0.141600  0.059500  0.943300  1.0  0.1118
  H  H167  1  0.683700  0.452100  0.845700  1.0  0.1143
  H  H168  1  0.744100  0.332800  0.902500  1.0  0.1184
  H  H169  1  0.806900  0.451200  0.955400  1.0  0.0976
  H  H170  1  0.670600  0.319000  0.913700  1.0  0.106
  H  H171  1  0.610400  0.277800  0.861000  1.0  0.1077
  H  H172  1  0.590800  0.357100  0.679600  1.0  0.1019
  H  H173  1  0.649600  0.400300  0.735800  1.0  0.1106
  H  H174  1  0.839500  0.405900  0.059500  1.0  0.1107
  H  H175  1  0.902500  0.370100  0.115600  1.0  0.1076
  H  H176  1  0.879200  0.275200  0.956800  1.0  0.104
  H  H177  1  0.816100  0.310700  0.900200  1.0  0.1134
  H  H178  1  0.804800  0.517400  0.881200  1.0  0.1048
  H  H179  1  0.754500  0.636500  0.924500  1.0  0.1054
  H  H180  1  0.690000  0.519800  0.925400  1.0  0.1089
  H  H181  1  0.826800  0.654700  0.970600  1.0  0.114
  H  H182  1  0.887000  0.691800  0.956700  1.0  0.1035
  H  H183  1  0.893000  0.607200  0.789500  1.0  0.1111
  H  H184  1  0.836600  0.566800  0.810600  1.0  0.1031
  H  H185  1  0.591000  0.596900  0.985500  1.0  0.0923
  H  H186  1  0.699700  0.667000  0.933800  1.0  0.1755
  H  H187  1  0.659700  0.697200  0.025400  1.0  0.1006
  H  H188  1  0.641600  0.559500  0.943300  1.0  0.1118
  C  C189  1  0.245820  0.039940  0.398500  1.0  0.026
  C  C190  1  0.208550  0.063850  0.367200  1.0  -0.0845
  C  C191  1  0.207850  0.110920  0.367400  1.0  0.0289
  C  C192  1  0.244580  0.135490  0.402100  1.0  -0.0755
  C  C193  1  0.281840  0.112210  0.436000  1.0  0.0017
  C  C194  1  0.281940  0.064450  0.433300  1.0  -0.1339
  C  C195  1  0.167670  0.137160  0.329700  1.0  0.053
  C  C196  1  0.154550  0.173250  0.366400  1.0  -0.1293
  C  C197  1  0.118540  0.198000  0.335100  1.0  -0.0715
  C  C198  1  0.094440  0.186500  0.264600  1.0  -0.1307
  C  C199  1  0.106640  0.150340  0.227200  1.0  -0.0536
  C  C200  1  0.142410  0.125050  0.260300  1.0  -0.1277
  C  C201  1  0.055750  0.215190  0.229600  1.0  0.7419
  C  C202  1  0.321400  0.137250  0.472500  1.0  0.0502
  C  C203  1  0.347570  0.120200  0.538100  1.0  -0.1378
  C  C204  1  0.385380  0.141600  0.571700  1.0  -0.0561
  C  C205  1  0.397840  0.180300  0.540500  1.0  -0.1397
  C  C206  1  0.371490  0.198130  0.477100  1.0  -0.0549
  C  C207  1  0.333580  0.176840  0.443200  1.0  -0.1462
  C  C208  1  0.439860  0.201900  0.576600  1.0  0.7469
  C  C209  1  0.247370  0.989850  0.402300  1.0  0.009
  C  C210  1  0.282650  0.966450  0.393300  1.0  -0.1314
  C  C211  1  0.286300  0.918320  0.402100  1.0  0.0137
  C  C212  1  0.252790  0.894960  0.418800  1.0  -0.1069
  C  C213  1  0.216330  0.917770  0.427300  1.0  -0.1423
  C  C214  1  0.214160  0.964900  0.419300  1.0  -0.1268
  C  C215  1  0.181480  0.892590  0.450000  1.0  0.1479
  C  C216  1  0.114300  0.846000  0.488100  1.0  0.0376
  C  C217  1  0.079270  0.819100  0.508100  1.0  0.6717
  C  C218  1  0.324590  0.894100  0.391100  1.0  0.0491
  C  C219  1  0.340660  0.855520  0.435200  1.0  -0.1442
  C  C220  1  0.376380  0.833000  0.426400  1.0  -0.0599
  C  C221  1  0.396770  0.847130  0.372300  1.0  -0.1446
  C  C222  1  0.380480  0.883960  0.327500  1.0  -0.067
  C  C223  1  0.345920  0.907340  0.339100  1.0  -0.1214
  C  C224  1  0.434730  0.820940  0.359500  1.0  0.7897
  C  C225  1  0.114000  0.886400  0.477900  1.0  -0.04
  C  C226  1  0.181700  0.850600  0.454700  1.0  -0.1128
  C  C227  1  0.151500  0.828400  0.495700  1.0  -0.1117
  C  C228  1  0.146300  0.909800  0.455400  1.0  -0.0119
  C  C229  1  0.745820  0.539940  0.398500  1.0  0.026
  C  C230  1  0.708550  0.563850  0.367200  1.0  -0.0845
  C  C231  1  0.707850  0.610920  0.367400  1.0  0.0289
  C  C232  1  0.744580  0.635490  0.402100  1.0  -0.0755
  C  C233  1  0.781840  0.612210  0.436000  1.0  0.0017
  C  C234  1  0.781940  0.564450  0.433300  1.0  -0.1339
  C  C235  1  0.667670  0.637160  0.329700  1.0  0.053
  C  C236  1  0.654550  0.673250  0.366400  1.0  -0.1293
  C  C237  1  0.618540  0.698000  0.335100  1.0  -0.0715
  C  C238  1  0.594440  0.686500  0.264600  1.0  -0.1307
  C  C239  1  0.606640  0.650340  0.227200  1.0  -0.0536
  C  C240  1  0.642410  0.625050  0.260300  1.0  -0.1277
  C  C241  1  0.555750  0.715190  0.229600  1.0  0.7419
  C  C242  1  0.821400  0.637250  0.472500  1.0  0.0502
  C  C243  1  0.847570  0.620200  0.538100  1.0  -0.1378
  C  C244  1  0.885380  0.641600  0.571700  1.0  -0.0561
  C  C245  1  0.897840  0.680300  0.540500  1.0  -0.1397
  C  C246  1  0.871490  0.698130  0.477100  1.0  -0.0549
  C  C247  1  0.833580  0.676840  0.443200  1.0  -0.1462
  C  C248  1  0.939860  0.701900  0.576600  1.0  0.7469
  C  C249  1  0.747370  0.489850  0.402300  1.0  0.009
  C  C250  1  0.782650  0.466450  0.393300  1.0  -0.1314
  C  C251  1  0.786300  0.418320  0.402100  1.0  0.0137
  C  C252  1  0.752790  0.394960  0.418800  1.0  -0.1069
  C  C253  1  0.716330  0.417770  0.427300  1.0  -0.1423
  C  C254  1  0.714160  0.464900  0.419300  1.0  -0.1268
  C  C255  1  0.681480  0.392590  0.450000  1.0  0.1479
  C  C256  1  0.614300  0.346000  0.488100  1.0  0.0376
  C  C257  1  0.579270  0.319100  0.508100  1.0  0.6717
  C  C258  1  0.824590  0.394100  0.391100  1.0  0.0491
  C  C259  1  0.840660  0.355520  0.435200  1.0  -0.1442
  C  C260  1  0.876380  0.333000  0.426400  1.0  -0.0599
  C  C261  1  0.896770  0.347130  0.372300  1.0  -0.1446
  C  C262  1  0.880480  0.383960  0.327500  1.0  -0.067
  C  C263  1  0.845920  0.407340  0.339100  1.0  -0.1214
  C  C264  1  0.934730  0.320940  0.359500  1.0  0.7897
  C  C265  1  0.614000  0.386400  0.477900  1.0  -0.04
  C  C266  1  0.681700  0.350600  0.454700  1.0  -0.1128
  C  C267  1  0.651500  0.328400  0.495700  1.0  -0.1117
  C  C268  1  0.646300  0.409800  0.455400  1.0  -0.0119
  C  C269  1  0.754180  0.039940  0.101500  1.0  0.0265
  C  C270  1  0.791450  0.063850  0.132800  1.0  -0.0847
  C  C271  1  0.792150  0.110920  0.132600  1.0  0.0291
  C  C272  1  0.755420  0.135490  0.097900  1.0  -0.0756
  C  C273  1  0.718160  0.112210  0.064000  1.0  0.002
  C  C274  1  0.718060  0.064450  0.066700  1.0  -0.1343
  C  C275  1  0.832330  0.137160  0.170300  1.0  0.0525
  C  C276  1  0.845450  0.173250  0.133600  1.0  -0.1294
  C  C277  1  0.881460  0.198000  0.164900  1.0  -0.0722
  C  C278  1  0.905560  0.186500  0.235400  1.0  -0.1293
  C  C279  1  0.893360  0.150340  0.272800  1.0  -0.0539
  C  C280  1  0.857590  0.125050  0.239700  1.0  -0.1294
  C  C281  1  0.944250  0.215190  0.270400  1.0  0.7411
  C  C282  1  0.678600  0.137250  0.027500  1.0  0.0497
  C  C283  1  0.652430  0.120200  0.961900  1.0  -0.1369
  C  C284  1  0.614620  0.141600  0.928300  1.0  -0.0562
  C  C285  1  0.602160  0.180300  0.959500  1.0  -0.139
  C  C286  1  0.628510  0.198130  0.022900  1.0  -0.0538
  C  C287  1  0.666420  0.176840  0.056800  1.0  -0.1467
  C  C288  1  0.560140  0.201900  0.923400  1.0  0.7469
  C  C289  1  0.752630  0.989850  0.097700  1.0  0.0093
  C  C290  1  0.717350  0.966450  0.106700  1.0  -0.1335
  C  C291  1  0.713700  0.918320  0.097900  1.0  0.0138
  C  C292  1  0.747210  0.894960  0.081200  1.0  -0.1073
  C  C293  1  0.783670  0.917770  0.072700  1.0  -0.1423
  C  C294  1  0.785840  0.964900  0.080700  1.0  -0.1268
  C  C295  1  0.818520  0.892590  0.050000  1.0  0.1472
  C  C296  1  0.885700  0.846000  0.011900  1.0  0.0361
  C  C297  1  0.920730  0.819100  0.991900  1.0  0.675
  C  C298  1  0.675410  0.894100  0.108900  1.0  0.0489
  C  C299  1  0.659340  0.855520  0.064800  1.0  -0.1423
  C  C300  1  0.623620  0.833000  0.073600  1.0  -0.0591
  C  C301  1  0.603230  0.847130  0.127700  1.0  -0.1442
  C  C302  1  0.619520  0.883960  0.172500  1.0  -0.0674
  C  C303  1  0.654080  0.907340  0.160900  1.0  -0.1206
  C  C304  1  0.565270  0.820940  0.140500  1.0  0.7907
  C  C305  1  0.886000  0.886400  0.022100  1.0  -0.04
  C  C306  1  0.818300  0.850600  0.045300  1.0  -0.1117
  C  C307  1  0.848500  0.828400  0.004300  1.0  -0.1119
  C  C308  1  0.853700  0.909800  0.044600  1.0  -0.0134
  C  C309  1  0.254180  0.539940  0.101500  1.0  0.0265
  C  C310  1  0.291450  0.563850  0.132800  1.0  -0.0847
  C  C311  1  0.292150  0.610920  0.132600  1.0  0.0291
  C  C312  1  0.255420  0.635490  0.097900  1.0  -0.0756
  C  C313  1  0.218160  0.612210  0.064000  1.0  0.002
  C  C314  1  0.218060  0.564450  0.066700  1.0  -0.1343
  C  C315  1  0.332330  0.637160  0.170300  1.0  0.0525
  C  C316  1  0.345450  0.673250  0.133600  1.0  -0.1294
  C  C317  1  0.381460  0.698000  0.164900  1.0  -0.0722
  C  C318  1  0.405560  0.686500  0.235400  1.0  -0.1293
  C  C319  1  0.393360  0.650340  0.272800  1.0  -0.0539
  C  C320  1  0.357590  0.625050  0.239700  1.0  -0.1294
  C  C321  1  0.444250  0.715190  0.270400  1.0  0.7411
  C  C322  1  0.178600  0.637250  0.027500  1.0  0.0497
  C  C323  1  0.152430  0.620200  0.961900  1.0  -0.1369
  C  C324  1  0.114620  0.641600  0.928300  1.0  -0.0562
  C  C325  1  0.102160  0.680300  0.959500  1.0  -0.139
  C  C326  1  0.128510  0.698130  0.022900  1.0  -0.0538
  C  C327  1  0.166420  0.676840  0.056800  1.0  -0.1467
  C  C328  1  0.060140  0.701900  0.923400  1.0  0.7469
  C  C329  1  0.252630  0.489850  0.097700  1.0  0.0093
  C  C330  1  0.217350  0.466450  0.106700  1.0  -0.1335
  C  C331  1  0.213700  0.418320  0.097900  1.0  0.0138
  C  C332  1  0.247210  0.394960  0.081200  1.0  -0.1073
  C  C333  1  0.283670  0.417770  0.072700  1.0  -0.1423
  C  C334  1  0.285840  0.464900  0.080700  1.0  -0.1268
  C  C335  1  0.318520  0.392590  0.050000  1.0  0.1472
  C  C336  1  0.385700  0.346000  0.011900  1.0  0.0361
  C  C337  1  0.420730  0.319100  0.991900  1.0  0.675
  C  C338  1  0.175410  0.394100  0.108900  1.0  0.0489
  C  C339  1  0.159340  0.355520  0.064800  1.0  -0.1423
  C  C340  1  0.123620  0.333000  0.073600  1.0  -0.0591
  C  C341  1  0.103230  0.347130  0.127700  1.0  -0.1442
  C  C342  1  0.119520  0.383960  0.172500  1.0  -0.0674
  C  C343  1  0.154080  0.407340  0.160900  1.0  -0.1206
  C  C344  1  0.065270  0.320940  0.140500  1.0  0.7907
  C  C345  1  0.386000  0.386400  0.022100  1.0  -0.04
  C  C346  1  0.318300  0.350600  0.045300  1.0  -0.1117
  C  C347  1  0.348500  0.328400  0.004300  1.0  -0.1119
  C  C348  1  0.353700  0.409800  0.044600  1.0  -0.0134
  C  C349  1  0.754180  0.960060  0.601500  1.0  0.0269
  C  C350  1  0.791450  0.936150  0.632800  1.0  -0.0849
  C  C351  1  0.792150  0.889080  0.632600  1.0  0.0293
  C  C352  1  0.755420  0.864510  0.597900  1.0  -0.0747
  C  C353  1  0.718160  0.887790  0.564000  1.0  0.0017
  C  C354  1  0.718060  0.935550  0.566700  1.0  -0.1348
  C  C355  1  0.832330  0.862840  0.670300  1.0  0.0523
  C  C356  1  0.845450  0.826750  0.633600  1.0  -0.1289
  C  C357  1  0.881460  0.802000  0.664900  1.0  -0.0714
  C  C358  1  0.905560  0.813500  0.735400  1.0  -0.1297
  C  C359  1  0.893360  0.849660  0.772800  1.0  -0.0537
  C  C360  1  0.857590  0.874950  0.739700  1.0  -0.1305
  C  C361  1  0.944250  0.784810  0.770400  1.0  0.7407
  C  C362  1  0.678600  0.862750  0.527500  1.0  0.0498
  C  C363  1  0.652430  0.879800  0.461900  1.0  -0.1372
  C  C364  1  0.614620  0.858400  0.428300  1.0  -0.0561
  C  C365  1  0.602160  0.819700  0.459500  1.0  -0.1389
  C  C366  1  0.628510  0.801870  0.522900  1.0  -0.0554
  C  C367  1  0.666420  0.823160  0.556800  1.0  -0.1465
  C  C368  1  0.560140  0.798100  0.423400  1.0  0.7468
  C  C369  1  0.752630  0.010150  0.597700  1.0  0.0094
  C  C370  1  0.717350  0.033550  0.606700  1.0  -0.1338
  C  C371  1  0.713700  0.081680  0.597900  1.0  0.0138
  C  C372  1  0.747210  0.105040  0.581200  1.0  -0.105
  C  C373  1  0.783670  0.082230  0.572700  1.0  -0.1422
  C  C374  1  0.785840  0.035100  0.580700  1.0  -0.1274
  C  C375  1  0.818520  0.107410  0.550000  1.0  0.1478
  C  C376  1  0.885700  0.154000  0.511900  1.0  0.0362
  C  C377  1  0.920730  0.180900  0.491900  1.0  0.671
  C  C378  1  0.675410  0.105900  0.608900  1.0  0.0488
  C  C379  1  0.659340  0.144480  0.564800  1.0  -0.1422
  C  C380  1  0.623620  0.167000  0.573600  1.0  -0.0601
  C  C381  1  0.603230  0.152870  0.627700  1.0  -0.1439
  C  C382  1  0.619520  0.116040  0.672500  1.0  -0.0672
  C  C383  1  0.654080  0.092660  0.660900  1.0  -0.1207
  C  C384  1  0.565270  0.179060  0.640500  1.0  0.7908
  C  C385  1  0.886000  0.113600  0.522100  1.0  -0.0427
  C  C386  1  0.818300  0.149400  0.545300  1.0  -0.1123
  C  C387  1  0.848500  0.171600  0.504300  1.0  -0.1155
  C  C388  1  0.853700  0.090200  0.544600  1.0  -0.0131
  C  C389  1  0.254180  0.460060  0.601500  1.0  0.0269
  C  C390  1  0.291450  0.436150  0.632800  1.0  -0.0849
  C  C391  1  0.292150  0.389080  0.632600  1.0  0.0293
  C  C392  1  0.255420  0.364510  0.597900  1.0  -0.0747
  C  C393  1  0.218160  0.387790  0.564000  1.0  0.0017
  C  C394  1  0.218060  0.435550  0.566700  1.0  -0.1348
  C  C395  1  0.332330  0.362840  0.670300  1.0  0.0523
  C  C396  1  0.345450  0.326750  0.633600  1.0  -0.1289
  C  C397  1  0.381460  0.302000  0.664900  1.0  -0.0714
  C  C398  1  0.405560  0.313500  0.735400  1.0  -0.1297
  C  C399  1  0.393360  0.349660  0.772800  1.0  -0.0537
  C  C400  1  0.357590  0.374950  0.739700  1.0  -0.1305
  C  C401  1  0.444250  0.284810  0.770400  1.0  0.7407
  C  C402  1  0.178600  0.362750  0.527500  1.0  0.0498
  C  C403  1  0.152430  0.379800  0.461900  1.0  -0.1372
  C  C404  1  0.114620  0.358400  0.428300  1.0  -0.0561
  C  C405  1  0.102160  0.319700  0.459500  1.0  -0.1389
  C  C406  1  0.128510  0.301870  0.522900  1.0  -0.0554
  C  C407  1  0.166420  0.323160  0.556800  1.0  -0.1465
  C  C408  1  0.060140  0.298100  0.423400  1.0  0.7468
  C  C409  1  0.252630  0.510150  0.597700  1.0  0.0094
  C  C410  1  0.217350  0.533550  0.606700  1.0  -0.1338
  C  C411  1  0.213700  0.581680  0.597900  1.0  0.0138
  C  C412  1  0.247210  0.605040  0.581200  1.0  -0.105
  C  C413  1  0.283670  0.582230  0.572700  1.0  -0.1422
  C  C414  1  0.285840  0.535100  0.580700  1.0  -0.1274
  C  C415  1  0.318520  0.607410  0.550000  1.0  0.1478
  C  C416  1  0.385700  0.654000  0.511900  1.0  0.0362
  C  C417  1  0.420730  0.680900  0.491900  1.0  0.671
  C  C418  1  0.175410  0.605900  0.608900  1.0  0.0488
  C  C419  1  0.159340  0.644480  0.564800  1.0  -0.1422
  C  C420  1  0.123620  0.667000  0.573600  1.0  -0.0601
  C  C421  1  0.103230  0.652870  0.627700  1.0  -0.1439
  C  C422  1  0.119520  0.616040  0.672500  1.0  -0.0672
  C  C423  1  0.154080  0.592660  0.660900  1.0  -0.1207
  C  C424  1  0.065270  0.679060  0.640500  1.0  0.7908
  C  C425  1  0.386000  0.613600  0.522100  1.0  -0.0427
  C  C426  1  0.318300  0.649400  0.545300  1.0  -0.1123
  C  C427  1  0.348500  0.671600  0.504300  1.0  -0.1155
  C  C428  1  0.353700  0.590200  0.544600  1.0  -0.0131
  C  C429  1  0.245820  0.960060  0.898500  1.0  0.0266
  C  C430  1  0.208550  0.936150  0.867200  1.0  -0.0848
  C  C431  1  0.207850  0.889080  0.867400  1.0  0.0289
  C  C432  1  0.244580  0.864510  0.902100  1.0  -0.0747
  C  C433  1  0.281840  0.887790  0.936000  1.0  0.0015
  C  C434  1  0.281940  0.935550  0.933300  1.0  -0.1346
  C  C435  1  0.167670  0.862840  0.829700  1.0  0.0527
  C  C436  1  0.154550  0.826750  0.866400  1.0  -0.1289
  C  C437  1  0.118540  0.802000  0.835100  1.0  -0.0721
  C  C438  1  0.094440  0.813500  0.764600  1.0  -0.1305
  C  C439  1  0.106640  0.849660  0.727200  1.0  -0.0535
  C  C440  1  0.142410  0.874950  0.760300  1.0  -0.1287
  C  C441  1  0.055750  0.784810  0.729600  1.0  0.7412
  C  C442  1  0.321400  0.862750  0.972500  1.0  0.0502
  C  C443  1  0.347570  0.879800  0.038100  1.0  -0.1366
  C  C444  1  0.385380  0.858400  0.071700  1.0  -0.0559
  C  C445  1  0.397840  0.819700  0.040500  1.0  -0.1401
  C  C446  1  0.371490  0.801870  0.977100  1.0  -0.0547
  C  C447  1  0.333580  0.823160  0.943200  1.0  -0.146
  C  C448  1  0.439860  0.798100  0.076600  1.0  0.7464
  C  C449  1  0.247370  0.010150  0.902300  1.0  0.009
  C  C450  1  0.282650  0.033550  0.893300  1.0  -0.1316
  C  C451  1  0.286300  0.081680  0.902100  1.0  0.0137
  C  C452  1  0.252790  0.105040  0.918800  1.0  -0.1046
  C  C453  1  0.216330  0.082230  0.927300  1.0  -0.142
  C  C454  1  0.214160  0.035100  0.919300  1.0  -0.1268
  C  C455  1  0.181480  0.107410  0.950000  1.0  0.1483
  C  C456  1  0.114300  0.154000  0.988100  1.0  0.0385
  C  C457  1  0.079270  0.180900  0.008100  1.0  0.6749
  C  C458  1  0.324590  0.105900  0.891100  1.0  0.0489
  C  C459  1  0.340660  0.144480  0.935200  1.0  -0.1435
  C  C460  1  0.376380  0.167000  0.926400  1.0  -0.0604
  C  C461  1  0.396770  0.152870  0.872300  1.0  -0.1442
  C  C462  1  0.380480  0.116040  0.827500  1.0  -0.0676
  C  C463  1  0.345920  0.092660  0.839100  1.0  -0.1207
  C  C464  1  0.434730  0.179060  0.859500  1.0  0.7901
  C  C465  1  0.114000  0.113600  0.977900  1.0  -0.0432
  C  C466  1  0.181700  0.149400  0.954700  1.0  -0.1125
  C  C467  1  0.151500  0.171600  0.995700  1.0  -0.114
  C  C468  1  0.146300  0.090200  0.955400  1.0  -0.0136
  C  C469  1  0.745820  0.460060  0.898500  1.0  0.0266
  C  C470  1  0.708550  0.436150  0.867200  1.0  -0.0848
  C  C471  1  0.707850  0.389080  0.867400  1.0  0.0289
  C  C472  1  0.744580  0.364510  0.902100  1.0  -0.0747
  C  C473  1  0.781840  0.387790  0.936000  1.0  0.0015
  C  C474  1  0.781940  0.435550  0.933300  1.0  -0.1346
  C  C475  1  0.667670  0.362840  0.829700  1.0  0.0527
  C  C476  1  0.654550  0.326750  0.866400  1.0  -0.1289
  C  C477  1  0.618540  0.302000  0.835100  1.0  -0.0721
  C  C478  1  0.594440  0.313500  0.764600  1.0  -0.1305
  C  C479  1  0.606640  0.349660  0.727200  1.0  -0.0535
  C  C480  1  0.642410  0.374950  0.760300  1.0  -0.1287
  C  C481  1  0.555750  0.284810  0.729600  1.0  0.7412
  C  C482  1  0.821400  0.362750  0.972500  1.0  0.0502
  C  C483  1  0.847570  0.379800  0.038100  1.0  -0.1366
  C  C484  1  0.885380  0.358400  0.071700  1.0  -0.0559
  C  C485  1  0.897840  0.319700  0.040500  1.0  -0.1401
  C  C486  1  0.871490  0.301870  0.977100  1.0  -0.0547
  C  C487  1  0.833580  0.323160  0.943200  1.0  -0.146
  C  C488  1  0.939860  0.298100  0.076600  1.0  0.7464
  C  C489  1  0.747370  0.510150  0.902300  1.0  0.009
  C  C490  1  0.782650  0.533550  0.893300  1.0  -0.1316
  C  C491  1  0.786300  0.581680  0.902100  1.0  0.0137
  C  C492  1  0.752790  0.605040  0.918800  1.0  -0.1046
  C  C493  1  0.716330  0.582230  0.927300  1.0  -0.142
  C  C494  1  0.714160  0.535100  0.919300  1.0  -0.1268
  C  C495  1  0.681480  0.607410  0.950000  1.0  0.1483
  C  C496  1  0.614300  0.654000  0.988100  1.0  0.0385
  C  C497  1  0.579270  0.680900  0.008100  1.0  0.6749
  C  C498  1  0.824590  0.605900  0.891100  1.0  0.0489
  C  C499  1  0.840660  0.644480  0.935200  1.0  -0.1435
  C  C500  1  0.876380  0.667000  0.926400  1.0  -0.0604
  C  C501  1  0.896770  0.652870  0.872300  1.0  -0.1442
  C  C502  1  0.880480  0.616040  0.827500  1.0  -0.0676
  C  C503  1  0.845920  0.592660  0.839100  1.0  -0.1207
  C  C504  1  0.934730  0.679060  0.859500  1.0  0.7901
  C  C505  1  0.614000  0.613600  0.977900  1.0  -0.0432
  C  C506  1  0.681700  0.649400  0.954700  1.0  -0.1125
  C  C507  1  0.651500  0.671600  0.995700  1.0  -0.114
  C  C508  1  0.646300  0.590200  0.955400  1.0  -0.0136
  O  O509  1  0.036920  0.205450  0.163600  1.0  -0.7083
  O  O510  1  0.045250  0.246370  0.267800  1.0  -0.6521
  O  O511  1  0.460910  0.183130  0.636100  1.0  -0.68
  O  O512  1  0.452240  0.233870  0.546000  1.0  -0.7277
  O  O513  1  0.081770  0.778060  0.518800  1.0  -0.6015
  O  O514  1  0.046830  0.839880  0.515500  1.0  -0.6496
  O  O515  1  0.452600  0.793070  0.408900  1.0  -0.7266
  O  O516  1  0.446120  0.829730  0.302800  1.0  -0.7192
  O  O517  1  0.536920  0.705450  0.163600  1.0  -0.7083
  O  O518  1  0.545250  0.746370  0.267800  1.0  -0.6521
  O  O519  1  0.960910  0.683130  0.636100  1.0  -0.68
  O  O520  1  0.952240  0.733870  0.546000  1.0  -0.7277
  O  O521  1  0.581770  0.278060  0.518800  1.0  -0.6015
  O  O522  1  0.546830  0.339880  0.515500  1.0  -0.6514
  O  O523  1  0.952600  0.293070  0.408900  1.0  -0.7266
  O  O524  1  0.946120  0.329730  0.302800  1.0  -0.7192
  O  O525  1  0.963080  0.205450  0.336400  1.0  -0.7079
  O  O526  1  0.954750  0.246370  0.232200  1.0  -0.6527
  O  O527  1  0.539090  0.183130  0.863900  1.0  -0.6798
  O  O528  1  0.547760  0.233870  0.954000  1.0  -0.7258
  O  O529  1  0.918230  0.778060  0.981200  1.0  -0.6043
  O  O530  1  0.953170  0.839880  0.984500  1.0  -0.6462
  O  O531  1  0.547400  0.793070  0.091100  1.0  -0.7266
  O  O532  1  0.553880  0.829730  0.197200  1.0  -0.7193
  O  O533  1  0.463080  0.705450  0.336400  1.0  -0.7079
  O  O534  1  0.454750  0.746370  0.232200  1.0  -0.6527
  O  O535  1  0.039090  0.683130  0.863900  1.0  -0.6798
  O  O536  1  0.047760  0.733870  0.954000  1.0  -0.7258
  O  O537  1  0.418230  0.278060  0.981200  1.0  -0.6043
  O  O538  1  0.453170  0.339880  0.984500  1.0  -0.6499
  O  O539  1  0.047400  0.293070  0.091100  1.0  -0.7266
  O  O540  1  0.053880  0.329730  0.197200  1.0  -0.7193
  O  O541  1  0.963080  0.794550  0.836400  1.0  -0.7078
  O  O542  1  0.954750  0.753630  0.732200  1.0  -0.6528
  O  O543  1  0.539090  0.816870  0.363900  1.0  -0.6795
  O  O544  1  0.547760  0.766130  0.454000  1.0  -0.7263
  O  O545  1  0.918230  0.221940  0.481200  1.0  -0.6029
  O  O546  1  0.953170  0.160120  0.484500  1.0  -0.649
  O  O547  1  0.547400  0.206930  0.591100  1.0  -0.7263
  O  O548  1  0.553880  0.170270  0.697200  1.0  -0.7184
  O  O549  1  0.463080  0.294550  0.836400  1.0  -0.7078
  O  O550  1  0.454750  0.253630  0.732200  1.0  -0.6528
  O  O551  1  0.039090  0.316870  0.363900  1.0  -0.6795
  O  O552  1  0.047760  0.266130  0.454000  1.0  -0.7263
  O  O553  1  0.418230  0.721940  0.481200  1.0  -0.6029
  O  O554  1  0.453170  0.660120  0.484500  1.0  -0.6508
  O  O555  1  0.047400  0.706930  0.591100  1.0  -0.7263
  O  O556  1  0.053880  0.670270  0.697200  1.0  -0.7184
  O  O557  1  0.036920  0.794550  0.663600  1.0  -0.7077
  O  O558  1  0.045250  0.753630  0.767800  1.0  -0.6523
  O  O559  1  0.460910  0.816870  0.136100  1.0  -0.6802
  O  O560  1  0.452240  0.766130  0.046000  1.0  -0.7266
  O  O561  1  0.081770  0.221940  0.018800  1.0  -0.6039
  O  O562  1  0.046830  0.160120  0.015500  1.0  -0.6494
  O  O563  1  0.452600  0.206930  0.908900  1.0  -0.726
  O  O564  1  0.446120  0.170270  0.802800  1.0  -0.7182
  O  O565  1  0.536920  0.294550  0.663600  1.0  -0.7077
  O  O566  1  0.545250  0.253630  0.767800  1.0  -0.6523
  O  O567  1  0.960910  0.316870  0.136100  1.0  -0.6802
  O  O568  1  0.952240  0.266130  0.046000  1.0  -0.7266
  O  O569  1  0.581770  0.721940  0.018800  1.0  -0.6039
  O  O570  1  0.546830  0.660120  0.015500  1.0  -0.6531
  O  O571  1  0.952600  0.706930  0.908900  1.0  -0.726
  O  O572  1  0.946120  0.670270  0.802800  1.0  -0.7182
