# generated using pymatgen
data_MnC3O4
_symmetry_space_group_name_H-M   'P 1'
_cell_length_a   11.68800000
_cell_length_b   10.24380000
_cell_length_c   18.75300000
_cell_angle_alpha   90.00000000
_cell_angle_beta   127.40800000
_cell_angle_gamma   90.00000000
_symmetry_Int_Tables_number   1
_chemical_formula_structural   MnC3O4
_chemical_formula_sum   'Mn12 C36 O48'
_cell_volume   1783.49915110
_cell_formula_units_Z   12
loop_
 _symmetry_equiv_pos_site_id
 _symmetry_equiv_pos_as_xyz
  1  'x, y, z'
loop_
 _atom_site_type_symbol
 _atom_site_label
 _atom_site_symmetry_multiplicity
 _atom_site_fract_x
 _atom_site_fract_y
 _atom_site_fract_z
 _atom_site_occupancy
 _atom_site_charge
  Mn  Mn1  1  0.375450  0.086430  0.129800  1.0  1.1645
  Mn  Mn2  1  0.574610  0.899620  0.314880  1.0  1.1695
  Mn  Mn3  1  0.624550  0.586430  0.370200  1.0  1.1649
  Mn  Mn4  1  0.425390  0.399620  0.185120  1.0  1.1709
  Mn  Mn5  1  0.624550  0.913570  0.870200  1.0  1.1648
  Mn  Mn6  1  0.425390  0.100380  0.685120  1.0  1.171
  Mn  Mn7  1  0.375450  0.413570  0.629800  1.0  1.1644
  Mn  Mn8  1  0.574610  0.600380  0.814880  1.0  1.1696
  Mn  Mn9  1  0.500000  0.000000  0.000000  1.0  1.1551
  Mn  Mn10  1  0.500000  0.500000  0.500000  1.0  1.1551
  Mn  Mn11  1  0.000000  0.000000  0.000000  1.0  1.1603
  Mn  Mn12  1  0.000000  0.500000  0.500000  1.0  1.1603
  C  C13  1  0.507500  0.185100  0.328900  1.0  0.4229
  C  C14  1  0.692400  0.990800  0.212100  1.0  0.7775
  C  C15  1  0.481800  0.285600  0.052200  1.0  0.7108
  C  C16  1  0.238700  0.881000  0.190400  1.0  0.4368
  C  C17  1  0.225200  0.900300  0.967800  1.0  0.4352
  C  C18  1  0.119700  0.280100  0.050400  1.0  0.7177
  C  C19  1  0.831000  0.985000  0.284000  1.0  -0.015
  C  C20  1  0.569000  0.400500  0.062400  1.0  -0.0388
  C  C21  1  0.976000  0.330000  0.991000  1.0  -0.0047
  C  C22  1  0.492500  0.685100  0.171100  1.0  0.426
  C  C23  1  0.307600  0.490800  0.287900  1.0  0.7775
  C  C24  1  0.518200  0.785600  0.447800  1.0  0.7099
  C  C25  1  0.761300  0.381000  0.309600  1.0  0.4354
  C  C26  1  0.774800  0.400300  0.532200  1.0  0.4367
  C  C27  1  0.880300  0.780100  0.449600  1.0  0.7162
  C  C28  1  0.169000  0.485000  0.216000  1.0  -0.0174
  C  C29  1  0.431000  0.900500  0.437600  1.0  -0.0406
  C  C30  1  0.024000  0.830000  0.509000  1.0  -0.004
  C  C31  1  0.492500  0.814900  0.671100  1.0  0.4249
  C  C32  1  0.307600  0.009200  0.787900  1.0  0.7781
  C  C33  1  0.518200  0.714400  0.947800  1.0  0.7088
  C  C34  1  0.761300  0.119000  0.809600  1.0  0.4364
  C  C35  1  0.774800  0.099700  0.032200  1.0  0.4326
  C  C36  1  0.880300  0.719900  0.949600  1.0  0.7168
  C  C37  1  0.169000  0.015000  0.716000  1.0  -0.0174
  C  C38  1  0.431000  0.599500  0.937600  1.0  -0.042
  C  C39  1  0.024000  0.670000  0.009000  1.0  -0.005
  C  C40  1  0.507500  0.314900  0.828900  1.0  0.4219
  C  C41  1  0.692400  0.509200  0.712100  1.0  0.7767
  C  C42  1  0.481800  0.214400  0.552200  1.0  0.7084
  C  C43  1  0.238700  0.619000  0.690400  1.0  0.4371
  C  C44  1  0.225200  0.599700  0.467800  1.0  0.4316
  C  C45  1  0.119700  0.219900  0.550400  1.0  0.7181
  C  C46  1  0.831000  0.515000  0.784000  1.0  -0.0149
  C  C47  1  0.569000  0.099500  0.562400  1.0  -0.0405
  C  C48  1  0.976000  0.170000  0.491000  1.0  -0.0051
  O  O49  1  0.443200  0.208200  0.246170  1.0  -0.5515
  O  O50  1  0.559000  0.077400  0.366200  1.0  -0.5206
  O  O51  1  0.590000  0.998300  0.218700  1.0  -0.6352
  O  O52  1  0.677200  0.001500  0.141600  1.0  -0.6476
  O  O53  1  0.456800  0.262800  0.108200  1.0  -0.6018
  O  O54  1  0.478500  0.206400  0.002300  1.0  -0.555
  O  O55  1  0.345200  0.928700  0.198000  1.0  -0.5753
  O  O56  1  0.110100  0.901200  0.127400  1.0  -0.5252
  O  O57  1  0.336500  0.972000  0.021700  1.0  -0.5735
  O  O58  1  0.118800  0.896800  0.966600  1.0  -0.5388
  O  O59  1  0.157700  0.161400  0.057800  1.0  -0.6084
  O  O60  1  0.201900  0.373900  0.090800  1.0  -0.5982
  O  O61  1  0.556800  0.708200  0.253830  1.0  -0.5534
  O  O62  1  0.441000  0.577400  0.133800  1.0  -0.5221
  O  O63  1  0.410000  0.498300  0.281300  1.0  -0.6369
  O  O64  1  0.322800  0.501500  0.358400  1.0  -0.647
  O  O65  1  0.543200  0.762800  0.391800  1.0  -0.6012
  O  O66  1  0.521500  0.706400  0.497700  1.0  -0.5561
  O  O67  1  0.654800  0.428700  0.302000  1.0  -0.5738
  O  O68  1  0.889900  0.401200  0.372600  1.0  -0.5248
  O  O69  1  0.663500  0.472000  0.478300  1.0  -0.5741
  O  O70  1  0.881200  0.396800  0.533400  1.0  -0.5373
  O  O71  1  0.842300  0.661400  0.442200  1.0  -0.6073
  O  O72  1  0.798100  0.873900  0.409200  1.0  -0.5974
  O  O73  1  0.556800  0.791800  0.753830  1.0  -0.5532
  O  O74  1  0.441000  0.922600  0.633800  1.0  -0.5214
  O  O75  1  0.410000  0.001700  0.781300  1.0  -0.6369
  O  O76  1  0.322800  0.998500  0.858400  1.0  -0.6467
  O  O77  1  0.543200  0.737200  0.891800  1.0  -0.6013
  O  O78  1  0.521500  0.793600  0.997700  1.0  -0.5543
  O  O79  1  0.654800  0.071300  0.802000  1.0  -0.573
  O  O80  1  0.889900  0.098800  0.872600  1.0  -0.5246
  O  O81  1  0.663500  0.028000  0.978300  1.0  -0.5752
  O  O82  1  0.881200  0.103200  0.033400  1.0  -0.5381
  O  O83  1  0.842300  0.838600  0.942200  1.0  -0.6063
  O  O84  1  0.798100  0.626100  0.909200  1.0  -0.598
  O  O85  1  0.443200  0.291800  0.746170  1.0  -0.5514
  O  O86  1  0.559000  0.422600  0.866200  1.0  -0.52
  O  O87  1  0.590000  0.501700  0.718700  1.0  -0.6353
  O  O88  1  0.677200  0.498500  0.641600  1.0  -0.6473
  O  O89  1  0.456800  0.237200  0.608200  1.0  -0.6022
  O  O90  1  0.478500  0.293600  0.502300  1.0  -0.554
  O  O91  1  0.345200  0.571300  0.698000  1.0  -0.5749
  O  O92  1  0.110100  0.598800  0.627400  1.0  -0.5241
  O  O93  1  0.336500  0.528000  0.521700  1.0  -0.5739
  O  O94  1  0.118800  0.603200  0.466600  1.0  -0.539
  O  O95  1  0.157700  0.338600  0.557800  1.0  -0.6075
  O  O96  1  0.201900  0.126100  0.590800  1.0  -0.5984
