# generated using pymatgen
data_MnH2(CO2)2
_symmetry_space_group_name_H-M   'P 1'
_cell_length_a   11.69760000
_cell_length_b   10.24550000
_cell_length_c   15.17240000
_cell_angle_alpha   90.00000000
_cell_angle_beta   91.62100000
_cell_angle_gamma   90.00000000
_symmetry_Int_Tables_number   1
_chemical_formula_structural   MnH2(CO2)2
_chemical_formula_sum   'Mn12 H24 C24 O48'
_cell_volume   1817.65047663
_cell_formula_units_Z   12
loop_
 _symmetry_equiv_pos_site_id
 _symmetry_equiv_pos_as_xyz
  1  'x, y, z'
loop_
 _atom_site_type_symbol
 _atom_site_label
 _atom_site_symmetry_multiplicity
 _atom_site_fract_x
 _atom_site_fract_y
 _atom_site_fract_z
 _atom_site_occupancy
 _atom_site_charge
  Mn  Mn1  1  0.756060  0.423900  0.131330  1.0  1.1577
  Mn  Mn2  1  0.739550  0.613250  0.308940  1.0  1.1459
  Mn  Mn3  1  0.743940  0.923900  0.368670  1.0  1.1579
  Mn  Mn4  1  0.760450  0.113250  0.191060  1.0  1.1447
  Mn  Mn5  1  0.243940  0.576100  0.868670  1.0  1.1577
  Mn  Mn6  1  0.260450  0.386750  0.691060  1.0  1.1446
  Mn  Mn7  1  0.256060  0.076100  0.631330  1.0  1.1575
  Mn  Mn8  1  0.239550  0.886750  0.808940  1.0  1.1457
  Mn  Mn9  1  0.500000  0.500000  0.000000  1.0  1.1459
  Mn  Mn10  1  0.000000  0.000000  0.500000  1.0  1.1459
  Mn  Mn11  1  0.000000  0.500000  0.000000  1.0  1.1722
  Mn  Mn12  1  0.500000  0.000000  0.500000  1.0  1.1722
  H  H13  1  0.698700  0.649400  0.927600  1.0  -0.0058
  H  H14  1  0.442600  0.872400  0.949100  1.0  0.0036
  H  H15  1  0.479600  0.543100  0.256300  1.0  -0.0033
  H  H16  1  0.849200  0.265600  0.366700  1.0  -0.0
  H  H17  1  0.963300  0.710600  0.215200  1.0  -0.0058
  H  H18  1  0.493300  0.714300  0.465200  1.0  -0.0054
  H  H19  1  0.801300  0.149400  0.572400  1.0  -0.0064
  H  H20  1  0.057400  0.372400  0.550900  1.0  0.004
  H  H21  1  0.020400  0.043100  0.243700  1.0  -0.0031
  H  H22  1  0.650800  0.765600  0.133300  1.0  0.0007
  H  H23  1  0.536700  0.210600  0.284800  1.0  -0.0043
  H  H24  1  0.006700  0.214300  0.034800  1.0  -0.0066
  H  H25  1  0.301300  0.350600  0.072400  1.0  -0.0061
  H  H26  1  0.557400  0.127600  0.050900  1.0  0.0037
  H  H27  1  0.520400  0.456900  0.743700  1.0  -0.0035
  H  H28  1  0.150800  0.734400  0.633300  1.0  0.0009
  H  H29  1  0.036700  0.289400  0.784800  1.0  -0.0046
  H  H30  1  0.506700  0.285700  0.534800  1.0  -0.0061
  H  H31  1  0.198700  0.850600  0.427600  1.0  -0.0066
  H  H32  1  0.942600  0.627600  0.449100  1.0  0.0037
  H  H33  1  0.979600  0.956900  0.756300  1.0  -0.0031
  H  H34  1  0.349200  0.234400  0.866700  1.0  0.0003
  H  H35  1  0.463300  0.789400  0.715200  1.0  -0.0052
  H  H36  1  0.993300  0.785700  0.965200  1.0  -0.0045
  C  C37  1  0.741200  0.595700  0.965500  1.0  0.7082
  C  C38  1  0.423200  0.784600  0.944700  1.0  0.7081
  C  C39  1  0.519200  0.522300  0.205900  1.0  0.7117
  C  C40  1  0.822200  0.332700  0.330500  1.0  0.7029
  C  C41  1  0.941000  0.644200  0.176600  1.0  0.6991
  C  C42  1  0.558600  0.729700  0.433100  1.0  0.7046
  C  C43  1  0.758800  0.095700  0.534500  1.0  0.7083
  C  C44  1  0.076800  0.284600  0.555300  1.0  0.7081
  C  C45  1  0.980800  0.022300  0.294100  1.0  0.7114
  C  C46  1  0.677800  0.832700  0.169500  1.0  0.7036
  C  C47  1  0.559000  0.144200  0.323400  1.0  0.6984
  C  C48  1  0.941400  0.229700  0.066900  1.0  0.7042
  C  C49  1  0.258800  0.404300  0.034500  1.0  0.7089
  C  C50  1  0.576800  0.215400  0.055300  1.0  0.708
  C  C51  1  0.480800  0.477700  0.794100  1.0  0.7116
  C  C52  1  0.177800  0.667300  0.669500  1.0  0.7031
  C  C53  1  0.059000  0.355800  0.823400  1.0  0.6992
  C  C54  1  0.441400  0.270300  0.566900  1.0  0.7036
  C  C55  1  0.241200  0.904300  0.465500  1.0  0.7093
  C  C56  1  0.923200  0.715400  0.444700  1.0  0.7083
  C  C57  1  0.019200  0.977700  0.705900  1.0  0.7119
  C  C58  1  0.322200  0.167300  0.830500  1.0  0.703
  C  C59  1  0.441000  0.855800  0.676600  1.0  0.7
  C  C60  1  0.058600  0.770300  0.933100  1.0  0.7036
  O  O61  1  0.686240  0.529300  0.020620  1.0  -0.6757
  O  O62  1  0.844700  0.595700  0.957430  1.0  -0.6258
  O  O63  1  0.477500  0.707700  0.992520  1.0  -0.6097
  O  O64  1  0.343600  0.754700  0.890340  1.0  -0.6641
  O  O65  1  0.626500  0.512800  0.214790  1.0  -0.6795
  O  O66  1  0.462200  0.507400  0.138800  1.0  -0.5981
  O  O67  1  0.807800  0.440600  0.365150  1.0  -0.601
  O  O68  1  0.803400  0.305700  0.250080  1.0  -0.6741
  O  O69  1  0.002800  0.624300  0.114860  1.0  -0.6259
  O  O70  1  0.850030  0.584600  0.193920  1.0  -0.6638
  O  O71  1  0.595560  0.844800  0.432720  1.0  -0.6537
  O  O72  1  0.600000  0.634800  0.395250  1.0  -0.6104
  O  O73  1  0.813760  0.029300  0.479380  1.0  -0.6763
  O  O74  1  0.655300  0.095700  0.542570  1.0  -0.625
  O  O75  1  0.022500  0.207700  0.507480  1.0  -0.6103
  O  O76  1  0.156400  0.254700  0.609660  1.0  -0.663
  O  O77  1  0.873500  0.012800  0.285210  1.0  -0.6794
  O  O78  1  0.037800  0.007400  0.361200  1.0  -0.6006
  O  O79  1  0.692200  0.940600  0.134850  1.0  -0.6018
  O  O80  1  0.696600  0.805700  0.249920  1.0  -0.6745
  O  O81  1  0.497200  0.124300  0.385140  1.0  -0.6265
  O  O82  1  0.649970  0.084600  0.306080  1.0  -0.6648
  O  O83  1  0.904440  0.344800  0.067280  1.0  -0.6541
  O  O84  1  0.900000  0.134800  0.104750  1.0  -0.61
  O  O85  1  0.313760  0.470700  0.979380  1.0  -0.6764
  O  O86  1  0.155300  0.404300  0.042570  1.0  -0.6252
  O  O87  1  0.522500  0.292300  0.007480  1.0  -0.6096
  O  O88  1  0.656400  0.245300  0.109660  1.0  -0.6605
  O  O89  1  0.373500  0.487200  0.785210  1.0  -0.6792
  O  O90  1  0.537800  0.492600  0.861200  1.0  -0.6006
  O  O91  1  0.192200  0.559400  0.634850  1.0  -0.6029
  O  O92  1  0.196600  0.694300  0.749920  1.0  -0.6746
  O  O93  1  0.997200  0.375700  0.885140  1.0  -0.626
  O  O94  1  0.149970  0.415400  0.806080  1.0  -0.6644
  O  O95  1  0.404440  0.155200  0.567280  1.0  -0.6535
  O  O96  1  0.400000  0.365200  0.604750  1.0  -0.6073
  O  O97  1  0.186240  0.970700  0.520620  1.0  -0.6756
  O  O98  1  0.344700  0.904300  0.457430  1.0  -0.6256
  O  O99  1  0.977500  0.792300  0.492520  1.0  -0.6088
  O  O100  1  0.843600  0.745300  0.390340  1.0  -0.6615
  O  O101  1  0.126500  0.987200  0.714790  1.0  -0.6794
  O  O102  1  0.962200  0.992600  0.638800  1.0  -0.5985
  O  O103  1  0.307800  0.059400  0.865150  1.0  -0.6018
  O  O104  1  0.303400  0.194300  0.750080  1.0  -0.674
  O  O105  1  0.502800  0.875700  0.614860  1.0  -0.6253
  O  O106  1  0.350030  0.915400  0.693920  1.0  -0.6633
  O  O107  1  0.095560  0.655200  0.932720  1.0  -0.6534
  O  O108  1  0.100000  0.865200  0.895250  1.0  -0.6079
