# generated using pymatgen
data_MnH2(CO2)2
_symmetry_space_group_name_H-M   'P 1'
_cell_length_a   10.00500000
_cell_length_b   11.51900000
_cell_length_c   14.96100000
_cell_angle_alpha   91.22850000
_cell_angle_beta   90.00000000
_cell_angle_gamma   90.00000000
_symmetry_Int_Tables_number   1
_chemical_formula_structural   MnH2(CO2)2
_chemical_formula_sum   'Mn12 H24 C24 O48'
_cell_volume   1723.82294430
_cell_formula_units_Z   12
loop_
 _symmetry_equiv_pos_site_id
 _symmetry_equiv_pos_as_xyz
  1  'x, y, z'
loop_
 _atom_site_type_symbol
 _atom_site_label
 _atom_site_symmetry_multiplicity
 _atom_site_fract_x
 _atom_site_fract_y
 _atom_site_fract_z
 _atom_site_occupancy
 _atom_site_charge
  Mn  Mn1  1  0.914110  0.756240  0.131610  1.0  1.1465
  Mn  Mn2  1  0.097130  0.735820  0.314850  1.0  1.143
  Mn  Mn3  1  0.414110  0.743760  0.368390  1.0  1.1468
  Mn  Mn4  1  0.597130  0.764180  0.185150  1.0  1.1427
  Mn  Mn5  1  0.085890  0.243760  0.868390  1.0  1.1468
  Mn  Mn6  1  0.902870  0.264180  0.685150  1.0  1.1423
  Mn  Mn7  1  0.585890  0.256240  0.631610  1.0  1.1465
  Mn  Mn8  1  0.402870  0.235820  0.814850  1.0  1.1427
  Mn  Mn9  1  0.000000  0.500000  0.000000  1.0  1.1479
  Mn  Mn10  1  0.500000  0.000000  0.500000  1.0  1.1479
  Mn  Mn11  1  0.000000  0.000000  0.000000  1.0  1.1549
  Mn  Mn12  1  0.500000  0.500000  0.500000  1.0  1.1549
  H  H13  1  0.746000  0.868000  0.364000  1.0  -0.0081
  H  H14  1  0.026000  0.471500  0.264500  1.0  0.0138
  H  H15  1  0.611000  0.551700  0.045700  1.0  0.0107
  H  H16  1  0.195000  0.973000  0.231000  1.0  -0.0015
  H  H17  1  0.163000  0.697000  0.935000  1.0  0.001
  H  H18  1  0.701000  0.990500  0.004500  1.0  0.0013
  H  H19  1  0.246000  0.632000  0.136000  1.0  -0.0076
  H  H20  1  0.526000  0.028500  0.235500  1.0  0.0144
  H  H21  1  0.111000  0.948300  0.454300  1.0  0.0116
  H  H22  1  0.695000  0.527000  0.269000  1.0  -0.001
  H  H23  1  0.663000  0.803000  0.565000  1.0  0.001
  H  H24  1  0.201000  0.509500  0.495500  1.0  0.0011
  H  H25  1  0.254000  0.132000  0.636000  1.0  -0.0078
  H  H26  1  0.974000  0.528500  0.735500  1.0  0.0146
  H  H27  1  0.389000  0.448300  0.954300  1.0  0.0119
  H  H28  1  0.805000  0.027000  0.769000  1.0  -0.001
  H  H29  1  0.837000  0.303000  0.065000  1.0  0.0009
  H  H30  1  0.299000  0.009500  0.995500  1.0  0.0024
  H  H31  1  0.754000  0.368000  0.864000  1.0  -0.0083
  H  H32  1  0.474000  0.971500  0.764500  1.0  0.0137
  H  H33  1  0.889000  0.051700  0.545700  1.0  0.0117
  H  H34  1  0.305000  0.473000  0.731000  1.0  -0.0014
  H  H35  1  0.337000  0.197000  0.435000  1.0  0.0009
  H  H36  1  0.799000  0.490500  0.504500  1.0  0.0024
  C  C37  1  0.816900  0.836200  0.328200  1.0  0.6901
  C  C38  1  0.007900  0.512860  0.211160  1.0  0.6673
  C  C39  1  0.705500  0.573320  0.052320  1.0  0.6741
  C  C40  1  0.128400  0.949290  0.186590  1.0  0.6831
  C  C41  1  0.108100  0.742220  0.971120  1.0  0.7071
  C  C42  1  0.714400  0.932120  0.048420  1.0  0.6932
  C  C43  1  0.316900  0.663800  0.171800  1.0  0.6903
  C  C44  1  0.507900  0.987140  0.288840  1.0  0.6673
  C  C45  1  0.205500  0.926680  0.447680  1.0  0.6745
  C  C46  1  0.628400  0.550710  0.313410  1.0  0.6831
  C  C47  1  0.608100  0.757780  0.528880  1.0  0.7076
  C  C48  1  0.214400  0.567880  0.451580  1.0  0.6927
  C  C49  1  0.183100  0.163800  0.671800  1.0  0.6906
  C  C50  1  0.992100  0.487140  0.788840  1.0  0.6673
  C  C51  1  0.294500  0.426680  0.947680  1.0  0.6746
  C  C52  1  0.871600  0.050710  0.813410  1.0  0.6829
  C  C53  1  0.891900  0.257780  0.028880  1.0  0.7077
  C  C54  1  0.285600  0.067880  0.951580  1.0  0.6918
  C  C55  1  0.683100  0.336200  0.828200  1.0  0.6905
  C  C56  1  0.492100  0.012860  0.711160  1.0  0.6675
  C  C57  1  0.794500  0.073320  0.552320  1.0  0.6742
  C  C58  1  0.371600  0.449290  0.686590  1.0  0.6827
  C  C59  1  0.391900  0.242220  0.471120  1.0  0.7075
  C  C60  1  0.785600  0.432120  0.548420  1.0  0.6924
  O  O61  1  0.791480  0.813480  0.246350  1.0  -0.6611
  O  O62  1  0.922860  0.815810  0.367710  1.0  -0.5928
  O  O63  1  0.995000  0.622830  0.219850  1.0  -0.6763
  O  O64  1  0.002060  0.456740  0.140440  1.0  -0.5898
  O  O65  1  0.733920  0.652540  0.109530  1.0  -0.6614
  O  O66  1  0.785270  0.517540  0.005540  1.0  -0.5909
  O  O67  1  0.077640  0.848880  0.196950  1.0  -0.6762
  O  O68  1  0.105510  0.015720  0.125720  1.0  -0.5879
  O  O69  1  0.030150  0.686490  0.022510  1.0  -0.6842
  O  O70  1  0.115680  0.848180  0.965480  1.0  -0.5973
  O  O71  1  0.835050  0.899600  0.057770  1.0  -0.6683
  O  O72  1  0.616350  0.896640  0.090150  1.0  -0.589
  O  O73  1  0.291480  0.686520  0.253650  1.0  -0.66
  O  O74  1  0.422860  0.684190  0.132290  1.0  -0.592
  O  O75  1  0.495000  0.877170  0.280150  1.0  -0.6767
  O  O76  1  0.502060  0.043260  0.359560  1.0  -0.5902
  O  O77  1  0.233920  0.847460  0.390470  1.0  -0.662
  O  O78  1  0.285270  0.982460  0.494460  1.0  -0.5892
  O  O79  1  0.577640  0.651120  0.303050  1.0  -0.6763
  O  O80  1  0.605510  0.484280  0.374280  1.0  -0.5885
  O  O81  1  0.530150  0.813510  0.477490  1.0  -0.6845
  O  O82  1  0.615680  0.651820  0.534520  1.0  -0.5974
  O  O83  1  0.335050  0.600400  0.442230  1.0  -0.6678
  O  O84  1  0.116350  0.603360  0.409850  1.0  -0.5889
  O  O85  1  0.208520  0.186520  0.753650  1.0  -0.6603
  O  O86  1  0.077140  0.184190  0.632290  1.0  -0.5924
  O  O87  1  0.005000  0.377170  0.780150  1.0  -0.6766
  O  O88  1  0.997940  0.543260  0.859560  1.0  -0.5898
  O  O89  1  0.266080  0.347460  0.890470  1.0  -0.6617
  O  O90  1  0.214730  0.482460  0.994460  1.0  -0.59
  O  O91  1  0.922360  0.151120  0.803050  1.0  -0.6753
  O  O92  1  0.894490  0.984280  0.874280  1.0  -0.5887
  O  O93  1  0.969850  0.313510  0.977490  1.0  -0.6846
  O  O94  1  0.884320  0.151820  0.034520  1.0  -0.5974
  O  O95  1  0.164950  0.100400  0.942230  1.0  -0.6686
  O  O96  1  0.383650  0.103360  0.909850  1.0  -0.5897
  O  O97  1  0.708520  0.313480  0.746350  1.0  -0.661
  O  O98  1  0.577140  0.315810  0.867710  1.0  -0.5935
  O  O99  1  0.505000  0.122830  0.719850  1.0  -0.6759
  O  O100  1  0.497940  0.956740  0.640440  1.0  -0.5893
  O  O101  1  0.766080  0.152540  0.609530  1.0  -0.6614
  O  O102  1  0.714730  0.017540  0.505540  1.0  -0.5913
  O  O103  1  0.422360  0.348880  0.696950  1.0  -0.6761
  O  O104  1  0.394490  0.515720  0.625720  1.0  -0.5884
  O  O105  1  0.469850  0.186490  0.522510  1.0  -0.6838
  O  O106  1  0.384320  0.348180  0.465480  1.0  -0.5971
  O  O107  1  0.664950  0.399600  0.557770  1.0  -0.669
  O  O108  1  0.883650  0.396640  0.590150  1.0  -0.5893
