# generated using pymatgen
data_MnH2(CO2)2
_symmetry_space_group_name_H-M   'P 1'
_cell_length_a   10.09460000
_cell_length_b   11.70470000
_cell_length_c   14.70980000
_cell_angle_alpha   91.50640000
_cell_angle_beta   90.00000000
_cell_angle_gamma   90.00000000
_symmetry_Int_Tables_number   1
_chemical_formula_structural   MnH2(CO2)2
_chemical_formula_sum   'Mn12 H24 C24 O48'
_cell_volume   1737.42493093
_cell_formula_units_Z   12
loop_
 _symmetry_equiv_pos_site_id
 _symmetry_equiv_pos_as_xyz
  1  'x, y, z'
loop_
 _atom_site_type_symbol
 _atom_site_label
 _atom_site_symmetry_multiplicity
 _atom_site_fract_x
 _atom_site_fract_y
 _atom_site_fract_z
 _atom_site_occupancy
 _atom_site_charge
  Mn  Mn1  1  0.914710  0.756440  0.130520  1.0  1.1531
  Mn  Mn2  1  0.098050  0.739270  0.317110  1.0  1.1438
  Mn  Mn3  1  0.414710  0.743560  0.369480  1.0  1.153
  Mn  Mn4  1  0.598050  0.760730  0.182890  1.0  1.1431
  Mn  Mn5  1  0.085290  0.243560  0.869480  1.0  1.1529
  Mn  Mn6  1  0.901950  0.260730  0.682890  1.0  1.1425
  Mn  Mn7  1  0.585290  0.256440  0.630520  1.0  1.1531
  Mn  Mn8  1  0.401950  0.239270  0.817110  1.0  1.1433
  Mn  Mn9  1  0.000000  0.500000  0.000000  1.0  1.1603
  Mn  Mn10  1  0.500000  0.000000  0.500000  1.0  1.1603
  Mn  Mn11  1  0.000000  0.000000  0.000000  1.0  1.167
  Mn  Mn12  1  0.500000  0.500000  0.500000  1.0  1.167
  H  H13  1  0.740000  0.851600  0.367600  1.0  -0.0017
  H  H14  1  0.026000  0.482200  0.269200  1.0  0.0077
  H  H15  1  0.611000  0.559600  0.037600  1.0  0.007
  H  H16  1  0.201000  0.965400  0.234400  1.0  0.013
  H  H17  1  0.161000  0.696800  0.928800  1.0  0.0051
  H  H18  1  0.706000  0.010900  0.021900  1.0  0.0161
  H  H19  1  0.240000  0.648400  0.132400  1.0  -0.0019
  H  H20  1  0.526000  0.017800  0.230800  1.0  0.0077
  H  H21  1  0.111000  0.940400  0.462400  1.0  0.0077
  H  H22  1  0.701000  0.534600  0.265600  1.0  0.0124
  H  H23  1  0.661000  0.803200  0.571200  1.0  0.0054
  H  H24  1  0.206000  0.489100  0.478100  1.0  0.0155
  H  H25  1  0.260000  0.148400  0.632400  1.0  -0.002
  H  H26  1  0.974000  0.517800  0.730800  1.0  0.0079
  H  H27  1  0.389000  0.440400  0.962400  1.0  0.0085
  H  H28  1  0.799000  0.034600  0.765600  1.0  0.0118
  H  H29  1  0.839000  0.303200  0.071200  1.0  0.0051
  H  H30  1  0.294000  0.989100  0.978100  1.0  0.0164
  H  H31  1  0.760000  0.351600  0.867600  1.0  -0.0018
  H  H32  1  0.474000  0.982200  0.769200  1.0  0.0078
  H  H33  1  0.889000  0.059600  0.537600  1.0  0.0078
  H  H34  1  0.299000  0.465400  0.734400  1.0  0.0126
  H  H35  1  0.339000  0.196800  0.428800  1.0  0.0047
  H  H36  1  0.794000  0.510900  0.521900  1.0  0.0166
  C  C37  1  0.813200  0.821220  0.332720  1.0  0.6822
  C  C38  1  0.005100  0.519040  0.213040  1.0  0.6733
  C  C39  1  0.707900  0.578180  0.042680  1.0  0.6598
  C  C40  1  0.135100  0.943910  0.185810  1.0  0.663
  C  C41  1  0.102800  0.741580  0.965780  1.0  0.6977
  C  C42  1  0.719700  0.941610  0.057710  1.0  0.6687
  C  C43  1  0.313200  0.678780  0.167280  1.0  0.6826
  C  C44  1  0.505100  0.980960  0.286960  1.0  0.6728
  C  C45  1  0.207900  0.921820  0.457320  1.0  0.6596
  C  C46  1  0.635100  0.556090  0.314190  1.0  0.6627
  C  C47  1  0.602800  0.758420  0.534220  1.0  0.6977
  C  C48  1  0.219700  0.558390  0.442290  1.0  0.6691
  C  C49  1  0.186800  0.178780  0.667280  1.0  0.6829
  C  C50  1  0.994900  0.480960  0.786960  1.0  0.6723
  C  C51  1  0.292100  0.421820  0.957320  1.0  0.6599
  C  C52  1  0.864900  0.056090  0.814190  1.0  0.6634
  C  C53  1  0.897200  0.258420  0.034220  1.0  0.697
  C  C54  1  0.280300  0.058390  0.942290  1.0  0.6691
  C  C55  1  0.686800  0.321220  0.832720  1.0  0.6832
  C  C56  1  0.494900  0.019040  0.713040  1.0  0.6724
  C  C57  1  0.792100  0.078180  0.542680  1.0  0.6599
  C  C58  1  0.364900  0.443910  0.685810  1.0  0.6633
  C  C59  1  0.397200  0.241580  0.465780  1.0  0.6976
  C  C60  1  0.780300  0.441610  0.557710  1.0  0.6685
  O  O61  1  0.790680  0.804910  0.248330  1.0  -0.6597
  O  O62  1  0.919970  0.805510  0.371960  1.0  -0.5981
  O  O63  1  0.997050  0.627040  0.219520  1.0  -0.6665
  O  O64  1  0.994170  0.460410  0.142710  1.0  -0.5932
  O  O65  1  0.734920  0.657140  0.102020  1.0  -0.6752
  O  O66  1  0.788790  0.524920  0.996070  1.0  -0.5779
  O  O67  1  0.073500  0.850830  0.199450  1.0  -0.6746
  O  O68  1  0.119890  0.006470  0.120750  1.0  -0.5812
  O  O69  1  0.029250  0.685700  0.020720  1.0  -0.6786
  O  O70  1  0.102650  0.845440  0.957930  1.0  -0.5974
  O  O71  1  0.837840  0.904670  0.063600  1.0  -0.6532
  O  O72  1  0.619990  0.899840  0.093050  1.0  -0.5944
  O  O73  1  0.290680  0.695090  0.251670  1.0  -0.6594
  O  O74  1  0.419970  0.694490  0.128040  1.0  -0.5983
  O  O75  1  0.497050  0.872960  0.280480  1.0  -0.6676
  O  O76  1  0.494170  0.039590  0.357290  1.0  -0.5935
  O  O77  1  0.234920  0.842860  0.397980  1.0  -0.6753
  O  O78  1  0.288790  0.975080  0.503930  1.0  -0.5772
  O  O79  1  0.573500  0.649170  0.300550  1.0  -0.6751
  O  O80  1  0.619890  0.493530  0.379250  1.0  -0.5813
  O  O81  1  0.529250  0.814300  0.479280  1.0  -0.6783
  O  O82  1  0.602650  0.654560  0.542070  1.0  -0.5981
  O  O83  1  0.337840  0.595330  0.436400  1.0  -0.6534
  O  O84  1  0.119990  0.600160  0.406950  1.0  -0.5944
  O  O85  1  0.209320  0.195090  0.751670  1.0  -0.6594
  O  O86  1  0.080030  0.194490  0.628040  1.0  -0.5981
  O  O87  1  0.002950  0.372960  0.780480  1.0  -0.6676
  O  O88  1  0.005830  0.539590  0.857290  1.0  -0.5939
  O  O89  1  0.265080  0.342860  0.897980  1.0  -0.6744
  O  O90  1  0.211210  0.475080  0.003930  1.0  -0.5771
  O  O91  1  0.926500  0.149170  0.800550  1.0  -0.675
  O  O92  1  0.880110  0.993530  0.879250  1.0  -0.5812
  O  O93  1  0.970750  0.314300  0.979280  1.0  -0.6793
  O  O94  1  0.897350  0.154560  0.042070  1.0  -0.598
  O  O95  1  0.162160  0.095330  0.936400  1.0  -0.6549
  O  O96  1  0.380010  0.100160  0.906950  1.0  -0.5949
  O  O97  1  0.709320  0.304910  0.748330  1.0  -0.6598
  O  O98  1  0.580030  0.305510  0.871960  1.0  -0.5983
  O  O99  1  0.502950  0.127040  0.719520  1.0  -0.6665
  O  O100  1  0.505830  0.960410  0.642710  1.0  -0.5937
  O  O101  1  0.765080  0.157140  0.602020  1.0  -0.6746
  O  O102  1  0.711210  0.024920  0.496070  1.0  -0.5774
  O  O103  1  0.426500  0.350830  0.699450  1.0  -0.6747
  O  O104  1  0.380110  0.506470  0.620750  1.0  -0.5817
  O  O105  1  0.470750  0.185700  0.520720  1.0  -0.6795
  O  O106  1  0.397350  0.345440  0.457930  1.0  -0.5969
  O  O107  1  0.662160  0.404670  0.563600  1.0  -0.6545
  O  O108  1  0.880010  0.399840  0.593050  1.0  -0.5947
