# generated using pymatgen
data_MnH2(CO2)2
_symmetry_space_group_name_H-M   'P 1'
_cell_length_a   10.12790000
_cell_length_b   11.64950000
_cell_length_c   14.86080000
_cell_angle_alpha   91.67000000
_cell_angle_beta   90.00000000
_cell_angle_gamma   90.00000000
_symmetry_Int_Tables_number   1
_chemical_formula_structural   MnH2(CO2)2
_chemical_formula_sum   'Mn12 H24 C24 O48'
_cell_volume   1752.60633298
_cell_formula_units_Z   12
loop_
 _symmetry_equiv_pos_site_id
 _symmetry_equiv_pos_as_xyz
  1  'x, y, z'
loop_
 _atom_site_type_symbol
 _atom_site_label
 _atom_site_symmetry_multiplicity
 _atom_site_fract_x
 _atom_site_fract_y
 _atom_site_fract_z
 _atom_site_occupancy
 _atom_site_charge
  Mn  Mn1  1  0.915590  0.756830  0.131150  1.0  1.1582
  Mn  Mn2  1  0.100290  0.739550  0.315080  1.0  1.1473
  Mn  Mn3  1  0.415590  0.743170  0.368850  1.0  1.1582
  Mn  Mn4  1  0.600290  0.760450  0.184920  1.0  1.147
  Mn  Mn5  1  0.084410  0.243170  0.868850  1.0  1.1581
  Mn  Mn6  1  0.899710  0.260450  0.684920  1.0  1.1468
  Mn  Mn7  1  0.584410  0.256830  0.631150  1.0  1.158
  Mn  Mn8  1  0.399710  0.239550  0.815080  1.0  1.1471
  Mn  Mn9  1  0.000000  0.500000  0.000000  1.0  1.1608
  Mn  Mn10  1  0.500000  0.000000  0.500000  1.0  1.1608
  Mn  Mn11  1  0.000000  0.000000  0.000000  1.0  1.1506
  Mn  Mn12  1  0.500000  0.500000  0.500000  1.0  1.1506
  H  H13  1  0.749400  0.863900  0.364600  1.0  -0.0049
  H  H14  1  0.023400  0.478500  0.265000  1.0  0.0061
  H  H15  1  0.618800  0.554000  0.042600  1.0  -0.0009
  H  H16  1  0.187700  0.975500  0.232300  1.0  -0.0047
  H  H17  1  0.157600  0.698900  0.928800  1.0  -0.0059
  H  H18  1  0.702100  0.994200  0.013000  1.0  0.0022
  H  H19  1  0.249400  0.636100  0.135400  1.0  -0.0053
  H  H20  1  0.523400  0.021500  0.235000  1.0  0.0059
  H  H21  1  0.118800  0.946000  0.457400  1.0  -0.0007
  H  H22  1  0.687700  0.524500  0.267700  1.0  -0.0041
  H  H23  1  0.657600  0.801100  0.571200  1.0  -0.0049
  H  H24  1  0.202100  0.505800  0.487000  1.0  0.0016
  H  H25  1  0.250600  0.136100  0.635400  1.0  -0.0049
  H  H26  1  0.976600  0.521500  0.735000  1.0  0.006
  H  H27  1  0.381200  0.446000  0.957400  1.0  -1e-04
  H  H28  1  0.812300  0.024500  0.767700  1.0  -0.0045
  H  H29  1  0.842400  0.301100  0.071200  1.0  -0.0049
  H  H30  1  0.297900  0.005800  0.987000  1.0  0.0021
  H  H31  1  0.750600  0.363900  0.864600  1.0  -0.0047
  H  H32  1  0.476600  0.978500  0.765000  1.0  0.0061
  H  H33  1  0.881200  0.054000  0.542600  1.0  0.0
  H  H34  1  0.312300  0.475500  0.732300  1.0  -0.0048
  H  H35  1  0.342400  0.198900  0.428800  1.0  -0.0059
  H  H36  1  0.797900  0.494200  0.513000  1.0  0.0028
  C  C37  1  0.818600  0.831150  0.329150  1.0  0.6942
  C  C38  1  0.007300  0.519000  0.211500  1.0  0.6795
  C  C39  1  0.709300  0.573780  0.049080  1.0  0.6843
  C  C40  1  0.127400  0.949470  0.187170  1.0  0.6884
  C  C41  1  0.101700  0.742690  0.968090  1.0  0.7059
  C  C42  1  0.718400  0.932820  0.052220  1.0  0.7005
  C  C43  1  0.318600  0.668850  0.170850  1.0  0.6943
  C  C44  1  0.507300  0.981000  0.288500  1.0  0.679
  C  C45  1  0.209300  0.926220  0.450920  1.0  0.684
  C  C46  1  0.627400  0.550530  0.312830  1.0  0.6877
  C  C47  1  0.601700  0.757310  0.531910  1.0  0.7064
  C  C48  1  0.218400  0.567180  0.447780  1.0  0.7003
  C  C49  1  0.181400  0.168850  0.670850  1.0  0.6942
  C  C50  1  0.992700  0.481000  0.788500  1.0  0.6794
  C  C51  1  0.290700  0.426220  0.950920  1.0  0.6841
  C  C52  1  0.872600  0.050530  0.812830  1.0  0.6877
  C  C53  1  0.898300  0.257310  0.031910  1.0  0.7059
  C  C54  1  0.281600  0.067180  0.947780  1.0  0.7004
  C  C55  1  0.681400  0.331150  0.829150  1.0  0.6947
  C  C56  1  0.492700  0.019000  0.711500  1.0  0.6797
  C  C57  1  0.790700  0.073780  0.549080  1.0  0.6839
  C  C58  1  0.372600  0.449470  0.687170  1.0  0.6878
  C  C59  1  0.398300  0.242690  0.468090  1.0  0.7062
  C  C60  1  0.781600  0.432820  0.552220  1.0  0.7002
  O  O61  1  0.792720  0.808110  0.247280  1.0  -0.6665
  O  O62  1  0.925480  0.814930  0.367670  1.0  -0.6042
  O  O63  1  0.999500  0.627370  0.219300  1.0  -0.6751
  O  O64  1  0.996270  0.461690  0.141750  1.0  -0.5928
  O  O65  1  0.737320  0.653640  0.106090  1.0  -0.6743
  O  O66  1  0.789080  0.519690  0.001440  1.0  -0.5882
  O  O67  1  0.076010  0.851560  0.197470  1.0  -0.6705
  O  O68  1  0.107240  0.013970  0.124880  1.0  -0.5905
  O  O69  1  0.028820  0.686460  0.021150  1.0  -0.6814
  O  O70  1  0.106950  0.846400  0.962610  1.0  -0.5975
  O  O71  1  0.837680  0.900780  0.059820  1.0  -0.6662
  O  O72  1  0.621730  0.892580  0.090460  1.0  -0.5974
  O  O73  1  0.292720  0.691890  0.252720  1.0  -0.6665
  O  O74  1  0.425480  0.685070  0.132330  1.0  -0.6045
  O  O75  1  0.499500  0.872630  0.280700  1.0  -0.6753
  O  O76  1  0.496270  0.038310  0.358250  1.0  -0.5934
  O  O77  1  0.237320  0.846360  0.393910  1.0  -0.675
  O  O78  1  0.289080  0.980310  0.498560  1.0  -0.5868
  O  O79  1  0.576010  0.648440  0.302530  1.0  -0.6701
  O  O80  1  0.607240  0.486030  0.375120  1.0  -0.5907
  O  O81  1  0.528820  0.813540  0.478850  1.0  -0.682
  O  O82  1  0.606950  0.653600  0.537390  1.0  -0.5971
  O  O83  1  0.337680  0.599220  0.440180  1.0  -0.6659
  O  O84  1  0.121730  0.607420  0.409540  1.0  -0.5967
  O  O85  1  0.207280  0.191890  0.752720  1.0  -0.6666
  O  O86  1  0.074520  0.185070  0.632330  1.0  -0.6052
  O  O87  1  0.000500  0.372630  0.780700  1.0  -0.6754
  O  O88  1  0.003730  0.538310  0.858250  1.0  -0.5938
  O  O89  1  0.262680  0.346360  0.893910  1.0  -0.6748
  O  O90  1  0.210920  0.480310  0.998560  1.0  -0.5877
  O  O91  1  0.923990  0.148440  0.802530  1.0  -0.6695
  O  O92  1  0.892760  0.986030  0.875120  1.0  -0.5908
  O  O93  1  0.971180  0.313540  0.978850  1.0  -0.6826
  O  O94  1  0.893050  0.153600  0.037390  1.0  -0.597
  O  O95  1  0.162320  0.099220  0.940180  1.0  -0.6664
  O  O96  1  0.378270  0.107420  0.909540  1.0  -0.5978
  O  O97  1  0.707280  0.308110  0.747280  1.0  -0.6668
  O  O98  1  0.574520  0.314930  0.867670  1.0  -0.6051
  O  O99  1  0.500500  0.127370  0.719300  1.0  -0.6751
  O  O100  1  0.503730  0.961690  0.641750  1.0  -0.5929
  O  O101  1  0.762680  0.153640  0.606090  1.0  -0.6742
  O  O102  1  0.710920  0.019690  0.501440  1.0  -0.5887
  O  O103  1  0.423990  0.351560  0.697470  1.0  -0.67
  O  O104  1  0.392760  0.513970  0.624880  1.0  -0.5908
  O  O105  1  0.471180  0.186460  0.521150  1.0  -0.6816
  O  O106  1  0.393050  0.346400  0.462610  1.0  -0.597
  O  O107  1  0.662320  0.400780  0.559820  1.0  -0.6666
  O  O108  1  0.878270  0.392580  0.590460  1.0  -0.5985
