# generated using pymatgen
data_MnH2(CO2)2
_symmetry_space_group_name_H-M   'P 1'
_cell_length_a   10.25000000
_cell_length_b   11.68300000
_cell_length_c   15.15400000
_cell_angle_alpha   91.86000000
_cell_angle_beta   90.00000000
_cell_angle_gamma   90.00000000
_symmetry_Int_Tables_number   1
_chemical_formula_structural   MnH2(CO2)2
_chemical_formula_sum   'Mn12 H24 C24 O48'
_cell_volume   1813.74673315
_cell_formula_units_Z   12
loop_
 _symmetry_equiv_pos_site_id
 _symmetry_equiv_pos_as_xyz
  1  'x, y, z'
loop_
 _atom_site_type_symbol
 _atom_site_label
 _atom_site_symmetry_multiplicity
 _atom_site_fract_x
 _atom_site_fract_y
 _atom_site_fract_z
 _atom_site_occupancy
 _atom_site_charge
  Mn  Mn1  1  0.923430  0.243910  0.868660  1.0  1.1594
  Mn  Mn2  1  0.612400  0.239470  0.809070  1.0  1.1486
  Mn  Mn3  1  0.423430  0.256090  0.631340  1.0  1.1593
  Mn  Mn4  1  0.112400  0.260530  0.690930  1.0  1.1481
  Mn  Mn5  1  0.076570  0.756090  0.131340  1.0  1.1592
  Mn  Mn6  1  0.387600  0.760530  0.190930  1.0  1.1479
  Mn  Mn7  1  0.576570  0.743910  0.368660  1.0  1.1593
  Mn  Mn8  1  0.887600  0.739470  0.309070  1.0  1.1484
  Mn  Mn9  1  0.000000  0.000000  0.000000  1.0  1.1693
  Mn  Mn10  1  0.500000  0.500000  0.500000  1.0  1.1693
  Mn  Mn11  1  0.000000  0.500000  0.000000  1.0  1.159
  Mn  Mn12  1  0.500000  0.000000  0.500000  1.0  1.159
  H  H13  1  0.713700  0.992200  0.964200  1.0  -0.0058
  H  H14  1  0.627600  0.444000  0.949200  1.0  0.001
  H  H15  1  0.211800  0.037200  0.784600  1.0  -0.0052
  H  H16  1  0.151000  0.301800  0.072100  1.0  -0.0031
  H  H17  1  0.765400  0.149500  0.633500  1.0  -0.0044
  H  H18  1  0.041400  0.520400  0.743100  1.0  1e-04
  H  H19  1  0.213700  0.507800  0.535800  1.0  -0.0061
  H  H20  1  0.127600  0.056000  0.550800  1.0  0.0005
  H  H21  1  0.711800  0.462800  0.715400  1.0  -0.0056
  H  H22  1  0.651000  0.198200  0.427900  1.0  -0.0031
  H  H23  1  0.265400  0.350500  0.866500  1.0  -0.0044
  H  H24  1  0.541400  0.979600  0.756900  1.0  0.0002
  H  H25  1  0.286300  0.007800  0.035800  1.0  -0.0058
  H  H26  1  0.372400  0.556000  0.050800  1.0  0.0006
  H  H27  1  0.788200  0.962800  0.215400  1.0  -0.005
  H  H28  1  0.849000  0.698200  0.927900  1.0  -0.0032
  H  H29  1  0.234600  0.850500  0.366500  1.0  -0.0044
  H  H30  1  0.958600  0.479600  0.256900  1.0  0.0002
  H  H31  1  0.786300  0.492200  0.464200  1.0  -0.0062
  H  H32  1  0.872400  0.944000  0.449200  1.0  0.0009
  H  H33  1  0.288200  0.537200  0.284600  1.0  -0.0046
  H  H34  1  0.349000  0.801800  0.572100  1.0  -0.0031
  H  H35  1  0.734600  0.649500  0.133500  1.0  -0.0042
  H  H36  1  0.458600  0.020400  0.243100  1.0  0.0002
  C  C37  1  0.728670  0.057840  0.932640  1.0  0.7042
  C  C38  1  0.715280  0.424000  0.945090  1.0  0.7019
  C  C39  1  0.145200  0.059300  0.823160  1.0  0.699
  C  C40  1  0.096520  0.259040  0.034710  1.0  0.7145
  C  C41  1  0.832390  0.177000  0.669710  1.0  0.6979
  C  C42  1  0.021600  0.480920  0.793710  1.0  0.701
  C  C43  1  0.228670  0.442160  0.567360  1.0  0.7045
  C  C44  1  0.215280  0.076000  0.554910  1.0  0.702
  C  C45  1  0.645200  0.440700  0.676840  1.0  0.6988
  C  C46  1  0.596520  0.240960  0.465290  1.0  0.7155
  C  C47  1  0.332390  0.323000  0.830290  1.0  0.698
  C  C48  1  0.521600  0.019080  0.706290  1.0  0.7018
  C  C49  1  0.271330  0.942160  0.067360  1.0  0.7049
  C  C50  1  0.284720  0.576000  0.054910  1.0  0.7021
  C  C51  1  0.854800  0.940700  0.176840  1.0  0.6986
  C  C52  1  0.903480  0.740960  0.965290  1.0  0.7151
  C  C53  1  0.167610  0.823000  0.330290  1.0  0.6984
  C  C54  1  0.978400  0.519080  0.206290  1.0  0.7009
  C  C55  1  0.771330  0.557840  0.432640  1.0  0.7045
  C  C56  1  0.784720  0.924000  0.445090  1.0  0.7021
  C  C57  1  0.354800  0.559300  0.323160  1.0  0.6994
  C  C58  1  0.403480  0.759040  0.534710  1.0  0.7138
  C  C59  1  0.667610  0.677000  0.169710  1.0  0.6982
  C  C60  1  0.478400  0.980920  0.293710  1.0  0.7013
  O  O61  1  0.633700  0.099390  0.895330  1.0  -0.6049
  O  O62  1  0.095500  0.155010  0.043090  1.0  -0.6089
  O  O63  1  0.791320  0.477600  0.993010  1.0  -0.5962
  O  O64  1  0.011940  0.373420  0.785090  1.0  -0.679
  O  O65  1  0.084430  0.150210  0.805810  1.0  -0.6802
  O  O66  1  0.844410  0.095380  0.932360  1.0  -0.6729
  O  O67  1  0.805120  0.195860  0.750060  1.0  -0.6693
  O  O68  1  0.029520  0.313530  0.979310  1.0  -0.68
  O  O69  1  0.744720  0.343660  0.890280  1.0  -0.682
  O  O70  1  0.939840  0.191580  0.634380  1.0  -0.6055
  O  O71  1  0.125050  0.997570  0.885530  1.0  -0.6019
  O  O72  1  0.007600  0.537990  0.861550  1.0  -0.5952
  O  O73  1  0.133700  0.400610  0.604670  1.0  -0.6057
  O  O74  1  0.595500  0.344990  0.456910  1.0  -0.6086
  O  O75  1  0.291320  0.022400  0.506990  1.0  -0.5963
  O  O76  1  0.511940  0.126580  0.714910  1.0  -0.6785
  O  O77  1  0.584430  0.349790  0.694190  1.0  -0.6802
  O  O78  1  0.344410  0.404620  0.567640  1.0  -0.6725
  O  O79  1  0.305120  0.304140  0.749940  1.0  -0.6698
  O  O80  1  0.529520  0.186470  0.520690  1.0  -0.6796
  O  O81  1  0.244720  0.156340  0.609720  1.0  -0.6811
  O  O82  1  0.439840  0.308420  0.865620  1.0  -0.6049
  O  O83  1  0.625050  0.502430  0.614470  1.0  -0.6005
  O  O84  1  0.507600  0.962010  0.638450  1.0  -0.595
  O  O85  1  0.366300  0.900610  0.104670  1.0  -0.6053
  O  O86  1  0.904500  0.844990  0.956910  1.0  -0.6082
  O  O87  1  0.208680  0.522400  0.006990  1.0  -0.5962
  O  O88  1  0.988060  0.626580  0.214910  1.0  -0.6786
  O  O89  1  0.915570  0.849790  0.194190  1.0  -0.68
  O  O90  1  0.155590  0.904620  0.067640  1.0  -0.6724
  O  O91  1  0.194880  0.804140  0.249940  1.0  -0.6702
  O  O92  1  0.970480  0.686470  0.020690  1.0  -0.6795
  O  O93  1  0.255280  0.656340  0.109720  1.0  -0.6807
  O  O94  1  0.060160  0.808420  0.365620  1.0  -0.6044
  O  O95  1  0.874950  0.002430  0.114470  1.0  -0.6007
  O  O96  1  0.992400  0.462010  0.138450  1.0  -0.5946
  O  O97  1  0.866300  0.599390  0.395330  1.0  -0.6047
  O  O98  1  0.404500  0.655010  0.543090  1.0  -0.6093
  O  O99  1  0.708680  0.977600  0.493010  1.0  -0.5962
  O  O100  1  0.488060  0.873420  0.285090  1.0  -0.6792
  O  O101  1  0.415570  0.650210  0.305810  1.0  -0.6798
  O  O102  1  0.655590  0.595380  0.432360  1.0  -0.6731
  O  O103  1  0.694880  0.695860  0.250060  1.0  -0.6695
  O  O104  1  0.470480  0.813530  0.479310  1.0  -0.6805
  O  O105  1  0.755280  0.843660  0.390280  1.0  -0.6817
  O  O106  1  0.560160  0.691580  0.134380  1.0  -0.6048
  O  O107  1  0.374950  0.497570  0.385530  1.0  -0.6016
  O  O108  1  0.492400  0.037990  0.361550  1.0  -0.5946
