# generated using pymatgen
data_MnH2(CO2)2
_symmetry_space_group_name_H-M   'P 1'
_cell_length_a   10.16170000
_cell_length_b   11.65480000
_cell_length_c   15.29430000
_cell_angle_alpha   91.14950000
_cell_angle_beta   90.00000000
_cell_angle_gamma   90.00000000
_symmetry_Int_Tables_number   1
_chemical_formula_structural   MnH2(CO2)2
_chemical_formula_sum   'Mn12 H24 C24 O48'
_cell_volume   1810.97889969
_cell_formula_units_Z   12
loop_
 _symmetry_equiv_pos_site_id
 _symmetry_equiv_pos_as_xyz
  1  'x, y, z'
loop_
 _atom_site_type_symbol
 _atom_site_label
 _atom_site_symmetry_multiplicity
 _atom_site_fract_x
 _atom_site_fract_y
 _atom_site_fract_z
 _atom_site_occupancy
 _atom_site_charge
  Mn  Mn1  1  0.922070  0.755230  0.131840  1.0  1.1598
  Mn  Mn2  1  0.110430  0.738430  0.308550  1.0  1.1446
  Mn  Mn3  1  0.422070  0.744770  0.368160  1.0  1.1599
  Mn  Mn4  1  0.610430  0.761570  0.191450  1.0  1.1449
  Mn  Mn5  1  0.077930  0.244770  0.868160  1.0  1.1599
  Mn  Mn6  1  0.889570  0.261570  0.691450  1.0  1.1451
  Mn  Mn7  1  0.577930  0.255230  0.631840  1.0  1.1598
  Mn  Mn8  1  0.389570  0.238430  0.808550  1.0  1.1446
  Mn  Mn9  1  0.000000  0.500000  0.000000  1.0  1.1692
  Mn  Mn10  1  0.500000  0.000000  0.500000  1.0  1.1692
  Mn  Mn11  1  0.000000  0.000000  0.000000  1.0  1.1738
  Mn  Mn12  1  0.500000  0.500000  0.500000  1.0  1.1738
  H  H13  1  0.755000  0.867200  0.363200  1.0  0.0259
  H  H14  1  0.047000  0.473000  0.262000  1.0  0.0285
  H  H15  1  0.621000  0.538900  0.070900  1.0  0.0114
  H  H16  1  0.224000  0.955300  0.212300  1.0  0.0004
  H  H17  1  0.142000  0.692400  0.920400  1.0  0.0164
  H  H18  1  0.712000  0.006900  0.028900  1.0  0.0078
  H  H19  1  0.255000  0.632800  0.136800  1.0  0.0258
  H  H20  1  0.547000  0.027000  0.238000  1.0  0.031
  H  H21  1  0.121000  0.961100  0.429100  1.0  0.0115
  H  H22  1  0.724000  0.544700  0.287700  1.0  0.0008
  H  H23  1  0.642000  0.807600  0.579600  1.0  0.0169
  H  H24  1  0.212000  0.493100  0.471100  1.0  0.0086
  H  H25  1  0.245000  0.132800  0.636800  1.0  0.0263
  H  H26  1  0.953000  0.527000  0.738000  1.0  0.0308
  H  H27  1  0.379000  0.461100  0.929100  1.0  0.0127
  H  H28  1  0.776000  0.044700  0.787700  1.0  1e-04
  H  H29  1  0.858000  0.307600  0.079600  1.0  0.0191
  H  H30  1  0.288000  0.993100  0.971100  1.0  0.0085
  H  H31  1  0.745000  0.367200  0.863200  1.0  0.0265
  H  H32  1  0.453000  0.973000  0.762000  1.0  0.0285
  H  H33  1  0.879000  0.038900  0.570900  1.0  0.0124
  H  H34  1  0.276000  0.455300  0.712300  1.0  1e-04
  H  H35  1  0.358000  0.192400  0.420400  1.0  0.0185
  H  H36  1  0.788000  0.506900  0.528900  1.0  0.008
  C  C37  1  0.831900  0.831440  0.327240  1.0  0.6439
  C  C38  1  0.025200  0.518260  0.206960  1.0  0.6439
  C  C39  1  0.713300  0.565960  0.065560  1.0  0.666
  C  C40  1  0.151100  0.937160  0.173360  1.0  0.6789
  C  C41  1  0.089800  0.741040  0.962440  1.0  0.6663
  C  C42  1  0.726000  0.939320  0.063620  1.0  0.6861
  C  C43  1  0.331900  0.668560  0.172760  1.0  0.6445
  C  C44  1  0.525200  0.981740  0.293040  1.0  0.6426
  C  C45  1  0.213300  0.934040  0.434440  1.0  0.6659
  C  C46  1  0.651100  0.562840  0.326640  1.0  0.6788
  C  C47  1  0.589800  0.758960  0.537560  1.0  0.6679
  C  C48  1  0.226000  0.560680  0.436380  1.0  0.686
  C  C49  1  0.168100  0.168560  0.672760  1.0  0.6433
  C  C50  1  0.974800  0.481740  0.793040  1.0  0.6426
  C  C51  1  0.286700  0.434040  0.934440  1.0  0.6641
  C  C52  1  0.848900  0.062840  0.826640  1.0  0.6785
  C  C53  1  0.910200  0.258960  0.037560  1.0  0.6684
  C  C54  1  0.274000  0.060680  0.936380  1.0  0.6858
  C  C55  1  0.668100  0.331440  0.827240  1.0  0.643
  C  C56  1  0.474800  0.018260  0.706960  1.0  0.6437
  C  C57  1  0.786700  0.065960  0.565560  1.0  0.6642
  C  C58  1  0.348900  0.437160  0.673360  1.0  0.6778
  C  C59  1  0.410200  0.241040  0.462440  1.0  0.6668
  C  C60  1  0.774000  0.439320  0.563620  1.0  0.6858
  O  O61  1  0.803680  0.809730  0.247360  1.0  -0.6566
  O  O62  1  0.940290  0.815420  0.362370  1.0  -0.5862
  O  O63  1  0.007740  0.625810  0.216280  1.0  -0.6618
  O  O64  1  0.019770  0.463220  0.137210  1.0  -0.5935
  O  O65  1  0.743210  0.652300  0.114680  1.0  -0.673
  O  O66  1  0.789570  0.510890  0.018240  1.0  -0.5907
  O  O67  1  0.087540  0.846580  0.191520  1.0  -0.6736
  O  O68  1  0.129040  0.001460  0.111760  1.0  -0.5934
  O  O69  1  0.022580  0.686600  0.019070  1.0  -0.6693
  O  O70  1  0.096200  0.846100  0.956230  1.0  -0.5908
  O  O71  1  0.843970  0.903100  0.066340  1.0  -0.6659
  O  O72  1  0.629870  0.898280  0.101650  1.0  -0.6004
  O  O73  1  0.303680  0.690270  0.252640  1.0  -0.6554
  O  O74  1  0.440290  0.684580  0.137630  1.0  -0.5869
  O  O75  1  0.507740  0.874190  0.283720  1.0  -0.6624
  O  O76  1  0.519770  0.036780  0.362790  1.0  -0.5928
  O  O77  1  0.243210  0.847700  0.385320  1.0  -0.6727
  O  O78  1  0.289570  0.989110  0.481760  1.0  -0.5897
  O  O79  1  0.587540  0.653420  0.308480  1.0  -0.6742
  O  O80  1  0.629040  0.498540  0.388240  1.0  -0.5939
  O  O81  1  0.522580  0.813400  0.480930  1.0  -0.6696
  O  O82  1  0.596200  0.653900  0.543770  1.0  -0.5911
  O  O83  1  0.343970  0.596900  0.433660  1.0  -0.666
  O  O84  1  0.129870  0.601720  0.398350  1.0  -0.6004
  O  O85  1  0.196320  0.190270  0.752640  1.0  -0.6555
  O  O86  1  0.059710  0.184580  0.637630  1.0  -0.5867
  O  O87  1  0.992260  0.374190  0.783720  1.0  -0.6623
  O  O88  1  0.980230  0.536780  0.862790  1.0  -0.5927
  O  O89  1  0.256790  0.347700  0.885320  1.0  -0.6724
  O  O90  1  0.210430  0.489110  0.981760  1.0  -0.5896
  O  O91  1  0.912460  0.153420  0.808480  1.0  -0.6731
  O  O92  1  0.870960  0.998540  0.888240  1.0  -0.5939
  O  O93  1  0.977420  0.313400  0.980930  1.0  -0.6697
  O  O94  1  0.903800  0.153900  0.043770  1.0  -0.5907
  O  O95  1  0.156030  0.096900  0.933660  1.0  -0.666
  O  O96  1  0.370130  0.101720  0.898350  1.0  -0.5999
  O  O97  1  0.696320  0.309730  0.747360  1.0  -0.6569
  O  O98  1  0.559710  0.315420  0.862370  1.0  -0.5861
  O  O99  1  0.492260  0.125810  0.716280  1.0  -0.6615
  O  O100  1  0.480230  0.963220  0.637210  1.0  -0.5933
  O  O101  1  0.756790  0.152300  0.614680  1.0  -0.6729
  O  O102  1  0.710430  0.010890  0.518240  1.0  -0.5901
  O  O103  1  0.412460  0.346580  0.691520  1.0  -0.6728
  O  O104  1  0.370960  0.501460  0.611760  1.0  -0.594
  O  O105  1  0.477420  0.186600  0.519070  1.0  -0.6694
  O  O106  1  0.403800  0.346100  0.456230  1.0  -0.5904
  O  O107  1  0.656030  0.403100  0.566340  1.0  -0.6657
  O  O108  1  0.870130  0.398280  0.601650  1.0  -0.6004
