# generated using pymatgen
data_MnH2(CO2)2
_symmetry_space_group_name_H-M   'P 1'
_cell_length_a   10.19560000
_cell_length_b   11.83410000
_cell_length_c   14.87380000
_cell_angle_alpha   90.98140000
_cell_angle_beta   90.00000000
_cell_angle_gamma   90.00000000
_symmetry_Int_Tables_number   1
_chemical_formula_structural   MnH2(CO2)2
_chemical_formula_sum   'Mn12 H24 C24 O48'
_cell_volume   1794.34623902
_cell_formula_units_Z   12
loop_
 _symmetry_equiv_pos_site_id
 _symmetry_equiv_pos_as_xyz
  1  'x, y, z'
loop_
 _atom_site_type_symbol
 _atom_site_label
 _atom_site_symmetry_multiplicity
 _atom_site_fract_x
 _atom_site_fract_y
 _atom_site_fract_z
 _atom_site_occupancy
 _atom_site_charge
  Mn  Mn1  1  0.916970  0.753900  0.130120  1.0  1.1538
  Mn  Mn2  1  0.104550  0.737190  0.314180  1.0  1.1374
  Mn  Mn3  1  0.416970  0.746100  0.369880  1.0  1.159
  Mn  Mn4  1  0.604550  0.762810  0.185820  1.0  1.1372
  Mn  Mn5  1  0.083030  0.246100  0.869880  1.0  1.1563
  Mn  Mn6  1  0.895450  0.262810  0.685820  1.0  1.1375
  Mn  Mn7  1  0.583030  0.253900  0.630120  1.0  1.154
  Mn  Mn8  1  0.395450  0.237190  0.814180  1.0  1.1375
  Mn  Mn9  1  0.000000  0.500000  0.000000  1.0  1.1584
  Mn  Mn10  1  0.500000  0.000000  0.500000  1.0  1.1584
  Mn  Mn11  1  0.000000  0.000000  0.000000  1.0  1.1782
  Mn  Mn12  1  0.500000  0.500000  0.500000  1.0  1.1782
  H  H13  1  0.743000  0.838000  0.378000  1.0  0.036
  H  H14  1  0.041000  0.478000  0.271000  1.0  0.0326
  H  H15  1  0.614000  0.559000  0.048000  1.0  0.0139
  H  H16  1  0.221000  0.952000  0.229000  1.0  0.0288
  H  H17  1  0.149000  0.697000  0.913000  1.0  0.034
  H  H18  1  0.717000  0.020000  0.028000  1.0  0.0317
  H  H19  1  0.243000  0.662000  0.122000  1.0  0.0368
  H  H20  1  0.541000  0.022000  0.229000  1.0  0.0336
  H  H21  1  0.114000  0.941000  0.452000  1.0  0.0141
  H  H22  1  0.721000  0.548000  0.271000  1.0  0.028
  H  H23  1  0.649000  0.803000  0.587000  1.0  0.0349
  H  H24  1  0.217000  0.480000  0.472000  1.0  0.0322
  H  H25  1  0.257000  0.162000  0.622000  1.0  0.0383
  H  H26  1  0.959000  0.522000  0.729000  1.0  0.0334
  H  H27  1  0.386000  0.441000  0.952000  1.0  0.0132
  H  H28  1  0.779000  0.048000  0.771000  1.0  0.028
  H  H29  1  0.851000  0.303000  0.087000  1.0  0.0344
  H  H30  1  0.283000  0.980000  0.972000  1.0  0.0323
  H  H31  1  0.757000  0.338000  0.878000  1.0  0.0374
  H  H32  1  0.459000  0.978000  0.771000  1.0  0.0324
  H  H33  1  0.886000  0.059000  0.548000  1.0  0.0133
  H  H34  1  0.279000  0.452000  0.729000  1.0  0.0291
  H  H35  1  0.351000  0.197000  0.413000  1.0  0.0334
  H  H36  1  0.783000  0.520000  0.528000  1.0  0.0324
  C  C37  1  0.822100  0.819300  0.331600  1.0  0.6287
  C  C38  1  0.017200  0.520700  0.210100  1.0  0.6395
  C  C39  1  0.709900  0.576200  0.050900  1.0  0.6727
  C  C40  1  0.141800  0.938700  0.181800  1.0  0.6474
  C  C41  1  0.091000  0.742900  0.963200  1.0  0.638
  C  C42  1  0.726200  0.941700  0.061700  1.0  0.6449
  C  C43  1  0.322100  0.680700  0.168400  1.0  0.6282
  C  C44  1  0.517200  0.979300  0.289900  1.0  0.6394
  C  C45  1  0.209900  0.923800  0.449100  1.0  0.6723
  C  C46  1  0.641800  0.561300  0.318200  1.0  0.646
  C  C47  1  0.591000  0.757100  0.536800  1.0  0.637
  C  C48  1  0.226200  0.558300  0.438300  1.0  0.645
  C  C49  1  0.177900  0.180700  0.668400  1.0  0.6279
  C  C50  1  0.982800  0.479300  0.789900  1.0  0.6391
  C  C51  1  0.290100  0.423800  0.949100  1.0  0.6744
  C  C52  1  0.858200  0.061300  0.818200  1.0  0.6478
  C  C53  1  0.909000  0.257100  0.036800  1.0  0.6369
  C  C54  1  0.273800  0.058300  0.938300  1.0  0.6448
  C  C55  1  0.677900  0.319300  0.831600  1.0  0.629
  C  C56  1  0.482800  0.020700  0.710100  1.0  0.6391
  C  C57  1  0.790100  0.076200  0.550900  1.0  0.6728
  C  C58  1  0.358200  0.438700  0.681800  1.0  0.6481
  C  C59  1  0.409000  0.242900  0.463200  1.0  0.6401
  C  C60  1  0.773800  0.441700  0.561700  1.0  0.6442
  O  O61  1  0.796800  0.798300  0.249100  1.0  -0.648
  O  O62  1  0.931000  0.807400  0.368400  1.0  -0.5885
  O  O63  1  0.006900  0.628000  0.217100  1.0  -0.6622
  O  O64  1  0.003300  0.464600  0.140900  1.0  -0.5844
  O  O65  1  0.738100  0.656200  0.106600  1.0  -0.677
  O  O66  1  0.789300  0.518500  0.007800  1.0  -0.5928
  O  O67  1  0.076700  0.850200  0.195600  1.0  -0.6581
  O  O68  1  0.123300  0.006100  0.119900  1.0  -0.5978
  O  O69  1  0.024700  0.684700  0.019500  1.0  -0.6625
  O  O70  1  0.096600  0.846700  0.962200  1.0  -0.5936
  O  O71  1  0.843600  0.904200  0.065400  1.0  -0.6558
  O  O72  1  0.629200  0.900200  0.098400  1.0  -0.5926
  O  O73  1  0.296800  0.701700  0.250900  1.0  -0.6465
  O  O74  1  0.431000  0.692600  0.131600  1.0  -0.5889
  O  O75  1  0.506900  0.872000  0.282900  1.0  -0.6627
  O  O76  1  0.503300  0.035400  0.359100  1.0  -0.5847
  O  O77  1  0.238100  0.843800  0.393400  1.0  -0.6737
  O  O78  1  0.289300  0.981500  0.492200  1.0  -0.5933
  O  O79  1  0.576700  0.649800  0.304400  1.0  -0.6584
  O  O80  1  0.623300  0.493900  0.380100  1.0  -0.5978
  O  O81  1  0.524700  0.815300  0.480500  1.0  -0.6618
  O  O82  1  0.596600  0.653300  0.537800  1.0  -0.5935
  O  O83  1  0.343600  0.595800  0.434600  1.0  -0.6555
  O  O84  1  0.129200  0.599800  0.401600  1.0  -0.593
  O  O85  1  0.203200  0.201700  0.750900  1.0  -0.6471
  O  O86  1  0.069000  0.192600  0.631600  1.0  -0.5899
  O  O87  1  0.993100  0.372000  0.782900  1.0  -0.6629
  O  O88  1  0.996700  0.535400  0.859100  1.0  -0.5839
  O  O89  1  0.261900  0.343800  0.893400  1.0  -0.6727
  O  O90  1  0.210700  0.481500  0.992200  1.0  -0.5936
  O  O91  1  0.923300  0.149800  0.804400  1.0  -0.6584
  O  O92  1  0.876700  0.993900  0.880100  1.0  -0.5974
  O  O93  1  0.975300  0.315300  0.980500  1.0  -0.6614
  O  O94  1  0.903400  0.153300  0.037800  1.0  -0.5935
  O  O95  1  0.156400  0.095800  0.934600  1.0  -0.6554
  O  O96  1  0.370800  0.099800  0.901600  1.0  -0.5933
  O  O97  1  0.703200  0.298300  0.749100  1.0  -0.6477
  O  O98  1  0.569000  0.307400  0.868400  1.0  -0.5894
  O  O99  1  0.493100  0.128000  0.717100  1.0  -0.6622
  O  O100  1  0.496700  0.964600  0.640900  1.0  -0.5836
  O  O101  1  0.761900  0.156200  0.606600  1.0  -0.6744
  O  O102  1  0.710700  0.018500  0.507800  1.0  -0.5934
  O  O103  1  0.423300  0.350200  0.695600  1.0  -0.6582
  O  O104  1  0.376700  0.506100  0.619900  1.0  -0.598
  O  O105  1  0.475300  0.184700  0.519500  1.0  -0.6615
  O  O106  1  0.403400  0.346700  0.462200  1.0  -0.5936
  O  O107  1  0.656400  0.404200  0.565400  1.0  -0.6556
  O  O108  1  0.870800  0.400200  0.598400  1.0  -0.5934
