# generated using pymatgen
data_CoPH9C6NO3
_symmetry_space_group_name_H-M   'P 1'
_cell_length_a   6.26310000
_cell_length_b   23.92830000
_cell_length_c   23.92830000
_cell_angle_alpha   60.75260000
_cell_angle_beta   84.99470000
_cell_angle_gamma   95.00530000
_symmetry_Int_Tables_number   1
_chemical_formula_structural   CoPH9C6NO3
_chemical_formula_sum   'Co6 P6 H54 C36 N6 O18'
_cell_volume   3081.94655952
_cell_formula_units_Z   6
loop_
 _symmetry_equiv_pos_site_id
 _symmetry_equiv_pos_as_xyz
  1  'x, y, z'
loop_
 _atom_site_type_symbol
 _atom_site_label
 _atom_site_symmetry_multiplicity
 _atom_site_fract_x
 _atom_site_fract_y
 _atom_site_fract_z
 _atom_site_occupancy
 _atom_site_charge
  Co  Co1  1  0.339800  0.722370  0.672270  1.0  0.933
  Co  Co2  1  0.012070  0.672270  0.605360  1.0  0.928
  Co  Co3  1  0.617430  0.605360  0.722370  1.0  0.9008
  Co  Co4  1  0.660200  0.277630  0.327730  1.0  0.9063
  Co  Co5  1  0.987930  0.327730  0.394640  1.0  0.938
  Co  Co6  1  0.382570  0.394640  0.277630  1.0  0.9309
  P  P7  1  0.826290  0.758120  0.668450  1.0  1.4098
  P  P8  1  0.494740  0.668450  0.573430  1.0  1.4197
  P  P9  1  0.068170  0.573430  0.758120  1.0  1.4017
  P  P10  1  0.173710  0.241880  0.331550  1.0  1.4082
  P  P11  1  0.505260  0.331550  0.426570  1.0  1.4125
  P  P12  1  0.931830  0.426570  0.241880  1.0  1.4052
  H  H13  1  0.463870  0.822230  0.514930  1.0  0.0938
  H  H14  1  0.234020  0.846950  0.547860  1.0  0.0827
  H  H15  1  0.439440  0.943740  0.445920  1.0  0.0927
  H  H16  1  0.698350  0.928530  0.479770  1.0  0.1005
  H  H17  1  0.459410  0.962090  0.618680  1.0  0.0853
  H  H18  1  0.715010  0.942350  0.592030  1.0  0.0971
  H  H19  1  0.265880  0.855280  0.652460  1.0  0.0826
  H  H20  1  0.528770  0.842630  0.683850  1.0  0.0736
  H  H21  1  0.978800  0.514930  0.662840  1.0  0.0933
  H  H22  1  0.781870  0.547860  0.605200  1.0  0.0813
  H  H23  1  0.885360  0.445920  0.610340  1.0  0.0856
  H  H24  1  0.178120  0.479770  0.591700  1.0  0.0978
  H  H25  1  0.078080  0.618680  0.419230  1.0  0.0851
  H  H26  1  0.307040  0.592030  0.465620  1.0  0.0962
  H  H27  1  0.918340  0.652460  0.492260  1.0  0.0841
  H  H28  1  0.212620  0.683850  0.473510  1.0  0.0911
  H  H29  1  0.641640  0.662840  0.822230  1.0  0.0829
  H  H30  1  0.387070  0.605200  0.846950  1.0  0.0852
  H  H31  1  0.495690  0.610340  0.943740  1.0  0.0874
  H  H32  1  0.769820  0.591700  0.928530  1.0  0.0976
  H  H33  1  0.497320  0.419230  0.962090  1.0  0.0863
  H  H34  1  0.772660  0.465620  0.942350  1.0  0.0988
  H  H35  1  0.410600  0.492260  0.855280  1.0  0.0679
  H  H36  1  0.686130  0.473510  0.842630  1.0  0.0926
  H  H37  1  0.766030  0.152760  0.452880  1.0  0.091
  H  H38  1  0.534950  0.178180  0.484490  1.0  0.0891
  H  H39  1  0.301730  0.071560  0.520280  1.0  0.0983
  H  H40  1  0.560730  0.056160  0.554050  1.0  0.0893
  H  H41  1  0.284940  0.056540  0.408580  1.0  0.0975
  H  H42  1  0.542560  0.038880  0.380500  1.0  0.0838
  H  H43  1  0.472330  0.156840  0.315960  1.0  0.0927
  H  H44  1  0.734440  0.145180  0.347900  1.0  0.0829
  H  H45  1  0.218910  0.452880  0.394360  1.0  0.0898
  H  H46  1  0.019440  0.484490  0.337330  1.0  0.0833
  H  H47  1  0.822010  0.520280  0.408160  1.0  0.098
  H  H48  1  0.114790  0.554050  0.389790  1.0  0.0863
  H  H49  1  0.693520  0.408580  0.534880  1.0  0.0943
  H  H50  1  0.923060  0.380500  0.580610  1.0  0.0814
  H  H51  1  0.788290  0.315960  0.527200  1.0  0.0798
  H  H52  1  0.082340  0.347900  0.506920  1.0  0.0802
  H  H53  1  0.613270  0.394360  0.152760  1.0  0.0873
  H  H54  1  0.356770  0.337330  0.178180  1.0  0.0947
  H  H55  1  0.230170  0.408160  0.071560  1.0  0.0977
  H  H56  1  0.504580  0.389790  0.056160  1.0  0.0874
  H  H57  1  0.228400  0.534880  0.056540  1.0  0.0963
  H  H58  1  0.503680  0.580610  0.038880  1.0  0.0892
  H  H59  1  0.315490  0.527200  0.156840  1.0  0.0704
  H  H60  1  0.589260  0.506920  0.145180  1.0  0.0871
  H  H61  1  0.735250  0.794600  0.735390  1.0  0.3484
  H  H62  1  0.680640  0.760570  0.492660  1.0  0.321
  H  H63  1  0.274030  0.495290  0.787610  1.0  0.3298
  H  H64  1  0.936410  0.208590  0.286120  1.0  0.3264
  H  H65  1  0.432540  0.311310  0.527940  1.0  0.3344
  H  H66  1  0.061210  0.530570  0.201600  1.0  0.3557
  C  C67  1  0.727600  0.810000  0.598200  1.0  -0.7198
  C  C68  1  0.418140  0.851690  0.538670  1.0  -0.0261
  C  C69  1  0.515610  0.924270  0.492240  1.0  -0.1975
  C  C70  1  0.469670  0.963670  0.524860  1.0  -0.0165
  C  C71  1  0.531140  0.935110  0.595090  1.0  -0.157
  C  C72  1  0.448910  0.862610  0.638180  1.0  -0.0636
  C  C73  1  0.325800  0.598200  0.591800  1.0  -0.6912
  C  C74  1  0.956810  0.538670  0.609640  1.0  -0.0299
  C  C75  1  0.007850  0.492240  0.583490  1.0  -0.1941
  C  C76  1  0.994530  0.524860  0.511470  1.0  -0.017
  C  C77  1  0.126230  0.595090  0.469800  1.0  -0.1554
  C  C78  1  0.087090  0.638180  0.499210  1.0  -0.068
  C  C79  1  0.917600  0.591800  0.810000  1.0  -0.7123
  C  C80  1  0.566450  0.609640  0.851690  1.0  -0.0269
  C  C81  1  0.591340  0.583490  0.924270  1.0  -0.1995
  C  C82  1  0.506000  0.511470  0.963670  1.0  -0.0162
  C  C83  1  0.596030  0.469800  0.935110  1.0  -0.1556
  C  C84  1  0.586300  0.499210  0.862610  1.0  -0.0587
  C  C85  1  0.272400  0.190000  0.401800  1.0  -0.7047
  C  C86  1  0.581860  0.148310  0.461330  1.0  -0.0315
  C  C87  1  0.484390  0.075730  0.507760  1.0  -0.2027
  C  C88  1  0.530330  0.036330  0.475140  1.0  -0.0174
  C  C89  1  0.468860  0.064890  0.404910  1.0  -0.1598
  C  C90  1  0.551090  0.137390  0.361820  1.0  -0.0552
  C  C91  1  0.674200  0.401800  0.408200  1.0  -0.6977
  C  C92  1  0.043190  0.461330  0.390360  1.0  -0.0277
  C  C93  1  0.992150  0.507760  0.416510  1.0  -0.2053
  C  C94  1  0.005470  0.475140  0.488530  1.0  -0.0197
  C  C95  1  0.873770  0.404910  0.530200  1.0  -0.1563
  C  C96  1  0.912910  0.361820  0.500790  1.0  -0.0626
  C  C97  1  0.082400  0.408200  0.190000  1.0  -0.7017
  C  C98  1  0.433550  0.390360  0.148310  1.0  -0.0291
  C  C99  1  0.408660  0.416510  0.075730  1.0  -0.2032
  C  C100  1  0.494000  0.488530  0.036330  1.0  -0.017
  C  C101  1  0.403970  0.530200  0.064890  1.0  -0.1615
  C  C102  1  0.413700  0.500790  0.137390  1.0  -0.0603
  N  N103  1  0.501040  0.824370  0.603750  1.0  0.0168
  N  N104  1  0.104790  0.603750  0.571880  1.0  0.022
  N  N105  1  0.676670  0.571880  0.824370  1.0  0.0188
  N  N106  1  0.498960  0.175630  0.396250  1.0  0.0196
  N  N107  1  0.895210  0.396250  0.428120  1.0  0.019
  N  N108  1  0.323330  0.428120  0.175630  1.0  0.0201
  O  O109  1  0.885630  0.786430  0.714040  1.0  -0.6078
  O  O110  1  0.040740  0.736770  0.648450  1.0  -0.8126
  O  O111  1  0.645110  0.695270  0.701240  1.0  -0.7981
  O  O112  1  0.599670  0.714040  0.499530  1.0  -0.6172
  O  O113  1  0.689190  0.648450  0.614780  1.0  -0.8282
  O  O114  1  0.346350  0.701240  0.603490  1.0  -0.8061
  O  O115  1  0.099200  0.499530  0.786430  1.0  -0.6103
  O  O116  1  0.303970  0.614780  0.736770  1.0  -0.8217
  O  O117  1  0.949840  0.603490  0.695270  1.0  -0.7908
  O  O118  1  0.114370  0.213570  0.285960  1.0  -0.6064
  O  O119  1  0.959260  0.263230  0.351550  1.0  -0.8314
  O  O120  1  0.354890  0.304730  0.298760  1.0  -0.7858
  O  O121  1  0.400330  0.285960  0.500470  1.0  -0.6192
  O  O122  1  0.310810  0.351550  0.385220  1.0  -0.8139
  O  O123  1  0.653650  0.298760  0.396510  1.0  -0.7866
  O  O124  1  0.900800  0.500470  0.213570  1.0  -0.6069
  O  O125  1  0.696030  0.385220  0.263230  1.0  -0.8121
  O  O126  1  0.050160  0.396510  0.304730  1.0  -0.8015
