# generated using pymatgen
data_Tb2H6C14S(NO6)2
_symmetry_space_group_name_H-M   'P 1'
_cell_length_a   26.29110000
_cell_length_b   13.57610000
_cell_length_c   6.76200000
_cell_angle_alpha   90.00000000
_cell_angle_beta   92.44300000
_cell_angle_gamma   90.00000000
_symmetry_Int_Tables_number   1
_chemical_formula_structural   Tb2H6C14S(NO6)2
_chemical_formula_sum   'Tb8 H24 C56 S4 N8 O48'
_cell_volume   2411.37109820
_cell_formula_units_Z   4
loop_
 _symmetry_equiv_pos_site_id
 _symmetry_equiv_pos_as_xyz
  1  'x, y, z'
loop_
 _atom_site_type_symbol
 _atom_site_label
 _atom_site_symmetry_multiplicity
 _atom_site_fract_x
 _atom_site_fract_y
 _atom_site_fract_z
 _atom_site_occupancy
 _atom_site_charge
  Tb  Tb1  1  0.896410  0.193150  0.988430  1.0  2.2007
  Tb  Tb2  1  0.396410  0.693150  0.988430  1.0  2.2007
  Tb  Tb3  1  0.103590  0.193150  0.511570  1.0  2.2019
  Tb  Tb4  1  0.603590  0.693150  0.511570  1.0  2.2019
  Tb  Tb5  1  0.103590  0.806850  0.011570  1.0  2.2019
  Tb  Tb6  1  0.603590  0.306850  0.011570  1.0  2.2019
  Tb  Tb7  1  0.896410  0.806850  0.488430  1.0  2.2006
  Tb  Tb8  1  0.396410  0.306850  0.488430  1.0  2.2006
  H  H9  1  0.856900  0.551000  0.948300  1.0  0.0778
  H  H10  1  0.730300  0.387900  0.910400  1.0  0.1104
  H  H11  1  0.726200  0.682000  0.866300  1.0  0.0806
  H  H12  1  0.356900  0.051000  0.948300  1.0  0.0778
  H  H13  1  0.230300  0.887900  0.910400  1.0  0.1104
  H  H14  1  0.226200  0.182000  0.866300  1.0  0.0806
  H  H15  1  0.143100  0.551000  0.551700  1.0  0.0787
  H  H16  1  0.269700  0.387900  0.589600  1.0  0.1107
  H  H17  1  0.273800  0.682000  0.633700  1.0  0.0806
  H  H18  1  0.643100  0.051000  0.551700  1.0  0.0787
  H  H19  1  0.769700  0.887900  0.589600  1.0  0.1107
  H  H20  1  0.773800  0.182000  0.633700  1.0  0.0806
  H  H21  1  0.143100  0.449000  0.051700  1.0  0.0782
  H  H22  1  0.269700  0.612100  0.089600  1.0  0.1112
  H  H23  1  0.273800  0.318000  0.133700  1.0  0.0813
  H  H24  1  0.643100  0.949000  0.051700  1.0  0.0782
  H  H25  1  0.769700  0.112100  0.089600  1.0  0.1112
  H  H26  1  0.773800  0.818000  0.133700  1.0  0.0813
  H  H27  1  0.856900  0.449000  0.448300  1.0  0.0775
  H  H28  1  0.730300  0.612100  0.410400  1.0  0.1113
  H  H29  1  0.726200  0.318000  0.366300  1.0  0.0817
  H  H30  1  0.356900  0.949000  0.448300  1.0  0.0775
  H  H31  1  0.230300  0.112100  0.410400  1.0  0.1113
  H  H32  1  0.226200  0.818000  0.366300  1.0  0.0817
  C  C33  1  0.821600  0.547100  0.930900  1.0  0.2205
  C  C34  1  0.799500  0.454800  0.933100  1.0  -0.2254
  C  C35  1  0.746600  0.448700  0.910700  1.0  0.0286
  C  C36  1  0.718640  0.535500  0.888800  1.0  -0.1929
  C  C37  1  0.744900  0.624300  0.884600  1.0  0.1945
  C  C38  1  0.832200  0.364600  0.955000  1.0  0.6789
  C  C39  1  0.661400  0.536200  0.864600  1.0  0.7414
  C  C40  1  0.321600  0.047100  0.930900  1.0  0.2205
  C  C41  1  0.299500  0.954800  0.933100  1.0  -0.2254
  C  C42  1  0.246600  0.948700  0.910700  1.0  0.0286
  C  C43  1  0.218640  0.035500  0.888800  1.0  -0.1929
  C  C44  1  0.244900  0.124300  0.884600  1.0  0.1945
  C  C45  1  0.332200  0.864600  0.955000  1.0  0.6789
  C  C46  1  0.161400  0.036200  0.864600  1.0  0.7414
  C  C47  1  0.178400  0.547100  0.569100  1.0  0.2192
  C  C48  1  0.200500  0.454800  0.566900  1.0  -0.2249
  C  C49  1  0.253400  0.448700  0.589300  1.0  0.029
  C  C50  1  0.281360  0.535500  0.611200  1.0  -0.1938
  C  C51  1  0.255100  0.624300  0.615400  1.0  0.1948
  C  C52  1  0.167800  0.364600  0.545000  1.0  0.6764
  C  C53  1  0.338600  0.536200  0.635400  1.0  0.7423
  C  C54  1  0.678400  0.047100  0.569100  1.0  0.2192
  C  C55  1  0.700500  0.954800  0.566900  1.0  -0.2249
  C  C56  1  0.753400  0.948700  0.589300  1.0  0.029
  C  C57  1  0.781360  0.035500  0.611200  1.0  -0.1938
  C  C58  1  0.755100  0.124300  0.615400  1.0  0.1948
  C  C59  1  0.667800  0.864600  0.545000  1.0  0.6764
  C  C60  1  0.838600  0.036200  0.635400  1.0  0.7423
  C  C61  1  0.178400  0.452900  0.069100  1.0  0.2204
  C  C62  1  0.200500  0.545200  0.066900  1.0  -0.2242
  C  C63  1  0.253400  0.551300  0.089300  1.0  0.0269
  C  C64  1  0.281360  0.464500  0.111200  1.0  -0.1934
  C  C65  1  0.255100  0.375700  0.115400  1.0  0.1962
  C  C66  1  0.167800  0.635400  0.045000  1.0  0.6781
  C  C67  1  0.338600  0.463800  0.135400  1.0  0.7425
  C  C68  1  0.678400  0.952900  0.069100  1.0  0.2204
  C  C69  1  0.700500  0.045200  0.066900  1.0  -0.2242
  C  C70  1  0.753400  0.051300  0.089300  1.0  0.0269
  C  C71  1  0.781360  0.964500  0.111200  1.0  -0.1934
  C  C72  1  0.755100  0.875700  0.115400  1.0  0.1962
  C  C73  1  0.667800  0.135400  0.045000  1.0  0.6781
  C  C74  1  0.838600  0.963800  0.135400  1.0  0.7425
  C  C75  1  0.821600  0.452900  0.430900  1.0  0.2212
  C  C76  1  0.799500  0.545200  0.433100  1.0  -0.2245
  C  C77  1  0.746600  0.551300  0.410700  1.0  0.0269
  C  C78  1  0.718640  0.464500  0.388800  1.0  -0.193
  C  C79  1  0.744900  0.375700  0.384600  1.0  0.1968
  C  C80  1  0.832200  0.635400  0.455000  1.0  0.6776
  C  C81  1  0.661400  0.463800  0.364600  1.0  0.7413
  C  C82  1  0.321600  0.952900  0.430900  1.0  0.2212
  C  C83  1  0.299500  0.045200  0.433100  1.0  -0.2245
  C  C84  1  0.246600  0.051300  0.410700  1.0  0.0269
  C  C85  1  0.218640  0.964500  0.388800  1.0  -0.193
  C  C86  1  0.244900  0.875700  0.384600  1.0  0.1968
  C  C87  1  0.332200  0.135400  0.455000  1.0  0.6776
  C  C88  1  0.161400  0.963800  0.364600  1.0  0.7413
  S  S89  1  0.000000  0.201320  0.250000  1.0  1.5168
  S  S90  1  0.500000  0.701320  0.250000  1.0  1.5168
  S  S91  1  0.000000  0.798680  0.750000  1.0  1.5177
  S  S92  1  0.500000  0.298680  0.750000  1.0  1.5177
  N  N93  1  0.795710  0.631200  0.905600  1.0  -0.4205
  N  N94  1  0.295710  0.131200  0.905600  1.0  -0.4205
  N  N95  1  0.204290  0.631200  0.594400  1.0  -0.4205
  N  N96  1  0.704290  0.131200  0.594400  1.0  -0.4205
  N  N97  1  0.204290  0.368800  0.094400  1.0  -0.4194
  N  N98  1  0.704290  0.868800  0.094400  1.0  -0.4194
  N  N99  1  0.795710  0.368800  0.405600  1.0  -0.4192
  N  N100  1  0.295710  0.868800  0.405600  1.0  -0.4192
  O  O101  1  0.878570  0.375300  0.007300  1.0  -0.6514
  O  O102  1  0.813200  0.280800  0.922800  1.0  -0.648
  O  O103  1  0.638050  0.459700  0.904100  1.0  -0.7828
  O  O104  1  0.640420  0.615500  0.809100  1.0  -0.6963
  O  O105  1  0.955450  0.139800  0.290700  1.0  -0.7757
  O  O106  1  0.984520  0.260500  0.078100  1.0  -0.7008
  O  O107  1  0.378570  0.875300  0.007300  1.0  -0.6514
  O  O108  1  0.313200  0.780800  0.922800  1.0  -0.648
  O  O109  1  0.138050  0.959700  0.904100  1.0  -0.7828
  O  O110  1  0.140420  0.115500  0.809100  1.0  -0.6963
  O  O111  1  0.455450  0.639800  0.290700  1.0  -0.7743
  O  O112  1  0.484520  0.760500  0.078100  1.0  -0.7008
  O  O113  1  0.121430  0.375300  0.492700  1.0  -0.6542
  O  O114  1  0.186800  0.280800  0.577200  1.0  -0.6481
  O  O115  1  0.361950  0.459700  0.595900  1.0  -0.7797
  O  O116  1  0.359580  0.615500  0.690900  1.0  -0.6938
  O  O117  1  0.044550  0.139800  0.209300  1.0  -0.7764
  O  O118  1  0.015480  0.260500  0.421900  1.0  -0.7067
  O  O119  1  0.621430  0.875300  0.492700  1.0  -0.6542
  O  O120  1  0.686800  0.780800  0.577200  1.0  -0.6481
  O  O121  1  0.861950  0.959700  0.595900  1.0  -0.7797
  O  O122  1  0.859580  0.115500  0.690900  1.0  -0.6938
  O  O123  1  0.544550  0.639800  0.209300  1.0  -0.7768
  O  O124  1  0.515480  0.760500  0.421900  1.0  -0.7067
  O  O125  1  0.121430  0.624700  0.992700  1.0  -0.6542
  O  O126  1  0.186800  0.719200  0.077200  1.0  -0.6499
  O  O127  1  0.361950  0.540300  0.095900  1.0  -0.7778
  O  O128  1  0.359580  0.384500  0.190900  1.0  -0.6954
  O  O129  1  0.044550  0.860200  0.709300  1.0  -0.7758
  O  O130  1  0.015480  0.739500  0.921900  1.0  -0.7055
  O  O131  1  0.621430  0.124700  0.992700  1.0  -0.6542
  O  O132  1  0.686800  0.219200  0.077200  1.0  -0.6499
  O  O133  1  0.861950  0.040300  0.095900  1.0  -0.7778
  O  O134  1  0.859580  0.884500  0.190900  1.0  -0.6954
  O  O135  1  0.544550  0.360200  0.709300  1.0  -0.7759
  O  O136  1  0.515480  0.239500  0.921900  1.0  -0.7055
  O  O137  1  0.878570  0.624700  0.507300  1.0  -0.6513
  O  O138  1  0.813200  0.719200  0.422800  1.0  -0.6466
  O  O139  1  0.638050  0.540300  0.404100  1.0  -0.7825
  O  O140  1  0.640420  0.384500  0.309100  1.0  -0.6957
  O  O141  1  0.955450  0.860200  0.790700  1.0  -0.7729
  O  O142  1  0.984520  0.739500  0.578100  1.0  -0.7004
  O  O143  1  0.378570  0.124700  0.507300  1.0  -0.6513
  O  O144  1  0.313200  0.219200  0.422800  1.0  -0.6466
  O  O145  1  0.138050  0.040300  0.404100  1.0  -0.7825
  O  O146  1  0.140420  0.884500  0.309100  1.0  -0.6957
  O  O147  1  0.455450  0.360200  0.790700  1.0  -0.7729
  O  O148  1  0.484520  0.239500  0.578100  1.0  -0.7004
