# generated using pymatgen
data_TbH12C24(NO2)3
_symmetry_space_group_name_H-M   'P 1'
_cell_length_a   8.32190000
_cell_length_b   15.43180000
_cell_length_c   28.64700000
_cell_angle_alpha   90.00000000
_cell_angle_beta   93.44900000
_cell_angle_gamma   90.00000000
_symmetry_Int_Tables_number   1
_chemical_formula_structural   TbH12C24(NO2)3
_chemical_formula_sum   'Tb4 H48 C96 N12 O24'
_cell_volume   3672.23863109
_cell_formula_units_Z   4
loop_
 _symmetry_equiv_pos_site_id
 _symmetry_equiv_pos_as_xyz
  1  'x, y, z'
loop_
 _atom_site_type_symbol
 _atom_site_label
 _atom_site_symmetry_multiplicity
 _atom_site_fract_x
 _atom_site_fract_y
 _atom_site_fract_z
 _atom_site_occupancy
 _atom_site_charge
  Tb  Tb1  1  0.773140  0.013060  0.714170  1.0  2.1683
  Tb  Tb2  1  0.273140  0.486940  0.214170  1.0  2.1682
  Tb  Tb3  1  0.726860  0.513060  0.785830  1.0  2.1711
  Tb  Tb4  1  0.226860  0.986940  0.285830  1.0  2.1711
  H  H5  1  0.551200  0.840500  0.585300  1.0  0.107
  H  H6  1  0.437300  0.720100  0.546100  1.0  0.1307
  H  H7  1  0.336400  0.617300  0.670800  1.0  0.0841
  H  H8  1  0.461900  0.732600  0.712900  1.0  0.1227
  H  H9  1  0.427400  0.602400  0.455700  1.0  0.1066
  H  H10  1  0.440400  0.594300  0.372900  1.0  0.1197
  H  H11  1  0.114600  0.399900  0.369200  1.0  0.0941
  H  H12  1  0.110500  0.401200  0.450100  1.0  0.1229
  H  H13  1  0.134100  0.287600  0.550600  1.0  0.1185
  H  H14  1  0.028400  0.167800  0.589700  1.0  0.1118
  H  H15  1  0.976300  0.316800  0.704900  1.0  0.1231
  H  H16  1  0.070400  0.435800  0.664800  1.0  0.0954
  H  H17  1  0.051200  0.659500  0.085300  1.0  0.1064
  H  H18  1  0.937300  0.779900  0.046100  1.0  0.1313
  H  H19  1  0.836400  0.882700  0.170800  1.0  0.0839
  H  H20  1  0.961900  0.767400  0.212900  1.0  0.1226
  H  H21  1  0.927400  0.897600  0.955700  1.0  0.1071
  H  H22  1  0.940400  0.905700  0.872900  1.0  0.1193
  H  H23  1  0.614600  0.100100  0.869200  1.0  0.0947
  H  H24  1  0.610500  0.098800  0.950100  1.0  0.1225
  H  H25  1  0.634100  0.212400  0.050600  1.0  0.1183
  H  H26  1  0.528400  0.332200  0.089700  1.0  0.1122
  H  H27  1  0.476300  0.183200  0.204900  1.0  0.1231
  H  H28  1  0.570400  0.064200  0.164800  1.0  0.0954
  H  H29  1  0.948800  0.340500  0.914700  1.0  0.1069
  H  H30  1  0.062700  0.220100  0.953900  1.0  0.1305
  H  H31  1  0.163600  0.117300  0.829200  1.0  0.0837
  H  H32  1  0.038100  0.232600  0.787100  1.0  0.1225
  H  H33  1  0.072600  0.102400  0.044300  1.0  0.1071
  H  H34  1  0.059600  0.094300  0.127100  1.0  0.1198
  H  H35  1  0.385400  0.899900  0.130800  1.0  0.0946
  H  H36  1  0.389500  0.901200  0.049900  1.0  0.1227
  H  H37  1  0.365900  0.787600  0.949400  1.0  0.1185
  H  H38  1  0.471600  0.667800  0.910300  1.0  0.112
  H  H39  1  0.523700  0.816800  0.795100  1.0  0.1225
  H  H40  1  0.429600  0.935800  0.835200  1.0  0.0955
  H  H41  1  0.448800  0.159500  0.414700  1.0  0.1066
  H  H42  1  0.562700  0.279900  0.453900  1.0  0.1306
  H  H43  1  0.663600  0.382700  0.329200  1.0  0.0834
  H  H44  1  0.538100  0.267400  0.287100  1.0  0.1224
  H  H45  1  0.572600  0.397600  0.544300  1.0  0.107
  H  H46  1  0.559600  0.405700  0.627100  1.0  0.1192
  H  H47  1  0.885400  0.600100  0.630800  1.0  0.0944
  H  H48  1  0.889500  0.598800  0.549900  1.0  0.1225
  H  H49  1  0.865900  0.712400  0.449400  1.0  0.1183
  H  H50  1  0.971600  0.832200  0.410300  1.0  0.1118
  H  H51  1  0.023700  0.683200  0.295100  1.0  0.1225
  H  H52  1  0.929600  0.564200  0.335200  1.0  0.095
  C  C53  1  0.589000  0.878400  0.676600  1.0  0.6482
  C  C54  1  0.516000  0.801900  0.650900  1.0  -0.0951
  C  C55  1  0.508000  0.794900  0.603000  1.0  -0.04
  C  C56  1  0.440000  0.723800  0.579200  1.0  -0.1007
  C  C57  1  0.373000  0.655900  0.607000  1.0  -0.1352
  C  C58  1  0.382000  0.662900  0.653700  1.0  -0.0489
  C  C59  1  0.454000  0.731600  0.679700  1.0  -0.1129
  C  C60  1  0.306000  0.580500  0.580000  1.0  0.3509
  C  C61  1  0.256000  0.509000  0.511200  1.0  0.3571
  C  C62  1  0.183000  0.448000  0.579200  1.0  0.3476
  C  C63  1  0.265000  0.504400  0.461100  1.0  -0.0801
  C  C64  1  0.364000  0.561000  0.438200  1.0  -0.0682
  C  C65  1  0.371000  0.556900  0.388600  1.0  -0.0569
  C  C66  1  0.272000  0.495800  0.362700  1.0  -0.134
  C  C67  1  0.179000  0.441000  0.386400  1.0  -0.0161
  C  C68  1  0.174000  0.442100  0.434800  1.0  -0.089
  C  C69  1  0.278000  0.493500  0.311900  1.0  0.7063
  C  C70  1  0.121000  0.373200  0.605300  1.0  -0.1111
  C  C71  1  0.103000  0.293500  0.581800  1.0  -0.0736
  C  C72  1  0.038000  0.222100  0.605200  1.0  -0.038
  C  C73  1  0.988000  0.229400  0.649100  1.0  -0.1182
  C  C74  1  0.006000  0.311100  0.673500  1.0  -0.1085
  C  C75  1  0.066000  0.380700  0.650000  1.0  -0.03
  C  C76  1  0.928000  0.152500  0.673500  1.0  0.6594
  C  C77  1  0.089000  0.621600  0.176600  1.0  0.6492
  C  C78  1  0.016000  0.698100  0.150900  1.0  -0.0955
  C  C79  1  0.008000  0.705100  0.103000  1.0  -0.0397
  C  C80  1  0.940000  0.776200  0.079200  1.0  -0.0981
  C  C81  1  0.873000  0.844100  0.107000  1.0  -0.1354
  C  C82  1  0.882000  0.837100  0.153700  1.0  -0.0486
  C  C83  1  0.954000  0.768400  0.179700  1.0  -0.1128
  C  C84  1  0.806000  0.919500  0.080000  1.0  0.3504
  C  C85  1  0.756000  0.991000  0.011200  1.0  0.3571
  C  C86  1  0.683000  0.052000  0.079200  1.0  0.3475
  C  C87  1  0.765000  0.995600  0.961100  1.0  -0.0802
  C  C88  1  0.864000  0.939000  0.938200  1.0  -0.0705
  C  C89  1  0.871000  0.943100  0.888600  1.0  -0.0574
  C  C90  1  0.772000  0.004200  0.862700  1.0  -0.1341
  C  C91  1  0.679000  0.059000  0.886400  1.0  -0.0171
  C  C92  1  0.674000  0.057900  0.934800  1.0  -0.0893
  C  C93  1  0.778000  0.006500  0.811900  1.0  0.706
  C  C94  1  0.621000  0.126800  0.105300  1.0  -0.1113
  C  C95  1  0.603000  0.206500  0.081800  1.0  -0.0745
  C  C96  1  0.538000  0.277900  0.105200  1.0  -0.037
  C  C97  1  0.488000  0.270600  0.149100  1.0  -0.1178
  C  C98  1  0.506000  0.188900  0.173500  1.0  -0.1089
  C  C99  1  0.566000  0.119300  0.150000  1.0  -0.0312
  C  C100  1  0.428000  0.347500  0.173500  1.0  0.6588
  C  C101  1  0.911000  0.378400  0.823400  1.0  0.6485
  C  C102  1  0.984000  0.301900  0.849100  1.0  -0.0947
  C  C103  1  0.992000  0.294900  0.897000  1.0  -0.0393
  C  C104  1  0.060000  0.223800  0.920800  1.0  -0.1014
  C  C105  1  0.127000  0.155900  0.893000  1.0  -0.1354
  C  C106  1  0.118000  0.162900  0.846300  1.0  -0.0509
  C  C107  1  0.046000  0.231600  0.820300  1.0  -0.1126
  C  C108  1  0.194000  0.080500  0.920000  1.0  0.3517
  C  C109  1  0.244000  0.009000  0.988800  1.0  0.3572
  C  C110  1  0.317000  0.948000  0.920800  1.0  0.347
  C  C111  1  0.235000  0.004400  0.038900  1.0  -0.0801
  C  C112  1  0.136000  0.061000  0.061800  1.0  -0.0694
  C  C113  1  0.129000  0.056900  0.111400  1.0  -0.058
  C  C114  1  0.228000  0.995800  0.137300  1.0  -0.133
  C  C115  1  0.321000  0.941000  0.113600  1.0  -0.0168
  C  C116  1  0.326000  0.942100  0.065200  1.0  -0.0897
  C  C117  1  0.222000  0.993500  0.188100  1.0  0.7058
  C  C118  1  0.379000  0.873200  0.894700  1.0  -0.111
  C  C119  1  0.397000  0.793500  0.918200  1.0  -0.0757
  C  C120  1  0.462000  0.722100  0.894800  1.0  -0.0374
  C  C121  1  0.512000  0.729400  0.850900  1.0  -0.118
  C  C122  1  0.494000  0.811100  0.826500  1.0  -0.1083
  C  C123  1  0.434000  0.880700  0.850000  1.0  -0.0296
  C  C124  1  0.572000  0.652500  0.826500  1.0  0.6596
  C  C125  1  0.411000  0.121600  0.323400  1.0  0.6489
  C  C126  1  0.484000  0.198100  0.349100  1.0  -0.0952
  C  C127  1  0.492000  0.205100  0.397000  1.0  -0.0387
  C  C128  1  0.560000  0.276200  0.420800  1.0  -0.1011
  C  C129  1  0.627000  0.344100  0.393000  1.0  -0.1362
  C  C130  1  0.618000  0.337100  0.346300  1.0  -0.0509
  C  C131  1  0.546000  0.268400  0.320300  1.0  -0.1123
  C  C132  1  0.694000  0.419500  0.420000  1.0  0.3512
  C  C133  1  0.744000  0.491000  0.488800  1.0  0.3571
  C  C134  1  0.817000  0.552000  0.420800  1.0  0.3468
  C  C135  1  0.735000  0.495600  0.538900  1.0  -0.0802
  C  C136  1  0.636000  0.439000  0.561800  1.0  -0.0705
  C  C137  1  0.629000  0.443100  0.611400  1.0  -0.056
  C  C138  1  0.728000  0.504200  0.637300  1.0  -0.1327
  C  C139  1  0.821000  0.559000  0.613600  1.0  -0.016
  C  C140  1  0.826000  0.557900  0.565200  1.0  -0.0886
  C  C141  1  0.722000  0.506500  0.688100  1.0  0.7057
  C  C142  1  0.879000  0.626800  0.394700  1.0  -0.1112
  C  C143  1  0.897000  0.706500  0.418200  1.0  -0.0758
  C  C144  1  0.962000  0.777900  0.394800  1.0  -0.0358
  C  C145  1  0.012000  0.770600  0.350900  1.0  -0.1177
  C  C146  1  0.994000  0.688900  0.326500  1.0  -0.109
  C  C147  1  0.934000  0.619300  0.350000  1.0  -0.0305
  C  C148  1  0.072000  0.847500  0.326500  1.0  0.6593
  N  N149  1  0.311700  0.581300  0.534400  1.0  -0.4203
  N  N150  1  0.191000  0.441700  0.532900  1.0  -0.4883
  N  N151  1  0.240500  0.515700  0.606200  1.0  -0.4055
  N  N152  1  0.811700  0.918700  0.034400  1.0  -0.4211
  N  N153  1  0.691000  0.058300  0.032900  1.0  -0.4853
  N  N154  1  0.740500  0.984300  0.106200  1.0  -0.4058
  N  N155  1  0.188300  0.081300  0.965600  1.0  -0.4194
  N  N156  1  0.309000  0.941700  0.967100  1.0  -0.4867
  N  N157  1  0.259500  0.015700  0.893800  1.0  -0.4058
  N  N158  1  0.688300  0.418700  0.465600  1.0  -0.4207
  N  N159  1  0.809000  0.558300  0.467100  1.0  -0.4844
  N  N160  1  0.759500  0.484300  0.393800  1.0  -0.4062
  O  O161  1  0.656300  0.935100  0.649600  1.0  -0.6465
  O  O162  1  0.600400  0.885700  0.719100  1.0  -0.566
  O  O163  1  0.386300  0.536000  0.290600  1.0  -0.6613
  O  O164  1  0.170400  0.455500  0.288900  1.0  -0.6063
  O  O165  1  0.864200  0.093700  0.647300  1.0  -0.658
  O  O166  1  0.930500  0.149000  0.717700  1.0  -0.667
  O  O167  1  0.156300  0.564900  0.149600  1.0  -0.647
  O  O168  1  0.100400  0.614300  0.219100  1.0  -0.5659
  O  O169  1  0.886300  0.964000  0.790600  1.0  -0.6616
  O  O170  1  0.670400  0.044500  0.788900  1.0  -0.6063
  O  O171  1  0.364200  0.406300  0.147300  1.0  -0.6579
  O  O172  1  0.430500  0.351000  0.217700  1.0  -0.6678
  O  O173  1  0.843700  0.435100  0.850400  1.0  -0.6439
  O  O174  1  0.899600  0.385700  0.780900  1.0  -0.566
  O  O175  1  0.113700  0.036000  0.209400  1.0  -0.6593
  O  O176  1  0.329600  0.955500  0.211100  1.0  -0.6073
  O  O177  1  0.635800  0.593700  0.852700  1.0  -0.656
  O  O178  1  0.569500  0.649000  0.782300  1.0  -0.6668
  O  O179  1  0.343700  0.064900  0.350400  1.0  -0.6458
  O  O180  1  0.399600  0.114300  0.280900  1.0  -0.5658
  O  O181  1  0.613700  0.464000  0.709400  1.0  -0.6614
  O  O182  1  0.829600  0.544500  0.711100  1.0  -0.608
  O  O183  1  0.135800  0.906300  0.352700  1.0  -0.6559
  O  O184  1  0.069500  0.851000  0.282300  1.0  -0.667
