# generated using pymatgen
data_Cd3H12(C17O9)2
_symmetry_space_group_name_H-M   'P 1'
_cell_length_a   8.10400000
_cell_length_b   27.06560000
_cell_length_c   20.42330000
_cell_angle_alpha   90.00000000
_cell_angle_beta   90.00000000
_cell_angle_gamma   90.00000000
_symmetry_Int_Tables_number   1
_chemical_formula_structural   Cd3H12(C17O9)2
_chemical_formula_sum   'Cd12 H48 C136 O72'
_cell_volume   4479.63891016
_cell_formula_units_Z   4
loop_
 _symmetry_equiv_pos_site_id
 _symmetry_equiv_pos_as_xyz
  1  'x, y, z'
loop_
 _atom_site_type_symbol
 _atom_site_label
 _atom_site_symmetry_multiplicity
 _atom_site_fract_x
 _atom_site_fract_y
 _atom_site_fract_z
 _atom_site_occupancy
 _atom_site_charge
  Cd  Cd1  1  0.500000  0.750000  0.250000  1.0  1.0528
  Cd  Cd2  1  0.000000  0.250000  0.250000  1.0  1.0528
  Cd  Cd3  1  0.500000  0.250000  0.750000  1.0  1.0528
  Cd  Cd4  1  0.000000  0.750000  0.750000  1.0  1.0528
  Cd  Cd5  1  0.000000  0.750000  0.950700  1.0  0.9876
  Cd  Cd6  1  0.500000  0.250000  0.950700  1.0  0.9876
  Cd  Cd7  1  0.000000  0.750000  0.549300  1.0  0.9867
  Cd  Cd8  1  0.500000  0.250000  0.549300  1.0  0.9867
  Cd  Cd9  1  0.000000  0.250000  0.049300  1.0  0.9872
  Cd  Cd10  1  0.500000  0.750000  0.049300  1.0  0.9872
  Cd  Cd11  1  0.000000  0.250000  0.450700  1.0  0.9881
  Cd  Cd12  1  0.500000  0.750000  0.450700  1.0  0.9881
  H  H13  1  0.844800  0.592300  0.996000  1.0  0.1358
  H  H14  1  0.517900  0.586700  0.180100  1.0  0.1456
  H  H15  1  0.585300  0.514700  0.125700  1.0  0.1562
  H  H16  1  0.344800  0.092300  0.996000  1.0  0.1358
  H  H17  1  0.017900  0.086700  0.180100  1.0  0.1456
  H  H18  1  0.085300  0.014700  0.125700  1.0  0.1562
  H  H19  1  0.655200  0.407700  0.996000  1.0  0.1354
  H  H20  1  0.982100  0.413300  0.180100  1.0  0.145
  H  H21  1  0.914700  0.485300  0.125700  1.0  0.156
  H  H22  1  0.155200  0.907700  0.996000  1.0  0.1354
  H  H23  1  0.482100  0.913300  0.180100  1.0  0.145
  H  H24  1  0.414700  0.985300  0.125700  1.0  0.156
  H  H25  1  0.155200  0.592300  0.504000  1.0  0.1359
  H  H26  1  0.482100  0.586700  0.319900  1.0  0.145
  H  H27  1  0.414700  0.514700  0.374300  1.0  0.1563
  H  H28  1  0.655200  0.092300  0.504000  1.0  0.1359
  H  H29  1  0.982100  0.086700  0.319900  1.0  0.145
  H  H30  1  0.914700  0.014700  0.374300  1.0  0.1563
  H  H31  1  0.344800  0.407700  0.504000  1.0  0.136
  H  H32  1  0.017900  0.413300  0.319900  1.0  0.1448
  H  H33  1  0.085300  0.485300  0.374300  1.0  0.1564
  H  H34  1  0.844800  0.907700  0.504000  1.0  0.136
  H  H35  1  0.517900  0.913300  0.319900  1.0  0.1448
  H  H36  1  0.585300  0.985300  0.374300  1.0  0.1564
  H  H37  1  0.155200  0.407700  0.004000  1.0  0.1358
  H  H38  1  0.482100  0.413300  0.819900  1.0  0.1449
  H  H39  1  0.414700  0.485300  0.874300  1.0  0.1561
  H  H40  1  0.655200  0.907700  0.004000  1.0  0.1358
  H  H41  1  0.982100  0.913300  0.819900  1.0  0.1449
  H  H42  1  0.914700  0.985300  0.874300  1.0  0.1561
  H  H43  1  0.344800  0.592300  0.004000  1.0  0.1361
  H  H44  1  0.017900  0.586700  0.819900  1.0  0.1451
  H  H45  1  0.085300  0.514700  0.874300  1.0  0.1561
  H  H46  1  0.844800  0.092300  0.004000  1.0  0.1361
  H  H47  1  0.517900  0.086700  0.819900  1.0  0.1451
  H  H48  1  0.585300  0.014700  0.874300  1.0  0.1561
  H  H49  1  0.844800  0.407700  0.496000  1.0  0.1356
  H  H50  1  0.517900  0.413300  0.680100  1.0  0.1452
  H  H51  1  0.585300  0.485300  0.625700  1.0  0.1564
  H  H52  1  0.344800  0.907700  0.496000  1.0  0.1356
  H  H53  1  0.017900  0.913300  0.680100  1.0  0.1452
  H  H54  1  0.085300  0.985300  0.625700  1.0  0.1564
  H  H55  1  0.655200  0.592300  0.496000  1.0  0.1357
  H  H56  1  0.982100  0.586700  0.680100  1.0  0.1453
  H  H57  1  0.914700  0.514700  0.625700  1.0  0.1562
  H  H58  1  0.155200  0.092300  0.496000  1.0  0.1357
  H  H59  1  0.482100  0.086700  0.680100  1.0  0.1453
  H  H60  1  0.414700  0.014700  0.625700  1.0  0.1562
  C  C61  1  0.717800  0.546500  0.054400  1.0  0.0645
  C  C62  1  0.779800  0.591300  0.033500  1.0  0.0119
  C  C63  1  0.747100  0.635100  0.067400  1.0  -0.1158
  C  C64  1  0.647700  0.633100  0.122300  1.0  0.0114
  C  C65  1  0.585600  0.587900  0.143400  1.0  -0.046
  C  C66  1  0.623700  0.544900  0.110200  1.0  -0.0952
  C  C67  1  0.818800  0.683100  0.043600  1.0  0.7246
  C  C68  1  0.597100  0.677800  0.162000  1.0  0.7274
  C  C69  1  0.217800  0.046500  0.054400  1.0  0.0645
  C  C70  1  0.279800  0.091300  0.033500  1.0  0.0119
  C  C71  1  0.247100  0.135100  0.067400  1.0  -0.1158
  C  C72  1  0.147700  0.133100  0.122300  1.0  0.0114
  C  C73  1  0.085600  0.087900  0.143400  1.0  -0.046
  C  C74  1  0.123700  0.044900  0.110200  1.0  -0.0952
  C  C75  1  0.318800  0.183100  0.043600  1.0  0.7246
  C  C76  1  0.097100  0.177800  0.162000  1.0  0.7274
  C  C77  1  0.782200  0.453500  0.054400  1.0  0.0647
  C  C78  1  0.720200  0.408700  0.033500  1.0  0.0117
  C  C79  1  0.752900  0.364900  0.067400  1.0  -0.1149
  C  C80  1  0.852300  0.366900  0.122300  1.0  0.0111
  C  C81  1  0.914400  0.412100  0.143400  1.0  -0.0469
  C  C82  1  0.876300  0.455100  0.110200  1.0  -0.096
  C  C83  1  0.681200  0.316900  0.043600  1.0  0.7247
  C  C84  1  0.902900  0.322200  0.162000  1.0  0.7277
  C  C85  1  0.282200  0.953500  0.054400  1.0  0.0647
  C  C86  1  0.220200  0.908700  0.033500  1.0  0.0117
  C  C87  1  0.252900  0.864900  0.067400  1.0  -0.1149
  C  C88  1  0.352300  0.866900  0.122300  1.0  0.0111
  C  C89  1  0.414400  0.912100  0.143400  1.0  -0.0469
  C  C90  1  0.376300  0.955100  0.110200  1.0  -0.096
  C  C91  1  0.181200  0.816900  0.043600  1.0  0.7247
  C  C92  1  0.402900  0.822200  0.162000  1.0  0.7277
  C  C93  1  0.282200  0.546500  0.445600  1.0  0.0637
  C  C94  1  0.220200  0.591300  0.466500  1.0  0.0113
  C  C95  1  0.252900  0.635100  0.432600  1.0  -0.1147
  C  C96  1  0.352300  0.633100  0.377700  1.0  0.0126
  C  C97  1  0.414400  0.587900  0.356600  1.0  -0.0462
  C  C98  1  0.376300  0.544900  0.389800  1.0  -0.0958
  C  C99  1  0.181200  0.683100  0.456400  1.0  0.7253
  C  C100  1  0.402900  0.677800  0.338000  1.0  0.7278
  C  C101  1  0.782200  0.046500  0.445600  1.0  0.0637
  C  C102  1  0.720200  0.091300  0.466500  1.0  0.0113
  C  C103  1  0.752900  0.135100  0.432600  1.0  -0.1147
  C  C104  1  0.852300  0.133100  0.377700  1.0  0.0126
  C  C105  1  0.914400  0.087900  0.356600  1.0  -0.0462
  C  C106  1  0.876300  0.044900  0.389800  1.0  -0.0958
  C  C107  1  0.681200  0.183100  0.456400  1.0  0.7253
  C  C108  1  0.902900  0.177800  0.338000  1.0  0.7278
  C  C109  1  0.217800  0.453500  0.445600  1.0  0.0645
  C  C110  1  0.279800  0.408700  0.466500  1.0  0.0114
  C  C111  1  0.247100  0.364900  0.432600  1.0  -0.1161
  C  C112  1  0.147700  0.366900  0.377700  1.0  0.0115
  C  C113  1  0.085600  0.412100  0.356600  1.0  -0.0448
  C  C114  1  0.123700  0.455100  0.389800  1.0  -0.0943
  C  C115  1  0.318800  0.316900  0.456400  1.0  0.7252
  C  C116  1  0.097100  0.322200  0.338000  1.0  0.7266
  C  C117  1  0.717800  0.953500  0.445600  1.0  0.0645
  C  C118  1  0.779800  0.908700  0.466500  1.0  0.0114
  C  C119  1  0.747100  0.864900  0.432600  1.0  -0.1161
  C  C120  1  0.647700  0.866900  0.377700  1.0  0.0115
  C  C121  1  0.585600  0.912100  0.356600  1.0  -0.0448
  C  C122  1  0.623700  0.955100  0.389800  1.0  -0.0943
  C  C123  1  0.818800  0.816900  0.456400  1.0  0.7252
  C  C124  1  0.597100  0.822200  0.338000  1.0  0.7266
  C  C125  1  0.282200  0.453500  0.945600  1.0  0.0641
  C  C126  1  0.220200  0.408700  0.966500  1.0  0.0115
  C  C127  1  0.252900  0.364900  0.932600  1.0  -0.1152
  C  C128  1  0.352300  0.366900  0.877700  1.0  0.0114
  C  C129  1  0.414400  0.412100  0.856600  1.0  -0.0464
  C  C130  1  0.376300  0.455100  0.889800  1.0  -0.0964
  C  C131  1  0.181200  0.316900  0.956400  1.0  0.7252
  C  C132  1  0.402900  0.322200  0.838000  1.0  0.7274
  C  C133  1  0.782200  0.953500  0.945600  1.0  0.0641
  C  C134  1  0.720200  0.908700  0.966500  1.0  0.0115
  C  C135  1  0.752900  0.864900  0.932600  1.0  -0.1152
  C  C136  1  0.852300  0.866900  0.877700  1.0  0.0114
  C  C137  1  0.914400  0.912100  0.856600  1.0  -0.0464
  C  C138  1  0.876300  0.955100  0.889800  1.0  -0.0964
  C  C139  1  0.681200  0.816900  0.956400  1.0  0.7252
  C  C140  1  0.902900  0.822200  0.838000  1.0  0.7274
  C  C141  1  0.217800  0.546500  0.945600  1.0  0.064
  C  C142  1  0.279800  0.591300  0.966500  1.0  0.0116
  C  C143  1  0.247100  0.635100  0.932600  1.0  -0.1161
  C  C144  1  0.147700  0.633100  0.877700  1.0  0.0126
  C  C145  1  0.085600  0.587900  0.856600  1.0  -0.0445
  C  C146  1  0.123700  0.544900  0.889800  1.0  -0.0933
  C  C147  1  0.318800  0.683100  0.956400  1.0  0.7248
  C  C148  1  0.097100  0.677800  0.838000  1.0  0.7274
  C  C149  1  0.717800  0.046500  0.945600  1.0  0.064
  C  C150  1  0.779800  0.091300  0.966500  1.0  0.0116
  C  C151  1  0.747100  0.135100  0.932600  1.0  -0.1161
  C  C152  1  0.647700  0.133100  0.877700  1.0  0.0126
  C  C153  1  0.585600  0.087900  0.856600  1.0  -0.0445
  C  C154  1  0.623700  0.044900  0.889800  1.0  -0.0933
  C  C155  1  0.818800  0.183100  0.956400  1.0  0.7248
  C  C156  1  0.597100  0.177800  0.838000  1.0  0.7274
  C  C157  1  0.717800  0.453500  0.554400  1.0  0.0652
  C  C158  1  0.779800  0.408700  0.533500  1.0  0.0117
  C  C159  1  0.747100  0.364900  0.567400  1.0  -0.116
  C  C160  1  0.647700  0.366900  0.622300  1.0  0.0114
  C  C161  1  0.585600  0.412100  0.643400  1.0  -0.0464
  C  C162  1  0.623700  0.455100  0.610200  1.0  -0.0967
  C  C163  1  0.818800  0.316900  0.543600  1.0  0.725
  C  C164  1  0.597100  0.322200  0.662000  1.0  0.727
  C  C165  1  0.217800  0.953500  0.554400  1.0  0.0652
  C  C166  1  0.279800  0.908700  0.533500  1.0  0.0117
  C  C167  1  0.247100  0.864900  0.567400  1.0  -0.116
  C  C168  1  0.147700  0.866900  0.622300  1.0  0.0114
  C  C169  1  0.085600  0.912100  0.643400  1.0  -0.0464
  C  C170  1  0.123700  0.955100  0.610200  1.0  -0.0967
  C  C171  1  0.318800  0.816900  0.543600  1.0  0.725
  C  C172  1  0.097100  0.822200  0.662000  1.0  0.727
  C  C173  1  0.782200  0.546500  0.554400  1.0  0.0639
  C  C174  1  0.720200  0.591300  0.533500  1.0  0.0115
  C  C175  1  0.752900  0.635100  0.567400  1.0  -0.1146
  C  C176  1  0.852300  0.633100  0.622300  1.0  0.0113
  C  C177  1  0.914400  0.587900  0.643400  1.0  -0.0466
  C  C178  1  0.876300  0.544900  0.610200  1.0  -0.0957
  C  C179  1  0.681200  0.683100  0.543600  1.0  0.7248
  C  C180  1  0.902900  0.677800  0.662000  1.0  0.7279
  C  C181  1  0.282200  0.046500  0.554400  1.0  0.0639
  C  C182  1  0.220200  0.091300  0.533500  1.0  0.0115
  C  C183  1  0.252900  0.135100  0.567400  1.0  -0.1146
  C  C184  1  0.352300  0.133100  0.622300  1.0  0.0113
  C  C185  1  0.414400  0.087900  0.643400  1.0  -0.0466
  C  C186  1  0.376300  0.044900  0.610200  1.0  -0.0957
  C  C187  1  0.181200  0.183100  0.543600  1.0  0.7248
  C  C188  1  0.402900  0.177800  0.662000  1.0  0.7279
  C  C189  1  0.750000  0.500000  0.017000  1.0  0.2974
  C  C190  1  0.250000  0.000000  0.017000  1.0  0.2974
  C  C191  1  0.250000  0.500000  0.483000  1.0  0.2987
  C  C192  1  0.750000  0.000000  0.483000  1.0  0.2987
  C  C193  1  0.250000  0.500000  0.983000  1.0  0.2987
  C  C194  1  0.750000  0.000000  0.983000  1.0  0.2987
  C  C195  1  0.750000  0.500000  0.517000  1.0  0.2974
  C  C196  1  0.250000  0.000000  0.517000  1.0  0.2974
  O  O197  1  0.934400  0.680840  0.002300  1.0  -0.5719
  O  O198  1  0.763300  0.722970  0.065770  1.0  -0.6028
  O  O199  1  0.462500  0.698700  0.146100  1.0  -0.6754
  O  O200  1  0.677900  0.689670  0.210800  1.0  -0.5694
  O  O201  1  0.434400  0.180840  0.002300  1.0  -0.5719
  O  O202  1  0.263300  0.222970  0.065770  1.0  -0.6028
  O  O203  1  0.962500  0.198700  0.146100  1.0  -0.6754
  O  O204  1  0.177900  0.189670  0.210800  1.0  -0.5694
  O  O205  1  0.565600  0.319160  0.002300  1.0  -0.5715
  O  O206  1  0.736700  0.277030  0.065770  1.0  -0.6019
  O  O207  1  0.037500  0.301300  0.146100  1.0  -0.6742
  O  O208  1  0.822100  0.310330  0.210800  1.0  -0.5674
  O  O209  1  0.065600  0.819160  0.002300  1.0  -0.5715
  O  O210  1  0.236700  0.777030  0.065770  1.0  -0.6019
  O  O211  1  0.537500  0.801300  0.146100  1.0  -0.6742
  O  O212  1  0.322100  0.810330  0.210800  1.0  -0.5674
  O  O213  1  0.065600  0.680840  0.497700  1.0  -0.5722
  O  O214  1  0.236700  0.722970  0.434230  1.0  -0.604
  O  O215  1  0.537500  0.698700  0.353900  1.0  -0.6744
  O  O216  1  0.322100  0.689670  0.289200  1.0  -0.569
  O  O217  1  0.565600  0.180840  0.497700  1.0  -0.5722
  O  O218  1  0.736700  0.222970  0.434230  1.0  -0.604
  O  O219  1  0.037500  0.198700  0.353900  1.0  -0.6744
  O  O220  1  0.822100  0.189670  0.289200  1.0  -0.569
  O  O221  1  0.434400  0.319160  0.497700  1.0  -0.5723
  O  O222  1  0.263300  0.277030  0.434230  1.0  -0.6029
  O  O223  1  0.962500  0.301300  0.353900  1.0  -0.6754
  O  O224  1  0.177900  0.310330  0.289200  1.0  -0.5683
  O  O225  1  0.934400  0.819160  0.497700  1.0  -0.5723
  O  O226  1  0.763300  0.777030  0.434230  1.0  -0.6029
  O  O227  1  0.462500  0.801300  0.353900  1.0  -0.6754
  O  O228  1  0.677900  0.810330  0.289200  1.0  -0.5683
  O  O229  1  0.065600  0.319160  0.997700  1.0  -0.572
  O  O230  1  0.236700  0.277030  0.934230  1.0  -0.603
  O  O231  1  0.537500  0.301300  0.853900  1.0  -0.6743
  O  O232  1  0.322100  0.310330  0.789200  1.0  -0.5692
  O  O233  1  0.565600  0.819160  0.997700  1.0  -0.572
  O  O234  1  0.736700  0.777030  0.934230  1.0  -0.603
  O  O235  1  0.037500  0.801300  0.853900  1.0  -0.6743
  O  O236  1  0.822100  0.810330  0.789200  1.0  -0.5692
  O  O237  1  0.434400  0.680840  0.997700  1.0  -0.5725
  O  O238  1  0.263300  0.722970  0.934230  1.0  -0.6032
  O  O239  1  0.962500  0.698700  0.853900  1.0  -0.6752
  O  O240  1  0.177900  0.689670  0.789200  1.0  -0.5681
  O  O241  1  0.934400  0.180840  0.997700  1.0  -0.5725
  O  O242  1  0.763300  0.222970  0.934230  1.0  -0.6032
  O  O243  1  0.462500  0.198700  0.853900  1.0  -0.6752
  O  O244  1  0.677900  0.189670  0.789200  1.0  -0.5681
  O  O245  1  0.934400  0.319160  0.502300  1.0  -0.5718
  O  O246  1  0.763300  0.277030  0.565770  1.0  -0.6024
  O  O247  1  0.462500  0.301300  0.646100  1.0  -0.6756
  O  O248  1  0.677900  0.310330  0.710800  1.0  -0.5692
  O  O249  1  0.434400  0.819160  0.502300  1.0  -0.5718
  O  O250  1  0.263300  0.777030  0.565770  1.0  -0.6024
  O  O251  1  0.962500  0.801300  0.646100  1.0  -0.6756
  O  O252  1  0.177900  0.810330  0.710800  1.0  -0.5692
  O  O253  1  0.565600  0.680840  0.502300  1.0  -0.5717
  O  O254  1  0.736700  0.722970  0.565770  1.0  -0.6033
  O  O255  1  0.037500  0.698700  0.646100  1.0  -0.6744
  O  O256  1  0.822100  0.689670  0.710800  1.0  -0.5678
  O  O257  1  0.065600  0.180840  0.502300  1.0  -0.5717
  O  O258  1  0.236700  0.222970  0.565770  1.0  -0.6033
  O  O259  1  0.537500  0.198700  0.646100  1.0  -0.6744
  O  O260  1  0.322100  0.189670  0.710800  1.0  -0.5678
  O  O261  1  0.750000  0.500000  0.957300  1.0  -0.4116
  O  O262  1  0.250000  0.000000  0.957300  1.0  -0.4116
  O  O263  1  0.250000  0.500000  0.542700  1.0  -0.4193
  O  O264  1  0.750000  0.000000  0.542700  1.0  -0.4193
  O  O265  1  0.250000  0.500000  0.042700  1.0  -0.4193
  O  O266  1  0.750000  0.000000  0.042700  1.0  -0.4193
  O  O267  1  0.750000  0.500000  0.457300  1.0  -0.4116
  O  O268  1  0.250000  0.000000  0.457300  1.0  -0.4116
