# generated using pymatgen
data_Zn3P4(HO3)4
_symmetry_space_group_name_H-M   'P 1'
_cell_length_a   9.91440000
_cell_length_b   14.44140000
_cell_length_c   14.97850000
_cell_angle_alpha   90.00000000
_cell_angle_beta   98.88700000
_cell_angle_gamma   90.00000000
_symmetry_Int_Tables_number   1
_chemical_formula_structural   Zn3P4(HO3)4
_chemical_formula_sum   'Zn12 P16 H16 O48'
_cell_volume   2118.84300716
_cell_formula_units_Z   4
loop_
 _symmetry_equiv_pos_site_id
 _symmetry_equiv_pos_as_xyz
  1  'x, y, z'
loop_
 _atom_site_type_symbol
 _atom_site_label
 _atom_site_symmetry_multiplicity
 _atom_site_fract_x
 _atom_site_fract_y
 _atom_site_fract_z
 _atom_site_occupancy
 _atom_site_charge
  Zn  Zn1  1  0.340680  0.740590  0.997960  1.0  1.1019
  Zn  Zn2  1  0.315110  0.620620  0.373960  1.0  1.1491
  Zn  Zn3  1  0.208540  0.416750  0.183580  1.0  1.1283
  Zn  Zn4  1  0.159320  0.240590  0.502040  1.0  1.1027
  Zn  Zn5  1  0.184890  0.120620  0.126040  1.0  1.1489
  Zn  Zn6  1  0.291460  0.916750  0.316420  1.0  1.1277
  Zn  Zn7  1  0.659320  0.259410  0.002040  1.0  1.1026
  Zn  Zn8  1  0.684890  0.379380  0.626040  1.0  1.1488
  Zn  Zn9  1  0.791460  0.583250  0.816420  1.0  1.1275
  Zn  Zn10  1  0.840680  0.759410  0.497960  1.0  1.1018
  Zn  Zn11  1  0.815110  0.879380  0.873960  1.0  1.1489
  Zn  Zn12  1  0.708540  0.083250  0.683580  1.0  1.1282
  P  P13  1  0.252900  0.915610  0.099660  1.0  1.6288
  P  P14  1  0.290000  0.622900  0.165880  1.0  1.5138
  P  P15  1  0.023300  0.713990  0.941750  1.0  1.6051
  P  P16  1  0.600800  0.725720  0.889690  1.0  1.5267
  P  P17  1  0.247100  0.415610  0.400340  1.0  1.6283
  P  P18  1  0.210000  0.122900  0.334120  1.0  1.5241
  P  P19  1  0.476700  0.213990  0.558250  1.0  1.6039
  P  P20  1  0.899200  0.225720  0.610310  1.0  1.5289
  P  P21  1  0.747100  0.084390  0.900340  1.0  1.6295
  P  P22  1  0.710000  0.377100  0.834120  1.0  1.5272
  P  P23  1  0.976700  0.286010  0.058250  1.0  1.606
  P  P24  1  0.399200  0.274280  0.110310  1.0  1.5292
  P  P25  1  0.752900  0.584390  0.599660  1.0  1.6294
  P  P26  1  0.790000  0.877100  0.665880  1.0  1.5174
  P  P27  1  0.523300  0.786010  0.441750  1.0  1.6055
  P  P28  1  0.100800  0.774280  0.389690  1.0  1.5269
  H  H29  1  0.144000  0.858000  0.105500  1.0  -0.0842
  H  H30  1  0.210000  0.689000  0.177100  1.0  -0.083
  H  H31  1  0.038000  0.677000  0.027000  1.0  -0.0937
  H  H32  1  0.688000  0.708100  0.973000  1.0  -0.0654
  H  H33  1  0.356000  0.358000  0.394500  1.0  -0.0812
  H  H34  1  0.290000  0.189000  0.322900  1.0  -0.0817
  H  H35  1  0.462000  0.177000  0.473000  1.0  -0.0913
  H  H36  1  0.812000  0.208100  0.527000  1.0  -0.0656
  H  H37  1  0.856000  0.142000  0.894500  1.0  -0.0813
  H  H38  1  0.790000  0.311000  0.822900  1.0  -0.0788
  H  H39  1  0.962000  0.323000  0.973000  1.0  -0.0916
  H  H40  1  0.312000  0.291900  0.027000  1.0  -0.0658
  H  H41  1  0.644000  0.642000  0.605500  1.0  -0.0844
  H  H42  1  0.710000  0.811000  0.677100  1.0  -0.0801
  H  H43  1  0.538000  0.823000  0.527000  1.0  -0.094
  H  H44  1  0.188000  0.791900  0.473000  1.0  -0.0646
  O  O45  1  0.340000  0.869000  0.037200  1.0  -0.7393
  O  O46  1  0.166200  0.725200  0.918200  1.0  -0.7557
  O  O47  1  0.377600  0.655900  0.097100  1.0  -0.7808
  O  O48  1  0.455600  0.719500  0.908400  1.0  -0.7664
  O  O49  1  0.379600  0.606100  0.257100  1.0  -0.7642
  O  O50  1  0.195700  0.006300  0.060400  1.0  -0.7753
  O  O51  1  0.633200  0.822400  0.859100  1.0  -0.7429
  O  O52  1  0.950300  0.804500  0.945200  1.0  -0.8497
  O  O53  1  0.202400  0.541300  0.134200  1.0  -0.7714
  O  O54  1  0.625600  0.650000  0.824300  1.0  -0.7546
  O  O55  1  0.331900  0.926200  0.194600  1.0  -0.7713
  O  O56  1  0.947200  0.644700  0.880300  1.0  -0.8728
  O  O57  1  0.160000  0.369000  0.462800  1.0  -0.7388
  O  O58  1  0.333800  0.225200  0.581800  1.0  -0.7546
  O  O59  1  0.122400  0.155900  0.402900  1.0  -0.7798
  O  O60  1  0.044400  0.219500  0.591600  1.0  -0.7654
  O  O61  1  0.120400  0.106100  0.242900  1.0  -0.7648
  O  O62  1  0.304300  0.506300  0.439600  1.0  -0.7743
  O  O63  1  0.866800  0.322400  0.640900  1.0  -0.7433
  O  O64  1  0.549700  0.304500  0.554800  1.0  -0.8487
  O  O65  1  0.297600  0.041300  0.365800  1.0  -0.7707
  O  O66  1  0.874400  0.150000  0.675700  1.0  -0.7535
  O  O67  1  0.168100  0.426200  0.305400  1.0  -0.7713
  O  O68  1  0.552800  0.144700  0.619700  1.0  -0.8715
  O  O69  1  0.660000  0.131000  0.962800  1.0  -0.7392
  O  O70  1  0.833800  0.274800  0.081800  1.0  -0.7548
  O  O71  1  0.622400  0.344100  0.902900  1.0  -0.7808
  O  O72  1  0.544400  0.280500  0.091600  1.0  -0.7653
  O  O73  1  0.620400  0.393900  0.742900  1.0  -0.7651
  O  O74  1  0.804300  0.993700  0.939600  1.0  -0.7746
  O  O75  1  0.366800  0.177600  0.140900  1.0  -0.7429
  O  O76  1  0.049700  0.195500  0.054800  1.0  -0.8484
  O  O77  1  0.797600  0.458700  0.865800  1.0  -0.7698
  O  O78  1  0.374400  0.350000  0.175700  1.0  -0.7535
  O  O79  1  0.668100  0.073800  0.805400  1.0  -0.7706
  O  O80  1  0.052800  0.355300  0.119700  1.0  -0.8732
  O  O81  1  0.840000  0.631000  0.537200  1.0  -0.7401
  O  O82  1  0.666200  0.774800  0.418200  1.0  -0.7557
  O  O83  1  0.877600  0.844100  0.597100  1.0  -0.7808
  O  O84  1  0.955600  0.780500  0.408400  1.0  -0.7661
  O  O85  1  0.879600  0.893900  0.757100  1.0  -0.7642
  O  O86  1  0.695700  0.493700  0.560400  1.0  -0.7757
  O  O87  1  0.133200  0.677600  0.359100  1.0  -0.7424
  O  O88  1  0.450300  0.695500  0.445200  1.0  -0.8488
  O  O89  1  0.702400  0.958700  0.634200  1.0  -0.7702
  O  O90  1  0.125600  0.850000  0.324300  1.0  -0.7534
  O  O91  1  0.831900  0.573800  0.694600  1.0  -0.7712
  O  O92  1  0.447200  0.855300  0.380300  1.0  -0.8722
