# generated using pymatgen
data_Zn2H16C20N3O8
_symmetry_space_group_name_H-M   'P 1'
_cell_length_a   13.82240000
_cell_length_b   13.82240000
_cell_length_c   14.37600000
_cell_angle_alpha   61.91820000
_cell_angle_beta   61.91820000
_cell_angle_gamma   79.70990000
_symmetry_Int_Tables_number   1
_chemical_formula_structural   Zn2H16C20N3O8
_chemical_formula_sum   'Zn4 H32 C40 N6 O16'
_cell_volume   2134.77472392
_cell_formula_units_Z   2
loop_
 _symmetry_equiv_pos_site_id
 _symmetry_equiv_pos_as_xyz
  1  'x, y, z'
loop_
 _atom_site_type_symbol
 _atom_site_label
 _atom_site_symmetry_multiplicity
 _atom_site_fract_x
 _atom_site_fract_y
 _atom_site_fract_z
 _atom_site_occupancy
 _atom_site_charge
  Zn  Zn1  1  0.104390  0.895610  0.500000  1.0  0.8552
  Zn  Zn2  1  0.895610  0.104390  0.500000  1.0  0.8543
  Zn  Zn3  1  0.019340  0.019340  0.084970  1.0  0.9636
  Zn  Zn4  1  0.980660  0.980660  0.915030  1.0  0.9632
  H  H5  1  0.925900  0.742500  0.541000  1.0  0.4005
  H  H6  1  0.069300  0.377700  0.884700  1.0  0.1008
  H  H7  1  0.074100  0.563900  0.771500  1.0  0.0877
  H  H8  1  0.958400  0.511000  0.596300  1.0  0.0899
  H  H9  1  0.959500  0.325900  0.702200  1.0  0.0941
  H  H10  1  0.184400  0.850800  0.693600  1.0  0.1409
  H  H11  1  0.111600  0.829200  0.825000  1.0  0.1671
  H  H12  1  0.086400  0.762200  0.775500  1.0  0.1499
  H  H13  1  0.257500  0.074100  0.459000  1.0  0.4002
  H  H14  1  0.622300  0.930700  0.115300  1.0  0.1012
  H  H15  1  0.436100  0.925900  0.228500  1.0  0.0872
  H  H16  1  0.489000  0.041600  0.403700  1.0  0.0905
  H  H17  1  0.674100  0.040500  0.297800  1.0  0.0934
  H  H18  1  0.149200  0.815600  0.306400  1.0  0.1417
  H  H19  1  0.170800  0.888400  0.175000  1.0  0.1656
  H  H20  1  0.237800  0.913600  0.224500  1.0  0.1515
  H  H21  1  0.074100  0.257500  0.459000  1.0  0.3987
  H  H22  1  0.930700  0.622300  0.115300  1.0  0.1014
  H  H23  1  0.925900  0.436100  0.228500  1.0  0.0878
  H  H24  1  0.041600  0.489000  0.403700  1.0  0.0896
  H  H25  1  0.040500  0.674100  0.297800  1.0  0.0936
  H  H26  1  0.815600  0.149200  0.306400  1.0  0.1428
  H  H27  1  0.888400  0.170800  0.175000  1.0  0.1671
  H  H28  1  0.913600  0.237800  0.224500  1.0  0.1478
  H  H29  1  0.742500  0.925900  0.541000  1.0  0.402
  H  H30  1  0.377700  0.069300  0.884700  1.0  0.1011
  H  H31  1  0.563900  0.074100  0.771500  1.0  0.0878
  H  H32  1  0.511000  0.958400  0.596300  1.0  0.0905
  H  H33  1  0.325900  0.959500  0.702200  1.0  0.0933
  H  H34  1  0.850800  0.184400  0.693600  1.0  0.1425
  H  H35  1  0.829200  0.111600  0.825000  1.0  0.1692
  H  H36  1  0.762200  0.086400  0.775500  1.0  0.1485
  C  C37  1  0.007500  0.209100  0.882500  1.0  0.6896
  C  C38  1  0.014400  0.331800  0.806700  1.0  -0.1231
  C  C39  1  0.048500  0.403500  0.824500  1.0  -0.0646
  C  C40  1  0.053600  0.516000  0.754400  1.0  -0.0531
  C  C41  1  0.029800  0.557000  0.663800  1.0  -0.1979
  C  C42  1  0.986100  0.484100  0.651100  1.0  -0.0582
  C  C43  1  0.983000  0.373600  0.717300  1.0  -0.0658
  C  C44  1  0.038500  0.678300  0.585100  1.0  0.6557
  C  C45  1  0.036900  0.917300  0.721000  1.0  0.4773
  C  C46  1  0.111400  0.832400  0.756900  1.0  -0.4571
  C  C47  1  0.790900  0.992500  0.117500  1.0  0.6894
  C  C48  1  0.668200  0.985600  0.193300  1.0  -0.1229
  C  C49  1  0.596500  0.951500  0.175500  1.0  -0.064
  C  C50  1  0.484000  0.946400  0.245600  1.0  -0.053
  C  C51  1  0.443000  0.970200  0.336200  1.0  -0.1982
  C  C52  1  0.515900  0.013900  0.348900  1.0  -0.0581
  C  C53  1  0.626400  0.017000  0.282700  1.0  -0.0653
  C  C54  1  0.321700  0.961500  0.414900  1.0  0.6529
  C  C55  1  0.082700  0.963100  0.279000  1.0  0.4768
  C  C56  1  0.167600  0.888600  0.243100  1.0  -0.4568
  C  C57  1  0.992500  0.790900  0.117500  1.0  0.6893
  C  C58  1  0.985600  0.668200  0.193300  1.0  -0.1234
  C  C59  1  0.951500  0.596500  0.175500  1.0  -0.0642
  C  C60  1  0.946400  0.484000  0.245600  1.0  -0.053
  C  C61  1  0.970200  0.443000  0.336200  1.0  -0.1972
  C  C62  1  0.013900  0.515900  0.348900  1.0  -0.0591
  C  C63  1  0.017000  0.626400  0.282700  1.0  -0.0652
  C  C64  1  0.961500  0.321700  0.414900  1.0  0.6554
  C  C65  1  0.963100  0.082700  0.279000  1.0  0.4742
  C  C66  1  0.888600  0.167600  0.243100  1.0  -0.4559
  C  C67  1  0.209100  0.007500  0.882500  1.0  0.69
  C  C68  1  0.331800  0.014400  0.806700  1.0  -0.1249
  C  C69  1  0.403500  0.048500  0.824500  1.0  -0.065
  C  C70  1  0.516000  0.053600  0.754400  1.0  -0.0535
  C  C71  1  0.557000  0.029800  0.663800  1.0  -0.1982
  C  C72  1  0.484100  0.986100  0.651100  1.0  -0.0579
  C  C73  1  0.373600  0.983000  0.717300  1.0  -0.0656
  C  C74  1  0.678300  0.038500  0.585100  1.0  0.6528
  C  C75  1  0.917300  0.036900  0.721000  1.0  0.4757
  C  C76  1  0.832400  0.111400  0.756900  1.0  -0.4554
  N  N77  1  0.025000  0.949000  0.624100  1.0  -0.3682
  N  N78  1  0.051000  0.975000  0.375900  1.0  -0.3678
  N  N79  1  0.975000  0.051000  0.375900  1.0  -0.3675
  N  N80  1  0.949000  0.025000  0.624100  1.0  -0.3671
  N  N81  1  0.972200  0.972200  0.782300  1.0  -0.4868
  N  N82  1  0.027800  0.027800  0.217700  1.0  -0.486
  O  O83  1  0.022100  0.177500  0.971800  1.0  -0.5995
  O  O84  1  0.987900  0.147700  0.850900  1.0  -0.6168
  O  O85  1  0.082700  0.736700  0.592400  1.0  -0.537
  O  O86  1  0.989100  0.714300  0.523200  1.0  -0.5747
  O  O87  1  0.822500  0.977900  0.028200  1.0  -0.6008
  O  O88  1  0.852300  0.012100  0.149100  1.0  -0.6179
  O  O89  1  0.263300  0.917300  0.407600  1.0  -0.5367
  O  O90  1  0.285700  0.010900  0.476800  1.0  -0.5765
  O  O91  1  0.977900  0.822500  0.028200  1.0  -0.6013
  O  O92  1  0.012100  0.852300  0.149100  1.0  -0.6166
  O  O93  1  0.917300  0.263300  0.407600  1.0  -0.5372
  O  O94  1  0.010900  0.285700  0.476800  1.0  -0.5742
  O  O95  1  0.177500  0.022100  0.971800  1.0  -0.6008
  O  O96  1  0.147700  0.987900  0.850900  1.0  -0.6182
  O  O97  1  0.736700  0.082700  0.592400  1.0  -0.5375
  O  O98  1  0.714300  0.989100  0.523200  1.0  -0.5754
