# generated using pymatgen
data_Zn2H16C20N3O8
_symmetry_space_group_name_H-M   'P 1'
_cell_length_a   14.05990000
_cell_length_b   14.05990000
_cell_length_c   14.35000000
_cell_angle_alpha   60.97540000
_cell_angle_beta   60.97540000
_cell_angle_gamma   83.89110000
_symmetry_Int_Tables_number   1
_chemical_formula_structural   Zn2H16C20N3O8
_chemical_formula_sum   'Zn4 H32 C40 N6 O16'
_cell_volume   2137.85669225
_cell_formula_units_Z   2
loop_
 _symmetry_equiv_pos_site_id
 _symmetry_equiv_pos_as_xyz
  1  'x, y, z'
loop_
 _atom_site_type_symbol
 _atom_site_label
 _atom_site_symmetry_multiplicity
 _atom_site_fract_x
 _atom_site_fract_y
 _atom_site_fract_z
 _atom_site_occupancy
 _atom_site_charge
  Zn  Zn1  1  0.980250  0.980250  0.915710  1.0  0.947
  Zn  Zn2  1  0.019750  0.019750  0.084290  1.0  0.9477
  Zn  Zn3  1  0.900490  0.099510  0.500000  1.0  0.8784
  Zn  Zn4  1  0.099510  0.900490  0.500000  1.0  0.8786
  H  H5  1  0.623000  0.935200  0.115700  1.0  0.1028
  H  H6  1  0.433300  0.916700  0.239200  1.0  0.1034
  H  H7  1  0.492400  0.036200  0.409900  1.0  0.0832
  H  H8  1  0.679500  0.033500  0.302500  1.0  0.0862
  H  H9  1  0.764200  0.066000  0.790500  1.0  0.1468
  H  H10  1  0.854900  0.172100  0.692500  1.0  0.1306
  H  H11  1  0.837300  0.102900  0.825900  1.0  0.1565
  H  H12  1  0.275200  0.068600  0.492800  1.0  0.4664
  H  H13  1  0.064800  0.377000  0.884300  1.0  0.1023
  H  H14  1  0.083300  0.566700  0.760800  1.0  0.1018
  H  H15  1  0.963800  0.507600  0.590100  1.0  0.0836
  H  H16  1  0.966500  0.320500  0.697500  1.0  0.0872
  H  H17  1  0.934000  0.235800  0.209500  1.0  0.146
  H  H18  1  0.827900  0.145100  0.307500  1.0  0.1337
  H  H19  1  0.897100  0.162700  0.174100  1.0  0.1541
  H  H20  1  0.931400  0.724800  0.507200  1.0  0.4659
  H  H21  1  0.377000  0.064800  0.884300  1.0  0.1029
  H  H22  1  0.566700  0.083300  0.760800  1.0  0.1013
  H  H23  1  0.507600  0.963800  0.590100  1.0  0.0832
  H  H24  1  0.320500  0.966500  0.697500  1.0  0.0866
  H  H25  1  0.235800  0.934000  0.209500  1.0  0.148
  H  H26  1  0.145100  0.827900  0.307500  1.0  0.1329
  H  H27  1  0.162700  0.897100  0.174100  1.0  0.1519
  H  H28  1  0.724800  0.931400  0.507200  1.0  0.4684
  H  H29  1  0.935200  0.623000  0.115700  1.0  0.1027
  H  H30  1  0.916700  0.433300  0.239200  1.0  0.1036
  H  H31  1  0.036200  0.492400  0.409900  1.0  0.0829
  H  H32  1  0.033500  0.679500  0.302500  1.0  0.0865
  H  H33  1  0.066000  0.764200  0.790500  1.0  0.1488
  H  H34  1  0.172100  0.854900  0.692500  1.0  0.1299
  H  H35  1  0.102900  0.837300  0.825900  1.0  0.1549
  H  H36  1  0.068600  0.275200  0.492800  1.0  0.4608
  C  C37  1  0.790800  0.987000  0.125700  1.0  0.7025
  C  C38  1  0.669400  0.984600  0.198700  1.0  -0.1295
  C  C39  1  0.596600  0.952400  0.178000  1.0  -0.0557
  C  C40  1  0.482200  0.944800  0.249600  1.0  -0.0607
  C  C41  1  0.443400  0.978400  0.333400  1.0  -0.1805
  C  C42  1  0.517900  0.012900  0.352500  1.0  -0.0634
  C  C43  1  0.630800  0.013400  0.286200  1.0  -0.058
  C  C44  1  0.320600  0.971400  0.410100  1.0  0.6928
  C  C45  1  0.918500  0.031100  0.722800  1.0  0.4675
  C  C46  1  0.836500  0.099100  0.761300  1.0  -0.4576
  C  C47  1  0.013000  0.209200  0.874300  1.0  0.7025
  C  C48  1  0.015400  0.330600  0.801300  1.0  -0.1311
  C  C49  1  0.047600  0.403400  0.822000  1.0  -0.0542
  C  C50  1  0.055200  0.517800  0.750400  1.0  -0.0592
  C  C51  1  0.021600  0.556600  0.666667  1.0  -0.1777
  C  C52  1  0.987100  0.482100  0.647500  1.0  -0.0656
  C  C53  1  0.986600  0.369200  0.713800  1.0  -0.0579
  C  C54  1  0.028600  0.679400  0.589900  1.0  0.6923
  C  C55  1  0.968900  0.081500  0.277200  1.0  0.4675
  C  C56  1  0.900900  0.163500  0.238700  1.0  -0.4598
  C  C57  1  0.209200  0.013000  0.874300  1.0  0.7025
  C  C58  1  0.330600  0.015400  0.801300  1.0  -0.1306
  C  C59  1  0.403400  0.047600  0.822000  1.0  -0.0555
  C  C60  1  0.517800  0.055200  0.750400  1.0  -0.0591
  C  C61  1  0.556600  0.021600  0.666667  1.0  -0.1774
  C  C62  1  0.482100  0.987100  0.647500  1.0  -0.0644
  C  C63  1  0.369200  0.986600  0.713800  1.0  -0.0575
  C  C64  1  0.679400  0.028600  0.589900  1.0  0.6919
  C  C65  1  0.081500  0.968900  0.277200  1.0  0.4652
  C  C66  1  0.163500  0.900900  0.238700  1.0  -0.4586
  C  C67  1  0.987000  0.790800  0.125700  1.0  0.7017
  C  C68  1  0.984600  0.669400  0.198700  1.0  -0.1313
  C  C69  1  0.952400  0.596600  0.178000  1.0  -0.0555
  C  C70  1  0.944800  0.482200  0.249600  1.0  -0.0617
  C  C71  1  0.978400  0.443400  0.333400  1.0  -0.1814
  C  C72  1  0.012900  0.517900  0.352500  1.0  -0.0655
  C  C73  1  0.013400  0.630800  0.286200  1.0  -0.0584
  C  C74  1  0.971400  0.320600  0.410100  1.0  0.6924
  C  C75  1  0.031100  0.918500  0.722800  1.0  0.4653
  C  C76  1  0.099100  0.836500  0.761300  1.0  -0.4597
  N  N77  1  0.948600  0.022800  0.625300  1.0  -0.3645
  N  N78  1  0.977200  0.051400  0.374700  1.0  -0.3654
  N  N79  1  0.051400  0.977200  0.374700  1.0  -0.366
  N  N80  1  0.022800  0.948600  0.625300  1.0  -0.3651
  N  N81  1  0.969800  0.969800  0.784200  1.0  -0.5011
  N  N82  1  0.030200  0.030200  0.215800  1.0  -0.4997
  O  O83  1  0.821400  0.973200  0.035000  1.0  -0.6161
  O  O84  1  0.851200  0.002600  0.158000  1.0  -0.6093
  O  O85  1  0.257900  0.927900  0.401500  1.0  -0.5563
  O  O86  1  0.289000  0.016600  0.474600  1.0  -0.6474
  O  O87  1  0.026800  0.178600  0.965000  1.0  -0.6132
  O  O88  1  0.997400  0.148800  0.842000  1.0  -0.6098
  O  O89  1  0.072100  0.742100  0.598500  1.0  -0.5539
  O  O90  1  0.983400  0.711000  0.525400  1.0  -0.6444
  O  O91  1  0.178600  0.026800  0.965000  1.0  -0.616
  O  O92  1  0.148800  0.997400  0.842000  1.0  -0.6096
  O  O93  1  0.742100  0.072100  0.598500  1.0  -0.556
  O  O94  1  0.711000  0.983400  0.525400  1.0  -0.6474
  O  O95  1  0.973200  0.821400  0.035000  1.0  -0.6151
  O  O96  1  0.002600  0.851200  0.158000  1.0  -0.609
  O  O97  1  0.927900  0.257900  0.401500  1.0  -0.5556
  O  O98  1  0.016600  0.289000  0.474600  1.0  -0.6432
