# generated using pymatgen
data_ZnH5C7NO3
_symmetry_space_group_name_H-M   'P 1'
_cell_length_a   15.98270000
_cell_length_b   16.39940000
_cell_length_c   6.24180000
_cell_angle_alpha   90.00000000
_cell_angle_beta   90.00000000
_cell_angle_gamma   90.00000000
_symmetry_Int_Tables_number   1
_chemical_formula_structural   ZnH5C7NO3
_chemical_formula_sum   'Zn8 H40 C56 N8 O24'
_cell_volume   1636.01754001
_cell_formula_units_Z   8
loop_
 _symmetry_equiv_pos_site_id
 _symmetry_equiv_pos_as_xyz
  1  'x, y, z'
loop_
 _atom_site_type_symbol
 _atom_site_label
 _atom_site_symmetry_multiplicity
 _atom_site_fract_x
 _atom_site_fract_y
 _atom_site_fract_z
 _atom_site_occupancy
 _atom_site_charge
  Zn  Zn1  1  0.895220  0.649110  0.954460  1.0  0.9404
  Zn  Zn2  1  0.845130  0.597210  0.455400  1.0  0.9298
  Zn  Zn3  1  0.104780  0.350890  0.954460  1.0  0.9421
  Zn  Zn4  1  0.154870  0.402790  0.455400  1.0  0.9318
  Zn  Zn5  1  0.395220  0.850890  0.954460  1.0  0.9403
  Zn  Zn6  1  0.345130  0.902790  0.455400  1.0  0.9302
  Zn  Zn7  1  0.604780  0.149110  0.954460  1.0  0.942
  Zn  Zn8  1  0.654870  0.097210  0.455400  1.0  0.9314
  H  H9  1  0.046000  0.575600  0.288900  1.0  0.1156
  H  H10  1  0.009600  0.639600  0.450900  1.0  0.1162
  H  H11  1  0.138000  0.730000  0.380600  1.0  0.1073
  H  H12  1  0.141000  0.845500  0.813700  1.0  0.1296
  H  H13  1  0.024100  0.772100  0.716700  1.0  0.079
  H  H14  1  0.863800  0.484700  0.951000  1.0  0.1159
  H  H15  1  0.931900  0.454500  0.788400  1.0  0.1082
  H  H16  1  0.783400  0.351900  0.873600  1.0  0.1075
  H  H17  1  0.659500  0.347300  0.313500  1.0  0.1262
  H  H18  1  0.729300  0.464700  0.216700  1.0  0.0754
  H  H19  1  0.954000  0.424400  0.288900  1.0  0.1145
  H  H20  1  0.990400  0.360400  0.450900  1.0  0.1162
  H  H21  1  0.862000  0.270000  0.380600  1.0  0.1065
  H  H22  1  0.859000  0.154500  0.813700  1.0  0.1292
  H  H23  1  0.975900  0.227900  0.716700  1.0  0.0794
  H  H24  1  0.136200  0.515300  0.951000  1.0  0.1156
  H  H25  1  0.068100  0.545500  0.788400  1.0  0.1082
  H  H26  1  0.216600  0.648100  0.873600  1.0  0.1076
  H  H27  1  0.340500  0.652700  0.313500  1.0  0.1264
  H  H28  1  0.270700  0.535300  0.216700  1.0  0.0756
  H  H29  1  0.546000  0.924400  0.288900  1.0  0.115
  H  H30  1  0.509600  0.860400  0.450900  1.0  0.1167
  H  H31  1  0.638000  0.770000  0.380600  1.0  0.1068
  H  H32  1  0.641000  0.654500  0.813700  1.0  0.1291
  H  H33  1  0.524100  0.727900  0.716700  1.0  0.0793
  H  H34  1  0.363800  0.015300  0.951000  1.0  0.1158
  H  H35  1  0.431900  0.045500  0.788400  1.0  0.1079
  H  H36  1  0.283400  0.148100  0.873600  1.0  0.1072
  H  H37  1  0.159500  0.152700  0.313500  1.0  0.126
  H  H38  1  0.229300  0.035300  0.216700  1.0  0.0756
  H  H39  1  0.454000  0.075600  0.288900  1.0  0.1148
  H  H40  1  0.490400  0.139600  0.450900  1.0  0.1159
  H  H41  1  0.362000  0.230000  0.380600  1.0  0.1072
  H  H42  1  0.359000  0.345500  0.813700  1.0  0.1297
  H  H43  1  0.475900  0.272100  0.716700  1.0  0.079
  H  H44  1  0.636200  0.984700  0.951000  1.0  0.1155
  H  H45  1  0.568100  0.954500  0.788400  1.0  0.1086
  H  H46  1  0.716600  0.851900  0.873600  1.0  0.1077
  H  H47  1  0.840500  0.847300  0.313500  1.0  0.1264
  H  H48  1  0.770700  0.964700  0.216700  1.0  0.0762
  C  C49  1  0.011000  0.623700  0.301200  1.0  -0.0324
  C  C50  1  0.048700  0.692200  0.170200  1.0  0.2601
  C  C51  1  0.116100  0.738900  0.244600  1.0  -0.0908
  C  C52  1  0.149300  0.798000  0.114100  1.0  -0.1475
  C  C53  1  0.116900  0.808600  0.908600  1.0  -0.1114
  C  C54  1  0.048200  0.763000  0.850200  1.0  0.1639
  C  C55  1  0.221400  0.850300  0.191600  1.0  0.6616
  C  C56  1  0.880100  0.485000  0.801300  1.0  -0.0318
  C  C57  1  0.813200  0.443900  0.670300  1.0  0.245
  C  C58  1  0.771500  0.374200  0.740200  1.0  -0.0859
  C  C59  1  0.712400  0.338900  0.609300  1.0  -0.1632
  C  C60  1  0.697300  0.371800  0.407100  1.0  -0.1095
  C  C61  1  0.739900  0.441600  0.350000  1.0  0.168
  C  C62  1  0.662600  0.266100  0.687400  1.0  0.6572
  C  C63  1  0.989000  0.376300  0.301200  1.0  -0.0334
  C  C64  1  0.951300  0.307800  0.170200  1.0  0.2596
  C  C65  1  0.883900  0.261100  0.244600  1.0  -0.0906
  C  C66  1  0.850700  0.202000  0.114100  1.0  -0.1464
  C  C67  1  0.883100  0.191400  0.908600  1.0  -0.1131
  C  C68  1  0.951800  0.237000  0.850200  1.0  0.163
  C  C69  1  0.778600  0.149700  0.191600  1.0  0.6621
  C  C70  1  0.119900  0.515000  0.801300  1.0  -0.0315
  C  C71  1  0.186800  0.556100  0.670300  1.0  0.2462
  C  C72  1  0.228500  0.625800  0.740200  1.0  -0.0854
  C  C73  1  0.287600  0.661100  0.609300  1.0  -0.1645
  C  C74  1  0.302700  0.628200  0.407100  1.0  -0.1099
  C  C75  1  0.260100  0.558400  0.350000  1.0  0.169
  C  C76  1  0.337400  0.733900  0.687400  1.0  0.6568
  C  C77  1  0.511000  0.876300  0.301200  1.0  -0.0325
  C  C78  1  0.548700  0.807800  0.170200  1.0  0.2596
  C  C79  1  0.616100  0.761100  0.244600  1.0  -0.091
  C  C80  1  0.649300  0.702000  0.114100  1.0  -0.1467
  C  C81  1  0.616900  0.691400  0.908600  1.0  -0.113
  C  C82  1  0.548200  0.737000  0.850200  1.0  0.1636
  C  C83  1  0.721400  0.649700  0.191600  1.0  0.6613
  C  C84  1  0.380100  0.015000  0.801300  1.0  -0.0317
  C  C85  1  0.313200  0.056100  0.670300  1.0  0.2451
  C  C86  1  0.271500  0.125800  0.740200  1.0  -0.0857
  C  C87  1  0.212400  0.161100  0.609300  1.0  -0.1635
  C  C88  1  0.197300  0.128200  0.407100  1.0  -0.1103
  C  C89  1  0.239900  0.058400  0.350000  1.0  0.1677
  C  C90  1  0.162600  0.233900  0.687400  1.0  0.6568
  C  C91  1  0.489000  0.123700  0.301200  1.0  -0.0332
  C  C92  1  0.451300  0.192200  0.170200  1.0  0.2601
  C  C93  1  0.383900  0.238900  0.244600  1.0  -0.0901
  C  C94  1  0.350700  0.298000  0.114100  1.0  -0.1469
  C  C95  1  0.383100  0.308600  0.908600  1.0  -0.1112
  C  C96  1  0.451800  0.263000  0.850200  1.0  0.163
  C  C97  1  0.278600  0.350300  0.191600  1.0  0.6614
  C  C98  1  0.619900  0.985000  0.801300  1.0  -0.032
  C  C99  1  0.686800  0.943900  0.670300  1.0  0.2467
  C  C100  1  0.728500  0.874200  0.740200  1.0  -0.0851
  C  C101  1  0.787600  0.838900  0.609300  1.0  -0.1641
  C  C102  1  0.802700  0.871800  0.407100  1.0  -0.1089
  C  C103  1  0.760100  0.941600  0.350000  1.0  0.1693
  C  C104  1  0.837400  0.766100  0.687400  1.0  0.6571
  N  N105  1  0.014680  0.705830  0.978700  1.0  -0.3068
  N  N106  1  0.795970  0.477560  0.478800  1.0  -0.3058
  N  N107  1  0.985320  0.294170  0.978700  1.0  -0.3065
  N  N108  1  0.204030  0.522440  0.478800  1.0  -0.3053
  N  N109  1  0.514680  0.794170  0.978700  1.0  -0.3063
  N  N110  1  0.295970  0.022440  0.478800  1.0  -0.304
  N  N111  1  0.485320  0.205830  0.978700  1.0  -0.3078
  N  N112  1  0.704030  0.977560  0.478800  1.0  -0.3063
  O  O113  1  0.929600  0.604480  0.233500  1.0  -0.6466
  O  O114  1  0.236700  0.847400  0.390500  1.0  -0.5983
  O  O115  1  0.261300  0.891560  0.060900  1.0  -0.6297
  O  O116  1  0.893760  0.566080  0.734600  1.0  -0.634
  O  O117  1  0.667300  0.250500  0.885900  1.0  -0.5905
  O  O118  1  0.618900  0.228060  0.557800  1.0  -0.6239
  O  O119  1  0.070400  0.395520  0.233500  1.0  -0.6447
  O  O120  1  0.763300  0.152600  0.390500  1.0  -0.5983
  O  O121  1  0.738700  0.108440  0.060900  1.0  -0.6294
  O  O122  1  0.106240  0.433920  0.734600  1.0  -0.6354
  O  O123  1  0.332700  0.749500  0.885900  1.0  -0.5905
  O  O124  1  0.381100  0.771940  0.557800  1.0  -0.6241
  O  O125  1  0.429600  0.895520  0.233500  1.0  -0.6461
  O  O126  1  0.736700  0.652600  0.390500  1.0  -0.5981
  O  O127  1  0.761300  0.608440  0.060900  1.0  -0.6308
  O  O128  1  0.393760  0.933920  0.734600  1.0  -0.6348
  O  O129  1  0.167300  0.249500  0.885900  1.0  -0.5907
  O  O130  1  0.118900  0.271940  0.557800  1.0  -0.6239
  O  O131  1  0.570400  0.104480  0.233500  1.0  -0.645
  O  O132  1  0.263300  0.347400  0.390500  1.0  -0.5987
  O  O133  1  0.238700  0.391560  0.060900  1.0  -0.6281
  O  O134  1  0.606240  0.066080  0.734600  1.0  -0.6347
  O  O135  1  0.832700  0.750500  0.885900  1.0  -0.5904
  O  O136  1  0.881100  0.728060  0.557800  1.0  -0.6242
