# generated using pymatgen
data_K2Eu2H12C32O19
_symmetry_space_group_name_H-M   'P 1'
_cell_length_a   11.07200000
_cell_length_b   12.67600000
_cell_length_c   16.02200000
_cell_angle_alpha   100.29100000
_cell_angle_beta   105.88400000
_cell_angle_gamma   95.92700000
_symmetry_Int_Tables_number   1
_chemical_formula_structural   K2Eu2H12C32O19
_chemical_formula_sum   'K4 Eu4 H24 C64 O38'
_cell_volume   2100.32883573
_cell_formula_units_Z   2
loop_
 _symmetry_equiv_pos_site_id
 _symmetry_equiv_pos_as_xyz
  1  'x, y, z'
loop_
 _atom_site_type_symbol
 _atom_site_label
 _atom_site_symmetry_multiplicity
 _atom_site_fract_x
 _atom_site_fract_y
 _atom_site_fract_z
 _atom_site_occupancy
 _atom_site_charge
  K  K1  1  0.231600  0.009000  0.557800  1.0  0.9471
  K  K2  1  0.717700  0.478000  0.055100  1.0  0.9489
  K  K3  1  0.768400  0.991000  0.442200  1.0  0.9476
  K  K4  1  0.282300  0.522000  0.944900  1.0  0.9478
  Eu  Eu5  1  0.001830  0.758740  0.382510  1.0  2.1283
  Eu  Eu6  1  0.442080  0.258770  0.872040  1.0  2.1359
  Eu  Eu7  1  0.998170  0.241260  0.617490  1.0  2.1291
  Eu  Eu8  1  0.557920  0.741230  0.127960  1.0  2.1354
  H  H9  1  0.046600  0.985800  0.190800  1.0  0.1133
  H  H10  1  0.029300  0.332700  0.332200  1.0  0.1086
  H  H11  1  0.063800  0.304900  0.191400  1.0  0.1395
  H  H12  1  0.852200  0.149800  0.046400  1.0  0.1195
  H  H13  1  0.864100  0.247100  0.821800  1.0  0.1185
  H  H14  1  0.183200  0.194100  0.993500  1.0  0.1187
  H  H15  1  0.564200  0.483000  0.692100  1.0  0.113
  H  H16  1  0.615800  0.835200  0.852300  1.0  0.1044
  H  H17  1  0.638800  0.806400  0.710500  1.0  0.1388
  H  H18  1  0.411900  0.677300  0.563300  1.0  0.1172
  H  H19  1  0.435900  0.760900  0.337800  1.0  0.1123
  H  H20  1  0.733000  0.660300  0.493300  1.0  0.127
  H  H21  1  0.953400  0.014200  0.809200  1.0  0.1138
  H  H22  1  0.970700  0.667300  0.667800  1.0  0.1081
  H  H23  1  0.936200  0.695100  0.808600  1.0  0.1394
  H  H24  1  0.147800  0.850200  0.953600  1.0  0.1186
  H  H25  1  0.135900  0.752900  0.178200  1.0  0.1177
  H  H26  1  0.816800  0.805900  0.006500  1.0  0.1193
  H  H27  1  0.435800  0.517000  0.307900  1.0  0.1134
  H  H28  1  0.384200  0.164800  0.147700  1.0  0.1039
  H  H29  1  0.361200  0.193600  0.289500  1.0  0.138
  H  H30  1  0.588100  0.322700  0.436700  1.0  0.1168
  H  H31  1  0.564100  0.239100  0.662200  1.0  0.1123
  H  H32  1  0.267000  0.339700  0.506700  1.0  0.1267
  C  C33  1  0.060600  0.141100  0.179500  1.0  0.3072
  C  C34  1  0.046400  0.056200  0.219800  1.0  -0.1281
  C  C35  1  0.031800  0.075700  0.304300  1.0  -0.0392
  C  C36  1  0.028400  0.177500  0.347100  1.0  -0.1537
  C  C37  1  0.036500  0.263600  0.304400  1.0  -0.0193
  C  C38  1  0.055300  0.247500  0.219400  1.0  -0.2114
  C  C39  1  0.016600  0.975000  0.340900  1.0  0.7337
  C  C40  1  0.013300  0.201700  0.438400  1.0  0.6489
  C  C41  1  0.026200  0.162100  0.028600  1.0  0.3225
  C  C42  1  0.897300  0.166800  0.008100  1.0  -0.1107
  C  C43  1  0.835400  0.197200  0.930100  1.0  -0.0985
  C  C44  1  0.904700  0.227400  0.874400  1.0  -0.0598
  C  C45  1  0.034800  0.227300  0.899200  1.0  -0.0982
  C  C46  1  0.095800  0.194100  0.977300  1.0  -0.0218
  C  C47  1  0.695400  0.205400  0.908600  1.0  0.7128
  C  C48  1  0.112700  0.263900  0.842900  1.0  0.7185
  C  C49  1  0.608300  0.640000  0.690600  1.0  0.2615
  C  C50  1  0.574500  0.553600  0.724600  1.0  -0.1341
  C  C51  1  0.555800  0.572400  0.807900  1.0  -0.0523
  C  C52  1  0.569800  0.679500  0.856600  1.0  -0.1578
  C  C53  1  0.603700  0.764500  0.819700  1.0  -0.0107
  C  C54  1  0.620500  0.748400  0.735700  1.0  -0.211
  C  C55  1  0.524300  0.472400  0.839700  1.0  0.7024
  C  C56  1  0.560300  0.700400  0.947200  1.0  0.6865
  C  C57  1  0.579900  0.660900  0.540900  1.0  0.3075
  C  C58  1  0.457600  0.684900  0.523300  1.0  -0.0737
  C  C59  1  0.402500  0.720100  0.446500  1.0  -0.1038
  C  C60  1  0.472300  0.736300  0.388800  1.0  -0.052
  C  C61  1  0.596300  0.716000  0.407200  1.0  -0.151
  C  C62  1  0.650700  0.676400  0.482200  1.0  -0.1199
  C  C63  1  0.268100  0.741900  0.427800  1.0  0.7106
  C  C64  1  0.675600  0.738000  0.347500  1.0  0.6958
  C  C65  1  0.939400  0.858900  0.820500  1.0  0.3087
  C  C66  1  0.953600  0.943800  0.780200  1.0  -0.1292
  C  C67  1  0.968200  0.924300  0.695700  1.0  -0.0397
  C  C68  1  0.971600  0.822500  0.652900  1.0  -0.1556
  C  C69  1  0.963500  0.736400  0.695600  1.0  -0.0199
  C  C70  1  0.944700  0.752500  0.780600  1.0  -0.21
  C  C71  1  0.983400  0.025000  0.659100  1.0  0.7329
  C  C72  1  0.986700  0.798300  0.561600  1.0  0.6468
  C  C73  1  0.973800  0.837900  0.971400  1.0  0.3226
  C  C74  1  0.102700  0.833200  0.991900  1.0  -0.1112
  C  C75  1  0.164600  0.802800  0.069900  1.0  -0.0974
  C  C76  1  0.095300  0.772600  0.125600  1.0  -0.0603
  C  C77  1  0.965200  0.772700  0.100800  1.0  -0.0991
  C  C78  1  0.904200  0.805900  0.022700  1.0  -0.0231
  C  C79  1  0.304600  0.794600  0.091400  1.0  0.7133
  C  C80  1  0.887300  0.736100  0.157100  1.0  0.7171
  C  C81  1  0.391700  0.360000  0.309400  1.0  0.2621
  C  C82  1  0.425500  0.446400  0.275400  1.0  -0.135
  C  C83  1  0.444200  0.427600  0.192100  1.0  -0.0531
  C  C84  1  0.430200  0.320500  0.143400  1.0  -0.1599
  C  C85  1  0.396300  0.235500  0.180300  1.0  -0.0111
  C  C86  1  0.379500  0.251600  0.264300  1.0  -0.2116
  C  C87  1  0.475700  0.527600  0.160300  1.0  0.7029
  C  C88  1  0.439700  0.299600  0.052800  1.0  0.6861
  C  C89  1  0.420100  0.339100  0.459100  1.0  0.3082
  C  C90  1  0.542400  0.315100  0.476700  1.0  -0.0764
  C  C91  1  0.597500  0.279900  0.553500  1.0  -0.1043
  C  C92  1  0.527700  0.263700  0.611200  1.0  -0.0512
  C  C93  1  0.403700  0.284000  0.592800  1.0  -0.1513
  C  C94  1  0.349300  0.323600  0.517800  1.0  -0.1208
  C  C95  1  0.731900  0.258100  0.572200  1.0  0.7116
  C  C96  1  0.324400  0.262000  0.652500  1.0  0.6962
  O  O97  1  0.088900  0.120500  0.100300  1.0  -0.2365
  O  O98  1  0.904500  0.924500  0.329600  1.0  -0.7353
  O  O99  1  0.112300  0.936700  0.376200  1.0  -0.7034
  O  O100  1  0.006900  0.297700  0.474600  1.0  -0.6515
  O  O101  1  0.011900  0.123300  0.479500  1.0  -0.7217
  O  O102  1  0.625300  0.181400  0.829500  1.0  -0.6347
  O  O103  1  0.653100  0.243800  0.971500  1.0  -0.7505
  O  O104  1  0.230700  0.276800  0.873300  1.0  -0.7526
  O  O105  1  0.055000  0.283500  0.770100  1.0  -0.7302
  O  O106  1  0.635700  0.615600  0.609900  1.0  -0.2517
  O  O107  1  0.403800  0.437600  0.828500  1.0  -0.7557
  O  O108  1  0.603900  0.417600  0.870100  1.0  -0.654
  O  O109  1  0.536100  0.623600  0.982700  1.0  -0.7384
  O  O110  1  0.577400  0.798600  0.991100  1.0  -0.6773
  O  O111  1  0.220800  0.776800  0.487700  1.0  -0.6896
  O  O112  1  0.202200  0.724600  0.346200  1.0  -0.6595
  O  O113  1  0.785600  0.712000  0.364400  1.0  -0.7108
  O  O114  1  0.627200  0.776700  0.283700  1.0  -0.7145
  O  O115  1  0.444000  0.998000  0.496000  1.0  -0.6153
  O  O116  1  0.911100  0.879500  0.899700  1.0  -0.2391
  O  O117  1  0.095500  0.075500  0.670400  1.0  -0.7351
  O  O118  1  0.887700  0.063300  0.623800  1.0  -0.705
  O  O119  1  0.993100  0.702300  0.525400  1.0  -0.652
  O  O120  1  0.988100  0.876700  0.520500  1.0  -0.7193
  O  O121  1  0.374700  0.818600  0.170500  1.0  -0.6366
  O  O122  1  0.346900  0.756200  0.028500  1.0  -0.749
  O  O123  1  0.769300  0.723200  0.126700  1.0  -0.7537
  O  O124  1  0.945000  0.716500  0.229900  1.0  -0.7308
  O  O125  1  0.364300  0.384400  0.390100  1.0  -0.2516
  O  O126  1  0.596200  0.562400  0.171500  1.0  -0.7536
  O  O127  1  0.396100  0.582400  0.129900  1.0  -0.6523
  O  O128  1  0.463900  0.376400  0.017300  1.0  -0.7393
  O  O129  1  0.422600  0.201400  0.008900  1.0  -0.6784
  O  O130  1  0.779200  0.223200  0.512300  1.0  -0.6895
  O  O131  1  0.797800  0.275400  0.653800  1.0  -0.66
  O  O132  1  0.214400  0.288000  0.635600  1.0  -0.7094
  O  O133  1  0.372800  0.223300  0.716300  1.0  -0.7138
  O  O134  1  0.556000  0.002000  0.504000  1.0  -0.6161
