# generated using pymatgen
data_Eu3H14(C17O10)2
_symmetry_space_group_name_H-M   'P 1'
_cell_length_a   23.05990000
_cell_length_b   11.00500000
_cell_length_c   20.94970000
_cell_angle_alpha   90.00000000
_cell_angle_beta   106.36900000
_cell_angle_gamma   90.00000000
_symmetry_Int_Tables_number   1
_chemical_formula_structural   Eu3H14(C17O10)2
_chemical_formula_sum   'Eu12 H56 C136 O80'
_cell_volume   5100.99777216
_cell_formula_units_Z   4
loop_
 _symmetry_equiv_pos_site_id
 _symmetry_equiv_pos_as_xyz
  1  'x, y, z'
loop_
 _atom_site_type_symbol
 _atom_site_label
 _atom_site_symmetry_multiplicity
 _atom_site_fract_x
 _atom_site_fract_y
 _atom_site_fract_z
 _atom_site_occupancy
 _atom_site_charge
  Eu  Eu1  1  0.640380  0.820250  0.858200  1.0  2.1372
  Eu  Eu2  1  0.140380  0.320250  0.858200  1.0  2.1372
  Eu  Eu3  1  0.359620  0.820250  0.641800  1.0  2.1384
  Eu  Eu4  1  0.859620  0.320250  0.641800  1.0  2.1384
  Eu  Eu5  1  0.359620  0.179750  0.141800  1.0  2.1379
  Eu  Eu6  1  0.859620  0.679750  0.141800  1.0  2.1379
  Eu  Eu7  1  0.640380  0.179750  0.358200  1.0  2.137
  Eu  Eu8  1  0.140380  0.679750  0.358200  1.0  2.137
  Eu  Eu9  1  0.500000  0.638790  0.750000  1.0  2.1493
  Eu  Eu10  1  0.000000  0.138790  0.750000  1.0  2.1493
  Eu  Eu11  1  0.500000  0.361210  0.250000  1.0  2.1493
  Eu  Eu12  1  0.000000  0.861210  0.250000  1.0  2.1493
  H  H13  1  0.820700  0.357600  0.849200  1.0  0.1199
  H  H14  1  0.009300  0.357200  0.005600  1.0  0.1009
  H  H15  1  0.923600  0.379900  0.041200  1.0  0.1251
  H  H16  1  0.775800  0.176500  0.934500  1.0  0.1212
  H  H17  1  0.602500  0.264400  0.839500  1.0  0.1246
  H  H18  1  0.725900  0.528200  0.916900  1.0  0.1217
  H  H19  1  0.791200  0.813100  0.956700  1.0  0.1009
  H  H20  1  0.320700  0.857600  0.849200  1.0  0.1199
  H  H21  1  0.509300  0.857200  0.005600  1.0  0.1009
  H  H22  1  0.423600  0.879900  0.041200  1.0  0.1251
  H  H23  1  0.275800  0.676500  0.934500  1.0  0.1212
  H  H24  1  0.102500  0.764400  0.839500  1.0  0.1246
  H  H25  1  0.225900  0.028200  0.916900  1.0  0.1217
  H  H26  1  0.291200  0.313100  0.956700  1.0  0.1009
  H  H27  1  0.179300  0.357600  0.650800  1.0  0.1199
  H  H28  1  0.990700  0.357200  0.494400  1.0  0.1011
  H  H29  1  0.076400  0.379900  0.458800  1.0  0.1255
  H  H30  1  0.224200  0.176500  0.565500  1.0  0.1213
  H  H31  1  0.397500  0.264400  0.660500  1.0  0.1251
  H  H32  1  0.274100  0.528200  0.583100  1.0  0.1217
  H  H33  1  0.208800  0.813100  0.543300  1.0  0.1014
  H  H34  1  0.679300  0.857600  0.650800  1.0  0.1199
  H  H35  1  0.490700  0.857200  0.494400  1.0  0.1011
  H  H36  1  0.576400  0.879900  0.458800  1.0  0.1255
  H  H37  1  0.724200  0.676500  0.565500  1.0  0.1213
  H  H38  1  0.897500  0.764400  0.660500  1.0  0.1251
  H  H39  1  0.774100  0.028200  0.583100  1.0  0.1217
  H  H40  1  0.708800  0.313100  0.543300  1.0  0.1014
  H  H41  1  0.179300  0.642400  0.150800  1.0  0.1199
  H  H42  1  0.990700  0.642800  0.994400  1.0  0.1009
  H  H43  1  0.076400  0.620100  0.958800  1.0  0.1259
  H  H44  1  0.224200  0.823500  0.065500  1.0  0.1213
  H  H45  1  0.397500  0.735600  0.160500  1.0  0.1251
  H  H46  1  0.274100  0.471800  0.083100  1.0  0.1216
  H  H47  1  0.208800  0.186900  0.043300  1.0  0.1014
  H  H48  1  0.679300  0.142400  0.150800  1.0  0.1199
  H  H49  1  0.490700  0.142800  0.994400  1.0  0.1009
  H  H50  1  0.576400  0.120100  0.958800  1.0  0.1259
  H  H51  1  0.724200  0.323500  0.065500  1.0  0.1213
  H  H52  1  0.897500  0.235600  0.160500  1.0  0.1251
  H  H53  1  0.774100  0.971800  0.083100  1.0  0.1216
  H  H54  1  0.708800  0.686900  0.043300  1.0  0.1014
  H  H55  1  0.820700  0.642400  0.349200  1.0  0.1198
  H  H56  1  0.009300  0.642800  0.505600  1.0  0.1008
  H  H57  1  0.923600  0.620100  0.541200  1.0  0.1255
  H  H58  1  0.775800  0.823500  0.434500  1.0  0.1213
  H  H59  1  0.602500  0.735600  0.339500  1.0  0.1247
  H  H60  1  0.725900  0.471800  0.416900  1.0  0.1216
  H  H61  1  0.791200  0.186900  0.456700  1.0  0.1007
  H  H62  1  0.320700  0.142400  0.349200  1.0  0.1198
  H  H63  1  0.509300  0.142800  0.505600  1.0  0.1008
  H  H64  1  0.423600  0.120100  0.541200  1.0  0.1255
  H  H65  1  0.275800  0.323500  0.434500  1.0  0.1213
  H  H66  1  0.102500  0.235600  0.339500  1.0  0.1247
  H  H67  1  0.225900  0.971800  0.416900  1.0  0.1216
  H  H68  1  0.291200  0.686900  0.456700  1.0  0.1007
  C  C69  1  0.864800  0.367700  0.947400  1.0  0.3043
  C  C70  1  0.859400  0.355500  0.880800  1.0  -0.1312
  C  C71  1  0.912100  0.339600  0.859700  1.0  -0.0807
  C  C72  1  0.968900  0.334200  0.905900  1.0  -0.1386
  C  C73  1  0.970800  0.354100  0.973600  1.0  -0.0651
  C  C74  1  0.920600  0.369100  0.995400  1.0  -0.185
  C  C75  1  0.900300  0.332000  0.785300  1.0  0.7046
  C  C76  1  0.026600  0.320800  0.889300  1.0  0.7047
  C  C77  1  0.758400  0.355700  0.930200  1.0  0.3062
  C  C78  1  0.745000  0.235700  0.919400  1.0  -0.1301
  C  C79  1  0.686200  0.199200  0.886400  1.0  -0.1411
  C  C80  1  0.642800  0.287200  0.862200  1.0  -0.0492
  C  C81  1  0.658700  0.410900  0.871500  1.0  -0.1142
  C  C82  1  0.716000  0.445000  0.907700  1.0  -0.1061
  C  C83  1  0.670700  0.070100  0.878300  1.0  0.6989
  C  C84  1  0.612400  0.507900  0.842300  1.0  0.7448
  C  C85  1  0.766700  0.776300  0.981600  1.0  -0.0697
  C  C86  1  0.364800  0.867700  0.947400  1.0  0.3043
  C  C87  1  0.359400  0.855500  0.880800  1.0  -0.1312
  C  C88  1  0.412100  0.839600  0.859700  1.0  -0.0807
  C  C89  1  0.468900  0.834200  0.905900  1.0  -0.1386
  C  C90  1  0.470800  0.854100  0.973600  1.0  -0.0651
  C  C91  1  0.420600  0.869100  0.995400  1.0  -0.185
  C  C92  1  0.400300  0.832000  0.785300  1.0  0.7046
  C  C93  1  0.526600  0.820800  0.889300  1.0  0.7047
  C  C94  1  0.258400  0.855700  0.930200  1.0  0.3062
  C  C95  1  0.245000  0.735700  0.919400  1.0  -0.1301
  C  C96  1  0.186200  0.699200  0.886400  1.0  -0.1411
  C  C97  1  0.142800  0.787200  0.862200  1.0  -0.0492
  C  C98  1  0.158700  0.910900  0.871500  1.0  -0.1142
  C  C99  1  0.216000  0.945000  0.907700  1.0  -0.1061
  C  C100  1  0.170700  0.570100  0.878300  1.0  0.6989
  C  C101  1  0.112400  0.007900  0.842300  1.0  0.7448
  C  C102  1  0.266700  0.276300  0.981600  1.0  -0.0697
  C  C103  1  0.135200  0.367700  0.552600  1.0  0.3051
  C  C104  1  0.140600  0.355500  0.619200  1.0  -0.1292
  C  C105  1  0.087900  0.339600  0.640300  1.0  -0.0796
  C  C106  1  0.031100  0.334200  0.594100  1.0  -0.1381
  C  C107  1  0.029200  0.354100  0.526400  1.0  -0.0659
  C  C108  1  0.079400  0.369100  0.504600  1.0  -0.1835
  C  C109  1  0.099700  0.332000  0.714700  1.0  0.7053
  C  C110  1  0.973400  0.320800  0.610700  1.0  0.7048
  C  C111  1  0.241600  0.355700  0.569800  1.0  0.3069
  C  C112  1  0.255000  0.235700  0.580600  1.0  -0.1315
  C  C113  1  0.313800  0.199200  0.613600  1.0  -0.137
  C  C114  1  0.357200  0.287200  0.637800  1.0  -0.0451
  C  C115  1  0.341300  0.410900  0.628500  1.0  -0.116
  C  C116  1  0.284000  0.445000  0.592300  1.0  -0.1059
  C  C117  1  0.329300  0.070100  0.621700  1.0  0.699
  C  C118  1  0.387600  0.507900  0.657700  1.0  0.7457
  C  C119  1  0.233300  0.776300  0.518400  1.0  -0.0731
  C  C120  1  0.635200  0.867700  0.552600  1.0  0.3051
  C  C121  1  0.640600  0.855500  0.619200  1.0  -0.1292
  C  C122  1  0.587900  0.839600  0.640300  1.0  -0.0796
  C  C123  1  0.531100  0.834200  0.594100  1.0  -0.1381
  C  C124  1  0.529200  0.854100  0.526400  1.0  -0.0659
  C  C125  1  0.579400  0.869100  0.504600  1.0  -0.1835
  C  C126  1  0.599700  0.832000  0.714700  1.0  0.7053
  C  C127  1  0.473400  0.820800  0.610700  1.0  0.7048
  C  C128  1  0.741600  0.855700  0.569800  1.0  0.3069
  C  C129  1  0.755000  0.735700  0.580600  1.0  -0.1315
  C  C130  1  0.813800  0.699200  0.613600  1.0  -0.137
  C  C131  1  0.857200  0.787200  0.637800  1.0  -0.0451
  C  C132  1  0.841300  0.910900  0.628500  1.0  -0.116
  C  C133  1  0.784000  0.945000  0.592300  1.0  -0.1059
  C  C134  1  0.829300  0.570100  0.621700  1.0  0.699
  C  C135  1  0.887600  0.007900  0.657700  1.0  0.7457
  C  C136  1  0.733300  0.276300  0.518400  1.0  -0.0731
  C  C137  1  0.135200  0.632300  0.052600  1.0  0.3056
  C  C138  1  0.140600  0.644500  0.119200  1.0  -0.1291
  C  C139  1  0.087900  0.660400  0.140300  1.0  -0.0795
  C  C140  1  0.031100  0.665800  0.094100  1.0  -0.1382
  C  C141  1  0.029200  0.645900  0.026400  1.0  -0.0664
  C  C142  1  0.079400  0.630900  0.004600  1.0  -0.1837
  C  C143  1  0.099700  0.668000  0.214700  1.0  0.7053
  C  C144  1  0.973400  0.679200  0.110700  1.0  0.7047
  C  C145  1  0.241600  0.644300  0.069800  1.0  0.3068
  C  C146  1  0.255000  0.764300  0.080600  1.0  -0.1322
  C  C147  1  0.313800  0.800800  0.113600  1.0  -0.1388
  C  C148  1  0.357200  0.712800  0.137800  1.0  -0.045
  C  C149  1  0.341300  0.589100  0.128500  1.0  -0.1146
  C  C150  1  0.284000  0.555000  0.092300  1.0  -0.107
  C  C151  1  0.329300  0.929900  0.121700  1.0  0.6985
  C  C152  1  0.387600  0.492100  0.157700  1.0  0.7456
  C  C153  1  0.233300  0.223700  0.018400  1.0  -0.0735
  C  C154  1  0.635200  0.132300  0.052600  1.0  0.3056
  C  C155  1  0.640600  0.144500  0.119200  1.0  -0.1291
  C  C156  1  0.587900  0.160400  0.140300  1.0  -0.0795
  C  C157  1  0.531100  0.165800  0.094100  1.0  -0.1382
  C  C158  1  0.529200  0.145900  0.026400  1.0  -0.0664
  C  C159  1  0.579400  0.130900  0.004600  1.0  -0.1837
  C  C160  1  0.599700  0.168000  0.214700  1.0  0.7053
  C  C161  1  0.473400  0.179200  0.110700  1.0  0.7047
  C  C162  1  0.741600  0.144300  0.069800  1.0  0.3068
  C  C163  1  0.755000  0.264300  0.080600  1.0  -0.1322
  C  C164  1  0.813800  0.300800  0.113600  1.0  -0.1388
  C  C165  1  0.857200  0.212800  0.137800  1.0  -0.045
  C  C166  1  0.841300  0.089100  0.128500  1.0  -0.1146
  C  C167  1  0.784000  0.055000  0.092300  1.0  -0.107
  C  C168  1  0.829300  0.429900  0.121700  1.0  0.6985
  C  C169  1  0.887600  0.992100  0.157700  1.0  0.7456
  C  C170  1  0.733300  0.723700  0.018400  1.0  -0.0735
  C  C171  1  0.864800  0.632300  0.447400  1.0  0.3046
  C  C172  1  0.859400  0.644500  0.380800  1.0  -0.1312
  C  C173  1  0.912100  0.660400  0.359700  1.0  -0.0808
  C  C174  1  0.968900  0.665800  0.405900  1.0  -0.1381
  C  C175  1  0.970800  0.645900  0.473600  1.0  -0.065
  C  C176  1  0.920600  0.630900  0.495400  1.0  -0.1858
  C  C177  1  0.900300  0.668000  0.285300  1.0  0.7047
  C  C178  1  0.026600  0.679200  0.389300  1.0  0.7051
  C  C179  1  0.758400  0.644300  0.430200  1.0  0.3064
  C  C180  1  0.745000  0.764300  0.419400  1.0  -0.1305
  C  C181  1  0.686200  0.800800  0.386400  1.0  -0.139
  C  C182  1  0.642800  0.712800  0.362200  1.0  -0.0498
  C  C183  1  0.658700  0.589100  0.371500  1.0  -0.1145
  C  C184  1  0.716000  0.555000  0.407700  1.0  -0.1068
  C  C185  1  0.670700  0.929900  0.378300  1.0  0.6994
  C  C186  1  0.612400  0.492100  0.342300  1.0  0.7447
  C  C187  1  0.766700  0.223700  0.481600  1.0  -0.0704
  C  C188  1  0.364800  0.132300  0.447400  1.0  0.3046
  C  C189  1  0.359400  0.144500  0.380800  1.0  -0.1312
  C  C190  1  0.412100  0.160400  0.359700  1.0  -0.0808
  C  C191  1  0.468900  0.165800  0.405900  1.0  -0.1381
  C  C192  1  0.470800  0.145900  0.473600  1.0  -0.065
  C  C193  1  0.420600  0.130900  0.495400  1.0  -0.1858
  C  C194  1  0.400300  0.168000  0.285300  1.0  0.7047
  C  C195  1  0.526600  0.179200  0.389300  1.0  0.7051
  C  C196  1  0.258400  0.144300  0.430200  1.0  0.3064
  C  C197  1  0.245000  0.264300  0.419400  1.0  -0.1305
  C  C198  1  0.186200  0.300800  0.386400  1.0  -0.139
  C  C199  1  0.142800  0.212800  0.362200  1.0  -0.0498
  C  C200  1  0.158700  0.089100  0.371500  1.0  -0.1145
  C  C201  1  0.216000  0.055000  0.407700  1.0  -0.1068
  C  C202  1  0.170700  0.429900  0.378300  1.0  0.6994
  C  C203  1  0.112400  0.992100  0.342300  1.0  0.7447
  C  C204  1  0.266700  0.723700  0.481600  1.0  -0.0704
  O  O205  1  0.815400  0.391400  0.970300  1.0  -0.2543
  O  O206  1  0.907300  0.231900  0.757900  1.0  -0.8368
  O  O207  1  0.880300  0.421500  0.752300  1.0  -0.5807
  O  O208  1  0.076000  0.323300  0.933800  1.0  -0.6751
  O  O209  1  0.025900  0.309300  0.828000  1.0  -0.7895
  O  O210  1  0.616100  0.035600  0.868300  1.0  -0.6213
  O  O211  1  0.711600  0.991600  0.877400  1.0  -0.6179
  O  O212  1  0.568800  0.478100  0.792300  1.0  -0.6528
  O  O213  1  0.619700  0.611800  0.867100  1.0  -0.7418
  O  O214  1  0.709100  0.773600  0.960600  1.0  -0.5161
  O  O215  1  0.315400  0.891400  0.970300  1.0  -0.2543
  O  O216  1  0.407300  0.731900  0.757900  1.0  -0.8368
  O  O217  1  0.380300  0.921500  0.752300  1.0  -0.5807
  O  O218  1  0.576000  0.823300  0.933800  1.0  -0.6751
  O  O219  1  0.525900  0.809300  0.828000  1.0  -0.7895
  O  O220  1  0.116100  0.535600  0.868300  1.0  -0.6213
  O  O221  1  0.211600  0.491600  0.877400  1.0  -0.6179
  O  O222  1  0.068800  0.978100  0.792300  1.0  -0.6527
  O  O223  1  0.119700  0.111800  0.867100  1.0  -0.7418
  O  O224  1  0.209100  0.273600  0.960600  1.0  -0.5161
  O  O225  1  0.184600  0.391400  0.529700  1.0  -0.2558
  O  O226  1  0.092700  0.231900  0.742100  1.0  -0.8362
  O  O227  1  0.119700  0.421500  0.747700  1.0  -0.5817
  O  O228  1  0.924000  0.323300  0.566200  1.0  -0.6761
  O  O229  1  0.974100  0.309300  0.672000  1.0  -0.7897
  O  O230  1  0.383900  0.035600  0.631700  1.0  -0.6195
  O  O231  1  0.288400  0.991600  0.622600  1.0  -0.6156
  O  O232  1  0.431200  0.478100  0.707700  1.0  -0.6507
  O  O233  1  0.380300  0.611800  0.632900  1.0  -0.7403
  O  O234  1  0.290900  0.773600  0.539400  1.0  -0.5125
  O  O235  1  0.684600  0.891400  0.529700  1.0  -0.2558
  O  O236  1  0.592700  0.731900  0.742100  1.0  -0.8362
  O  O237  1  0.619700  0.921500  0.747700  1.0  -0.5817
  O  O238  1  0.424000  0.823300  0.566200  1.0  -0.6761
  O  O239  1  0.474100  0.809300  0.672000  1.0  -0.7897
  O  O240  1  0.883900  0.535600  0.631700  1.0  -0.6195
  O  O241  1  0.788400  0.491600  0.622600  1.0  -0.6156
  O  O242  1  0.931200  0.978100  0.707700  1.0  -0.6507
  O  O243  1  0.880300  0.111800  0.632900  1.0  -0.7403
  O  O244  1  0.790900  0.273600  0.539400  1.0  -0.5125
  O  O245  1  0.184600  0.608600  0.029700  1.0  -0.2567
  O  O246  1  0.092700  0.768100  0.242100  1.0  -0.8369
  O  O247  1  0.119700  0.578500  0.247700  1.0  -0.5821
  O  O248  1  0.924000  0.676700  0.066200  1.0  -0.6755
  O  O249  1  0.974100  0.690700  0.172000  1.0  -0.7899
  O  O250  1  0.383900  0.964400  0.131700  1.0  -0.6224
  O  O251  1  0.288400  0.008400  0.122600  1.0  -0.6147
  O  O252  1  0.431200  0.521900  0.207700  1.0  -0.65
  O  O253  1  0.380300  0.388200  0.132900  1.0  -0.7402
  O  O254  1  0.290900  0.226400  0.039400  1.0  -0.5117
  O  O255  1  0.684600  0.108600  0.029700  1.0  -0.2567
  O  O256  1  0.592700  0.268100  0.242100  1.0  -0.8369
  O  O257  1  0.619700  0.078500  0.247700  1.0  -0.5821
  O  O258  1  0.424000  0.176700  0.066200  1.0  -0.6755
  O  O259  1  0.474100  0.190700  0.172000  1.0  -0.7899
  O  O260  1  0.883900  0.464400  0.131700  1.0  -0.6224
  O  O261  1  0.788400  0.508400  0.122600  1.0  -0.6147
  O  O262  1  0.931200  0.021900  0.207700  1.0  -0.6499
  O  O263  1  0.880300  0.888200  0.132900  1.0  -0.7402
  O  O264  1  0.790900  0.726400  0.039400  1.0  -0.5117
  O  O265  1  0.815400  0.608600  0.470300  1.0  -0.255
  O  O266  1  0.907300  0.768100  0.257900  1.0  -0.8395
  O  O267  1  0.880300  0.578500  0.252300  1.0  -0.5816
  O  O268  1  0.076000  0.676700  0.433800  1.0  -0.6751
  O  O269  1  0.025900  0.690700  0.328000  1.0  -0.7897
  O  O270  1  0.616100  0.964400  0.368300  1.0  -0.6241
  O  O271  1  0.711600  0.008400  0.377400  1.0  -0.6157
  O  O272  1  0.568800  0.521900  0.292300  1.0  -0.6527
  O  O273  1  0.619700  0.388200  0.367100  1.0  -0.7413
  O  O274  1  0.709100  0.226400  0.460600  1.0  -0.5163
  O  O275  1  0.315400  0.108600  0.470300  1.0  -0.255
  O  O276  1  0.407300  0.268100  0.257900  1.0  -0.8395
  O  O277  1  0.380300  0.078500  0.252300  1.0  -0.5816
  O  O278  1  0.576000  0.176700  0.433800  1.0  -0.6751
  O  O279  1  0.525900  0.190700  0.328000  1.0  -0.7897
  O  O280  1  0.116100  0.464400  0.368300  1.0  -0.6241
  O  O281  1  0.211600  0.508400  0.377400  1.0  -0.6157
  O  O282  1  0.068800  0.021900  0.292300  1.0  -0.6527
  O  O283  1  0.119700  0.888200  0.367100  1.0  -0.7413
  O  O284  1  0.209100  0.726400  0.460600  1.0  -0.5163
