# generated using pymatgen
data_K2Tb2H12C32O19
_symmetry_space_group_name_H-M   'P 1'
_cell_length_a   11.02520000
_cell_length_b   12.60450000
_cell_length_c   16.00800000
_cell_angle_alpha   100.23700000
_cell_angle_beta   106.07000000
_cell_angle_gamma   95.72500000
_symmetry_Int_Tables_number   1
_chemical_formula_structural   K2Tb2H12C32O19
_chemical_formula_sum   'K4 Tb4 H24 C64 O38'
_cell_volume   2077.36926046
_cell_formula_units_Z   2
loop_
 _symmetry_equiv_pos_site_id
 _symmetry_equiv_pos_as_xyz
  1  'x, y, z'
loop_
 _atom_site_type_symbol
 _atom_site_label
 _atom_site_symmetry_multiplicity
 _atom_site_fract_x
 _atom_site_fract_y
 _atom_site_fract_z
 _atom_site_occupancy
 _atom_site_charge
  K  K1  1  0.731970  0.509360  0.056900  1.0  0.9445
  K  K2  1  0.781700  0.023680  0.445210  1.0  0.9441
  K  K3  1  0.268030  0.490640  0.943100  1.0  0.9442
  K  K4  1  0.218300  0.976320  0.554790  1.0  0.9438
  Tb  Tb5  1  0.059160  0.240400  0.628000  1.0  2.2406
  Tb  Tb6  1  0.502480  0.259100  0.882750  1.0  2.2376
  Tb  Tb7  1  0.940840  0.759600  0.372000  1.0  2.2405
  Tb  Tb8  1  0.497520  0.740900  0.117250  1.0  2.2383
  H  H9  1  0.450700  0.513300  0.309300  1.0  0.1077
  H  H10  1  0.464600  0.164700  0.167000  1.0  0.1045
  H  H11  1  0.439600  0.193800  0.306700  1.0  0.1411
  H  H12  1  0.650500  0.349800  0.453700  1.0  0.1169
  H  H13  1  0.637600  0.254700  0.678800  1.0  0.1125
  H  H14  1  0.317300  0.308000  0.507800  1.0  0.116
  H  H15  1  0.065300  0.983100  0.192400  1.0  0.1044
  H  H16  1  0.112100  0.337200  0.350200  1.0  0.1051
  H  H17  1  0.141500  0.305700  0.210900  1.0  0.1292
  H  H18  1  0.235200  0.160500  0.995800  1.0  0.125
  H  H19  1  0.935300  0.258800  0.835900  1.0  0.1095
  H  H20  1  0.912300  0.176800  0.063900  1.0  0.12
  H  H21  1  0.549300  0.486700  0.690700  1.0  0.1074
  H  H22  1  0.535400  0.835300  0.833000  1.0  0.1046
  H  H23  1  0.560400  0.806200  0.693300  1.0  0.1417
  H  H24  1  0.349500  0.650200  0.546300  1.0  0.1173
  H  H25  1  0.362400  0.745300  0.321200  1.0  0.1128
  H  H26  1  0.682700  0.692000  0.492200  1.0  0.1162
  H  H27  1  0.934700  0.016900  0.807600  1.0  0.105
  H  H28  1  0.887900  0.662800  0.649800  1.0  0.1048
  H  H29  1  0.858500  0.694300  0.789100  1.0  0.1289
  H  H30  1  0.764800  0.839500  0.004200  1.0  0.1245
  H  H31  1  0.064700  0.741200  0.164100  1.0  0.11
  H  H32  1  0.087700  0.823200  0.936100  1.0  0.1192
  C  C33  1  0.440700  0.356700  0.320300  1.0  0.3125
  C  C34  1  0.453200  0.443100  0.280200  1.0  -0.1389
  C  C35  1  0.469800  0.425600  0.195300  1.0  -0.0548
  C  C36  1  0.473800  0.320900  0.152400  1.0  -0.1242
  C  C37  1  0.461900  0.235100  0.195400  1.0  -0.0338
  C  C38  1  0.446300  0.251800  0.278700  1.0  -0.2787
  C  C39  1  0.486700  0.526900  0.159300  1.0  0.6977
  C  C40  1  0.486000  0.297700  0.060200  1.0  0.6605
  C  C41  1  0.476600  0.338100  0.471500  1.0  0.3209
  C  C42  1  0.604800  0.332800  0.491800  1.0  -0.0987
  C  C43  1  0.665800  0.301600  0.570300  1.0  -0.0925
  C  C44  1  0.596400  0.273400  0.625600  1.0  -0.0774
  C  C45  1  0.465400  0.273200  0.601200  1.0  -0.1162
  C  C46  1  0.404900  0.306700  0.523900  1.0  -0.1082
  C  C47  1  0.806200  0.293200  0.591700  1.0  0.7146
  C  C48  1  0.387100  0.236100  0.657600  1.0  0.7326
  C  C49  1  0.108200  0.141300  0.189900  1.0  0.2914
  C  C50  1  0.075400  0.054100  0.224700  1.0  -0.1472
  C  C51  1  0.057400  0.072900  0.309200  1.0  -0.0452
  C  C52  1  0.071800  0.179000  0.356900  1.0  -0.1247
  C  C53  1  0.103200  0.265900  0.318800  1.0  -0.0265
  C  C54  1  0.121100  0.247500  0.235600  1.0  -0.2588
  C  C55  1  0.020600  0.970800  0.340300  1.0  0.714
  C  C56  1  0.061000  0.203300  0.449500  1.0  0.6645
  C  C57  1  0.081200  0.161800  0.040100  1.0  0.3068
  C  C58  1  0.152200  0.176200  0.983400  1.0  -0.1242
  C  C59  1  0.097800  0.214800  0.906500  1.0  -0.1518
  C  C60  1  0.972700  0.235700  0.887700  1.0  -0.0408
  C  C61  1  0.903700  0.221900  0.946600  1.0  -0.0916
  C  C62  1  0.958100  0.185300  0.024000  1.0  -0.0802
  C  C63  1  0.177000  0.234500  0.846200  1.0  0.7057
  C  C64  1  0.767900  0.243100  0.925300  1.0  0.6998
  C  C65  1  0.559300  0.643300  0.679700  1.0  0.3114
  C  C66  1  0.546800  0.556900  0.719800  1.0  -0.1379
  C  C67  1  0.530200  0.574400  0.804700  1.0  -0.0547
  C  C68  1  0.526200  0.679100  0.847600  1.0  -0.1223
  C  C69  1  0.538100  0.764900  0.804600  1.0  -0.0314
  C  C70  1  0.553700  0.748200  0.721300  1.0  -0.2788
  C  C71  1  0.513300  0.473100  0.840700  1.0  0.698
  C  C72  1  0.514000  0.702300  0.939800  1.0  0.6623
  C  C73  1  0.523400  0.661900  0.528500  1.0  0.3197
  C  C74  1  0.395200  0.667200  0.508200  1.0  -0.0989
  C  C75  1  0.334200  0.698400  0.429700  1.0  -0.0941
  C  C76  1  0.403600  0.726600  0.374400  1.0  -0.0788
  C  C77  1  0.534600  0.726800  0.398800  1.0  -0.1148
  C  C78  1  0.595100  0.693300  0.476100  1.0  -0.1098
  C  C79  1  0.193800  0.706800  0.408300  1.0  0.7154
  C  C80  1  0.612900  0.763900  0.342400  1.0  0.7354
  C  C81  1  0.891800  0.858700  0.810100  1.0  0.2926
  C  C82  1  0.924600  0.945900  0.775300  1.0  -0.1484
  C  C83  1  0.942600  0.927100  0.690800  1.0  -0.0458
  C  C84  1  0.928200  0.821000  0.643100  1.0  -0.1257
  C  C85  1  0.896800  0.734100  0.681200  1.0  -0.0283
  C  C86  1  0.878900  0.752500  0.764400  1.0  -0.2591
  C  C87  1  0.979400  0.029200  0.659700  1.0  0.7139
  C  C88  1  0.939000  0.796700  0.550500  1.0  0.6649
  C  C89  1  0.918800  0.838200  0.959900  1.0  0.3072
  C  C90  1  0.847800  0.823800  0.016600  1.0  -0.1234
  C  C91  1  0.902200  0.785200  0.093500  1.0  -0.1522
  C  C92  1  0.027300  0.764300  0.112300  1.0  -0.0408
  C  C93  1  0.096300  0.778100  0.053400  1.0  -0.0919
  C  C94  1  0.041900  0.814700  0.976000  1.0  -0.0831
  C  C95  1  0.823000  0.765500  0.153800  1.0  0.7067
  C  C96  1  0.232100  0.756900  0.074700  1.0  0.7001
  O  O97  1  0.412000  0.380300  0.400000  1.0  -0.2453
  O  O98  1  0.596500  0.576600  0.170400  1.0  -0.6806
  O  O99  1  0.386900  0.564300  0.123000  1.0  -0.7334
  O  O100  1  0.493000  0.202800  0.023800  1.0  -0.6402
  O  O101  1  0.486900  0.375600  0.018800  1.0  -0.7681
  O  O102  1  0.878100  0.320700  0.670700  1.0  -0.6361
  O  O103  1  0.848900  0.255600  0.529200  1.0  -0.7323
  O  O104  1  0.269000  0.223800  0.627800  1.0  -0.7503
  O  O105  1  0.447000  0.217300  0.730900  1.0  -0.7292
  O  O106  1  0.137800  0.115500  0.110900  1.0  -0.2604
  O  O107  1  0.105900  0.916600  0.370700  1.0  -0.6935
  O  O108  1  0.903900  0.938000  0.329200  1.0  -0.7077
  O  O109  1  0.038000  0.122500  0.484600  1.0  -0.773
  O  O110  1  0.078800  0.299400  0.491900  1.0  -0.6429
  O  O111  1  0.127000  0.275700  0.781300  1.0  -0.7068
  O  O112  1  0.287800  0.211100  0.865300  1.0  -0.7132
  O  O113  1  0.700700  0.224300  0.845200  1.0  -0.64
  O  O114  1  0.721900  0.277500  0.987200  1.0  -0.7443
  O  O115  1  0.942000  0.508000  0.000000  1.0  -0.5727
  O  O116  1  0.588000  0.619700  0.600000  1.0  -0.2433
  O  O117  1  0.403500  0.423400  0.829600  1.0  -0.6801
  O  O118  1  0.613100  0.435700  0.877000  1.0  -0.7322
  O  O119  1  0.507000  0.797200  0.976200  1.0  -0.6422
  O  O120  1  0.513100  0.624400  0.981200  1.0  -0.7699
  O  O121  1  0.121900  0.679300  0.329300  1.0  -0.6339
  O  O122  1  0.151100  0.744400  0.470800  1.0  -0.7314
  O  O123  1  0.731000  0.776200  0.372200  1.0  -0.7496
  O  O124  1  0.553000  0.782700  0.269100  1.0  -0.7273
  O  O125  1  0.862200  0.884500  0.889100  1.0  -0.2615
  O  O126  1  0.894100  0.083400  0.629300  1.0  -0.6915
  O  O127  1  0.096100  0.062000  0.670800  1.0  -0.7083
  O  O128  1  0.962000  0.877500  0.515400  1.0  -0.7706
  O  O129  1  0.921200  0.700600  0.508100  1.0  -0.6452
  O  O130  1  0.873000  0.724300  0.218700  1.0  -0.7055
  O  O131  1  0.712200  0.788900  0.134700  1.0  -0.7126
  O  O132  1  0.299300  0.775700  0.154800  1.0  -0.6409
  O  O133  1  0.278100  0.722500  0.012800  1.0  -0.7436
  O  O134  1  0.058000  0.492000  0.000000  1.0  -0.572
