# generated using pymatgen
data_KGdH6C16O9
_symmetry_space_group_name_H-M   'P 1'
_cell_length_a   11.00300000
_cell_length_b   12.48600000
_cell_length_c   15.92500000
_cell_angle_alpha   100.09100000
_cell_angle_beta   106.02800000
_cell_angle_gamma   95.76200000
_symmetry_Int_Tables_number   1
_chemical_formula_structural   KGdH6C16O9
_chemical_formula_sum   'K4 Gd4 H24 C64 O36'
_cell_volume   2044.50763837
_cell_formula_units_Z   4
loop_
 _symmetry_equiv_pos_site_id
 _symmetry_equiv_pos_as_xyz
  1  'x, y, z'
loop_
 _atom_site_type_symbol
 _atom_site_label
 _atom_site_symmetry_multiplicity
 _atom_site_fract_x
 _atom_site_fract_y
 _atom_site_fract_z
 _atom_site_occupancy
 _atom_site_charge
  K  K1  1  0.781700  0.024200  0.444860  1.0  0.9412
  K  K2  1  0.268800  0.490400  0.942180  1.0  0.9227
  K  K3  1  0.218300  0.975800  0.555140  1.0  0.9404
  K  K4  1  0.731200  0.509600  0.057820  1.0  0.9238
  Gd  Gd5  1  0.059850  0.241200  0.628370  1.0  2.1649
  Gd  Gd6  1  0.496360  0.741420  0.117130  1.0  2.1575
  Gd  Gd7  1  0.940150  0.758800  0.371630  1.0  2.1646
  Gd  Gd8  1  0.503640  0.258580  0.882870  1.0  2.1565
  H  H9  1  0.931400  0.016700  0.807600  1.0  0.0883
  H  H10  1  0.884600  0.661700  0.648400  1.0  0.0986
  H  H11  1  0.856700  0.694300  0.788900  1.0  0.1248
  H  H12  1  0.088100  0.825100  0.935600  1.0  0.1165
  H  H13  1  0.063100  0.741200  0.164400  1.0  0.1075
  H  H14  1  0.763900  0.841100  0.004000  1.0  0.117
  H  H15  1  0.451100  0.515200  0.309000  1.0  0.1064
  H  H16  1  0.462000  0.162200  0.164500  1.0  0.1015
  H  H17  1  0.438200  0.191400  0.306800  1.0  0.1299
  H  H18  1  0.653800  0.357200  0.456300  1.0  0.1157
  H  H19  1  0.637300  0.252200  0.677400  1.0  0.1112
  H  H20  1  0.319100  0.309700  0.509200  1.0  0.109
  H  H21  1  0.068600  0.983300  0.192400  1.0  0.0882
  H  H22  1  0.115400  0.338300  0.351600  1.0  0.0989
  H  H23  1  0.143300  0.305700  0.211100  1.0  0.1247
  H  H24  1  0.911900  0.174900  0.064400  1.0  0.1165
  H  H25  1  0.936900  0.258800  0.835600  1.0  0.1077
  H  H26  1  0.236100  0.158900  0.996000  1.0  0.1174
  H  H27  1  0.548900  0.484800  0.691000  1.0  0.1059
  H  H28  1  0.538000  0.837800  0.835500  1.0  0.1019
  H  H29  1  0.561800  0.808600  0.693200  1.0  0.1307
  H  H30  1  0.346200  0.642800  0.543700  1.0  0.1162
  H  H31  1  0.362700  0.747800  0.322600  1.0  0.1115
  H  H32  1  0.680900  0.690300  0.490800  1.0  0.1081
  C  C33  1  0.892100  0.862000  0.810300  1.0  0.2654
  C  C34  1  0.922800  0.944900  0.775900  1.0  -0.094
  C  C35  1  0.943300  0.925700  0.690200  1.0  -0.0764
  C  C36  1  0.928400  0.820500  0.643200  1.0  -0.1289
  C  C37  1  0.895200  0.733700  0.680200  1.0  -0.0311
  C  C38  1  0.877600  0.752700  0.763800  1.0  -0.2355
  C  C39  1  0.978200  0.029400  0.659300  1.0  0.7124
  C  C40  1  0.939200  0.798400  0.551200  1.0  0.6735
  C  C41  1  0.918500  0.840300  0.959400  1.0  0.3022
  C  C42  1  0.041400  0.815900  0.975100  1.0  -0.1036
  C  C43  1  0.093300  0.777000  0.052100  1.0  -0.1138
  C  C44  1  0.025500  0.764300  0.112100  1.0  -0.0752
  C  C45  1  0.900500  0.786400  0.093000  1.0  -0.1706
  C  C46  1  0.847100  0.825300  0.016500  1.0  -0.1466
  C  C47  1  0.229900  0.758100  0.074000  1.0  0.6999
  C  C48  1  0.821400  0.765500  0.153000  1.0  0.6998
  C  C49  1  0.441200  0.357700  0.321000  1.0  0.3157
  C  C50  1  0.452800  0.444000  0.280400  1.0  -0.148
  C  C51  1  0.467600  0.423200  0.194500  1.0  -0.0518
  C  C52  1  0.475400  0.321400  0.153400  1.0  -0.1378
  C  C53  1  0.461100  0.233100  0.194200  1.0  -0.0293
  C  C54  1  0.445500  0.249900  0.278700  1.0  -0.2332
  C  C55  1  0.485600  0.526300  0.159600  1.0  0.6841
  C  C56  1  0.488900  0.298800  0.061500  1.0  0.6695
  C  C57  1  0.476800  0.337700  0.470700  1.0  0.3045
  C  C58  1  0.606600  0.335600  0.492500  1.0  -0.1393
  C  C59  1  0.665000  0.300800  0.569200  1.0  -0.1092
  C  C60  1  0.596200  0.272300  0.624400  1.0  -0.0831
  C  C61  1  0.466200  0.273600  0.600800  1.0  -0.1262
  C  C62  1  0.406600  0.307300  0.524600  1.0  -0.0942
  C  C63  1  0.805000  0.294800  0.591100  1.0  0.7084
  C  C64  1  0.386000  0.234100  0.655900  1.0  0.6879
  C  C65  1  0.107900  0.138000  0.189700  1.0  0.2638
  C  C66  1  0.077200  0.055100  0.224100  1.0  -0.0933
  C  C67  1  0.056700  0.074300  0.309800  1.0  -0.0757
  C  C68  1  0.071600  0.179500  0.356800  1.0  -0.1267
  C  C69  1  0.104800  0.266300  0.319800  1.0  -0.0301
  C  C70  1  0.122400  0.247300  0.236200  1.0  -0.2357
  C  C71  1  0.021800  0.970600  0.340700  1.0  0.7136
  C  C72  1  0.060800  0.201600  0.448800  1.0  0.6719
  C  C73  1  0.081500  0.159700  0.040600  1.0  0.3022
  C  C74  1  0.958600  0.184100  0.024900  1.0  -0.1041
  C  C75  1  0.906700  0.223000  0.947900  1.0  -0.1117
  C  C76  1  0.974500  0.235700  0.887900  1.0  -0.0766
  C  C77  1  0.099500  0.213600  0.907000  1.0  -0.1697
  C  C78  1  0.152900  0.174700  0.983500  1.0  -0.1481
  C  C79  1  0.770100  0.241900  0.926000  1.0  0.7013
  C  C80  1  0.178600  0.234500  0.847000  1.0  0.6989
  C  C81  1  0.558800  0.642300  0.679000  1.0  0.3152
  C  C82  1  0.547200  0.556000  0.719600  1.0  -0.1463
  C  C83  1  0.532400  0.576800  0.805500  1.0  -0.0526
  C  C84  1  0.524600  0.678600  0.846600  1.0  -0.1344
  C  C85  1  0.538900  0.766900  0.805800  1.0  -0.029
  C  C86  1  0.554500  0.750100  0.721300  1.0  -0.2332
  C  C87  1  0.514400  0.473700  0.840400  1.0  0.6844
  C  C88  1  0.511100  0.701200  0.938500  1.0  0.6713
  C  C89  1  0.523200  0.662300  0.529300  1.0  0.3041
  C  C90  1  0.393400  0.664400  0.507500  1.0  -0.1375
  C  C91  1  0.335000  0.699200  0.430800  1.0  -0.1096
  C  C92  1  0.403800  0.727700  0.375600  1.0  -0.084
  C  C93  1  0.533800  0.726400  0.399200  1.0  -0.125
  C  C94  1  0.593400  0.692700  0.475400  1.0  -0.0929
  C  C95  1  0.195000  0.705200  0.408900  1.0  0.7087
  C  C96  1  0.614000  0.765900  0.344100  1.0  0.6876
  O  O97  1  0.861500  0.886200  0.888400  1.0  -0.2596
  O  O98  1  0.893700  0.083500  0.628400  1.0  -0.6745
  O  O99  1  0.095600  0.061300  0.671700  1.0  -0.7139
  O  O100  1  0.962200  0.877700  0.515400  1.0  -0.7726
  O  O101  1  0.919600  0.700300  0.508200  1.0  -0.649
  O  O102  1  0.298000  0.776600  0.154200  1.0  -0.6523
  O  O103  1  0.276500  0.723100  0.012300  1.0  -0.7457
  O  O104  1  0.711900  0.791000  0.134900  1.0  -0.7442
  O  O105  1  0.870300  0.721300  0.217400  1.0  -0.7135
  O  O106  1  0.411200  0.378800  0.399400  1.0  -0.2503
  O  O107  1  0.594900  0.576400  0.170300  1.0  -0.7004
  O  O108  1  0.385800  0.564200  0.123300  1.0  -0.7489
  O  O109  1  0.488100  0.375400  0.019500  1.0  -0.7693
  O  O110  1  0.495100  0.202900  0.024600  1.0  -0.6763
  O  O111  1  0.878000  0.321200  0.670000  1.0  -0.6489
  O  O112  1  0.849000  0.256700  0.529000  1.0  -0.737
  O  O113  1  0.447000  0.214200  0.729800  1.0  -0.7344
  O  O114  1  0.270700  0.223200  0.627000  1.0  -0.7213
  O  O115  1  0.138500  0.113800  0.111600  1.0  -0.2592
  O  O116  1  0.106300  0.916500  0.371600  1.0  -0.6751
  O  O117  1  0.904400  0.938700  0.328300  1.0  -0.7151
  O  O118  1  0.037800  0.122300  0.484600  1.0  -0.7747
  O  O119  1  0.080400  0.299700  0.491800  1.0  -0.6502
  O  O120  1  0.702000  0.223400  0.845800  1.0  -0.6531
  O  O121  1  0.723500  0.276900  0.987700  1.0  -0.7445
  O  O122  1  0.288100  0.209000  0.865100  1.0  -0.7443
  O  O123  1  0.129700  0.278700  0.782600  1.0  -0.7146
  O  O124  1  0.588800  0.621200  0.600600  1.0  -0.2488
  O  O125  1  0.405100  0.423600  0.829700  1.0  -0.7019
  O  O126  1  0.614200  0.435800  0.876700  1.0  -0.7495
  O  O127  1  0.511900  0.624600  0.980500  1.0  -0.7702
  O  O128  1  0.504900  0.797100  0.975400  1.0  -0.6759
  O  O129  1  0.122000  0.678800  0.330000  1.0  -0.6481
  O  O130  1  0.151000  0.743300  0.471000  1.0  -0.7361
  O  O131  1  0.553000  0.785800  0.270200  1.0  -0.7328
  O  O132  1  0.729300  0.776800  0.373000  1.0  -0.7216
