# generated using pymatgen
data_AgH12C17N6
_symmetry_space_group_name_H-M   'P 1'
_cell_length_a   31.37000000
_cell_length_b   31.37000000
_cell_length_c   7.84670000
_cell_angle_alpha   90.00000000
_cell_angle_beta   90.00000000
_cell_angle_gamma   90.00000000
_symmetry_Int_Tables_number   1
_chemical_formula_structural   AgH12C17N6
_chemical_formula_sum   'Ag16 H192 C272 N96'
_cell_volume   7721.75621123
_cell_formula_units_Z   16
loop_
 _symmetry_equiv_pos_site_id
 _symmetry_equiv_pos_as_xyz
  1  'x, y, z'
loop_
 _atom_site_type_symbol
 _atom_site_label
 _atom_site_symmetry_multiplicity
 _atom_site_fract_x
 _atom_site_fract_y
 _atom_site_fract_z
 _atom_site_occupancy
 _atom_site_charge
  Ag  Ag1  1  0.813900  0.799470  0.923530  1.0  0.1885
  Ag  Ag2  1  0.313900  0.299470  0.423530  1.0  0.1885
  Ag  Ag3  1  0.686100  0.200530  0.423530  1.0  0.1884
  Ag  Ag4  1  0.186100  0.700530  0.923530  1.0  0.1884
  Ag  Ag5  1  0.950530  0.063900  0.173530  1.0  0.1897
  Ag  Ag6  1  0.450530  0.563900  0.673530  1.0  0.1897
  Ag  Ag7  1  0.549470  0.936100  0.673530  1.0  0.1909
  Ag  Ag8  1  0.049470  0.436100  0.173530  1.0  0.1909
  Ag  Ag9  1  0.186100  0.200530  0.076470  1.0  0.1885
  Ag  Ag10  1  0.686100  0.700530  0.576470  1.0  0.1885
  Ag  Ag11  1  0.313900  0.799470  0.576470  1.0  0.1877
  Ag  Ag12  1  0.813900  0.299470  0.076470  1.0  0.1877
  Ag  Ag13  1  0.049470  0.936100  0.826470  1.0  0.1909
  Ag  Ag14  1  0.549470  0.436100  0.326470  1.0  0.1909
  Ag  Ag15  1  0.450530  0.063900  0.326470  1.0  0.1893
  Ag  Ag16  1  0.950530  0.563900  0.826470  1.0  0.1893
  H  H17  1  0.822800  0.694700  0.221400  1.0  0.1083
  H  H18  1  0.760900  0.674300  0.342900  1.0  0.0544
  H  H19  1  0.754200  0.779400  0.601800  1.0  0.0599
  H  H20  1  0.817300  0.802800  0.490700  1.0  0.1037
  H  H21  1  0.007300  0.796700  0.149000  1.0  0.0988
  H  H22  1  0.051900  0.844800  0.022900  1.0  0.0682
  H  H23  1  0.956200  0.916100  0.888400  1.0  0.0646
  H  H24  1  0.908700  0.870000  0.007500  1.0  0.1069
  H  H25  1  0.897300  0.864100  0.446300  1.0  0.1075
  H  H26  1  0.860100  0.928500  0.463500  1.0  0.0972
  H  H27  1  0.806300  0.941900  0.272700  1.0  0.1017
  H  H28  1  0.788100  0.891100  0.077900  1.0  0.0704
  H  H29  1  0.322800  0.194700  0.721400  1.0  0.1083
  H  H30  1  0.260900  0.174300  0.842900  1.0  0.0544
  H  H31  1  0.254200  0.279400  0.101800  1.0  0.0599
  H  H32  1  0.317300  0.302800  0.990700  1.0  0.1037
  H  H33  1  0.507300  0.296700  0.649000  1.0  0.0988
  H  H34  1  0.551900  0.344800  0.522900  1.0  0.0682
  H  H35  1  0.456200  0.416100  0.388400  1.0  0.0646
  H  H36  1  0.408700  0.370000  0.507500  1.0  0.1069
  H  H37  1  0.397300  0.364100  0.946300  1.0  0.1075
  H  H38  1  0.360100  0.428500  0.963500  1.0  0.0972
  H  H39  1  0.306300  0.441900  0.772700  1.0  0.1017
  H  H40  1  0.288100  0.391100  0.577900  1.0  0.0704
  H  H41  1  0.677200  0.305300  0.721400  1.0  0.1084
  H  H42  1  0.739100  0.325700  0.842900  1.0  0.0535
  H  H43  1  0.745800  0.220600  0.101800  1.0  0.0596
  H  H44  1  0.682700  0.197200  0.990700  1.0  0.1045
  H  H45  1  0.492700  0.203300  0.649000  1.0  0.0984
  H  H46  1  0.448100  0.155200  0.522900  1.0  0.0675
  H  H47  1  0.543800  0.083900  0.388400  1.0  0.0649
  H  H48  1  0.591300  0.130000  0.507500  1.0  0.1058
  H  H49  1  0.602700  0.135900  0.946300  1.0  0.1081
  H  H50  1  0.639900  0.071500  0.963500  1.0  0.0976
  H  H51  1  0.693700  0.058100  0.772700  1.0  0.1011
  H  H52  1  0.711900  0.108900  0.577900  1.0  0.0704
  H  H53  1  0.177200  0.805300  0.221400  1.0  0.1084
  H  H54  1  0.239100  0.825700  0.342900  1.0  0.0535
  H  H55  1  0.245800  0.720600  0.601800  1.0  0.0596
  H  H56  1  0.182700  0.697200  0.490700  1.0  0.1045
  H  H57  1  0.992700  0.703300  0.149000  1.0  0.0984
  H  H58  1  0.948100  0.655200  0.022900  1.0  0.0675
  H  H59  1  0.043800  0.583900  0.888400  1.0  0.0649
  H  H60  1  0.091300  0.630000  0.007500  1.0  0.1058
  H  H61  1  0.102700  0.635900  0.446300  1.0  0.1081
  H  H62  1  0.139900  0.571500  0.463500  1.0  0.0976
  H  H63  1  0.193700  0.558100  0.272700  1.0  0.1011
  H  H64  1  0.211900  0.608900  0.077900  1.0  0.0704
  H  H65  1  0.055300  0.072800  0.471400  1.0  0.1087
  H  H66  1  0.075700  0.010900  0.592900  1.0  0.0562
  H  H67  1  0.970600  0.004200  0.851800  1.0  0.0592
  H  H68  1  0.947200  0.067300  0.740700  1.0  0.1059
  H  H69  1  0.953300  0.257300  0.399000  1.0  0.0982
  H  H70  1  0.905200  0.301900  0.272900  1.0  0.0667
  H  H71  1  0.833900  0.206200  0.138400  1.0  0.0638
  H  H72  1  0.880000  0.158700  0.257500  1.0  0.1068
  H  H73  1  0.885900  0.147300  0.696300  1.0  0.108
  H  H74  1  0.821500  0.110100  0.713500  1.0  0.0984
  H  H75  1  0.808100  0.056300  0.522700  1.0  0.1005
  H  H76  1  0.858900  0.038100  0.327900  1.0  0.0688
  H  H77  1  0.555300  0.572800  0.971400  1.0  0.1087
  H  H78  1  0.575700  0.510900  0.092900  1.0  0.0562
  H  H79  1  0.470600  0.504200  0.351800  1.0  0.0592
  H  H80  1  0.447200  0.567300  0.240700  1.0  0.1059
  H  H81  1  0.453300  0.757300  0.899000  1.0  0.0982
  H  H82  1  0.405200  0.801900  0.772900  1.0  0.0667
  H  H83  1  0.333900  0.706200  0.638400  1.0  0.0638
  H  H84  1  0.380000  0.658700  0.757500  1.0  0.1068
  H  H85  1  0.385900  0.647300  0.196300  1.0  0.108
  H  H86  1  0.321500  0.610100  0.213500  1.0  0.0984
  H  H87  1  0.308100  0.556300  0.022700  1.0  0.1005
  H  H88  1  0.358900  0.538100  0.827900  1.0  0.0688
  H  H89  1  0.444700  0.927200  0.971400  1.0  0.1093
  H  H90  1  0.424300  0.989100  0.092900  1.0  0.0556
  H  H91  1  0.529400  0.995800  0.351800  1.0  0.0593
  H  H92  1  0.552800  0.932700  0.240700  1.0  0.1044
  H  H93  1  0.546700  0.742700  0.899000  1.0  0.0989
  H  H94  1  0.594800  0.698100  0.772900  1.0  0.0676
  H  H95  1  0.666100  0.793800  0.638400  1.0  0.0647
  H  H96  1  0.620000  0.841300  0.757500  1.0  0.1062
  H  H97  1  0.614100  0.852700  0.196300  1.0  0.1084
  H  H98  1  0.678500  0.889900  0.213500  1.0  0.0981
  H  H99  1  0.691900  0.943700  0.022700  1.0  0.101
  H  H100  1  0.641100  0.961900  0.827900  1.0  0.0693
  H  H101  1  0.944700  0.427200  0.471400  1.0  0.1093
  H  H102  1  0.924300  0.489100  0.592900  1.0  0.0556
  H  H103  1  0.029400  0.495800  0.851800  1.0  0.0593
  H  H104  1  0.052800  0.432700  0.740700  1.0  0.1044
  H  H105  1  0.046700  0.242700  0.399000  1.0  0.0989
  H  H106  1  0.094800  0.198100  0.272900  1.0  0.0676
  H  H107  1  0.166100  0.293800  0.138400  1.0  0.0647
  H  H108  1  0.120000  0.341300  0.257500  1.0  0.1062
  H  H109  1  0.114100  0.352700  0.696300  1.0  0.1084
  H  H110  1  0.178500  0.389900  0.713500  1.0  0.0981
  H  H111  1  0.191900  0.443700  0.522700  1.0  0.101
  H  H112  1  0.141100  0.461900  0.327900  1.0  0.0693
  H  H113  1  0.177200  0.305300  0.778600  1.0  0.1087
  H  H114  1  0.239100  0.325700  0.657100  1.0  0.0533
  H  H115  1  0.245800  0.220600  0.398200  1.0  0.0594
  H  H116  1  0.182700  0.197200  0.509300  1.0  0.105
  H  H117  1  0.992700  0.203300  0.851000  1.0  0.0983
  H  H118  1  0.948100  0.155200  0.977100  1.0  0.0675
  H  H119  1  0.043800  0.083900  0.111600  1.0  0.0651
  H  H120  1  0.091300  0.130000  0.992500  1.0  0.1056
  H  H121  1  0.102700  0.135900  0.553700  1.0  0.1079
  H  H122  1  0.139900  0.071500  0.536500  1.0  0.0975
  H  H123  1  0.193700  0.058100  0.727300  1.0  0.1012
  H  H124  1  0.211900  0.108900  0.922100  1.0  0.0711
  H  H125  1  0.677200  0.805300  0.278600  1.0  0.1087
  H  H126  1  0.739100  0.825700  0.157100  1.0  0.0533
  H  H127  1  0.745800  0.720600  0.898200  1.0  0.0594
  H  H128  1  0.682700  0.697200  0.009300  1.0  0.105
  H  H129  1  0.492700  0.703300  0.351000  1.0  0.0983
  H  H130  1  0.448100  0.655200  0.477100  1.0  0.0675
  H  H131  1  0.543800  0.583900  0.611600  1.0  0.0651
  H  H132  1  0.591300  0.630000  0.492500  1.0  0.1056
  H  H133  1  0.602700  0.635900  0.053700  1.0  0.1079
  H  H134  1  0.639900  0.571500  0.036500  1.0  0.0975
  H  H135  1  0.693700  0.558100  0.227300  1.0  0.1012
  H  H136  1  0.711900  0.608900  0.422100  1.0  0.0711
  H  H137  1  0.322800  0.694700  0.278600  1.0  0.1087
  H  H138  1  0.260900  0.674300  0.157100  1.0  0.0541
  H  H139  1  0.254200  0.779400  0.898200  1.0  0.0599
  H  H140  1  0.317300  0.802800  0.009300  1.0  0.104
  H  H141  1  0.507300  0.796700  0.351000  1.0  0.0985
  H  H142  1  0.551900  0.844800  0.477100  1.0  0.0681
  H  H143  1  0.456200  0.916100  0.611600  1.0  0.0642
  H  H144  1  0.408700  0.870000  0.492500  1.0  0.1055
  H  H145  1  0.397300  0.864100  0.053700  1.0  0.1074
  H  H146  1  0.360100  0.928500  0.036500  1.0  0.0965
  H  H147  1  0.306300  0.941900  0.227300  1.0  0.1016
  H  H148  1  0.288100  0.891100  0.422100  1.0  0.0709
  H  H149  1  0.822800  0.194700  0.778600  1.0  0.1087
  H  H150  1  0.760900  0.174300  0.657100  1.0  0.0541
  H  H151  1  0.754200  0.279400  0.398200  1.0  0.0599
  H  H152  1  0.817300  0.302800  0.509300  1.0  0.104
  H  H153  1  0.007300  0.296700  0.851000  1.0  0.0985
  H  H154  1  0.051900  0.344800  0.977100  1.0  0.0681
  H  H155  1  0.956200  0.416100  0.111600  1.0  0.0642
  H  H156  1  0.908700  0.370000  0.992500  1.0  0.1055
  H  H157  1  0.897300  0.364100  0.553700  1.0  0.1074
  H  H158  1  0.860100  0.428500  0.536500  1.0  0.0965
  H  H159  1  0.806300  0.441900  0.727300  1.0  0.1016
  H  H160  1  0.788100  0.391100  0.922100  1.0  0.0709
  H  H161  1  0.944700  0.927200  0.528600  1.0  0.1096
  H  H162  1  0.924300  0.989100  0.407100  1.0  0.0554
  H  H163  1  0.029400  0.995800  0.148200  1.0  0.0592
  H  H164  1  0.052800  0.932700  0.259300  1.0  0.1052
  H  H165  1  0.046700  0.742700  0.601000  1.0  0.0984
  H  H166  1  0.094800  0.698100  0.727100  1.0  0.0675
  H  H167  1  0.166100  0.793800  0.861600  1.0  0.0645
  H  H168  1  0.120000  0.841300  0.742500  1.0  0.1056
  H  H169  1  0.114100  0.852700  0.303700  1.0  0.1084
  H  H170  1  0.178500  0.889900  0.286500  1.0  0.0974
  H  H171  1  0.191900  0.943700  0.477300  1.0  0.1011
  H  H172  1  0.141100  0.961900  0.672100  1.0  0.0694
  H  H173  1  0.444700  0.427200  0.028600  1.0  0.1096
  H  H174  1  0.424300  0.489100  0.907100  1.0  0.0554
  H  H175  1  0.529400  0.495800  0.648200  1.0  0.0592
  H  H176  1  0.552800  0.432700  0.759300  1.0  0.1052
  H  H177  1  0.546700  0.242700  0.101000  1.0  0.0984
  H  H178  1  0.594800  0.198100  0.227100  1.0  0.0675
  H  H179  1  0.666100  0.293800  0.361600  1.0  0.0645
  H  H180  1  0.620000  0.341300  0.242500  1.0  0.1056
  H  H181  1  0.614100  0.352700  0.803700  1.0  0.1084
  H  H182  1  0.678500  0.389900  0.786500  1.0  0.0974
  H  H183  1  0.691900  0.443700  0.977300  1.0  0.1011
  H  H184  1  0.641100  0.461900  0.172100  1.0  0.0694
  H  H185  1  0.555300  0.072800  0.028600  1.0  0.1088
  H  H186  1  0.575700  0.010900  0.907100  1.0  0.0559
  H  H187  1  0.470600  0.004200  0.648200  1.0  0.0589
  H  H188  1  0.447200  0.067300  0.759300  1.0  0.1059
  H  H189  1  0.453300  0.257300  0.101000  1.0  0.098
  H  H190  1  0.405200  0.301900  0.227100  1.0  0.0667
  H  H191  1  0.333900  0.206200  0.361600  1.0  0.064
  H  H192  1  0.380000  0.158700  0.242500  1.0  0.1064
  H  H193  1  0.385900  0.147300  0.803700  1.0  0.1082
  H  H194  1  0.321500  0.110100  0.786500  1.0  0.0978
  H  H195  1  0.308100  0.056300  0.977300  1.0  0.1007
  H  H196  1  0.358900  0.038100  0.172100  1.0  0.0699
  H  H197  1  0.055300  0.572800  0.528600  1.0  0.1088
  H  H198  1  0.075700  0.510900  0.407100  1.0  0.0559
  H  H199  1  0.970600  0.504200  0.148200  1.0  0.0589
  H  H200  1  0.947200  0.567300  0.259300  1.0  0.1059
  H  H201  1  0.953300  0.757300  0.601000  1.0  0.098
  H  H202  1  0.905200  0.801900  0.727100  1.0  0.0667
  H  H203  1  0.833900  0.706200  0.861600  1.0  0.064
  H  H204  1  0.880000  0.658700  0.742500  1.0  0.1064
  H  H205  1  0.885900  0.647300  0.303700  1.0  0.1082
  H  H206  1  0.821500  0.610100  0.286500  1.0  0.0978
  H  H207  1  0.808100  0.556300  0.477300  1.0  0.1007
  H  H208  1  0.858900  0.538100  0.672100  1.0  0.0699
  C  C209  1  0.809550  0.712380  0.300300  1.0  -0.1879
  C  C210  1  0.772430  0.700550  0.372900  1.0  0.1624
  C  C211  1  0.768590  0.761990  0.525000  1.0  0.1618
  C  C212  1  0.806370  0.776400  0.458700  1.0  -0.2096
  C  C213  1  0.827870  0.751200  0.344000  1.0  0.0103
  C  C214  1  0.869230  0.761810  0.269500  1.0  0.2513
  C  C215  1  0.924230  0.795580  0.166900  1.0  0.2455
  C  C216  1  0.952470  0.827650  0.093800  1.0  0.0102
  C  C217  1  0.996100  0.820840  0.096400  1.0  -0.1819
  C  C218  1  0.022660  0.849950  0.020700  1.0  0.1587
  C  C219  1  0.966620  0.891730  0.941400  1.0  0.1642
  C  C220  1  0.937710  0.864220  0.013000  1.0  -0.1981
  C  C221  1  0.862150  0.841910  0.250300  1.0  0.4335
  C  C222  1  0.874890  0.870220  0.372500  1.0  -0.1726
  C  C223  1  0.852970  0.908330  0.381400  1.0  -0.1357
  C  C224  1  0.820960  0.916110  0.269600  1.0  -0.1324
  C  C225  1  0.810490  0.885710  0.152600  1.0  0.1292
  C  C226  1  0.309550  0.212380  0.800300  1.0  -0.1879
  C  C227  1  0.272430  0.200550  0.872900  1.0  0.1624
  C  C228  1  0.268590  0.261990  0.025000  1.0  0.1618
  C  C229  1  0.306370  0.276400  0.958700  1.0  -0.2096
  C  C230  1  0.327870  0.251200  0.844000  1.0  0.0103
  C  C231  1  0.369230  0.261810  0.769500  1.0  0.2513
  C  C232  1  0.424230  0.295580  0.666900  1.0  0.2455
  C  C233  1  0.452470  0.327650  0.593800  1.0  0.0102
  C  C234  1  0.496100  0.320840  0.596400  1.0  -0.1819
  C  C235  1  0.522660  0.349950  0.520700  1.0  0.1587
  C  C236  1  0.466620  0.391730  0.441400  1.0  0.1642
  C  C237  1  0.437710  0.364220  0.513000  1.0  -0.1981
  C  C238  1  0.362150  0.341910  0.750300  1.0  0.4335
  C  C239  1  0.374890  0.370220  0.872500  1.0  -0.1726
  C  C240  1  0.352970  0.408330  0.881400  1.0  -0.1357
  C  C241  1  0.320960  0.416110  0.769600  1.0  -0.1324
  C  C242  1  0.310490  0.385710  0.652600  1.0  0.1292
  C  C243  1  0.690450  0.287620  0.800300  1.0  -0.1883
  C  C244  1  0.727570  0.299450  0.872900  1.0  0.163
  C  C245  1  0.731410  0.238010  0.025000  1.0  0.1618
  C  C246  1  0.693630  0.223600  0.958700  1.0  -0.2098
  C  C247  1  0.672130  0.248800  0.844000  1.0  0.0104
  C  C248  1  0.630770  0.238190  0.769500  1.0  0.252
  C  C249  1  0.575770  0.204420  0.666900  1.0  0.2451
  C  C250  1  0.547530  0.172350  0.593800  1.0  0.01
  C  C251  1  0.503900  0.179160  0.596400  1.0  -0.1817
  C  C252  1  0.477340  0.150050  0.520700  1.0  0.1579
  C  C253  1  0.533380  0.108270  0.441400  1.0  0.1633
  C  C254  1  0.562290  0.135780  0.513000  1.0  -0.1989
  C  C255  1  0.637850  0.158090  0.750300  1.0  0.4349
  C  C256  1  0.625110  0.129780  0.872500  1.0  -0.1716
  C  C257  1  0.647030  0.091670  0.881400  1.0  -0.1348
  C  C258  1  0.679040  0.083890  0.769600  1.0  -0.1318
  C  C259  1  0.689510  0.114290  0.652600  1.0  0.1307
  C  C260  1  0.190450  0.787620  0.300300  1.0  -0.1883
  C  C261  1  0.227570  0.799450  0.372900  1.0  0.163
  C  C262  1  0.231410  0.738010  0.525000  1.0  0.1618
  C  C263  1  0.193630  0.723600  0.458700  1.0  -0.2098
  C  C264  1  0.172130  0.748800  0.344000  1.0  0.0104
  C  C265  1  0.130770  0.738190  0.269500  1.0  0.252
  C  C266  1  0.075770  0.704420  0.166900  1.0  0.2451
  C  C267  1  0.047530  0.672350  0.093800  1.0  0.01
  C  C268  1  0.003900  0.679160  0.096400  1.0  -0.1817
  C  C269  1  0.977340  0.650050  0.020700  1.0  0.1579
  C  C270  1  0.033380  0.608270  0.941400  1.0  0.1633
  C  C271  1  0.062290  0.635780  0.013000  1.0  -0.1989
  C  C272  1  0.137850  0.658090  0.250300  1.0  0.4349
  C  C273  1  0.125110  0.629780  0.372500  1.0  -0.1716
  C  C274  1  0.147030  0.591670  0.381400  1.0  -0.1348
  C  C275  1  0.179040  0.583890  0.269600  1.0  -0.1318
  C  C276  1  0.189510  0.614290  0.152600  1.0  0.1307
  C  C277  1  0.037620  0.059550  0.550300  1.0  -0.1877
  C  C278  1  0.049450  0.022430  0.622900  1.0  0.1647
  C  C279  1  0.988010  0.018590  0.775000  1.0  0.1631
  C  C280  1  0.973600  0.056370  0.708700  1.0  -0.2086
  C  C281  1  0.998800  0.077870  0.594000  1.0  0.0124
  C  C282  1  0.988190  0.119230  0.519500  1.0  0.2524
  C  C283  1  0.954420  0.174230  0.416900  1.0  0.246
  C  C284  1  0.922350  0.202470  0.343800  1.0  0.0105
  C  C285  1  0.929160  0.246100  0.346400  1.0  -0.1847
  C  C286  1  0.900050  0.272660  0.270700  1.0  0.1588
  C  C287  1  0.858270  0.216620  0.191400  1.0  0.1638
  C  C288  1  0.885780  0.187710  0.263000  1.0  -0.1968
  C  C289  1  0.908090  0.112150  0.500300  1.0  0.4331
  C  C290  1  0.879780  0.124890  0.622500  1.0  -0.1718
  C  C291  1  0.841670  0.102970  0.631400  1.0  -0.1351
  C  C292  1  0.833890  0.070960  0.519600  1.0  -0.132
  C  C293  1  0.864290  0.060490  0.402600  1.0  0.1304
  C  C294  1  0.537620  0.559550  0.050300  1.0  -0.1877
  C  C295  1  0.549450  0.522430  0.122900  1.0  0.1647
  C  C296  1  0.488010  0.518590  0.275000  1.0  0.1631
  C  C297  1  0.473600  0.556370  0.208700  1.0  -0.2086
  C  C298  1  0.498800  0.577870  0.094000  1.0  0.0124
  C  C299  1  0.488190  0.619230  0.019500  1.0  0.2524
  C  C300  1  0.454420  0.674230  0.916900  1.0  0.246
  C  C301  1  0.422350  0.702470  0.843800  1.0  0.0105
  C  C302  1  0.429160  0.746100  0.846400  1.0  -0.1847
  C  C303  1  0.400050  0.772660  0.770700  1.0  0.1588
  C  C304  1  0.358270  0.716620  0.691400  1.0  0.1638
  C  C305  1  0.385780  0.687710  0.763000  1.0  -0.1968
  C  C306  1  0.408090  0.612150  0.000300  1.0  0.4331
  C  C307  1  0.379780  0.624890  0.122500  1.0  -0.1718
  C  C308  1  0.341670  0.602970  0.131400  1.0  -0.1351
  C  C309  1  0.333890  0.570960  0.019600  1.0  -0.132
  C  C310  1  0.364290  0.560490  0.902600  1.0  0.1304
  C  C311  1  0.462380  0.940450  0.050300  1.0  -0.188
  C  C312  1  0.450550  0.977570  0.122900  1.0  0.1647
  C  C313  1  0.511990  0.981410  0.275000  1.0  0.1625
  C  C314  1  0.526400  0.943630  0.208700  1.0  -0.2096
  C  C315  1  0.501200  0.922130  0.094000  1.0  0.0119
  C  C316  1  0.511810  0.880770  0.019500  1.0  0.2526
  C  C317  1  0.545580  0.825770  0.916900  1.0  0.2459
  C  C318  1  0.577650  0.797530  0.843800  1.0  0.0107
  C  C319  1  0.570840  0.753900  0.846400  1.0  -0.1853
  C  C320  1  0.599950  0.727340  0.770700  1.0  0.1598
  C  C321  1  0.641730  0.783380  0.691400  1.0  0.1644
  C  C322  1  0.614220  0.812290  0.763000  1.0  -0.1974
  C  C323  1  0.591910  0.887850  0.000300  1.0  0.4347
  C  C324  1  0.620220  0.875110  0.122500  1.0  -0.171
  C  C325  1  0.658330  0.897030  0.131400  1.0  -0.1353
  C  C326  1  0.666110  0.929040  0.019600  1.0  -0.1311
  C  C327  1  0.635710  0.939510  0.902600  1.0  0.1298
  C  C328  1  0.962380  0.440450  0.550300  1.0  -0.188
  C  C329  1  0.950550  0.477570  0.622900  1.0  0.1647
  C  C330  1  0.011990  0.481410  0.775000  1.0  0.1625
  C  C331  1  0.026400  0.443630  0.708700  1.0  -0.2096
  C  C332  1  0.001200  0.422130  0.594000  1.0  0.0119
  C  C333  1  0.011810  0.380770  0.519500  1.0  0.2526
  C  C334  1  0.045580  0.325770  0.416900  1.0  0.2459
  C  C335  1  0.077650  0.297530  0.343800  1.0  0.0107
  C  C336  1  0.070840  0.253900  0.346400  1.0  -0.1853
  C  C337  1  0.099950  0.227340  0.270700  1.0  0.1598
  C  C338  1  0.141730  0.283380  0.191400  1.0  0.1644
  C  C339  1  0.114220  0.312290  0.263000  1.0  -0.1974
  C  C340  1  0.091910  0.387850  0.500300  1.0  0.4347
  C  C341  1  0.120220  0.375110  0.622500  1.0  -0.171
  C  C342  1  0.158330  0.397030  0.631400  1.0  -0.1353
  C  C343  1  0.166110  0.429040  0.519600  1.0  -0.1311
  C  C344  1  0.135710  0.439510  0.402600  1.0  0.1298
  C  C345  1  0.190450  0.287620  0.699700  1.0  -0.1894
  C  C346  1  0.227570  0.299450  0.627100  1.0  0.1624
  C  C347  1  0.231410  0.238010  0.475000  1.0  0.1621
  C  C348  1  0.193630  0.223600  0.541300  1.0  -0.2097
  C  C349  1  0.172130  0.248800  0.656000  1.0  0.0103
  C  C350  1  0.130770  0.238190  0.730500  1.0  0.2517
  C  C351  1  0.075770  0.204420  0.833100  1.0  0.2449
  C  C352  1  0.047530  0.172350  0.906200  1.0  0.0102
  C  C353  1  0.003900  0.179160  0.903600  1.0  -0.1815
  C  C354  1  0.977340  0.150050  0.979300  1.0  0.1579
  C  C355  1  0.033380  0.108270  0.058600  1.0  0.1642
  C  C356  1  0.062290  0.135780  0.987000  1.0  -0.1983
  C  C357  1  0.137850  0.158090  0.749700  1.0  0.4353
  C  C358  1  0.125110  0.129780  0.627500  1.0  -0.1725
  C  C359  1  0.147030  0.091670  0.618600  1.0  -0.1343
  C  C360  1  0.179040  0.083890  0.730400  1.0  -0.132
  C  C361  1  0.189510  0.114290  0.847400  1.0  0.1304
  C  C362  1  0.690450  0.787620  0.199700  1.0  -0.1894
  C  C363  1  0.727570  0.799450  0.127100  1.0  0.1624
  C  C364  1  0.731410  0.738010  0.975000  1.0  0.1621
  C  C365  1  0.693630  0.723600  0.041300  1.0  -0.2097
  C  C366  1  0.672130  0.748800  0.156000  1.0  0.0103
  C  C367  1  0.630770  0.738190  0.230500  1.0  0.2517
  C  C368  1  0.575770  0.704420  0.333100  1.0  0.2449
  C  C369  1  0.547530  0.672350  0.406200  1.0  0.0102
  C  C370  1  0.503900  0.679160  0.403600  1.0  -0.1815
  C  C371  1  0.477340  0.650050  0.479300  1.0  0.1579
  C  C372  1  0.533380  0.608270  0.558600  1.0  0.1642
  C  C373  1  0.562290  0.635780  0.487000  1.0  -0.1983
  C  C374  1  0.637850  0.658090  0.249700  1.0  0.4353
  C  C375  1  0.625110  0.629780  0.127500  1.0  -0.1725
  C  C376  1  0.647030  0.591670  0.118600  1.0  -0.1343
  C  C377  1  0.679040  0.583890  0.230400  1.0  -0.132
  C  C378  1  0.689510  0.614290  0.347400  1.0  0.1304
  C  C379  1  0.309550  0.712380  0.199700  1.0  -0.1893
  C  C380  1  0.272430  0.700550  0.127100  1.0  0.1624
  C  C381  1  0.268590  0.761990  0.975000  1.0  0.1621
  C  C382  1  0.306370  0.776400  0.041300  1.0  -0.2091
  C  C383  1  0.327870  0.751200  0.156000  1.0  0.0101
  C  C384  1  0.369230  0.761810  0.230500  1.0  0.2513
  C  C385  1  0.424230  0.795580  0.333100  1.0  0.2452
  C  C386  1  0.452470  0.827650  0.406200  1.0  0.0106
  C  C387  1  0.496100  0.820840  0.403600  1.0  -0.1821
  C  C388  1  0.522660  0.849950  0.479300  1.0  0.1589
  C  C389  1  0.466620  0.891730  0.558600  1.0  0.1645
  C  C390  1  0.437710  0.864220  0.487000  1.0  -0.1975
  C  C391  1  0.362150  0.841910  0.249700  1.0  0.4341
  C  C392  1  0.374890  0.870220  0.127500  1.0  -0.1727
  C  C393  1  0.352970  0.908330  0.118600  1.0  -0.136
  C  C394  1  0.320960  0.916110  0.230400  1.0  -0.1328
  C  C395  1  0.310490  0.885710  0.347400  1.0  0.1279
  C  C396  1  0.809550  0.212380  0.699700  1.0  -0.1893
  C  C397  1  0.772430  0.200550  0.627100  1.0  0.1624
  C  C398  1  0.768590  0.261990  0.475000  1.0  0.1621
  C  C399  1  0.806370  0.276400  0.541300  1.0  -0.2091
  C  C400  1  0.827870  0.251200  0.656000  1.0  0.0101
  C  C401  1  0.869230  0.261810  0.730500  1.0  0.2513
  C  C402  1  0.924230  0.295580  0.833100  1.0  0.2452
  C  C403  1  0.952470  0.327650  0.906200  1.0  0.0106
  C  C404  1  0.996100  0.320840  0.903600  1.0  -0.1821
  C  C405  1  0.022660  0.349950  0.979300  1.0  0.1589
  C  C406  1  0.966620  0.391730  0.058600  1.0  0.1645
  C  C407  1  0.937710  0.364220  0.987000  1.0  -0.1975
  C  C408  1  0.862150  0.341910  0.749700  1.0  0.4341
  C  C409  1  0.874890  0.370220  0.627500  1.0  -0.1727
  C  C410  1  0.852970  0.408330  0.618600  1.0  -0.136
  C  C411  1  0.820960  0.416110  0.730400  1.0  -0.1328
  C  C412  1  0.810490  0.385710  0.847400  1.0  0.1279
  C  C413  1  0.962380  0.940450  0.449700  1.0  -0.1887
  C  C414  1  0.950550  0.977570  0.377100  1.0  0.1645
  C  C415  1  0.011990  0.981410  0.225000  1.0  0.1624
  C  C416  1  0.026400  0.943630  0.291300  1.0  -0.2092
  C  C417  1  0.001200  0.922130  0.406000  1.0  0.0117
  C  C418  1  0.011810  0.880770  0.480500  1.0  0.2525
  C  C419  1  0.045580  0.825770  0.583100  1.0  0.2457
  C  C420  1  0.077650  0.797530  0.656200  1.0  0.0111
  C  C421  1  0.070840  0.753900  0.653600  1.0  -0.1854
  C  C422  1  0.099950  0.727340  0.729300  1.0  0.1597
  C  C423  1  0.141730  0.783380  0.808600  1.0  0.165
  C  C424  1  0.114220  0.812290  0.737000  1.0  -0.1967
  C  C425  1  0.091910  0.887850  0.499700  1.0  0.4352
  C  C426  1  0.120220  0.875110  0.377500  1.0  -0.1717
  C  C427  1  0.158330  0.897030  0.368600  1.0  -0.1346
  C  C428  1  0.166110  0.929040  0.480400  1.0  -0.1314
  C  C429  1  0.135710  0.939510  0.597400  1.0  0.1288
  C  C430  1  0.462380  0.440450  0.949700  1.0  -0.1887
  C  C431  1  0.450550  0.477570  0.877100  1.0  0.1645
  C  C432  1  0.511990  0.481410  0.725000  1.0  0.1624
  C  C433  1  0.526400  0.443630  0.791300  1.0  -0.2092
  C  C434  1  0.501200  0.422130  0.906000  1.0  0.0117
  C  C435  1  0.511810  0.380770  0.980500  1.0  0.2525
  C  C436  1  0.545580  0.325770  0.083100  1.0  0.2457
  C  C437  1  0.577650  0.297530  0.156200  1.0  0.0111
  C  C438  1  0.570840  0.253900  0.153600  1.0  -0.1854
  C  C439  1  0.599950  0.227340  0.229300  1.0  0.1597
  C  C440  1  0.641730  0.283380  0.308600  1.0  0.165
  C  C441  1  0.614220  0.312290  0.237000  1.0  -0.1967
  C  C442  1  0.591910  0.387850  0.999700  1.0  0.4352
  C  C443  1  0.620220  0.375110  0.877500  1.0  -0.1717
  C  C444  1  0.658330  0.397030  0.868600  1.0  -0.1346
  C  C445  1  0.666110  0.429040  0.980400  1.0  -0.1314
  C  C446  1  0.635710  0.439510  0.097400  1.0  0.1288
  C  C447  1  0.537620  0.059550  0.949700  1.0  -0.1888
  C  C448  1  0.549450  0.022430  0.877100  1.0  0.1645
  C  C449  1  0.488010  0.018590  0.725000  1.0  0.1632
  C  C450  1  0.473600  0.056370  0.791300  1.0  -0.2084
  C  C451  1  0.498800  0.077870  0.906000  1.0  0.0123
  C  C452  1  0.488190  0.119230  0.980500  1.0  0.2524
  C  C453  1  0.454420  0.174230  0.083100  1.0  0.2458
  C  C454  1  0.422350  0.202470  0.156200  1.0  0.011
  C  C455  1  0.429160  0.246100  0.153600  1.0  -0.1849
  C  C456  1  0.400050  0.272660  0.229300  1.0  0.159
  C  C457  1  0.358270  0.216620  0.308600  1.0  0.1645
  C  C458  1  0.385780  0.187710  0.237000  1.0  -0.1961
  C  C459  1  0.408090  0.112150  0.999700  1.0  0.4336
  C  C460  1  0.379780  0.124890  0.877500  1.0  -0.1724
  C  C461  1  0.341670  0.102970  0.868600  1.0  -0.1355
  C  C462  1  0.333890  0.070960  0.980400  1.0  -0.1323
  C  C463  1  0.364290  0.060490  0.097400  1.0  0.1305
  C  C464  1  0.037620  0.559550  0.449700  1.0  -0.1888
  C  C465  1  0.049450  0.522430  0.377100  1.0  0.1645
  C  C466  1  0.988010  0.518590  0.225000  1.0  0.1632
  C  C467  1  0.973600  0.556370  0.291300  1.0  -0.2084
  C  C468  1  0.998800  0.577870  0.406000  1.0  0.0123
  C  C469  1  0.988190  0.619230  0.480500  1.0  0.2524
  C  C470  1  0.954420  0.674230  0.583100  1.0  0.2458
  C  C471  1  0.922350  0.702470  0.656200  1.0  0.011
  C  C472  1  0.929160  0.746100  0.653600  1.0  -0.1849
  C  C473  1  0.900050  0.772660  0.729300  1.0  0.159
  C  C474  1  0.858270  0.716620  0.808600  1.0  0.1645
  C  C475  1  0.885780  0.687710  0.737000  1.0  -0.1961
  C  C476  1  0.908090  0.612150  0.499700  1.0  0.4336
  C  C477  1  0.879780  0.624890  0.377500  1.0  -0.1724
  C  C478  1  0.841670  0.602970  0.368600  1.0  -0.1355
  C  C479  1  0.833890  0.570960  0.480400  1.0  -0.1323
  C  C480  1  0.864290  0.560490  0.597400  1.0  0.1305
  N  N481  1  0.751260  0.724610  0.486200  1.0  -0.3712
  N  N482  1  0.898500  0.733370  0.231700  1.0  -0.3024
  N  N483  1  0.933030  0.754650  0.168200  1.0  -0.2683
  N  N484  1  0.884250  0.802140  0.231500  1.0  -0.0881
  N  N485  1  0.008530  0.885630  0.943200  1.0  -0.3551
  N  N486  1  0.830950  0.848520  0.140800  1.0  -0.3604
  N  N487  1  0.251260  0.224610  0.986200  1.0  -0.3712
  N  N488  1  0.398500  0.233370  0.731700  1.0  -0.3024
  N  N489  1  0.433030  0.254650  0.668200  1.0  -0.2683
  N  N490  1  0.384250  0.302140  0.731500  1.0  -0.0881
  N  N491  1  0.508530  0.385630  0.443200  1.0  -0.3551
  N  N492  1  0.330950  0.348520  0.640800  1.0  -0.3604
  N  N493  1  0.748740  0.275390  0.986200  1.0  -0.3693
  N  N494  1  0.601500  0.266630  0.731700  1.0  -0.3023
  N  N495  1  0.566970  0.245350  0.668200  1.0  -0.2681
  N  N496  1  0.615750  0.197860  0.731500  1.0  -0.0885
  N  N497  1  0.491470  0.114370  0.443200  1.0  -0.3584
  N  N498  1  0.669050  0.151480  0.640800  1.0  -0.3573
  N  N499  1  0.248740  0.775390  0.486200  1.0  -0.3693
  N  N500  1  0.101500  0.766630  0.231700  1.0  -0.3023
  N  N501  1  0.066970  0.745350  0.168200  1.0  -0.2681
  N  N502  1  0.115750  0.697860  0.231500  1.0  -0.0885
  N  N503  1  0.991470  0.614370  0.943200  1.0  -0.3584
  N  N504  1  0.169050  0.651480  0.140800  1.0  -0.3573
  N  N505  1  0.025390  0.001260  0.736200  1.0  -0.3685
  N  N506  1  0.016630  0.148500  0.481700  1.0  -0.305
  N  N507  1  0.995350  0.183030  0.418200  1.0  -0.2686
  N  N508  1  0.947860  0.134250  0.481500  1.0  -0.0909
  N  N509  1  0.864370  0.258530  0.193200  1.0  -0.3553
  N  N510  1  0.901480  0.080950  0.390800  1.0  -0.3576
  N  N511  1  0.525390  0.501260  0.236200  1.0  -0.3685
  N  N512  1  0.516630  0.648500  0.981700  1.0  -0.305
  N  N513  1  0.495350  0.683030  0.918200  1.0  -0.2686
  N  N514  1  0.447860  0.634250  0.981500  1.0  -0.0909
  N  N515  1  0.364370  0.758530  0.693200  1.0  -0.3553
  N  N516  1  0.401480  0.580950  0.890800  1.0  -0.3576
  N  N517  1  0.474610  0.998740  0.236200  1.0  -0.3696
  N  N518  1  0.483370  0.851500  0.981700  1.0  -0.3013
  N  N519  1  0.504650  0.816970  0.918200  1.0  -0.2675
  N  N520  1  0.552140  0.865750  0.981500  1.0  -0.0898
  N  N521  1  0.635630  0.741470  0.693200  1.0  -0.3549
  N  N522  1  0.598520  0.919050  0.890800  1.0  -0.3588
  N  N523  1  0.974610  0.498740  0.736200  1.0  -0.3696
  N  N524  1  0.983370  0.351500  0.481700  1.0  -0.3013
  N  N525  1  0.004650  0.316970  0.418200  1.0  -0.2675
  N  N526  1  0.052140  0.365750  0.481500  1.0  -0.0898
  N  N527  1  0.135630  0.241470  0.193200  1.0  -0.3549
  N  N528  1  0.098520  0.419050  0.390800  1.0  -0.3588
  N  N529  1  0.248740  0.275390  0.513800  1.0  -0.3701
  N  N530  1  0.101500  0.266630  0.768300  1.0  -0.3021
  N  N531  1  0.066970  0.245350  0.831800  1.0  -0.2684
  N  N532  1  0.115750  0.197860  0.768500  1.0  -0.0887
  N  N533  1  0.991470  0.114370  0.056800  1.0  -0.3575
  N  N534  1  0.169050  0.151480  0.859200  1.0  -0.3576
  N  N535  1  0.748740  0.775390  0.013800  1.0  -0.3701
  N  N536  1  0.601500  0.766630  0.268300  1.0  -0.3021
  N  N537  1  0.566970  0.745350  0.331800  1.0  -0.2684
  N  N538  1  0.615750  0.697860  0.268500  1.0  -0.0887
  N  N539  1  0.491470  0.614370  0.556800  1.0  -0.3575
  N  N540  1  0.669050  0.651480  0.359200  1.0  -0.3576
  N  N541  1  0.251260  0.724610  0.013800  1.0  -0.3735
  N  N542  1  0.398500  0.733370  0.268300  1.0  -0.302
  N  N543  1  0.433030  0.754650  0.331800  1.0  -0.2684
  N  N544  1  0.384250  0.802140  0.268500  1.0  -0.0883
  N  N545  1  0.508530  0.885630  0.556800  1.0  -0.356
  N  N546  1  0.330950  0.848520  0.359200  1.0  -0.3581
  N  N547  1  0.751260  0.224610  0.513800  1.0  -0.3735
  N  N548  1  0.898500  0.233370  0.768300  1.0  -0.302
  N  N549  1  0.933030  0.254650  0.831800  1.0  -0.2684
  N  N550  1  0.884250  0.302140  0.768500  1.0  -0.0883
  N  N551  1  0.008530  0.385630  0.056800  1.0  -0.356
  N  N552  1  0.830950  0.348520  0.859200  1.0  -0.3581
  N  N553  1  0.974610  0.998740  0.263800  1.0  -0.37
  N  N554  1  0.983370  0.851500  0.518300  1.0  -0.3011
  N  N555  1  0.004650  0.816970  0.581800  1.0  -0.2675
  N  N556  1  0.052140  0.865750  0.518500  1.0  -0.0903
  N  N557  1  0.135630  0.741470  0.806800  1.0  -0.354
  N  N558  1  0.098520  0.919050  0.609200  1.0  -0.3586
  N  N559  1  0.474610  0.498740  0.763800  1.0  -0.37
  N  N560  1  0.483370  0.351500  0.018300  1.0  -0.3011
  N  N561  1  0.504650  0.316970  0.081800  1.0  -0.2675
  N  N562  1  0.552140  0.365750  0.018500  1.0  -0.0903
  N  N563  1  0.635630  0.241470  0.306800  1.0  -0.354
  N  N564  1  0.598520  0.419050  0.109200  1.0  -0.3586
  N  N565  1  0.525390  0.001260  0.763800  1.0  -0.3708
  N  N566  1  0.516630  0.148500  0.018300  1.0  -0.305
  N  N567  1  0.495350  0.183030  0.081800  1.0  -0.269
  N  N568  1  0.447860  0.134250  0.018500  1.0  -0.091
  N  N569  1  0.364370  0.258530  0.306800  1.0  -0.3562
  N  N570  1  0.401480  0.080950  0.109200  1.0  -0.3564
  N  N571  1  0.025390  0.501260  0.263800  1.0  -0.3708
  N  N572  1  0.016630  0.648500  0.518300  1.0  -0.305
  N  N573  1  0.995350  0.683030  0.581800  1.0  -0.269
  N  N574  1  0.947860  0.634250  0.518500  1.0  -0.091
  N  N575  1  0.864370  0.758530  0.806800  1.0  -0.3562
  N  N576  1  0.901480  0.580950  0.609200  1.0  -0.3564
