# generated using pymatgen
data_AgH12C17N6
_symmetry_space_group_name_H-M   'P 1'
_cell_length_a   22.81310000
_cell_length_b   22.81310000
_cell_length_c   7.78790000
_cell_angle_alpha   90.00000000
_cell_angle_beta   90.00000000
_cell_angle_gamma   90.00000000
_symmetry_Int_Tables_number   1
_chemical_formula_structural   AgH12C17N6
_chemical_formula_sum   'Ag8 H96 C136 N48'
_cell_volume   4053.11545243
_cell_formula_units_Z   8
loop_
 _symmetry_equiv_pos_site_id
 _symmetry_equiv_pos_as_xyz
  1  'x, y, z'
loop_
 _atom_site_type_symbol
 _atom_site_label
 _atom_site_symmetry_multiplicity
 _atom_site_fract_x
 _atom_site_fract_y
 _atom_site_fract_z
 _atom_site_occupancy
 _atom_site_charge
  Ag  Ag1  1  0.511680  0.626870  0.231710  1.0  0.167
  Ag  Ag2  1  0.988320  0.873130  0.231710  1.0  0.166
  Ag  Ag3  1  0.373130  0.011680  0.731710  1.0  0.1664
  Ag  Ag4  1  0.126870  0.488320  0.731710  1.0  0.1683
  Ag  Ag5  1  0.488320  0.373130  0.768290  1.0  0.1672
  Ag  Ag6  1  0.011680  0.126870  0.768290  1.0  0.1681
  Ag  Ag7  1  0.626870  0.988320  0.268290  1.0  0.1684
  Ag  Ag8  1  0.873130  0.511680  0.268290  1.0  0.1679
  H  H9  1  0.547000  0.782300  0.378600  1.0  0.1075
  H  H10  1  0.549100  0.878400  0.296600  1.0  0.0602
  H  H11  1  0.711300  0.893500  0.442200  1.0  0.0663
  H  H12  1  0.712300  0.799500  0.541800  1.0  0.1084
  H  H13  1  0.636900  0.522600  0.520900  1.0  0.1087
  H  H14  1  0.591700  0.436000  0.583500  1.0  0.0646
  H  H15  1  0.472400  0.516500  0.850900  1.0  0.0601
  H  H16  1  0.514800  0.605800  0.796300  1.0  0.1119
  H  H17  1  0.402500  0.672900  0.461300  1.0  0.0727
  H  H18  1  0.375700  0.742900  0.653200  1.0  0.1112
  H  H19  1  0.446200  0.789700  0.816000  1.0  0.099
  H  H20  1  0.543900  0.760000  0.789200  1.0  0.1093
  H  H21  1  0.953000  0.717700  0.378600  1.0  0.1077
  H  H22  1  0.950900  0.621600  0.296600  1.0  0.0608
  H  H23  1  0.788700  0.606500  0.442200  1.0  0.0664
  H  H24  1  0.787700  0.700500  0.541800  1.0  0.1085
  H  H25  1  0.863100  0.977400  0.520900  1.0  0.1087
  H  H26  1  0.908300  0.064000  0.583500  1.0  0.0651
  H  H27  1  0.027600  0.983500  0.850900  1.0  0.0606
  H  H28  1  0.985200  0.894200  0.796300  1.0  0.1119
  H  H29  1  0.097500  0.827100  0.461300  1.0  0.0728
  H  H30  1  0.124300  0.757100  0.653200  1.0  0.1099
  H  H31  1  0.053800  0.710300  0.816000  1.0  0.0989
  H  H32  1  0.956100  0.740000  0.789200  1.0  0.1089
  H  H33  1  0.217700  0.047000  0.878600  1.0  0.1071
  H  H34  1  0.121600  0.049100  0.796600  1.0  0.0591
  H  H35  1  0.106500  0.211300  0.942200  1.0  0.0668
  H  H36  1  0.200500  0.212300  0.041800  1.0  0.1081
  H  H37  1  0.477400  0.136900  0.020900  1.0  0.1093
  H  H38  1  0.564000  0.091700  0.083500  1.0  0.065
  H  H39  1  0.483500  0.972400  0.350900  1.0  0.0597
  H  H40  1  0.394200  0.014800  0.296300  1.0  0.1121
  H  H41  1  0.327100  0.902500  0.961300  1.0  0.0727
  H  H42  1  0.257100  0.875700  0.153200  1.0  0.1117
  H  H43  1  0.210300  0.946200  0.316000  1.0  0.0997
  H  H44  1  0.240000  0.043900  0.289200  1.0  0.1095
  H  H45  1  0.282300  0.453000  0.878600  1.0  0.1074
  H  H46  1  0.378400  0.450900  0.796600  1.0  0.0591
  H  H47  1  0.393500  0.288700  0.942200  1.0  0.0669
  H  H48  1  0.299500  0.287700  0.041800  1.0  0.1081
  H  H49  1  0.022600  0.363100  0.020900  1.0  0.1091
  H  H50  1  0.936000  0.408300  0.083500  1.0  0.065
  H  H51  1  0.016500  0.527600  0.350900  1.0  0.0598
  H  H52  1  0.105800  0.485200  0.296300  1.0  0.1119
  H  H53  1  0.172900  0.597500  0.961300  1.0  0.0741
  H  H54  1  0.242900  0.624300  0.153200  1.0  0.112
  H  H55  1  0.289700  0.553800  0.316000  1.0  0.1
  H  H56  1  0.260000  0.456100  0.289200  1.0  0.1097
  H  H57  1  0.453000  0.217700  0.621400  1.0  0.1075
  H  H58  1  0.450900  0.121600  0.703400  1.0  0.0608
  H  H59  1  0.288700  0.106500  0.557800  1.0  0.0665
  H  H60  1  0.287700  0.200500  0.458200  1.0  0.1085
  H  H61  1  0.363100  0.477400  0.479100  1.0  0.109
  H  H62  1  0.408300  0.564000  0.416500  1.0  0.0648
  H  H63  1  0.527600  0.483500  0.149100  1.0  0.0604
  H  H64  1  0.485200  0.394200  0.203700  1.0  0.1121
  H  H65  1  0.597500  0.327100  0.538700  1.0  0.073
  H  H66  1  0.624300  0.257100  0.346800  1.0  0.1101
  H  H67  1  0.553800  0.210300  0.184000  1.0  0.0981
  H  H68  1  0.456100  0.240000  0.210800  1.0  0.1088
  H  H69  1  0.047000  0.282300  0.621400  1.0  0.1073
  H  H70  1  0.049100  0.378400  0.703400  1.0  0.0602
  H  H71  1  0.211300  0.393500  0.557800  1.0  0.0663
  H  H72  1  0.212300  0.299500  0.458200  1.0  0.1083
  H  H73  1  0.136900  0.022600  0.479100  1.0  0.1096
  H  H74  1  0.091700  0.936000  0.416500  1.0  0.0644
  H  H75  1  0.972400  0.016500  0.149100  1.0  0.0602
  H  H76  1  0.014800  0.105800  0.203700  1.0  0.1124
  H  H77  1  0.902500  0.172900  0.538700  1.0  0.0731
  H  H78  1  0.875700  0.242900  0.346800  1.0  0.1115
  H  H79  1  0.946200  0.289700  0.184000  1.0  0.0983
  H  H80  1  0.043900  0.260000  0.210800  1.0  0.109
  H  H81  1  0.782300  0.953000  0.121400  1.0  0.1071
  H  H82  1  0.878400  0.950900  0.203400  1.0  0.0592
  H  H83  1  0.893500  0.788700  0.057800  1.0  0.0671
  H  H84  1  0.799500  0.787700  0.958200  1.0  0.1079
  H  H85  1  0.522600  0.863100  0.979100  1.0  0.1106
  H  H86  1  0.436000  0.908300  0.916500  1.0  0.065
  H  H87  1  0.516500  0.027600  0.649100  1.0  0.0596
  H  H88  1  0.605800  0.985200  0.703700  1.0  0.1122
  H  H89  1  0.672900  0.097500  0.038700  1.0  0.0742
  H  H90  1  0.742900  0.124300  0.846800  1.0  0.112
  H  H91  1  0.789700  0.053800  0.684000  1.0  0.0995
  H  H92  1  0.760000  0.956100  0.710800  1.0  0.1097
  H  H93  1  0.717700  0.547000  0.121400  1.0  0.1071
  H  H94  1  0.621600  0.549100  0.203400  1.0  0.0593
  H  H95  1  0.606500  0.711300  0.057800  1.0  0.0668
  H  H96  1  0.700500  0.712300  0.958200  1.0  0.1081
  H  H97  1  0.977400  0.636900  0.979100  1.0  0.1093
  H  H98  1  0.064000  0.591700  0.916500  1.0  0.0646
  H  H99  1  0.983500  0.472400  0.649100  1.0  0.0596
  H  H100  1  0.894200  0.514800  0.703700  1.0  0.1123
  H  H101  1  0.827100  0.402500  0.038700  1.0  0.0733
  H  H102  1  0.757100  0.375700  0.846800  1.0  0.1118
  H  H103  1  0.710300  0.446200  0.684000  1.0  0.0991
  H  H104  1  0.740000  0.543900  0.710800  1.0  0.1093
  C  C105  1  0.580700  0.804400  0.396000  1.0  -0.1965
  C  C106  1  0.582600  0.862100  0.345200  1.0  0.1675
  C  C107  1  0.677400  0.871200  0.432300  1.0  0.1679
  C  C108  1  0.678600  0.814400  0.490700  1.0  -0.1812
  C  C109  1  0.629180  0.779400  0.472900  1.0  0.0234
  C  C110  1  0.632800  0.717600  0.527100  1.0  0.2637
  C  C111  1  0.611100  0.628500  0.602500  1.0  0.2566
  C  C112  1  0.580500  0.574300  0.650400  1.0  -0.0014
  C  C113  1  0.603200  0.522400  0.588100  1.0  -0.2135
  C  C114  1  0.575600  0.470500  0.626000  1.0  0.1658
  C  C115  1  0.505800  0.517700  0.782800  1.0  0.1634
  C  C116  1  0.531000  0.571800  0.750800  1.0  -0.2262
  C  C117  1  0.526830  0.700670  0.602700  1.0  0.4314
  C  C118  1  0.431400  0.691000  0.526900  1.0  0.1461
  C  C119  1  0.415000  0.732900  0.641400  1.0  -0.1461
  C  C120  1  0.456700  0.760200  0.739400  1.0  -0.1168
  C  C121  1  0.514500  0.743300  0.722400  1.0  -0.1733
  C  C122  1  0.919300  0.695600  0.396000  1.0  -0.1973
  C  C123  1  0.917400  0.637900  0.345200  1.0  0.1676
  C  C124  1  0.822600  0.628800  0.432300  1.0  0.1688
  C  C125  1  0.821400  0.685600  0.490700  1.0  -0.1808
  C  C126  1  0.870820  0.720600  0.472900  1.0  0.0235
  C  C127  1  0.867200  0.782400  0.527100  1.0  0.2627
  C  C128  1  0.888900  0.871500  0.602500  1.0  0.2565
  C  C129  1  0.919500  0.925700  0.650400  1.0  -0.0014
  C  C130  1  0.896800  0.977600  0.588100  1.0  -0.214
  C  C131  1  0.924400  0.029500  0.626000  1.0  0.1673
  C  C132  1  0.994200  0.982300  0.782800  1.0  0.1633
  C  C133  1  0.969000  0.928200  0.750800  1.0  -0.2265
  C  C134  1  0.973170  0.799330  0.602700  1.0  0.4338
  C  C135  1  0.068600  0.809000  0.526900  1.0  0.1464
  C  C136  1  0.085000  0.767100  0.641400  1.0  -0.1441
  C  C137  1  0.043300  0.739800  0.739400  1.0  -0.1175
  C  C138  1  0.985500  0.756700  0.722400  1.0  -0.172
  C  C139  1  0.195600  0.080700  0.896000  1.0  -0.1972
  C  C140  1  0.137900  0.082600  0.845200  1.0  0.1668
  C  C141  1  0.128800  0.177400  0.932300  1.0  0.1687
  C  C142  1  0.185600  0.178600  0.990700  1.0  -0.1809
  C  C143  1  0.220600  0.129180  0.972900  1.0  0.0233
  C  C144  1  0.282400  0.132800  0.027100  1.0  0.2613
  C  C145  1  0.371500  0.111100  0.102500  1.0  0.2549
  C  C146  1  0.425700  0.080500  0.150400  1.0  -0.0025
  C  C147  1  0.477600  0.103200  0.088100  1.0  -0.2115
  C  C148  1  0.529500  0.075600  0.126000  1.0  0.1694
  C  C149  1  0.482300  0.005800  0.282800  1.0  0.1641
  C  C150  1  0.428200  0.031000  0.250800  1.0  -0.2267
  C  C151  1  0.299330  0.026830  0.102700  1.0  0.4328
  C  C152  1  0.309000  0.931400  0.026900  1.0  0.1505
  C  C153  1  0.267100  0.915000  0.141400  1.0  -0.1441
  C  C154  1  0.239800  0.956700  0.239400  1.0  -0.118
  C  C155  1  0.256700  0.014500  0.222400  1.0  -0.1741
  C  C156  1  0.304400  0.419300  0.896000  1.0  -0.1971
  C  C157  1  0.362100  0.417400  0.845200  1.0  0.1668
  C  C158  1  0.371200  0.322600  0.932300  1.0  0.1691
  C  C159  1  0.314400  0.321400  0.990700  1.0  -0.1793
  C  C160  1  0.279400  0.370820  0.972900  1.0  0.0229
  C  C161  1  0.217600  0.367200  0.027100  1.0  0.262
  C  C162  1  0.128500  0.388900  0.102500  1.0  0.2545
  C  C163  1  0.074300  0.419500  0.150400  1.0  -0.0032
  C  C164  1  0.022400  0.396800  0.088100  1.0  -0.2116
  C  C165  1  0.970500  0.424400  0.126000  1.0  0.1693
  C  C166  1  0.017700  0.494200  0.282800  1.0  0.1631
  C  C167  1  0.071800  0.469000  0.250800  1.0  -0.2269
  C  C168  1  0.200670  0.473170  0.102700  1.0  0.433
  C  C169  1  0.191000  0.568600  0.026900  1.0  0.1501
  C  C170  1  0.232900  0.585000  0.141400  1.0  -0.1369
  C  C171  1  0.260200  0.543300  0.239400  1.0  -0.1137
  C  C172  1  0.243300  0.485500  0.222400  1.0  -0.1743
  C  C173  1  0.419300  0.195600  0.604000  1.0  -0.1978
  C  C174  1  0.417400  0.137900  0.654800  1.0  0.1675
  C  C175  1  0.322600  0.128800  0.567700  1.0  0.1684
  C  C176  1  0.321400  0.185600  0.509300  1.0  -0.1811
  C  C177  1  0.370820  0.220600  0.527100  1.0  0.0231
  C  C178  1  0.367200  0.282400  0.472900  1.0  0.2626
  C  C179  1  0.388900  0.371500  0.397500  1.0  0.2565
  C  C180  1  0.419500  0.425700  0.349600  1.0  -0.0014
  C  C181  1  0.396800  0.477600  0.411900  1.0  -0.2136
  C  C182  1  0.424400  0.529500  0.374000  1.0  0.1674
  C  C183  1  0.494200  0.482300  0.217200  1.0  0.1631
  C  C184  1  0.469000  0.428200  0.249200  1.0  -0.2261
  C  C185  1  0.473170  0.299330  0.397300  1.0  0.4338
  C  C186  1  0.568600  0.309000  0.473100  1.0  0.1451
  C  C187  1  0.585000  0.267100  0.358600  1.0  -0.1442
  C  C188  1  0.543300  0.239800  0.260600  1.0  -0.1171
  C  C189  1  0.485500  0.256700  0.277600  1.0  -0.1727
  C  C190  1  0.080700  0.304400  0.604000  1.0  -0.1965
  C  C191  1  0.082600  0.362100  0.654800  1.0  0.1676
  C  C192  1  0.177400  0.371200  0.567700  1.0  0.1676
  C  C193  1  0.178600  0.314400  0.509300  1.0  -0.1819
  C  C194  1  0.129180  0.279400  0.527100  1.0  0.0231
  C  C195  1  0.132800  0.217600  0.472900  1.0  0.2634
  C  C196  1  0.111100  0.128500  0.397500  1.0  0.2568
  C  C197  1  0.080500  0.074300  0.349600  1.0  -0.0014
  C  C198  1  0.103200  0.022400  0.411900  1.0  -0.2134
  C  C199  1  0.075600  0.970500  0.374000  1.0  0.1663
  C  C200  1  0.005800  0.017700  0.217200  1.0  0.1627
  C  C201  1  0.031000  0.071800  0.249200  1.0  -0.2265
  C  C202  1  0.026830  0.200670  0.397300  1.0  0.4317
  C  C203  1  0.931400  0.191000  0.473100  1.0  0.1444
  C  C204  1  0.915000  0.232900  0.358600  1.0  -0.1461
  C  C205  1  0.956700  0.260200  0.260600  1.0  -0.1156
  C  C206  1  0.014500  0.243300  0.277600  1.0  -0.1741
  C  C207  1  0.804400  0.919300  0.104000  1.0  -0.1973
  C  C208  1  0.862100  0.917400  0.154800  1.0  0.1664
  C  C209  1  0.871200  0.822600  0.067700  1.0  0.1685
  C  C210  1  0.814400  0.821400  0.009300  1.0  -0.1798
  C  C211  1  0.779400  0.870820  0.027100  1.0  0.0227
  C  C212  1  0.717600  0.867200  0.972900  1.0  0.2616
  C  C213  1  0.628500  0.888900  0.897500  1.0  0.2546
  C  C214  1  0.574300  0.919500  0.849600  1.0  -0.0031
  C  C215  1  0.522400  0.896800  0.911900  1.0  -0.2115
  C  C216  1  0.470500  0.924400  0.874000  1.0  0.1695
  C  C217  1  0.517700  0.994200  0.717200  1.0  0.1633
  C  C218  1  0.571800  0.969000  0.749200  1.0  -0.2267
  C  C219  1  0.700670  0.973170  0.897300  1.0  0.4333
  C  C220  1  0.691000  0.068600  0.973100  1.0  0.1475
  C  C221  1  0.732900  0.085000  0.858600  1.0  -0.1367
  C  C222  1  0.760200  0.043300  0.760600  1.0  -0.1121
  C  C223  1  0.743300  0.985500  0.777600  1.0  -0.1756
  C  C224  1  0.695600  0.580700  0.104000  1.0  -0.1977
  C  C225  1  0.637900  0.582600  0.154800  1.0  0.1668
  C  C226  1  0.628800  0.677400  0.067700  1.0  0.1684
  C  C227  1  0.685600  0.678600  0.009300  1.0  -0.1811
  C  C228  1  0.720600  0.629180  0.027100  1.0  0.0229
  C  C229  1  0.782400  0.632800  0.972900  1.0  0.2606
  C  C230  1  0.871500  0.611100  0.897500  1.0  0.255
  C  C231  1  0.925700  0.580500  0.849600  1.0  -0.0026
  C  C232  1  0.977600  0.603200  0.911900  1.0  -0.2115
  C  C233  1  0.029500  0.575600  0.874000  1.0  0.1698
  C  C234  1  0.982300  0.505800  0.717200  1.0  0.1635
  C  C235  1  0.928200  0.531000  0.749200  1.0  -0.2274
  C  C236  1  0.799330  0.526830  0.897300  1.0  0.4332
  C  C237  1  0.809000  0.431400  0.973100  1.0  0.1488
  C  C238  1  0.767100  0.415000  0.858600  1.0  -0.1437
  C  C239  1  0.739800  0.456700  0.760600  1.0  -0.1168
  C  C240  1  0.756700  0.514500  0.777600  1.0  -0.175
  N  N241  1  0.630060  0.895960  0.362000  1.0  -0.3453
  N  N242  1  0.667600  0.630880  0.573100  1.0  -0.3026
  N  N243  1  0.681260  0.687340  0.523900  1.0  -0.3005
  N  N244  1  0.586500  0.682690  0.576300  1.0  -0.1053
  N  N245  1  0.526900  0.467090  0.721100  1.0  -0.3594
  N  N246  1  0.487320  0.674490  0.504100  1.0  -0.3757
  N  N247  1  0.869940  0.604040  0.362000  1.0  -0.3459
  N  N248  1  0.832400  0.869120  0.573100  1.0  -0.301
  N  N249  1  0.818740  0.812660  0.523900  1.0  -0.2989
  N  N250  1  0.913500  0.817310  0.576300  1.0  -0.1058
  N  N251  1  0.973100  0.032910  0.721100  1.0  -0.3587
  N  N252  1  0.012680  0.825510  0.504100  1.0  -0.3772
  N  N253  1  0.104040  0.130060  0.862000  1.0  -0.3451
  N  N254  1  0.369120  0.167600  0.073100  1.0  -0.3025
  N  N255  1  0.312660  0.181260  0.023900  1.0  -0.2988
  N  N256  1  0.317310  0.086500  0.076300  1.0  -0.1044
  N  N257  1  0.532910  0.026900  0.221100  1.0  -0.3563
  N  N258  1  0.325510  0.987320  0.004100  1.0  -0.3748
  N  N259  1  0.395960  0.369940  0.862000  1.0  -0.3449
  N  N260  1  0.130880  0.332400  0.073100  1.0  -0.3012
  N  N261  1  0.187340  0.318740  0.023900  1.0  -0.2985
  N  N262  1  0.182690  0.413500  0.076300  1.0  -0.1039
  N  N263  1  0.967090  0.473100  0.221100  1.0  -0.3568
  N  N264  1  0.174490  0.512680  0.004100  1.0  -0.3772
  N  N265  1  0.369940  0.104040  0.638000  1.0  -0.3456
  N  N266  1  0.332400  0.369120  0.426900  1.0  -0.301
  N  N267  1  0.318740  0.312660  0.476100  1.0  -0.2992
  N  N268  1  0.413500  0.317310  0.423700  1.0  -0.1058
  N  N269  1  0.473100  0.532910  0.278900  1.0  -0.3583
  N  N270  1  0.512680  0.325510  0.495900  1.0  -0.3767
  N  N271  1  0.130060  0.395960  0.638000  1.0  -0.3449
  N  N272  1  0.167600  0.130880  0.426900  1.0  -0.3026
  N  N273  1  0.181260  0.187340  0.476100  1.0  -0.3006
  N  N274  1  0.086500  0.182690  0.423700  1.0  -0.1053
  N  N275  1  0.026900  0.967090  0.278900  1.0  -0.3603
  N  N276  1  0.987320  0.174490  0.495900  1.0  -0.3741
  N  N277  1  0.895960  0.869940  0.138000  1.0  -0.3445
  N  N278  1  0.630880  0.832400  0.926900  1.0  -0.3011
  N  N279  1  0.687340  0.818740  0.976100  1.0  -0.2984
  N  N280  1  0.682690  0.913500  0.923700  1.0  -0.104
  N  N281  1  0.467090  0.973100  0.778900  1.0  -0.3563
  N  N282  1  0.674490  0.012680  0.995900  1.0  -0.376
  N  N283  1  0.604040  0.630060  0.138000  1.0  -0.345
  N  N284  1  0.869120  0.667600  0.926900  1.0  -0.3027
  N  N285  1  0.812660  0.681260  0.976100  1.0  -0.2993
  N  N286  1  0.817310  0.586500  0.923700  1.0  -0.1044
  N  N287  1  0.032910  0.526900  0.778900  1.0  -0.3571
  N  N288  1  0.825510  0.487320  0.995900  1.0  -0.3757
