# generated using pymatgen
data_AgH12C17N6
_symmetry_space_group_name_H-M   'P 1'
_cell_length_a   31.06500000
_cell_length_b   31.06500000
_cell_length_c   8.00030000
_cell_angle_alpha   90.00000000
_cell_angle_beta   90.00000000
_cell_angle_gamma   90.00000000
_symmetry_Int_Tables_number   1
_chemical_formula_structural   AgH12C17N6
_chemical_formula_sum   'Ag16 H192 C272 N96'
_cell_volume   7720.56331027
_cell_formula_units_Z   16
loop_
 _symmetry_equiv_pos_site_id
 _symmetry_equiv_pos_as_xyz
  1  'x, y, z'
loop_
 _atom_site_type_symbol
 _atom_site_label
 _atom_site_symmetry_multiplicity
 _atom_site_fract_x
 _atom_site_fract_y
 _atom_site_fract_z
 _atom_site_occupancy
 _atom_site_charge
  Ag  Ag1  1  0.186300  0.305620  0.089310  1.0  0.1686
  Ag  Ag2  1  0.686300  0.805620  0.589310  1.0  0.1686
  Ag  Ag3  1  0.313700  0.694380  0.589310  1.0  0.1686
  Ag  Ag4  1  0.813700  0.194380  0.089310  1.0  0.1686
  Ag  Ag5  1  0.444380  0.436300  0.339310  1.0  0.1677
  Ag  Ag6  1  0.944380  0.936300  0.839310  1.0  0.1677
  Ag  Ag7  1  0.055620  0.563700  0.839310  1.0  0.1675
  Ag  Ag8  1  0.555620  0.063700  0.339310  1.0  0.1676
  Ag  Ag9  1  0.813700  0.694380  0.910690  1.0  0.1683
  Ag  Ag10  1  0.313700  0.194380  0.410690  1.0  0.1683
  Ag  Ag11  1  0.686300  0.305620  0.410690  1.0  0.1689
  Ag  Ag12  1  0.186300  0.805620  0.910690  1.0  0.1689
  Ag  Ag13  1  0.555620  0.563700  0.660690  1.0  0.1676
  Ag  Ag14  1  0.055620  0.063700  0.160690  1.0  0.1674
  Ag  Ag15  1  0.944380  0.436300  0.160690  1.0  0.1676
  Ag  Ag16  1  0.444380  0.936300  0.660690  1.0  0.1676
  H  H17  1  0.091000  0.370500  0.003400  1.0  0.1132
  H  H18  1  0.042100  0.416600  0.123500  1.0  0.0714
  H  H19  1  0.946600  0.345600  0.972000  1.0  0.0662
  H  H20  1  0.992000  0.297800  0.848800  1.0  0.1103
  H  H21  1  0.179900  0.198200  0.786200  1.0  0.1141
  H  H22  1  0.242700  0.177300  0.665200  1.0  0.0641
  H  H23  1  0.245500  0.280100  0.388200  1.0  0.0585
  H  H24  1  0.181900  0.304300  0.502400  1.0  0.1103
  H  H25  1  0.214200  0.394600  0.904100  1.0  0.0664
  H  H26  1  0.193500  0.446000  0.715700  1.0  0.1076
  H  H27  1  0.135600  0.432800  0.542800  1.0  0.0991
  H  H28  1  0.099300  0.367300  0.565900  1.0  0.1115
  H  H29  1  0.591000  0.870500  0.503400  1.0  0.1132
  H  H30  1  0.542100  0.916600  0.623500  1.0  0.0714
  H  H31  1  0.446600  0.845600  0.472000  1.0  0.0662
  H  H32  1  0.492000  0.797800  0.348800  1.0  0.1103
  H  H33  1  0.679900  0.698200  0.286200  1.0  0.114
  H  H34  1  0.742700  0.677300  0.165200  1.0  0.0641
  H  H35  1  0.745500  0.780100  0.888200  1.0  0.0585
  H  H36  1  0.681900  0.804300  0.002400  1.0  0.1103
  H  H37  1  0.714200  0.894600  0.404100  1.0  0.0664
  H  H38  1  0.693500  0.946000  0.215700  1.0  0.1076
  H  H39  1  0.635600  0.932800  0.042800  1.0  0.0991
  H  H40  1  0.599300  0.867300  0.065900  1.0  0.1115
  H  H41  1  0.409000  0.629500  0.503400  1.0  0.1137
  H  H42  1  0.457900  0.583400  0.623500  1.0  0.0716
  H  H43  1  0.553400  0.654400  0.472000  1.0  0.0666
  H  H44  1  0.508000  0.702200  0.348800  1.0  0.1104
  H  H45  1  0.320100  0.801800  0.286200  1.0  0.1136
  H  H46  1  0.257300  0.822700  0.165200  1.0  0.0636
  H  H47  1  0.254500  0.719900  0.888200  1.0  0.059
  H  H48  1  0.318100  0.695700  0.002400  1.0  0.1113
  H  H49  1  0.285800  0.605400  0.404100  1.0  0.0664
  H  H50  1  0.306500  0.554000  0.215700  1.0  0.1071
  H  H51  1  0.364400  0.567200  0.042800  1.0  0.098
  H  H52  1  0.400700  0.632700  0.065900  1.0  0.1101
  H  H53  1  0.909000  0.129500  0.003400  1.0  0.1137
  H  H54  1  0.957900  0.083400  0.123500  1.0  0.0716
  H  H55  1  0.053400  0.154400  0.972000  1.0  0.0666
  H  H56  1  0.008000  0.202200  0.848800  1.0  0.1104
  H  H57  1  0.820100  0.301800  0.786200  1.0  0.1136
  H  H58  1  0.757300  0.322700  0.665200  1.0  0.0636
  H  H59  1  0.754500  0.219900  0.388200  1.0  0.0589
  H  H60  1  0.818100  0.195700  0.502400  1.0  0.1113
  H  H61  1  0.785800  0.105400  0.904100  1.0  0.0664
  H  H62  1  0.806500  0.054000  0.715700  1.0  0.1071
  H  H63  1  0.864400  0.067200  0.542800  1.0  0.098
  H  H64  1  0.900700  0.132700  0.565900  1.0  0.1101
  H  H65  1  0.379500  0.341000  0.253400  1.0  0.1135
  H  H66  1  0.333400  0.292100  0.373500  1.0  0.0713
  H  H67  1  0.404400  0.196600  0.222000  1.0  0.0652
  H  H68  1  0.452200  0.242000  0.098800  1.0  0.1104
  H  H69  1  0.551800  0.429900  0.036200  1.0  0.1143
  H  H70  1  0.572700  0.492700  0.915200  1.0  0.0647
  H  H71  1  0.469900  0.495500  0.638200  1.0  0.0583
  H  H72  1  0.445700  0.431900  0.752400  1.0  0.1121
  H  H73  1  0.355400  0.464200  0.154100  1.0  0.0661
  H  H74  1  0.304000  0.443500  0.965700  1.0  0.1069
  H  H75  1  0.317200  0.385600  0.792800  1.0  0.0983
  H  H76  1  0.382700  0.349300  0.815900  1.0  0.1119
  H  H77  1  0.879500  0.841000  0.753400  1.0  0.1135
  H  H78  1  0.833400  0.792100  0.873500  1.0  0.0713
  H  H79  1  0.904400  0.696600  0.722000  1.0  0.0652
  H  H80  1  0.952200  0.742000  0.598800  1.0  0.1104
  H  H81  1  0.051800  0.929900  0.536200  1.0  0.1143
  H  H82  1  0.072700  0.992700  0.415200  1.0  0.0647
  H  H83  1  0.969900  0.995500  0.138200  1.0  0.0583
  H  H84  1  0.945700  0.931900  0.252400  1.0  0.1121
  H  H85  1  0.855400  0.964200  0.654100  1.0  0.0661
  H  H86  1  0.804000  0.943500  0.465700  1.0  0.1069
  H  H87  1  0.817200  0.885600  0.292800  1.0  0.0983
  H  H88  1  0.882700  0.849300  0.315900  1.0  0.1119
  H  H89  1  0.120500  0.659000  0.753400  1.0  0.1137
  H  H90  1  0.166600  0.707900  0.873500  1.0  0.0716
  H  H91  1  0.095600  0.803400  0.722000  1.0  0.0646
  H  H92  1  0.047800  0.758000  0.598800  1.0  0.1107
  H  H93  1  0.948200  0.570100  0.536200  1.0  0.1146
  H  H94  1  0.927300  0.507300  0.415200  1.0  0.0652
  H  H95  1  0.030100  0.504500  0.138200  1.0  0.0586
  H  H96  1  0.054300  0.568100  0.252400  1.0  0.1124
  H  H97  1  0.144600  0.535800  0.654100  1.0  0.0646
  H  H98  1  0.196000  0.556500  0.465700  1.0  0.1068
  H  H99  1  0.182800  0.614400  0.292800  1.0  0.0996
  H  H100  1  0.117300  0.650700  0.315900  1.0  0.1116
  H  H101  1  0.620500  0.159000  0.253400  1.0  0.1137
  H  H102  1  0.666667  0.207900  0.373500  1.0  0.0713
  H  H103  1  0.595600  0.303400  0.222000  1.0  0.0646
  H  H104  1  0.547800  0.258000  0.098800  1.0  0.1107
  H  H105  1  0.448200  0.070100  0.036200  1.0  0.1146
  H  H106  1  0.427300  0.007300  0.915200  1.0  0.0652
  H  H107  1  0.530100  0.004500  0.638200  1.0  0.0586
  H  H108  1  0.554300  0.068100  0.752400  1.0  0.1124
  H  H109  1  0.644600  0.035800  0.154100  1.0  0.064
  H  H110  1  0.696000  0.056500  0.965700  1.0  0.1068
  H  H111  1  0.682800  0.114400  0.792800  1.0  0.0996
  H  H112  1  0.617300  0.150700  0.815900  1.0  0.1116
  H  H113  1  0.909000  0.629500  0.996600  1.0  0.1146
  H  H114  1  0.957900  0.583400  0.876500  1.0  0.0713
  H  H115  1  0.053400  0.654400  0.028000  1.0  0.0665
  H  H116  1  0.008000  0.702200  0.151200  1.0  0.1102
  H  H117  1  0.820100  0.801800  0.213800  1.0  0.1134
  H  H118  1  0.757300  0.822700  0.334800  1.0  0.0639
  H  H119  1  0.754500  0.719900  0.611800  1.0  0.0591
  H  H120  1  0.818100  0.695700  0.497600  1.0  0.1113
  H  H121  1  0.785800  0.605400  0.095900  1.0  0.0662
  H  H122  1  0.806500  0.554000  0.284300  1.0  0.1067
  H  H123  1  0.864400  0.567200  0.457200  1.0  0.0986
  H  H124  1  0.900700  0.632700  0.434100  1.0  0.1109
  H  H125  1  0.409000  0.129500  0.496600  1.0  0.1146
  H  H126  1  0.457900  0.083400  0.376500  1.0  0.0713
  H  H127  1  0.553400  0.154400  0.528000  1.0  0.0665
  H  H128  1  0.508000  0.202200  0.651200  1.0  0.1102
  H  H129  1  0.320100  0.301800  0.713800  1.0  0.1134
  H  H130  1  0.257300  0.322700  0.834800  1.0  0.0639
  H  H131  1  0.254500  0.219900  0.111800  1.0  0.0591
  H  H132  1  0.318100  0.195700  0.997600  1.0  0.1113
  H  H133  1  0.285800  0.105400  0.595900  1.0  0.0662
  H  H134  1  0.306500  0.054000  0.784300  1.0  0.1067
  H  H135  1  0.364400  0.067200  0.957200  1.0  0.0986
  H  H136  1  0.400700  0.132700  0.934100  1.0  0.1109
  H  H137  1  0.591000  0.370500  0.496600  1.0  0.1137
  H  H138  1  0.542100  0.416600  0.376500  1.0  0.0716
  H  H139  1  0.446600  0.345600  0.528000  1.0  0.0663
  H  H140  1  0.492000  0.297800  0.651200  1.0  0.1104
  H  H141  1  0.679900  0.198200  0.713800  1.0  0.1139
  H  H142  1  0.742700  0.177300  0.834800  1.0  0.0644
  H  H143  1  0.745500  0.280100  0.111800  1.0  0.0587
  H  H144  1  0.681900  0.304300  0.997600  1.0  0.1105
  H  H145  1  0.714200  0.394600  0.595900  1.0  0.0664
  H  H146  1  0.693500  0.446000  0.784300  1.0  0.1072
  H  H147  1  0.635600  0.432800  0.957200  1.0  0.0987
  H  H148  1  0.599300  0.367300  0.934100  1.0  0.1117
  H  H149  1  0.091000  0.870500  0.996600  1.0  0.1137
  H  H150  1  0.042100  0.916600  0.876500  1.0  0.0716
  H  H151  1  0.946600  0.845600  0.028000  1.0  0.0663
  H  H152  1  0.992000  0.797800  0.151200  1.0  0.1104
  H  H153  1  0.179900  0.698200  0.213800  1.0  0.1139
  H  H154  1  0.242700  0.677300  0.334800  1.0  0.0644
  H  H155  1  0.245500  0.780100  0.611800  1.0  0.0587
  H  H156  1  0.181900  0.804300  0.497600  1.0  0.1105
  H  H157  1  0.214200  0.894600  0.095900  1.0  0.0664
  H  H158  1  0.193500  0.946000  0.284300  1.0  0.1072
  H  H159  1  0.135600  0.932800  0.457200  1.0  0.0987
  H  H160  1  0.099300  0.867300  0.434100  1.0  0.1117
  H  H161  1  0.620500  0.659000  0.746600  1.0  0.1139
  H  H162  1  0.666667  0.707900  0.626500  1.0  0.071
  H  H163  1  0.595600  0.803400  0.778000  1.0  0.0647
  H  H164  1  0.547800  0.758000  0.901200  1.0  0.1105
  H  H165  1  0.448200  0.570100  0.963800  1.0  0.1144
  H  H166  1  0.427300  0.507300  0.084800  1.0  0.0655
  H  H167  1  0.530100  0.504500  0.361800  1.0  0.0585
  H  H168  1  0.554300  0.568100  0.247600  1.0  0.1124
  H  H169  1  0.644600  0.535800  0.845900  1.0  0.0647
  H  H170  1  0.696000  0.556500  0.034300  1.0  0.1063
  H  H171  1  0.682800  0.614400  0.207200  1.0  0.0996
  H  H172  1  0.617300  0.650700  0.184100  1.0  0.1116
  H  H173  1  0.120500  0.159000  0.246600  1.0  0.1139
  H  H174  1  0.166600  0.207900  0.126500  1.0  0.0713
  H  H175  1  0.095600  0.303400  0.278000  1.0  0.0647
  H  H176  1  0.047800  0.258000  0.401200  1.0  0.1105
  H  H177  1  0.948200  0.070100  0.463800  1.0  0.1144
  H  H178  1  0.927300  0.007300  0.584800  1.0  0.0655
  H  H179  1  0.030100  0.004500  0.861800  1.0  0.0585
  H  H180  1  0.054300  0.068100  0.747600  1.0  0.1124
  H  H181  1  0.144600  0.035800  0.345900  1.0  0.0653
  H  H182  1  0.196000  0.056500  0.534300  1.0  0.1063
  H  H183  1  0.182800  0.114400  0.707200  1.0  0.0996
  H  H184  1  0.117300  0.150700  0.684100  1.0  0.1116
  H  H185  1  0.879500  0.341000  0.246600  1.0  0.1141
  H  H186  1  0.833400  0.292100  0.126500  1.0  0.0713
  H  H187  1  0.904400  0.196600  0.278000  1.0  0.0653
  H  H188  1  0.952200  0.242000  0.401200  1.0  0.1105
  H  H189  1  0.051800  0.429900  0.463800  1.0  0.1143
  H  H190  1  0.072700  0.492700  0.584800  1.0  0.0652
  H  H191  1  0.969900  0.495500  0.861800  1.0  0.0584
  H  H192  1  0.945700  0.431900  0.747600  1.0  0.112
  H  H193  1  0.855400  0.464200  0.345900  1.0  0.066
  H  H194  1  0.804000  0.443500  0.534300  1.0  0.1066
  H  H195  1  0.817200  0.385600  0.707200  1.0  0.0995
  H  H196  1  0.882700  0.349300  0.684100  1.0  0.1123
  H  H197  1  0.379500  0.841000  0.746600  1.0  0.1141
  H  H198  1  0.333400  0.792100  0.626500  1.0  0.0713
  H  H199  1  0.404400  0.696600  0.778000  1.0  0.0653
  H  H200  1  0.452200  0.742000  0.901200  1.0  0.1105
  H  H201  1  0.551800  0.929900  0.963800  1.0  0.1143
  H  H202  1  0.572700  0.992700  0.084800  1.0  0.0652
  H  H203  1  0.469900  0.995500  0.361800  1.0  0.0584
  H  H204  1  0.445700  0.931900  0.247600  1.0  0.112
  H  H205  1  0.355400  0.964200  0.845900  1.0  0.066
  H  H206  1  0.304000  0.943500  0.034300  1.0  0.1066
  H  H207  1  0.317200  0.885600  0.207200  1.0  0.0995
  H  H208  1  0.382700  0.849300  0.184100  1.0  0.1123
  C  C209  1  0.061680  0.364920  0.995000  1.0  -0.1656
  C  C210  1  0.032020  0.392430  0.067300  1.0  0.1716
  C  C211  1  0.976050  0.350630  0.978100  1.0  0.1633
  C  C212  1  0.002990  0.321870  0.903400  1.0  -0.1533
  C  C213  1  0.047140  0.328990  0.910100  1.0  -0.0296
  C  C214  1  0.076100  0.296730  0.836800  1.0  0.2673
  C  C215  1  0.131460  0.264120  0.730500  1.0  0.2417
  C  C216  1  0.173110  0.253390  0.656000  1.0  -0.0031
  C  C217  1  0.192500  0.215330  0.704300  1.0  -0.2113
  C  C218  1  0.230190  0.203100  0.631200  1.0  0.1657
  C  C219  1  0.231880  0.263360  0.468600  1.0  0.1631
  C  C220  1  0.193600  0.278190  0.536600  1.0  -0.199
  C  C221  1  0.137740  0.344790  0.750000  1.0  0.4042
  C  C222  1  0.190880  0.389040  0.834800  1.0  0.1368
  C  C223  1  0.178650  0.420070  0.722300  1.0  -0.1513
  C  C224  1  0.144350  0.412280  0.620200  1.0  -0.0984
  C  C225  1  0.122850  0.373580  0.633300  1.0  -0.1797
  C  C226  1  0.561680  0.864920  0.495000  1.0  -0.1656
  C  C227  1  0.532020  0.892430  0.567300  1.0  0.1716
  C  C228  1  0.476050  0.850630  0.478100  1.0  0.1633
  C  C229  1  0.502990  0.821870  0.403400  1.0  -0.1533
  C  C230  1  0.547140  0.828990  0.410100  1.0  -0.0296
  C  C231  1  0.576100  0.796730  0.336800  1.0  0.2673
  C  C232  1  0.631460  0.764120  0.230500  1.0  0.2417
  C  C233  1  0.673110  0.753390  0.156000  1.0  -0.0031
  C  C234  1  0.692500  0.715330  0.204300  1.0  -0.2112
  C  C235  1  0.730190  0.703100  0.131200  1.0  0.1657
  C  C236  1  0.731880  0.763360  0.968600  1.0  0.1631
  C  C237  1  0.693600  0.778190  0.036600  1.0  -0.199
  C  C238  1  0.637740  0.844790  0.250000  1.0  0.4042
  C  C239  1  0.690880  0.889040  0.334800  1.0  0.1368
  C  C240  1  0.678650  0.920070  0.222300  1.0  -0.1513
  C  C241  1  0.644350  0.912280  0.120200  1.0  -0.0984
  C  C242  1  0.622850  0.873580  0.133300  1.0  -0.1797
  C  C243  1  0.438320  0.635080  0.495000  1.0  -0.1649
  C  C244  1  0.467980  0.607570  0.567300  1.0  0.1731
  C  C245  1  0.523950  0.649370  0.478100  1.0  0.1655
  C  C246  1  0.497010  0.678130  0.403400  1.0  -0.1546
  C  C247  1  0.452860  0.671010  0.410100  1.0  -0.0297
  C  C248  1  0.423900  0.703270  0.336800  1.0  0.2677
  C  C249  1  0.368540  0.735880  0.230500  1.0  0.2414
  C  C250  1  0.326890  0.746610  0.156000  1.0  -0.0028
  C  C251  1  0.307500  0.784670  0.204300  1.0  -0.211
  C  C252  1  0.269810  0.796900  0.131200  1.0  0.1652
  C  C253  1  0.268120  0.736640  0.968600  1.0  0.1632
  C  C254  1  0.306400  0.721810  0.036600  1.0  -0.1978
  C  C255  1  0.362260  0.655210  0.250000  1.0  0.4042
  C  C256  1  0.309120  0.610960  0.334800  1.0  0.1393
  C  C257  1  0.321350  0.579930  0.222300  1.0  -0.1512
  C  C258  1  0.355650  0.587720  0.120200  1.0  -0.0999
  C  C259  1  0.377150  0.626420  0.133300  1.0  -0.1793
  C  C260  1  0.938320  0.135080  0.995000  1.0  -0.1649
  C  C261  1  0.967980  0.107570  0.067300  1.0  0.1731
  C  C262  1  0.023950  0.149370  0.978100  1.0  0.1655
  C  C263  1  0.997010  0.178130  0.903400  1.0  -0.1547
  C  C264  1  0.952860  0.171010  0.910100  1.0  -0.0297
  C  C265  1  0.923900  0.203270  0.836800  1.0  0.2677
  C  C266  1  0.868540  0.235880  0.730500  1.0  0.2414
  C  C267  1  0.826890  0.246610  0.656000  1.0  -0.0028
  C  C268  1  0.807500  0.284670  0.704300  1.0  -0.211
  C  C269  1  0.769810  0.296900  0.631200  1.0  0.1652
  C  C270  1  0.768120  0.236640  0.468600  1.0  0.1632
  C  C271  1  0.806400  0.221810  0.536600  1.0  -0.1977
  C  C272  1  0.862260  0.155210  0.750000  1.0  0.4042
  C  C273  1  0.809120  0.110960  0.834800  1.0  0.1393
  C  C274  1  0.821350  0.079930  0.722300  1.0  -0.1512
  C  C275  1  0.855650  0.087720  0.620200  1.0  -0.0999
  C  C276  1  0.877150  0.126420  0.633300  1.0  -0.1793
  C  C277  1  0.385080  0.311680  0.245000  1.0  -0.1652
  C  C278  1  0.357570  0.282020  0.317300  1.0  0.1723
  C  C279  1  0.399370  0.226050  0.228100  1.0  0.1664
  C  C280  1  0.428130  0.252990  0.153400  1.0  -0.1579
  C  C281  1  0.421010  0.297140  0.160100  1.0  -0.0291
  C  C282  1  0.453270  0.326100  0.086800  1.0  0.2676
  C  C283  1  0.485880  0.381460  0.980500  1.0  0.2418
  C  C284  1  0.496610  0.423110  0.906000  1.0  -0.0023
  C  C285  1  0.534670  0.442500  0.954300  1.0  -0.2105
  C  C286  1  0.546900  0.480190  0.881200  1.0  0.1675
  C  C287  1  0.486640  0.481880  0.718600  1.0  0.1647
  C  C288  1  0.471810  0.443600  0.786600  1.0  -0.1967
  C  C289  1  0.405210  0.387740  0.000000  1.0  0.4036
  C  C290  1  0.360960  0.440880  0.084800  1.0  0.1396
  C  C291  1  0.329930  0.428650  0.972300  1.0  -0.1543
  C  C292  1  0.337720  0.394350  0.870200  1.0  -0.0996
  C  C293  1  0.376420  0.372850  0.883300  1.0  -0.1776
  C  C294  1  0.885080  0.811680  0.745000  1.0  -0.1652
  C  C295  1  0.857570  0.782020  0.817300  1.0  0.1723
  C  C296  1  0.899370  0.726050  0.728100  1.0  0.1664
  C  C297  1  0.928130  0.752990  0.653400  1.0  -0.1579
  C  C298  1  0.921010  0.797140  0.660100  1.0  -0.0291
  C  C299  1  0.953270  0.826100  0.586800  1.0  0.2676
  C  C300  1  0.985880  0.881460  0.480500  1.0  0.2418
  C  C301  1  0.996610  0.923110  0.406000  1.0  -0.0023
  C  C302  1  0.034670  0.942500  0.454300  1.0  -0.2105
  C  C303  1  0.046900  0.980190  0.381200  1.0  0.1675
  C  C304  1  0.986640  0.981880  0.218600  1.0  0.1647
  C  C305  1  0.971810  0.943600  0.286600  1.0  -0.1967
  C  C306  1  0.905210  0.887740  0.500000  1.0  0.4036
  C  C307  1  0.860960  0.940880  0.584800  1.0  0.1396
  C  C308  1  0.829930  0.928650  0.472300  1.0  -0.1543
  C  C309  1  0.837720  0.894350  0.370200  1.0  -0.0996
  C  C310  1  0.876420  0.872850  0.383300  1.0  -0.1776
  C  C311  1  0.114920  0.688320  0.745000  1.0  -0.1644
  C  C312  1  0.142430  0.717980  0.817300  1.0  0.1724
  C  C313  1  0.100630  0.773950  0.728100  1.0  0.1653
  C  C314  1  0.071870  0.747010  0.653400  1.0  -0.1571
  C  C315  1  0.078990  0.702860  0.660100  1.0  -0.0291
  C  C316  1  0.046730  0.673900  0.586800  1.0  0.2677
  C  C317  1  0.014120  0.618540  0.480500  1.0  0.242
  C  C318  1  0.003390  0.576890  0.406000  1.0  -0.0026
  C  C319  1  0.965330  0.557500  0.454300  1.0  -0.2111
  C  C320  1  0.953100  0.519810  0.381200  1.0  0.1678
  C  C321  1  0.013360  0.518120  0.218600  1.0  0.1638
  C  C322  1  0.028190  0.556400  0.286600  1.0  -0.1979
  C  C323  1  0.094790  0.612260  0.500000  1.0  0.4033
  C  C324  1  0.139040  0.559120  0.584800  1.0  0.1393
  C  C325  1  0.170070  0.571350  0.472300  1.0  -0.1495
  C  C326  1  0.162280  0.605650  0.370200  1.0  -0.0993
  C  C327  1  0.123580  0.627150  0.383300  1.0  -0.1791
  C  C328  1  0.614920  0.188320  0.245000  1.0  -0.1685
  C  C329  1  0.642430  0.217980  0.317300  1.0  0.1634
  C  C330  1  0.600630  0.273950  0.228100  1.0  0.1652
  C  C331  1  0.571870  0.247010  0.153400  1.0  -0.157
  C  C332  1  0.578990  0.202860  0.160100  1.0  -0.029
  C  C333  1  0.546730  0.173900  0.086800  1.0  0.2677
  C  C334  1  0.514120  0.118540  0.980500  1.0  0.242
  C  C335  1  0.503390  0.076890  0.906000  1.0  -0.0026
  C  C336  1  0.465330  0.057500  0.954300  1.0  -0.2111
  C  C337  1  0.453100  0.019810  0.881200  1.0  0.1678
  C  C338  1  0.513360  0.018120  0.718600  1.0  0.1638
  C  C339  1  0.528190  0.056400  0.786600  1.0  -0.1979
  C  C340  1  0.594790  0.112260  0.000000  1.0  0.4033
  C  C341  1  0.639040  0.059120  0.084800  1.0  0.1393
  C  C342  1  0.670070  0.071350  0.972300  1.0  -0.1495
  C  C343  1  0.662280  0.105650  0.870200  1.0  -0.0993
  C  C344  1  0.623580  0.127150  0.883300  1.0  -0.1791
  C  C345  1  0.938320  0.635080  0.005000  1.0  -0.1658
  C  C346  1  0.967980  0.607570  0.932700  1.0  0.1721
  C  C347  1  0.023950  0.649370  0.021900  1.0  0.1654
  C  C348  1  0.997010  0.678130  0.096600  1.0  -0.1547
  C  C349  1  0.952860  0.671010  0.089900  1.0  -0.0301
  C  C350  1  0.923900  0.703270  0.163200  1.0  0.2677
  C  C351  1  0.868540  0.735880  0.269500  1.0  0.2415
  C  C352  1  0.826890  0.746610  0.344000  1.0  -0.0027
  C  C353  1  0.807500  0.784670  0.295700  1.0  -0.2108
  C  C354  1  0.769810  0.796900  0.368800  1.0  0.1655
  C  C355  1  0.768120  0.736640  0.531400  1.0  0.1627
  C  C356  1  0.806400  0.721810  0.463400  1.0  -0.1971
  C  C357  1  0.862260  0.655210  0.250000  1.0  0.4039
  C  C358  1  0.809120  0.610960  0.165200  1.0  0.1371
  C  C359  1  0.821350  0.579930  0.277700  1.0  -0.1516
  C  C360  1  0.855650  0.587720  0.379800  1.0  -0.1004
  C  C361  1  0.877150  0.626420  0.366700  1.0  -0.1795
  C  C362  1  0.438320  0.135080  0.505000  1.0  -0.1658
  C  C363  1  0.467980  0.107570  0.432700  1.0  0.1721
  C  C364  1  0.523950  0.149370  0.521900  1.0  0.1654
  C  C365  1  0.497010  0.178130  0.596600  1.0  -0.1546
  C  C366  1  0.452860  0.171010  0.589900  1.0  -0.0301
  C  C367  1  0.423900  0.203270  0.663200  1.0  0.2677
  C  C368  1  0.368540  0.235880  0.769500  1.0  0.2415
  C  C369  1  0.326890  0.246610  0.844000  1.0  -0.0027
  C  C370  1  0.307500  0.284670  0.795700  1.0  -0.2108
  C  C371  1  0.269810  0.296900  0.868800  1.0  0.1655
  C  C372  1  0.268120  0.236640  0.031400  1.0  0.1627
  C  C373  1  0.306400  0.221810  0.963400  1.0  -0.1971
  C  C374  1  0.362260  0.155210  0.750000  1.0  0.4039
  C  C375  1  0.309120  0.110960  0.665200  1.0  0.1371
  C  C376  1  0.321350  0.079930  0.777700  1.0  -0.1516
  C  C377  1  0.355650  0.087720  0.879800  1.0  -0.1004
  C  C378  1  0.377150  0.126420  0.866700  1.0  -0.1795
  C  C379  1  0.561680  0.364920  0.505000  1.0  -0.1661
  C  C380  1  0.532020  0.392430  0.432700  1.0  0.1718
  C  C381  1  0.476050  0.350630  0.521900  1.0  0.1635
  C  C382  1  0.502990  0.321870  0.596600  1.0  -0.1534
  C  C383  1  0.547140  0.328990  0.589900  1.0  -0.0302
  C  C384  1  0.576100  0.296730  0.663200  1.0  0.2673
  C  C385  1  0.631460  0.264120  0.769500  1.0  0.2418
  C  C386  1  0.673110  0.253390  0.844000  1.0  -0.0031
  C  C387  1  0.692500  0.215330  0.795700  1.0  -0.211
  C  C388  1  0.730190  0.203100  0.868800  1.0  0.1659
  C  C389  1  0.731880  0.263360  0.031400  1.0  0.163
  C  C390  1  0.693600  0.278190  0.963400  1.0  -0.1991
  C  C391  1  0.637740  0.344790  0.750000  1.0  0.4039
  C  C392  1  0.690880  0.389040  0.665200  1.0  0.1355
  C  C393  1  0.678650  0.420070  0.777700  1.0  -0.1513
  C  C394  1  0.644350  0.412280  0.879800  1.0  -0.0992
  C  C395  1  0.622850  0.373580  0.866700  1.0  -0.1795
  C  C396  1  0.061680  0.864920  0.005000  1.0  -0.1661
  C  C397  1  0.032020  0.892430  0.932700  1.0  0.1718
  C  C398  1  0.976050  0.850630  0.021900  1.0  0.1635
  C  C399  1  0.002990  0.821870  0.096600  1.0  -0.1534
  C  C400  1  0.047140  0.828990  0.089900  1.0  -0.0302
  C  C401  1  0.076100  0.796730  0.163200  1.0  0.2673
  C  C402  1  0.131460  0.764120  0.269500  1.0  0.2418
  C  C403  1  0.173110  0.753390  0.344000  1.0  -0.0031
  C  C404  1  0.192500  0.715330  0.295700  1.0  -0.2112
  C  C405  1  0.230190  0.703100  0.368800  1.0  0.1659
  C  C406  1  0.231880  0.763360  0.531400  1.0  0.163
  C  C407  1  0.193600  0.778190  0.463400  1.0  -0.1991
  C  C408  1  0.137740  0.844790  0.250000  1.0  0.4039
  C  C409  1  0.190880  0.889040  0.165200  1.0  0.1355
  C  C410  1  0.178650  0.920070  0.277700  1.0  -0.1513
  C  C411  1  0.144350  0.912280  0.379800  1.0  -0.0992
  C  C412  1  0.122850  0.873580  0.366700  1.0  -0.1795
  C  C413  1  0.614920  0.688320  0.755000  1.0  -0.1695
  C  C414  1  0.642430  0.717980  0.682700  1.0  0.1631
  C  C415  1  0.600630  0.773950  0.771900  1.0  0.1651
  C  C416  1  0.571870  0.747010  0.846600  1.0  -0.1572
  C  C417  1  0.578990  0.702860  0.839900  1.0  -0.0295
  C  C418  1  0.546730  0.673900  0.913200  1.0  0.2679
  C  C419  1  0.514120  0.618540  0.019500  1.0  0.2422
  C  C420  1  0.503390  0.576890  0.094000  1.0  -0.0025
  C  C421  1  0.465330  0.557500  0.045700  1.0  -0.2108
  C  C422  1  0.453100  0.519810  0.118800  1.0  0.1678
  C  C423  1  0.513360  0.518120  0.281400  1.0  0.164
  C  C424  1  0.528190  0.556400  0.213400  1.0  -0.1981
  C  C425  1  0.594790  0.612260  0.000000  1.0  0.403
  C  C426  1  0.639040  0.559120  0.915200  1.0  0.1369
  C  C427  1  0.670070  0.571350  0.027700  1.0  -0.1496
  C  C428  1  0.662280  0.605650  0.129800  1.0  -0.1002
  C  C429  1  0.623580  0.627150  0.116700  1.0  -0.1782
  C  C430  1  0.114920  0.188320  0.255000  1.0  -0.1653
  C  C431  1  0.142430  0.217980  0.182700  1.0  0.1722
  C  C432  1  0.100630  0.273950  0.271900  1.0  0.1652
  C  C433  1  0.071870  0.247010  0.346600  1.0  -0.1573
  C  C434  1  0.078990  0.202860  0.339900  1.0  -0.0296
  C  C435  1  0.046730  0.173900  0.413200  1.0  0.2679
  C  C436  1  0.014120  0.118540  0.519500  1.0  0.2422
  C  C437  1  0.003390  0.076890  0.594000  1.0  -0.0025
  C  C438  1  0.965330  0.057500  0.545700  1.0  -0.2108
  C  C439  1  0.953100  0.019810  0.618800  1.0  0.1678
  C  C440  1  0.013360  0.018120  0.781400  1.0  0.164
  C  C441  1  0.028190  0.056400  0.713400  1.0  -0.1981
  C  C442  1  0.094790  0.112260  0.500000  1.0  0.403
  C  C443  1  0.139040  0.059120  0.415200  1.0  0.1369
  C  C444  1  0.170070  0.071350  0.527700  1.0  -0.1496
  C  C445  1  0.162280  0.105650  0.629800  1.0  -0.1002
  C  C446  1  0.123580  0.127150  0.616700  1.0  -0.1782
  C  C447  1  0.885080  0.311680  0.255000  1.0  -0.1654
  C  C448  1  0.857570  0.282020  0.182700  1.0  0.172
  C  C449  1  0.899370  0.226050  0.271900  1.0  0.1665
  C  C450  1  0.928130  0.252990  0.346600  1.0  -0.1578
  C  C451  1  0.921010  0.297140  0.339900  1.0  -0.0297
  C  C452  1  0.953270  0.326100  0.413200  1.0  0.2674
  C  C453  1  0.985880  0.381460  0.519500  1.0  0.2419
  C  C454  1  0.996610  0.423110  0.594000  1.0  -0.0022
  C  C455  1  0.034670  0.442500  0.545700  1.0  -0.2099
  C  C456  1  0.046900  0.480190  0.618800  1.0  0.1677
  C  C457  1  0.986640  0.481880  0.781400  1.0  0.1643
  C  C458  1  0.971810  0.443600  0.713400  1.0  -0.1965
  C  C459  1  0.905210  0.387740  0.500000  1.0  0.4033
  C  C460  1  0.860960  0.440880  0.415200  1.0  0.1386
  C  C461  1  0.829930  0.428650  0.527700  1.0  -0.1547
  C  C462  1  0.837720  0.394350  0.629800  1.0  -0.1
  C  C463  1  0.876420  0.372850  0.616700  1.0  -0.1782
  C  C464  1  0.385080  0.811680  0.755000  1.0  -0.1654
  C  C465  1  0.357570  0.782020  0.682700  1.0  0.172
  C  C466  1  0.399370  0.726050  0.771900  1.0  0.1665
  C  C467  1  0.428130  0.752990  0.846600  1.0  -0.1578
  C  C468  1  0.421010  0.797140  0.839900  1.0  -0.0297
  C  C469  1  0.453270  0.826100  0.913200  1.0  0.2674
  C  C470  1  0.485880  0.881460  0.019500  1.0  0.2419
  C  C471  1  0.496610  0.923110  0.094000  1.0  -0.0022
  C  C472  1  0.534670  0.942500  0.045700  1.0  -0.2099
  C  C473  1  0.546900  0.980190  0.118800  1.0  0.1677
  C  C474  1  0.486640  0.981880  0.281400  1.0  0.1643
  C  C475  1  0.471810  0.943600  0.213400  1.0  -0.1965
  C  C476  1  0.405210  0.887740  0.000000  1.0  0.4033
  C  C477  1  0.360960  0.940880  0.915200  1.0  0.1386
  C  C478  1  0.329930  0.928650  0.027700  1.0  -0.1547
  C  C479  1  0.337720  0.894350  0.129800  1.0  -0.1
  C  C480  1  0.376420  0.872850  0.116700  1.0  -0.1782
  N  N481  1  0.989630  0.385740  0.060100  1.0  -0.3549
  N  N482  1  0.067450  0.255580  0.834600  1.0  -0.3001
  N  N483  1  0.102680  0.234720  0.767900  1.0  -0.3129
  N  N484  1  0.116140  0.304110  0.770500  1.0  -0.0908
  N  N485  1  0.250210  0.226210  0.512800  1.0  -0.3703
  N  N486  1  0.170850  0.351190  0.849500  1.0  -0.3571
  N  N487  1  0.489630  0.885740  0.560100  1.0  -0.3549
  N  N488  1  0.567450  0.755580  0.334600  1.0  -0.3002
  N  N489  1  0.602680  0.734720  0.267900  1.0  -0.3129
  N  N490  1  0.616140  0.804110  0.270500  1.0  -0.0908
  N  N491  1  0.750210  0.726210  0.012800  1.0  -0.3704
  N  N492  1  0.670850  0.851190  0.349500  1.0  -0.3571
  N  N493  1  0.510370  0.614260  0.560100  1.0  -0.3524
  N  N494  1  0.432550  0.744420  0.334600  1.0  -0.3005
  N  N495  1  0.397320  0.765280  0.267900  1.0  -0.3127
  N  N496  1  0.383860  0.695890  0.270500  1.0  -0.0905
  N  N497  1  0.249790  0.773790  0.012800  1.0  -0.3709
  N  N498  1  0.329150  0.648810  0.349500  1.0  -0.3587
  N  N499  1  0.010370  0.114260  0.060100  1.0  -0.3524
  N  N500  1  0.932550  0.244420  0.834600  1.0  -0.3005
  N  N501  1  0.897320  0.265280  0.767900  1.0  -0.3127
  N  N502  1  0.883860  0.195890  0.770500  1.0  -0.0905
  N  N503  1  0.749790  0.273790  0.512800  1.0  -0.371
  N  N504  1  0.829150  0.148810  0.849500  1.0  -0.3587
  N  N505  1  0.364260  0.239630  0.310100  1.0  -0.3541
  N  N506  1  0.494420  0.317450  0.084600  1.0  -0.2998
  N  N507  1  0.515280  0.352680  0.017900  1.0  -0.3147
  N  N508  1  0.445890  0.366140  0.020500  1.0  -0.0921
  N  N509  1  0.523790  0.500210  0.762800  1.0  -0.3706
  N  N510  1  0.398810  0.420850  0.099500  1.0  -0.3584
  N  N511  1  0.864260  0.739630  0.810100  1.0  -0.3541
  N  N512  1  0.994420  0.817450  0.584600  1.0  -0.2998
  N  N513  1  0.015280  0.852680  0.517900  1.0  -0.3147
  N  N514  1  0.945890  0.866140  0.520500  1.0  -0.0921
  N  N515  1  0.023790  0.000210  0.262800  1.0  -0.3706
  N  N516  1  0.898810  0.920850  0.599500  1.0  -0.3584
  N  N517  1  0.135740  0.760370  0.810100  1.0  -0.3535
  N  N518  1  0.005580  0.682550  0.584600  1.0  -0.2998
  N  N519  1  0.984720  0.647320  0.517900  1.0  -0.3107
  N  N520  1  0.054110  0.633860  0.520500  1.0  -0.0923
  N  N521  1  0.976210  0.499790  0.262800  1.0  -0.3712
  N  N522  1  0.101190  0.579150  0.599500  1.0  -0.3587
  N  N523  1  0.635740  0.260370  0.310100  1.0  -0.3532
  N  N524  1  0.505580  0.182550  0.084600  1.0  -0.2998
  N  N525  1  0.484720  0.147320  0.017900  1.0  -0.3107
  N  N526  1  0.554110  0.133860  0.020500  1.0  -0.0923
  N  N527  1  0.476210  0.999790  0.762800  1.0  -0.3712
  N  N528  1  0.601190  0.079150  0.099500  1.0  -0.3587
  N  N529  1  0.010370  0.614260  0.939900  1.0  -0.3534
  N  N530  1  0.932550  0.744420  0.165400  1.0  -0.3005
  N  N531  1  0.897320  0.765280  0.232100  1.0  -0.313
  N  N532  1  0.883860  0.695890  0.229500  1.0  -0.0902
  N  N533  1  0.749790  0.773790  0.487200  1.0  -0.3722
  N  N534  1  0.829150  0.648810  0.150500  1.0  -0.3562
  N  N535  1  0.510370  0.114260  0.439900  1.0  -0.3534
  N  N536  1  0.432550  0.244420  0.665400  1.0  -0.3005
  N  N537  1  0.397320  0.265280  0.732100  1.0  -0.313
  N  N538  1  0.383860  0.195890  0.729500  1.0  -0.0902
  N  N539  1  0.249790  0.273790  0.987200  1.0  -0.3721
  N  N540  1  0.329150  0.148810  0.650500  1.0  -0.3562
  N  N541  1  0.489630  0.385740  0.439900  1.0  -0.3543
  N  N542  1  0.567450  0.255580  0.665400  1.0  -0.3005
  N  N543  1  0.602680  0.234720  0.732100  1.0  -0.3132
  N  N544  1  0.616140  0.304110  0.729500  1.0  -0.0906
  N  N545  1  0.750210  0.226210  0.987200  1.0  -0.3688
  N  N546  1  0.670850  0.351190  0.650500  1.0  -0.356
  N  N547  1  0.989630  0.885740  0.939900  1.0  -0.3543
  N  N548  1  0.067450  0.755580  0.165400  1.0  -0.3005
  N  N549  1  0.102680  0.734720  0.232100  1.0  -0.3132
  N  N550  1  0.116140  0.804110  0.229500  1.0  -0.0906
  N  N551  1  0.250210  0.726210  0.487200  1.0  -0.3687
  N  N552  1  0.170850  0.851190  0.150500  1.0  -0.356
  N  N553  1  0.635740  0.760370  0.689900  1.0  -0.3525
  N  N554  1  0.505580  0.682550  0.915400  1.0  -0.2998
  N  N555  1  0.484720  0.647320  0.982100  1.0  -0.3109
  N  N556  1  0.554110  0.633860  0.979500  1.0  -0.092
  N  N557  1  0.476210  0.499790  0.237200  1.0  -0.3702
  N  N558  1  0.601190  0.579150  0.900500  1.0  -0.3559
  N  N559  1  0.135740  0.260370  0.189900  1.0  -0.3528
  N  N560  1  0.005580  0.182550  0.415400  1.0  -0.2998
  N  N561  1  0.984720  0.147320  0.482100  1.0  -0.3109
  N  N562  1  0.054110  0.133860  0.479500  1.0  -0.092
  N  N563  1  0.976210  0.999790  0.737200  1.0  -0.3702
  N  N564  1  0.101190  0.079150  0.400500  1.0  -0.3559
  N  N565  1  0.864260  0.239630  0.189900  1.0  -0.3554
  N  N566  1  0.994420  0.317450  0.415400  1.0  -0.3002
  N  N567  1  0.015280  0.352680  0.482100  1.0  -0.3149
  N  N568  1  0.945890  0.366140  0.479500  1.0  -0.0919
  N  N569  1  0.023790  0.500210  0.737200  1.0  -0.3703
  N  N570  1  0.898810  0.420850  0.400500  1.0  -0.3566
  N  N571  1  0.364260  0.739630  0.689900  1.0  -0.3554
  N  N572  1  0.494420  0.817450  0.915400  1.0  -0.3002
  N  N573  1  0.515280  0.852680  0.982100  1.0  -0.3149
  N  N574  1  0.445890  0.866140  0.979500  1.0  -0.0919
  N  N575  1  0.523790  0.000210  0.237200  1.0  -0.3703
  N  N576  1  0.398810  0.920850  0.900500  1.0  -0.3566
