# generated using pymatgen
data_Cu3H48C78(NO6)2
_symmetry_space_group_name_H-M   'P 1'
_cell_length_a   35.49000000
_cell_length_b   35.49000000
_cell_length_c   35.49000000
_cell_angle_alpha   90.00000000
_cell_angle_beta   90.00000000
_cell_angle_gamma   90.00000000
_symmetry_Int_Tables_number   1
_chemical_formula_structural   Cu3H48C78(NO6)2
_chemical_formula_sum   'Cu12 H192 C312 N8 O48'
_cell_volume   44701.07814900
_cell_formula_units_Z   4
loop_
 _symmetry_equiv_pos_site_id
 _symmetry_equiv_pos_as_xyz
  1  'x, y, z'
loop_
 _atom_site_type_symbol
 _atom_site_label
 _atom_site_symmetry_multiplicity
 _atom_site_fract_x
 _atom_site_fract_y
 _atom_site_fract_z
 _atom_site_occupancy
 _atom_site_charge
  Cu  Cu1  1  0.500000  0.000000  0.212790  1.0  0.9039
  Cu  Cu2  1  0.500000  0.000000  0.787210  1.0  0.9023
  Cu  Cu3  1  0.212790  0.500000  0.000000  1.0  0.9024
  Cu  Cu4  1  0.787210  0.500000  0.000000  1.0  0.903
  Cu  Cu5  1  0.000000  0.212790  0.500000  1.0  0.9073
  Cu  Cu6  1  0.000000  0.787210  0.500000  1.0  0.9062
  Cu  Cu7  1  0.500000  0.000000  0.287210  1.0  0.8901
  Cu  Cu8  1  0.500000  0.000000  0.712790  1.0  0.8918
  Cu  Cu9  1  0.000000  0.712790  0.500000  1.0  0.8941
  Cu  Cu10  1  0.000000  0.287210  0.500000  1.0  0.893
  Cu  Cu11  1  0.712790  0.500000  0.000000  1.0  0.8908
  Cu  Cu12  1  0.287210  0.500000  0.000000  1.0  0.8918
  H  H13  1  0.415700  0.087200  0.194800  1.0  0.1006
  H  H14  1  0.369400  0.134500  0.195900  1.0  0.1453
  H  H15  1  0.329300  0.168500  0.191900  1.0  0.1178
  H  H16  1  0.282600  0.212800  0.194000  1.0  0.0936
  H  H17  1  0.584300  0.912800  0.194800  1.0  0.1008
  H  H18  1  0.630600  0.865500  0.195900  1.0  0.1448
  H  H19  1  0.670700  0.831500  0.191900  1.0  0.1179
  H  H20  1  0.717400  0.787200  0.194000  1.0  0.0936
  H  H21  1  0.584300  0.087200  0.805200  1.0  0.1005
  H  H22  1  0.630600  0.134500  0.804100  1.0  0.1457
  H  H23  1  0.670700  0.168500  0.808100  1.0  0.1194
  H  H24  1  0.717400  0.212800  0.806000  1.0  0.0939
  H  H25  1  0.415700  0.912800  0.805200  1.0  0.1006
  H  H26  1  0.369400  0.865500  0.804100  1.0  0.1443
  H  H27  1  0.329300  0.831500  0.808100  1.0  0.1195
  H  H28  1  0.282600  0.787200  0.806000  1.0  0.0933
  H  H29  1  0.194800  0.415700  0.087200  1.0  0.102
  H  H30  1  0.195900  0.369400  0.134500  1.0  0.1457
  H  H31  1  0.191900  0.329300  0.168500  1.0  0.1148
  H  H32  1  0.194000  0.282600  0.212800  1.0  0.0957
  H  H33  1  0.194800  0.584300  0.912800  1.0  0.1017
  H  H34  1  0.195900  0.630600  0.865500  1.0  0.1462
  H  H35  1  0.191900  0.670700  0.831500  1.0  0.1146
  H  H36  1  0.194000  0.717400  0.787200  1.0  0.0961
  H  H37  1  0.805200  0.584300  0.087200  1.0  0.1017
  H  H38  1  0.804100  0.630600  0.134500  1.0  0.1464
  H  H39  1  0.808100  0.670700  0.168500  1.0  0.1158
  H  H40  1  0.806000  0.717400  0.212800  1.0  0.0954
  H  H41  1  0.805200  0.415700  0.912800  1.0  0.1015
  H  H42  1  0.804100  0.369400  0.865500  1.0  0.146
  H  H43  1  0.808100  0.329300  0.831500  1.0  0.1152
  H  H44  1  0.806000  0.282600  0.787200  1.0  0.0954
  H  H45  1  0.087200  0.194800  0.415700  1.0  0.1002
  H  H46  1  0.134500  0.195900  0.369400  1.0  0.1477
  H  H47  1  0.168500  0.191900  0.329300  1.0  0.1183
  H  H48  1  0.212800  0.194000  0.282600  1.0  0.0929
  H  H49  1  0.912800  0.194800  0.584300  1.0  0.1009
  H  H50  1  0.865500  0.195900  0.630600  1.0  0.1468
  H  H51  1  0.831500  0.191900  0.670700  1.0  0.1188
  H  H52  1  0.787200  0.194000  0.717400  1.0  0.093
  H  H53  1  0.087200  0.805200  0.584300  1.0  0.1014
  H  H54  1  0.134500  0.804100  0.630600  1.0  0.1483
  H  H55  1  0.168500  0.808100  0.670700  1.0  0.119
  H  H56  1  0.212800  0.806000  0.717400  1.0  0.0928
  H  H57  1  0.912800  0.805200  0.415700  1.0  0.1012
  H  H58  1  0.865500  0.804100  0.369400  1.0  0.1479
  H  H59  1  0.831500  0.808100  0.329300  1.0  0.1191
  H  H60  1  0.787200  0.806000  0.282600  1.0  0.0932
  H  H61  1  0.587200  0.915700  0.305200  1.0  0.095
  H  H62  1  0.634500  0.869400  0.304100  1.0  0.1487
  H  H63  1  0.668500  0.829300  0.308100  1.0  0.1221
  H  H64  1  0.712800  0.782600  0.306000  1.0  0.0916
  H  H65  1  0.412800  0.084300  0.305200  1.0  0.095
  H  H66  1  0.365500  0.130600  0.304100  1.0  0.1483
  H  H67  1  0.331500  0.170700  0.308100  1.0  0.1217
  H  H68  1  0.287200  0.217400  0.306000  1.0  0.0911
  H  H69  1  0.587200  0.084300  0.694800  1.0  0.0941
  H  H70  1  0.634500  0.130600  0.695900  1.0  0.1479
  H  H71  1  0.668500  0.170700  0.691900  1.0  0.1197
  H  H72  1  0.712800  0.217400  0.694000  1.0  0.0915
  H  H73  1  0.412800  0.915700  0.694800  1.0  0.0944
  H  H74  1  0.365500  0.869400  0.695900  1.0  0.1481
  H  H75  1  0.331500  0.829300  0.691900  1.0  0.1196
  H  H76  1  0.287200  0.782600  0.694000  1.0  0.0913
  H  H77  1  0.915700  0.694800  0.412800  1.0  0.0952
  H  H78  1  0.869400  0.695900  0.365500  1.0  0.1492
  H  H79  1  0.829300  0.691900  0.331500  1.0  0.121
  H  H80  1  0.782600  0.694000  0.287200  1.0  0.0915
  H  H81  1  0.084300  0.694800  0.587200  1.0  0.0958
  H  H82  1  0.130600  0.695900  0.634500  1.0  0.1498
  H  H83  1  0.170700  0.691900  0.668500  1.0  0.1204
  H  H84  1  0.217400  0.694000  0.712800  1.0  0.0914
  H  H85  1  0.084300  0.305200  0.412800  1.0  0.0954
  H  H86  1  0.130600  0.304100  0.365500  1.0  0.1498
  H  H87  1  0.170700  0.308100  0.331500  1.0  0.1204
  H  H88  1  0.217400  0.306000  0.287200  1.0  0.0914
  H  H89  1  0.915700  0.305200  0.587200  1.0  0.0955
  H  H90  1  0.869400  0.304100  0.634500  1.0  0.1494
  H  H91  1  0.829300  0.308100  0.668500  1.0  0.1212
  H  H92  1  0.782600  0.306000  0.712800  1.0  0.0914
  H  H93  1  0.694800  0.587200  0.084300  1.0  0.0967
  H  H94  1  0.695900  0.634500  0.130600  1.0  0.1493
  H  H95  1  0.691900  0.668500  0.170700  1.0  0.1169
  H  H96  1  0.694000  0.712800  0.217400  1.0  0.0927
  H  H97  1  0.694800  0.412800  0.915700  1.0  0.0966
  H  H98  1  0.695900  0.365500  0.869400  1.0  0.1488
  H  H99  1  0.691900  0.331500  0.829300  1.0  0.1174
  H  H100  1  0.694000  0.287200  0.782600  1.0  0.0921
  H  H101  1  0.305200  0.587200  0.915700  1.0  0.0961
  H  H102  1  0.304100  0.634500  0.869400  1.0  0.1494
  H  H103  1  0.308100  0.668500  0.829300  1.0  0.1181
  H  H104  1  0.306000  0.712800  0.782600  1.0  0.0918
  H  H105  1  0.305200  0.412800  0.084300  1.0  0.0967
  H  H106  1  0.304100  0.365500  0.130600  1.0  0.1484
  H  H107  1  0.308100  0.331500  0.170700  1.0  0.1188
  H  H108  1  0.306000  0.287200  0.217400  1.0  0.0908
  H  H109  1  0.584300  0.912800  0.805200  1.0  0.1005
  H  H110  1  0.630600  0.865500  0.804100  1.0  0.1454
  H  H111  1  0.670700  0.831500  0.808100  1.0  0.1195
  H  H112  1  0.717400  0.787200  0.806000  1.0  0.0935
  H  H113  1  0.415700  0.087200  0.805200  1.0  0.1005
  H  H114  1  0.369400  0.134500  0.804100  1.0  0.1446
  H  H115  1  0.329300  0.168500  0.808100  1.0  0.1195
  H  H116  1  0.282600  0.212800  0.806000  1.0  0.0936
  H  H117  1  0.415700  0.912800  0.194800  1.0  0.1009
  H  H118  1  0.369400  0.865500  0.195900  1.0  0.1451
  H  H119  1  0.329300  0.831500  0.191900  1.0  0.1178
  H  H120  1  0.282600  0.787200  0.194000  1.0  0.0938
  H  H121  1  0.584300  0.087200  0.194800  1.0  0.1004
  H  H122  1  0.630600  0.134500  0.195900  1.0  0.145
  H  H123  1  0.670700  0.168500  0.191900  1.0  0.1177
  H  H124  1  0.717400  0.212800  0.194000  1.0  0.0936
  H  H125  1  0.805200  0.584300  0.912800  1.0  0.1014
  H  H126  1  0.804100  0.630600  0.865500  1.0  0.1466
  H  H127  1  0.808100  0.670700  0.831500  1.0  0.1157
  H  H128  1  0.806000  0.717400  0.787200  1.0  0.0956
  H  H129  1  0.805200  0.415700  0.087200  1.0  0.102
  H  H130  1  0.804100  0.369400  0.134500  1.0  0.1457
  H  H131  1  0.808100  0.329300  0.168500  1.0  0.1158
  H  H132  1  0.806000  0.282600  0.212800  1.0  0.095
  H  H133  1  0.194800  0.415700  0.912800  1.0  0.1015
  H  H134  1  0.195900  0.369400  0.865500  1.0  0.1459
  H  H135  1  0.191900  0.329300  0.831500  1.0  0.1147
  H  H136  1  0.194000  0.282600  0.787200  1.0  0.0961
  H  H137  1  0.194800  0.584300  0.087200  1.0  0.1019
  H  H138  1  0.195900  0.630600  0.134500  1.0  0.1462
  H  H139  1  0.191900  0.670700  0.168500  1.0  0.1146
  H  H140  1  0.194000  0.717400  0.212800  1.0  0.0959
  H  H141  1  0.912800  0.805200  0.584300  1.0  0.1013
  H  H142  1  0.865500  0.804100  0.630600  1.0  0.1479
  H  H143  1  0.831500  0.808100  0.670700  1.0  0.1194
  H  H144  1  0.787200  0.806000  0.717400  1.0  0.0928
  H  H145  1  0.087200  0.805200  0.415700  1.0  0.1012
  H  H146  1  0.134500  0.804100  0.369400  1.0  0.1482
  H  H147  1  0.168500  0.808100  0.329300  1.0  0.1186
  H  H148  1  0.212800  0.806000  0.282600  1.0  0.0933
  H  H149  1  0.912800  0.194800  0.415700  1.0  0.1003
  H  H150  1  0.865500  0.195900  0.369400  1.0  0.1468
  H  H151  1  0.831500  0.191900  0.329300  1.0  0.1189
  H  H152  1  0.787200  0.194000  0.282600  1.0  0.0928
  H  H153  1  0.087200  0.194800  0.584300  1.0  0.1008
  H  H154  1  0.134500  0.195900  0.630600  1.0  0.1476
  H  H155  1  0.168500  0.191900  0.670700  1.0  0.1184
  H  H156  1  0.212800  0.194000  0.717400  1.0  0.0932
  H  H157  1  0.412800  0.084300  0.694800  1.0  0.0941
  H  H158  1  0.365500  0.130600  0.695900  1.0  0.1482
  H  H159  1  0.331500  0.170700  0.691900  1.0  0.1196
  H  H160  1  0.287200  0.217400  0.694000  1.0  0.0916
  H  H161  1  0.587200  0.915700  0.694800  1.0  0.0945
  H  H162  1  0.634500  0.869400  0.695900  1.0  0.1478
  H  H163  1  0.668500  0.829300  0.691900  1.0  0.1199
  H  H164  1  0.712800  0.782600  0.694000  1.0  0.0914
  H  H165  1  0.412800  0.915700  0.305200  1.0  0.0951
  H  H166  1  0.365500  0.869400  0.304100  1.0  0.1484
  H  H167  1  0.331500  0.829300  0.308100  1.0  0.1218
  H  H168  1  0.287200  0.782600  0.306000  1.0  0.0911
  H  H169  1  0.587200  0.084300  0.305200  1.0  0.095
  H  H170  1  0.634500  0.130600  0.304100  1.0  0.1485
  H  H171  1  0.668500  0.170700  0.308100  1.0  0.1219
  H  H172  1  0.712800  0.217400  0.306000  1.0  0.0915
  H  H173  1  0.084300  0.305200  0.587200  1.0  0.0956
  H  H174  1  0.130600  0.304100  0.634500  1.0  0.15
  H  H175  1  0.170700  0.308100  0.668500  1.0  0.1208
  H  H176  1  0.217400  0.306000  0.712800  1.0  0.0915
  H  H177  1  0.915700  0.305200  0.412800  1.0  0.0953
  H  H178  1  0.869400  0.304100  0.365500  1.0  0.1494
  H  H179  1  0.829300  0.308100  0.331500  1.0  0.1209
  H  H180  1  0.782600  0.306000  0.287200  1.0  0.0916
  H  H181  1  0.915700  0.694800  0.587200  1.0  0.0957
  H  H182  1  0.869400  0.695900  0.634500  1.0  0.1492
  H  H183  1  0.829300  0.691900  0.668500  1.0  0.1209
  H  H184  1  0.782600  0.694000  0.712800  1.0  0.0913
  H  H185  1  0.084300  0.694800  0.412800  1.0  0.0953
  H  H186  1  0.130600  0.695900  0.365500  1.0  0.1498
  H  H187  1  0.170700  0.691900  0.331500  1.0  0.1205
  H  H188  1  0.217400  0.694000  0.287200  1.0  0.0915
  H  H189  1  0.305200  0.412800  0.915700  1.0  0.0963
  H  H190  1  0.304100  0.365500  0.869400  1.0  0.1488
  H  H191  1  0.308100  0.331500  0.829300  1.0  0.1184
  H  H192  1  0.306000  0.287200  0.782600  1.0  0.0914
  H  H193  1  0.305200  0.587200  0.084300  1.0  0.0964
  H  H194  1  0.304100  0.634500  0.130600  1.0  0.1489
  H  H195  1  0.308100  0.668500  0.170700  1.0  0.1182
  H  H196  1  0.306000  0.712800  0.217400  1.0  0.0914
  H  H197  1  0.694800  0.412800  0.084300  1.0  0.097
  H  H198  1  0.695900  0.365500  0.130600  1.0  0.1491
  H  H199  1  0.691900  0.331500  0.170700  1.0  0.1176
  H  H200  1  0.694000  0.287200  0.217400  1.0  0.0919
  H  H201  1  0.694800  0.587200  0.915700  1.0  0.0965
  H  H202  1  0.695900  0.634500  0.869400  1.0  0.1489
  H  H203  1  0.691900  0.668500  0.829300  1.0  0.1171
  H  H204  1  0.694000  0.712800  0.782600  1.0  0.0926
  C  C205  1  0.406700  0.095100  0.218100  1.0  -0.1169
  C  C206  1  0.377000  0.125100  0.219100  1.0  -0.123
  C  C207  1  0.319800  0.178500  0.214100  1.0  -0.1066
  C  C208  1  0.293200  0.204400  0.216400  1.0  -0.1422
  C  C209  1  0.593300  0.904900  0.218100  1.0  -0.1158
  C  C210  1  0.623000  0.874900  0.219100  1.0  -0.1244
  C  C211  1  0.680200  0.821500  0.214100  1.0  -0.1058
  C  C212  1  0.706800  0.795600  0.216400  1.0  -0.142
  C  C213  1  0.593300  0.095100  0.781900  1.0  -0.116
  C  C214  1  0.623000  0.125100  0.780900  1.0  -0.1218
  C  C215  1  0.680200  0.178500  0.785900  1.0  -0.1087
  C  C216  1  0.706800  0.204400  0.783600  1.0  -0.1416
  C  C217  1  0.406700  0.904900  0.781900  1.0  -0.1155
  C  C218  1  0.377000  0.874900  0.780900  1.0  -0.1211
  C  C219  1  0.319800  0.821500  0.785900  1.0  -0.106
  C  C220  1  0.293200  0.795600  0.783600  1.0  -0.1415
  C  C221  1  0.218100  0.406700  0.095100  1.0  -0.1149
  C  C222  1  0.219100  0.377000  0.125100  1.0  -0.1218
  C  C223  1  0.214100  0.319800  0.178500  1.0  -0.1057
  C  C224  1  0.216400  0.293200  0.204400  1.0  -0.1396
  C  C225  1  0.218100  0.593300  0.904900  1.0  -0.1155
  C  C226  1  0.219100  0.623000  0.874900  1.0  -0.1225
  C  C227  1  0.214100  0.680200  0.821500  1.0  -0.1064
  C  C228  1  0.216400  0.706800  0.795600  1.0  -0.1391
  C  C229  1  0.781900  0.593300  0.095100  1.0  -0.1145
  C  C230  1  0.780900  0.623000  0.125100  1.0  -0.1192
  C  C231  1  0.785900  0.680200  0.178500  1.0  -0.1038
  C  C232  1  0.783600  0.706800  0.204400  1.0  -0.1409
  C  C233  1  0.781900  0.406700  0.904900  1.0  -0.1136
  C  C234  1  0.780900  0.377000  0.874900  1.0  -0.1212
  C  C235  1  0.785900  0.319800  0.821500  1.0  -0.1035
  C  C236  1  0.783600  0.293200  0.795600  1.0  -0.1406
  C  C237  1  0.095100  0.218100  0.406700  1.0  -0.1144
  C  C238  1  0.125100  0.219100  0.377000  1.0  -0.1246
  C  C239  1  0.178500  0.214100  0.319800  1.0  -0.1106
  C  C240  1  0.204400  0.216400  0.293200  1.0  -0.1372
  C  C241  1  0.904900  0.218100  0.593300  1.0  -0.1143
  C  C242  1  0.874900  0.219100  0.623000  1.0  -0.1237
  C  C243  1  0.821500  0.214100  0.680200  1.0  -0.1094
  C  C244  1  0.795600  0.216400  0.706800  1.0  -0.1384
  C  C245  1  0.095100  0.781900  0.593300  1.0  -0.117
  C  C246  1  0.125100  0.780900  0.623000  1.0  -0.1249
  C  C247  1  0.178500  0.785900  0.680200  1.0  -0.1064
  C  C248  1  0.204400  0.783600  0.706800  1.0  -0.1375
  C  C249  1  0.904900  0.781900  0.406700  1.0  -0.1167
  C  C250  1  0.874900  0.780900  0.377000  1.0  -0.124
  C  C251  1  0.821500  0.785900  0.319800  1.0  -0.1065
  C  C252  1  0.795600  0.783600  0.293200  1.0  -0.1385
  C  C253  1  0.595100  0.906700  0.281900  1.0  -0.1157
  C  C254  1  0.625100  0.877000  0.280900  1.0  -0.1213
  C  C255  1  0.678500  0.819800  0.285900  1.0  -0.1078
  C  C256  1  0.704400  0.793200  0.283600  1.0  -0.1445
  C  C257  1  0.404900  0.093300  0.281900  1.0  -0.1146
  C  C258  1  0.374900  0.123000  0.280900  1.0  -0.1209
  C  C259  1  0.321500  0.180200  0.285900  1.0  -0.1066
  C  C260  1  0.295600  0.206800  0.283600  1.0  -0.1462
  C  C261  1  0.595100  0.093300  0.718100  1.0  -0.1153
  C  C262  1  0.625100  0.123000  0.719100  1.0  -0.1242
  C  C263  1  0.678500  0.180200  0.714100  1.0  -0.1061
  C  C264  1  0.704400  0.206800  0.716400  1.0  -0.1456
  C  C265  1  0.404900  0.906700  0.718100  1.0  -0.1162
  C  C266  1  0.374900  0.877000  0.719100  1.0  -0.1224
  C  C267  1  0.321500  0.819800  0.714100  1.0  -0.1054
  C  C268  1  0.295600  0.793200  0.716400  1.0  -0.1464
  C  C269  1  0.906700  0.718100  0.404900  1.0  -0.1137
  C  C270  1  0.877000  0.719100  0.374900  1.0  -0.1239
  C  C271  1  0.819800  0.714100  0.321500  1.0  -0.1094
  C  C272  1  0.793200  0.716400  0.295600  1.0  -0.145
  C  C273  1  0.093300  0.718100  0.595100  1.0  -0.1135
  C  C274  1  0.123000  0.719100  0.625100  1.0  -0.1239
  C  C275  1  0.180200  0.714100  0.678500  1.0  -0.1096
  C  C276  1  0.206800  0.716400  0.704400  1.0  -0.1455
  C  C277  1  0.093300  0.281900  0.404900  1.0  -0.1168
  C  C278  1  0.123000  0.280900  0.374900  1.0  -0.1263
  C  C279  1  0.180200  0.285900  0.321500  1.0  -0.1065
  C  C280  1  0.206800  0.283600  0.295600  1.0  -0.1452
  C  C281  1  0.906700  0.281900  0.595100  1.0  -0.1163
  C  C282  1  0.877000  0.280900  0.625100  1.0  -0.1227
  C  C283  1  0.819800  0.285900  0.678500  1.0  -0.1051
  C  C284  1  0.793200  0.283600  0.704400  1.0  -0.1461
  C  C285  1  0.718100  0.595100  0.093300  1.0  -0.1149
  C  C286  1  0.719100  0.625100  0.123000  1.0  -0.1218
  C  C287  1  0.714100  0.678500  0.180200  1.0  -0.1075
  C  C288  1  0.716400  0.704400  0.206800  1.0  -0.1429
  C  C289  1  0.718100  0.404900  0.906700  1.0  -0.1146
  C  C290  1  0.719100  0.374900  0.877000  1.0  -0.1222
  C  C291  1  0.714100  0.321500  0.819800  1.0  -0.1064
  C  C292  1  0.716400  0.295600  0.793200  1.0  -0.1424
  C  C293  1  0.281900  0.595100  0.906700  1.0  -0.1132
  C  C294  1  0.280900  0.625100  0.877000  1.0  -0.1202
  C  C295  1  0.285900  0.678500  0.819800  1.0  -0.1057
  C  C296  1  0.283600  0.704400  0.793200  1.0  -0.1446
  C  C297  1  0.281900  0.404900  0.093300  1.0  -0.1138
  C  C298  1  0.280900  0.374900  0.123000  1.0  -0.1206
  C  C299  1  0.285900  0.321500  0.180200  1.0  -0.1037
  C  C300  1  0.283600  0.295600  0.206800  1.0  -0.1441
  C  C301  1  0.593300  0.904900  0.781900  1.0  -0.1162
  C  C302  1  0.623000  0.874900  0.780900  1.0  -0.1223
  C  C303  1  0.680200  0.821500  0.785900  1.0  -0.1069
  C  C304  1  0.706800  0.795600  0.783600  1.0  -0.1408
  C  C305  1  0.406700  0.095100  0.781900  1.0  -0.115
  C  C306  1  0.377000  0.125100  0.780900  1.0  -0.1207
  C  C307  1  0.319800  0.178500  0.785900  1.0  -0.1078
  C  C308  1  0.293200  0.204400  0.783600  1.0  -0.1422
  C  C309  1  0.406700  0.904900  0.218100  1.0  -0.1169
  C  C310  1  0.377000  0.874900  0.219100  1.0  -0.1229
  C  C311  1  0.319800  0.821500  0.214100  1.0  -0.1048
  C  C312  1  0.293200  0.795600  0.216400  1.0  -0.1425
  C  C313  1  0.593300  0.095100  0.218100  1.0  -0.1157
  C  C314  1  0.623000  0.125100  0.219100  1.0  -0.1246
  C  C315  1  0.680200  0.178500  0.214100  1.0  -0.1077
  C  C316  1  0.706800  0.204400  0.216400  1.0  -0.142
  C  C317  1  0.781900  0.593300  0.904900  1.0  -0.1139
  C  C318  1  0.780900  0.623000  0.874900  1.0  -0.1206
  C  C319  1  0.785900  0.680200  0.821500  1.0  -0.1038
  C  C320  1  0.783600  0.706800  0.795600  1.0  -0.141
  C  C321  1  0.781900  0.406700  0.095100  1.0  -0.1143
  C  C322  1  0.780900  0.377000  0.125100  1.0  -0.1197
  C  C323  1  0.785900  0.319800  0.178500  1.0  -0.1036
  C  C324  1  0.783600  0.293200  0.204400  1.0  -0.1404
  C  C325  1  0.218100  0.406700  0.904900  1.0  -0.1152
  C  C326  1  0.219100  0.377000  0.874900  1.0  -0.1226
  C  C327  1  0.214100  0.319800  0.821500  1.0  -0.1063
  C  C328  1  0.216400  0.293200  0.795600  1.0  -0.1389
  C  C329  1  0.218100  0.593300  0.095100  1.0  -0.1155
  C  C330  1  0.219100  0.623000  0.125100  1.0  -0.1218
  C  C331  1  0.214100  0.680200  0.178500  1.0  -0.1058
  C  C332  1  0.216400  0.706800  0.204400  1.0  -0.1398
  C  C333  1  0.904900  0.781900  0.593300  1.0  -0.117
  C  C334  1  0.874900  0.780900  0.623000  1.0  -0.123
  C  C335  1  0.821500  0.785900  0.680200  1.0  -0.1059
  C  C336  1  0.795600  0.783600  0.706800  1.0  -0.1392
  C  C337  1  0.095100  0.781900  0.406700  1.0  -0.1172
  C  C338  1  0.125100  0.780900  0.377000  1.0  -0.126
  C  C339  1  0.178500  0.785900  0.319800  1.0  -0.1071
  C  C340  1  0.204400  0.783600  0.293200  1.0  -0.1371
  C  C341  1  0.904900  0.218100  0.406700  1.0  -0.1141
  C  C342  1  0.874900  0.219100  0.377000  1.0  -0.1235
  C  C343  1  0.821500  0.214100  0.319800  1.0  -0.1102
  C  C344  1  0.795600  0.216400  0.293200  1.0  -0.1382
  C  C345  1  0.095100  0.218100  0.593300  1.0  -0.114
  C  C346  1  0.125100  0.219100  0.623000  1.0  -0.1245
  C  C347  1  0.178500  0.214100  0.680200  1.0  -0.1098
  C  C348  1  0.204400  0.216400  0.706800  1.0  -0.1373
  C  C349  1  0.404900  0.093300  0.718100  1.0  -0.116
  C  C350  1  0.374900  0.123000  0.719100  1.0  -0.123
  C  C351  1  0.321500  0.180200  0.714100  1.0  -0.1054
  C  C352  1  0.295600  0.206800  0.716400  1.0  -0.1469
  C  C353  1  0.595100  0.906700  0.718100  1.0  -0.1154
  C  C354  1  0.625100  0.877000  0.719100  1.0  -0.1235
  C  C355  1  0.678500  0.819800  0.714100  1.0  -0.106
  C  C356  1  0.704400  0.793200  0.716400  1.0  -0.1456
  C  C357  1  0.404900  0.906700  0.281900  1.0  -0.1151
  C  C358  1  0.374900  0.877000  0.280900  1.0  -0.1206
  C  C359  1  0.321500  0.819800  0.285900  1.0  -0.1067
  C  C360  1  0.295600  0.793200  0.283600  1.0  -0.1453
  C  C361  1  0.595100  0.093300  0.281900  1.0  -0.1154
  C  C362  1  0.625100  0.123000  0.280900  1.0  -0.1214
  C  C363  1  0.678500  0.180200  0.285900  1.0  -0.1077
  C  C364  1  0.704400  0.206800  0.283600  1.0  -0.1455
  C  C365  1  0.093300  0.281900  0.595100  1.0  -0.1163
  C  C366  1  0.123000  0.280900  0.625100  1.0  -0.1245
  C  C367  1  0.180200  0.285900  0.678500  1.0  -0.106
  C  C368  1  0.206800  0.283600  0.704400  1.0  -0.1455
  C  C369  1  0.906700  0.281900  0.404900  1.0  -0.1163
  C  C370  1  0.877000  0.280900  0.374900  1.0  -0.1243
  C  C371  1  0.819800  0.285900  0.321500  1.0  -0.1054
  C  C372  1  0.793200  0.283600  0.295600  1.0  -0.1454
  C  C373  1  0.906700  0.718100  0.595100  1.0  -0.1138
  C  C374  1  0.877000  0.719100  0.625100  1.0  -0.1229
  C  C375  1  0.819800  0.714100  0.678500  1.0  -0.1086
  C  C376  1  0.793200  0.716400  0.704400  1.0  -0.1457
  C  C377  1  0.093300  0.718100  0.404900  1.0  -0.114
  C  C378  1  0.123000  0.719100  0.374900  1.0  -0.1252
  C  C379  1  0.180200  0.714100  0.321500  1.0  -0.1104
  C  C380  1  0.206800  0.716400  0.295600  1.0  -0.1449
  C  C381  1  0.281900  0.404900  0.906700  1.0  -0.1132
  C  C382  1  0.280900  0.374900  0.877000  1.0  -0.1212
  C  C383  1  0.285900  0.321500  0.819800  1.0  -0.1039
  C  C384  1  0.283600  0.295600  0.793200  1.0  -0.1436
  C  C385  1  0.281900  0.595100  0.093300  1.0  -0.1141
  C  C386  1  0.280900  0.625100  0.123000  1.0  -0.1196
  C  C387  1  0.285900  0.678500  0.180200  1.0  -0.1055
  C  C388  1  0.283600  0.704400  0.206800  1.0  -0.145
  C  C389  1  0.718100  0.404900  0.093300  1.0  -0.1144
  C  C390  1  0.719100  0.374900  0.123000  1.0  -0.1221
  C  C391  1  0.714100  0.321500  0.180200  1.0  -0.1057
  C  C392  1  0.716400  0.295600  0.206800  1.0  -0.1431
  C  C393  1  0.718100  0.595100  0.906700  1.0  -0.1149
  C  C394  1  0.719100  0.625100  0.877000  1.0  -0.1219
  C  C395  1  0.714100  0.678500  0.819800  1.0  -0.1081
  C  C396  1  0.716400  0.704400  0.793200  1.0  -0.1422
  C  C397  1  0.449200  0.050800  0.250000  1.0  0.6752
  C  C398  1  0.421000  0.079000  0.250000  1.0  0.0463
  C  C399  1  0.359600  0.140400  0.250000  1.0  0.0277
  C  C400  1  0.331300  0.168700  0.250000  1.0  0.0252
  C  C401  1  0.279450  0.220550  0.250000  1.0  0.1061
  C  C402  1  0.550800  0.949200  0.250000  1.0  0.6755
  C  C403  1  0.579000  0.921000  0.250000  1.0  0.0465
  C  C404  1  0.640400  0.859600  0.250000  1.0  0.0277
  C  C405  1  0.668700  0.831300  0.250000  1.0  0.0254
  C  C406  1  0.720550  0.779450  0.250000  1.0  0.1051
  C  C407  1  0.550800  0.050800  0.750000  1.0  0.6753
  C  C408  1  0.579000  0.079000  0.750000  1.0  0.0457
  C  C409  1  0.640400  0.140400  0.750000  1.0  0.0279
  C  C410  1  0.668700  0.168700  0.750000  1.0  0.0254
  C  C411  1  0.720550  0.220550  0.750000  1.0  0.1059
  C  C412  1  0.449200  0.949200  0.750000  1.0  0.6756
  C  C413  1  0.421000  0.921000  0.750000  1.0  0.047
  C  C414  1  0.359600  0.859600  0.750000  1.0  0.0277
  C  C415  1  0.331300  0.831300  0.750000  1.0  0.0252
  C  C416  1  0.279450  0.779450  0.750000  1.0  0.1053
  C  C417  1  0.250000  0.449200  0.050800  1.0  0.6749
  C  C418  1  0.250000  0.421000  0.079000  1.0  0.0466
  C  C419  1  0.250000  0.359600  0.140400  1.0  0.0276
  C  C420  1  0.250000  0.331300  0.168700  1.0  0.0264
  C  C421  1  0.250000  0.279450  0.220550  1.0  0.107
  C  C422  1  0.250000  0.550800  0.949200  1.0  0.6746
  C  C423  1  0.250000  0.579000  0.921000  1.0  0.0465
  C  C424  1  0.250000  0.640400  0.859600  1.0  0.0268
  C  C425  1  0.250000  0.668700  0.831300  1.0  0.0262
  C  C426  1  0.250000  0.720550  0.779450  1.0  0.1073
  C  C427  1  0.750000  0.550800  0.050800  1.0  0.6746
  C  C428  1  0.750000  0.579000  0.079000  1.0  0.0459
  C  C429  1  0.750000  0.640400  0.140400  1.0  0.0278
  C  C430  1  0.750000  0.668700  0.168700  1.0  0.0263
  C  C431  1  0.750000  0.720550  0.220550  1.0  0.1077
  C  C432  1  0.750000  0.449200  0.949200  1.0  0.6748
  C  C433  1  0.750000  0.421000  0.921000  1.0  0.0471
  C  C434  1  0.750000  0.359600  0.859600  1.0  0.0266
  C  C435  1  0.750000  0.331300  0.831300  1.0  0.0262
  C  C436  1  0.750000  0.279450  0.779450  1.0  0.1064
  C  C437  1  0.050800  0.250000  0.449200  1.0  0.6755
  C  C438  1  0.079000  0.250000  0.421000  1.0  0.0462
  C  C439  1  0.140400  0.250000  0.359600  1.0  0.0272
  C  C440  1  0.168700  0.250000  0.331300  1.0  0.0254
  C  C441  1  0.220550  0.250000  0.279450  1.0  0.1048
  C  C442  1  0.949200  0.250000  0.550800  1.0  0.6753
  C  C443  1  0.921000  0.250000  0.579000  1.0  0.0465
  C  C444  1  0.859600  0.250000  0.640400  1.0  0.0282
  C  C445  1  0.831300  0.250000  0.668700  1.0  0.0254
  C  C446  1  0.779450  0.250000  0.720550  1.0  0.1054
  C  C447  1  0.050800  0.750000  0.550800  1.0  0.6755
  C  C448  1  0.079000  0.750000  0.579000  1.0  0.0459
  C  C449  1  0.140400  0.750000  0.640400  1.0  0.0282
  C  C450  1  0.168700  0.750000  0.668700  1.0  0.0255
  C  C451  1  0.220550  0.750000  0.720550  1.0  0.1052
  C  C452  1  0.949200  0.750000  0.449200  1.0  0.6753
  C  C453  1  0.921000  0.750000  0.421000  1.0  0.0469
  C  C454  1  0.859600  0.750000  0.359600  1.0  0.0271
  C  C455  1  0.831300  0.750000  0.331300  1.0  0.0253
  C  C456  1  0.779450  0.750000  0.279450  1.0  0.1048
  C  C457  1  0.550800  0.949200  0.750000  1.0  0.6755
  C  C458  1  0.579000  0.921000  0.750000  1.0  0.0465
  C  C459  1  0.640400  0.859600  0.750000  1.0  0.0277
  C  C460  1  0.668700  0.831300  0.750000  1.0  0.0254
  C  C461  1  0.720550  0.779450  0.750000  1.0  0.1051
  C  C462  1  0.449200  0.050800  0.750000  1.0  0.6752
  C  C463  1  0.421000  0.079000  0.750000  1.0  0.0463
  C  C464  1  0.359600  0.140400  0.750000  1.0  0.0277
  C  C465  1  0.331300  0.168700  0.750000  1.0  0.0252
  C  C466  1  0.279450  0.220550  0.750000  1.0  0.1061
  C  C467  1  0.449200  0.949200  0.250000  1.0  0.6756
  C  C468  1  0.421000  0.921000  0.250000  1.0  0.047
  C  C469  1  0.359600  0.859600  0.250000  1.0  0.0277
  C  C470  1  0.331300  0.831300  0.250000  1.0  0.0252
  C  C471  1  0.279450  0.779450  0.250000  1.0  0.1053
  C  C472  1  0.550800  0.050800  0.250000  1.0  0.6753
  C  C473  1  0.579000  0.079000  0.250000  1.0  0.0457
  C  C474  1  0.640400  0.140400  0.250000  1.0  0.0279
  C  C475  1  0.668700  0.168700  0.250000  1.0  0.0254
  C  C476  1  0.720550  0.220550  0.250000  1.0  0.1059
  C  C477  1  0.750000  0.550800  0.949200  1.0  0.6746
  C  C478  1  0.750000  0.579000  0.921000  1.0  0.0465
  C  C479  1  0.750000  0.640400  0.859600  1.0  0.0268
  C  C480  1  0.750000  0.668700  0.831300  1.0  0.0262
  C  C481  1  0.750000  0.720550  0.779450  1.0  0.1073
  C  C482  1  0.750000  0.449200  0.050800  1.0  0.6749
  C  C483  1  0.750000  0.421000  0.079000  1.0  0.0466
  C  C484  1  0.750000  0.359600  0.140400  1.0  0.0276
  C  C485  1  0.750000  0.331300  0.168700  1.0  0.0264
  C  C486  1  0.750000  0.279450  0.220550  1.0  0.107
  C  C487  1  0.250000  0.449200  0.949200  1.0  0.6748
  C  C488  1  0.250000  0.421000  0.921000  1.0  0.0471
  C  C489  1  0.250000  0.359600  0.859600  1.0  0.0266
  C  C490  1  0.250000  0.331300  0.831300  1.0  0.0262
  C  C491  1  0.250000  0.279450  0.779450  1.0  0.1064
  C  C492  1  0.250000  0.550800  0.050800  1.0  0.6746
  C  C493  1  0.250000  0.579000  0.079000  1.0  0.0459
  C  C494  1  0.250000  0.640400  0.140400  1.0  0.0278
  C  C495  1  0.250000  0.668700  0.168700  1.0  0.0263
  C  C496  1  0.250000  0.720550  0.220550  1.0  0.1077
  C  C497  1  0.949200  0.750000  0.550800  1.0  0.6753
  C  C498  1  0.921000  0.750000  0.579000  1.0  0.0465
  C  C499  1  0.859600  0.750000  0.640400  1.0  0.0282
  C  C500  1  0.831300  0.750000  0.668700  1.0  0.0254
  C  C501  1  0.779450  0.750000  0.720550  1.0  0.1054
  C  C502  1  0.050800  0.750000  0.449200  1.0  0.6755
  C  C503  1  0.079000  0.750000  0.421000  1.0  0.0462
  C  C504  1  0.140400  0.750000  0.359600  1.0  0.0272
  C  C505  1  0.168700  0.750000  0.331300  1.0  0.0254
  C  C506  1  0.220550  0.750000  0.279450  1.0  0.1048
  C  C507  1  0.949200  0.250000  0.449200  1.0  0.6753
  C  C508  1  0.921000  0.250000  0.421000  1.0  0.0469
  C  C509  1  0.859600  0.250000  0.359600  1.0  0.0271
  C  C510  1  0.831300  0.250000  0.331300  1.0  0.0253
  C  C511  1  0.779450  0.250000  0.279450  1.0  0.1048
  C  C512  1  0.050800  0.250000  0.550800  1.0  0.6755
  C  C513  1  0.079000  0.250000  0.579000  1.0  0.0459
  C  C514  1  0.140400  0.250000  0.640400  1.0  0.0282
  C  C515  1  0.168700  0.250000  0.668700  1.0  0.0255
  C  C516  1  0.220550  0.250000  0.720550  1.0  0.1052
  N  N517  1  0.250000  0.250000  0.250000  1.0  -0.1994
  N  N518  1  0.750000  0.750000  0.250000  1.0  -0.1994
  N  N519  1  0.750000  0.250000  0.750000  1.0  -0.1994
  N  N520  1  0.250000  0.750000  0.750000  1.0  -0.1994
  N  N521  1  0.750000  0.750000  0.750000  1.0  -0.1994
  N  N522  1  0.250000  0.250000  0.750000  1.0  -0.1994
  N  N523  1  0.250000  0.750000  0.250000  1.0  -0.1994
  N  N524  1  0.750000  0.250000  0.250000  1.0  -0.1994
  O  O525  1  0.462540  0.037460  0.219220  1.0  -0.6035
  O  O526  1  0.537460  0.962540  0.219220  1.0  -0.6039
  O  O527  1  0.537460  0.037460  0.780780  1.0  -0.603
  O  O528  1  0.462540  0.962540  0.780780  1.0  -0.6035
  O  O529  1  0.219220  0.462540  0.037460  1.0  -0.6
  O  O530  1  0.219220  0.537460  0.962540  1.0  -0.5995
  O  O531  1  0.780780  0.537460  0.037460  1.0  -0.6008
  O  O532  1  0.780780  0.462540  0.962540  1.0  -0.6005
  O  O533  1  0.037460  0.219220  0.462540  1.0  -0.6029
  O  O534  1  0.962540  0.219220  0.537460  1.0  -0.6026
  O  O535  1  0.037460  0.780780  0.537460  1.0  -0.6023
  O  O536  1  0.962540  0.780780  0.462540  1.0  -0.6029
  O  O537  1  0.537460  0.962540  0.280780  1.0  -0.6032
  O  O538  1  0.462540  0.037460  0.280780  1.0  -0.6034
  O  O539  1  0.537460  0.037460  0.719220  1.0  -0.6039
  O  O540  1  0.462540  0.962540  0.719220  1.0  -0.6035
  O  O541  1  0.962540  0.719220  0.462540  1.0  -0.6029
  O  O542  1  0.037460  0.719220  0.537460  1.0  -0.6028
  O  O543  1  0.037460  0.280780  0.462540  1.0  -0.6021
  O  O544  1  0.962540  0.280780  0.537460  1.0  -0.6029
  O  O545  1  0.719220  0.537460  0.037460  1.0  -0.5996
  O  O546  1  0.719220  0.462540  0.962540  1.0  -0.5996
  O  O547  1  0.280780  0.537460  0.962540  1.0  -0.6009
  O  O548  1  0.280780  0.462540  0.037460  1.0  -0.6004
  O  O549  1  0.537460  0.962540  0.780780  1.0  -0.6033
  O  O550  1  0.462540  0.037460  0.780780  1.0  -0.6038
  O  O551  1  0.462540  0.962540  0.219220  1.0  -0.6036
  O  O552  1  0.537460  0.037460  0.219220  1.0  -0.604
  O  O553  1  0.780780  0.537460  0.962540  1.0  -0.601
  O  O554  1  0.780780  0.462540  0.037460  1.0  -0.6004
  O  O555  1  0.219220  0.462540  0.962540  1.0  -0.6
  O  O556  1  0.219220  0.537460  0.037460  1.0  -0.5998
  O  O557  1  0.962540  0.780780  0.537460  1.0  -0.6033
  O  O558  1  0.037460  0.780780  0.462540  1.0  -0.6019
  O  O559  1  0.962540  0.219220  0.462540  1.0  -0.6031
  O  O560  1  0.037460  0.219220  0.537460  1.0  -0.6026
  O  O561  1  0.462540  0.037460  0.719220  1.0  -0.6038
  O  O562  1  0.537460  0.962540  0.719220  1.0  -0.6041
  O  O563  1  0.462540  0.962540  0.280780  1.0  -0.604
  O  O564  1  0.537460  0.037460  0.280780  1.0  -0.6033
  O  O565  1  0.037460  0.280780  0.537460  1.0  -0.6024
  O  O566  1  0.962540  0.280780  0.462540  1.0  -0.6031
  O  O567  1  0.962540  0.719220  0.537460  1.0  -0.6029
  O  O568  1  0.037460  0.719220  0.462540  1.0  -0.6028
  O  O569  1  0.280780  0.462540  0.962540  1.0  -0.6007
  O  O570  1  0.280780  0.537460  0.037460  1.0  -0.6009
  O  O571  1  0.719220  0.462540  0.037460  1.0  -0.6
  O  O572  1  0.719220  0.537460  0.962540  1.0  -0.5998
