# generated using pymatgen
data_GdH40C22(N2O5)2
_symmetry_space_group_name_H-M   'P 1'
_cell_length_a   15.45800000
_cell_length_b   14.22000000
_cell_length_c   14.24500000
_cell_angle_alpha   90.00000000
_cell_angle_beta   99.84000000
_cell_angle_gamma   90.00000000
_symmetry_Int_Tables_number   1
_chemical_formula_structural   GdH40C22(N2O5)2
_chemical_formula_sum   'Gd4 H160 C88 N16 O40'
_cell_volume   3085.16866775
_cell_formula_units_Z   4
loop_
 _symmetry_equiv_pos_site_id
 _symmetry_equiv_pos_as_xyz
  1  'x, y, z'
loop_
 _atom_site_type_symbol
 _atom_site_label
 _atom_site_symmetry_multiplicity
 _atom_site_fract_x
 _atom_site_fract_y
 _atom_site_fract_z
 _atom_site_occupancy
 _atom_site_charge
  Gd  Gd1  1  0.500000  0.236080  0.750000  1.0  2.0959
  Gd  Gd2  1  0.000000  0.736080  0.750000  1.0  2.0959
  Gd  Gd3  1  0.500000  0.763920  0.250000  1.0  2.0988
  Gd  Gd4  1  0.000000  0.263920  0.250000  1.0  2.0988
  H  H5  1  0.805100  0.401200  0.892700  1.0  0.0963
  H  H6  1  0.769700  0.369600  0.984700  1.0  0.0827
  H  H7  1  0.637100  0.452100  0.925700  1.0  0.0916
  H  H8  1  0.682200  0.491500  0.843400  1.0  0.0707
  H  H9  1  0.673200  0.515200  0.087300  1.0  0.083
  H  H10  1  0.766300  0.470600  0.090100  1.0  0.0726
  H  H11  1  0.727600  0.650200  0.149600  1.0  0.0812
  H  H12  1  0.792300  0.576800  0.205500  1.0  0.0742
  H  H13  1  0.933000  0.750200  0.168700  1.0  0.0914
  H  H14  1  0.872500  0.716800  0.240000  1.0  0.076
  H  H15  1  0.753700  0.800100  0.141700  1.0  0.0699
  H  H16  1  0.826600  0.866400  0.196200  1.0  0.0839
  H  H17  1  0.685000  0.687800  0.993100  1.0  0.0746
  H  H18  1  0.610500  0.623600  0.938800  1.0  0.0808
  H  H19  1  0.952000  0.578600  0.178800  1.0  0.0715
  H  H20  1  0.901000  0.526900  0.089000  1.0  0.0852
  H  H21  1  0.039600  0.583700  0.067100  1.0  0.0893
  H  H22  1  0.005500  0.686200  0.077400  1.0  0.0958
  H  H23  1  0.525600  0.360800  0.884000  1.0  0.2107
  H  H24  1  0.432200  0.344700  0.803100  1.0  0.3745
  H  H25  1  0.305100  0.901200  0.892700  1.0  0.0963
  H  H26  1  0.269700  0.869600  0.984700  1.0  0.0827
  H  H27  1  0.137100  0.952100  0.925700  1.0  0.0916
  H  H28  1  0.182200  0.991500  0.843400  1.0  0.0707
  H  H29  1  0.173200  0.015200  0.087300  1.0  0.083
  H  H30  1  0.266300  0.970600  0.090100  1.0  0.0726
  H  H31  1  0.227600  0.150200  0.149600  1.0  0.0812
  H  H32  1  0.292300  0.076800  0.205500  1.0  0.0742
  H  H33  1  0.433000  0.250200  0.168700  1.0  0.0914
  H  H34  1  0.372500  0.216800  0.240000  1.0  0.076
  H  H35  1  0.253700  0.300100  0.141700  1.0  0.0699
  H  H36  1  0.326600  0.366400  0.196200  1.0  0.0839
  H  H37  1  0.185000  0.187800  0.993100  1.0  0.0746
  H  H38  1  0.110500  0.123600  0.938800  1.0  0.0808
  H  H39  1  0.452000  0.078600  0.178800  1.0  0.0715
  H  H40  1  0.401000  0.026900  0.089000  1.0  0.0852
  H  H41  1  0.539600  0.083700  0.067100  1.0  0.0893
  H  H42  1  0.505500  0.186200  0.077400  1.0  0.0958
  H  H43  1  0.025600  0.860800  0.884000  1.0  0.2107
  H  H44  1  0.932200  0.844700  0.803100  1.0  0.3746
  H  H45  1  0.194900  0.401200  0.607300  1.0  0.095
  H  H46  1  0.230300  0.369600  0.515300  1.0  0.0835
  H  H47  1  0.362900  0.452100  0.574300  1.0  0.0914
  H  H48  1  0.317800  0.491500  0.656600  1.0  0.0725
  H  H49  1  0.326800  0.515200  0.412700  1.0  0.0823
  H  H50  1  0.233700  0.470600  0.409900  1.0  0.0712
  H  H51  1  0.272400  0.650200  0.350400  1.0  0.0807
  H  H52  1  0.207700  0.576800  0.294500  1.0  0.0733
  H  H53  1  0.067000  0.750200  0.331300  1.0  0.088
  H  H54  1  0.127500  0.716800  0.260000  1.0  0.0775
  H  H55  1  0.246300  0.800100  0.358300  1.0  0.0685
  H  H56  1  0.173400  0.866400  0.303800  1.0  0.0854
  H  H57  1  0.315000  0.687800  0.506900  1.0  0.0743
  H  H58  1  0.389500  0.623600  0.561200  1.0  0.0805
  H  H59  1  0.048000  0.578600  0.321200  1.0  0.0719
  H  H60  1  0.099000  0.526900  0.411000  1.0  0.0838
  H  H61  1  0.960400  0.583700  0.432900  1.0  0.0885
  H  H62  1  0.994500  0.686200  0.422600  1.0  0.0972
  H  H63  1  0.474400  0.360800  0.616000  1.0  0.2113
  H  H64  1  0.567800  0.344700  0.696900  1.0  0.3762
  H  H65  1  0.694900  0.901200  0.607300  1.0  0.095
  H  H66  1  0.730300  0.869600  0.515300  1.0  0.0835
  H  H67  1  0.862900  0.952100  0.574300  1.0  0.0914
  H  H68  1  0.817800  0.991500  0.656600  1.0  0.0725
  H  H69  1  0.826800  0.015200  0.412700  1.0  0.0823
  H  H70  1  0.733700  0.970600  0.409900  1.0  0.0712
  H  H71  1  0.772400  0.150200  0.350400  1.0  0.0807
  H  H72  1  0.707700  0.076800  0.294500  1.0  0.0733
  H  H73  1  0.567000  0.250200  0.331300  1.0  0.088
  H  H74  1  0.627500  0.216800  0.260000  1.0  0.0775
  H  H75  1  0.746300  0.300100  0.358300  1.0  0.0685
  H  H76  1  0.673400  0.366400  0.303800  1.0  0.0854
  H  H77  1  0.815000  0.187800  0.506900  1.0  0.0743
  H  H78  1  0.889500  0.123600  0.561200  1.0  0.0805
  H  H79  1  0.548000  0.078600  0.321200  1.0  0.0719
  H  H80  1  0.599000  0.026900  0.411000  1.0  0.0838
  H  H81  1  0.460400  0.083700  0.432900  1.0  0.0885
  H  H82  1  0.494500  0.186200  0.422600  1.0  0.0972
  H  H83  1  0.974400  0.860800  0.616000  1.0  0.2113
  H  H84  1  0.067800  0.844700  0.696900  1.0  0.3765
  H  H85  1  0.194900  0.598800  0.107300  1.0  0.0946
  H  H86  1  0.230300  0.630400  0.015300  1.0  0.0842
  H  H87  1  0.362900  0.547900  0.074300  1.0  0.0917
  H  H88  1  0.317800  0.508500  0.156600  1.0  0.0718
  H  H89  1  0.326800  0.484800  0.912700  1.0  0.0823
  H  H90  1  0.233700  0.529400  0.909900  1.0  0.0738
  H  H91  1  0.272400  0.349800  0.850400  1.0  0.0806
  H  H92  1  0.207700  0.423200  0.794500  1.0  0.0733
  H  H93  1  0.067000  0.249800  0.831300  1.0  0.0894
  H  H94  1  0.127500  0.283200  0.760000  1.0  0.0763
  H  H95  1  0.246300  0.199900  0.858300  1.0  0.0682
  H  H96  1  0.173400  0.133600  0.803800  1.0  0.0829
  H  H97  1  0.315000  0.312200  0.006900  1.0  0.0745
  H  H98  1  0.389500  0.376400  0.061200  1.0  0.0804
  H  H99  1  0.048000  0.421400  0.821200  1.0  0.0721
  H  H100  1  0.099000  0.473100  0.911000  1.0  0.0824
  H  H101  1  0.960400  0.416300  0.932900  1.0  0.089
  H  H102  1  0.994500  0.313800  0.922600  1.0  0.0966
  H  H103  1  0.474400  0.639200  0.116000  1.0  0.2111
  H  H104  1  0.567800  0.655300  0.196900  1.0  0.3766
  H  H105  1  0.694900  0.098800  0.107300  1.0  0.0946
  H  H106  1  0.730300  0.130400  0.015300  1.0  0.0842
  H  H107  1  0.862900  0.047900  0.074300  1.0  0.0917
  H  H108  1  0.817800  0.008500  0.156600  1.0  0.0718
  H  H109  1  0.826800  0.984800  0.912700  1.0  0.0823
  H  H110  1  0.733700  0.029400  0.909900  1.0  0.0738
  H  H111  1  0.772400  0.849800  0.850400  1.0  0.0806
  H  H112  1  0.707700  0.923200  0.794500  1.0  0.0733
  H  H113  1  0.567000  0.749800  0.831300  1.0  0.0894
  H  H114  1  0.627500  0.783200  0.760000  1.0  0.0763
  H  H115  1  0.746300  0.699900  0.858300  1.0  0.0682
  H  H116  1  0.673400  0.633600  0.803800  1.0  0.0829
  H  H117  1  0.815000  0.812200  0.006900  1.0  0.0745
  H  H118  1  0.889500  0.876400  0.061200  1.0  0.0804
  H  H119  1  0.548000  0.921400  0.821200  1.0  0.0721
  H  H120  1  0.599000  0.973100  0.911000  1.0  0.0824
  H  H121  1  0.460400  0.916300  0.932900  1.0  0.089
  H  H122  1  0.494500  0.813800  0.922600  1.0  0.0966
  H  H123  1  0.974400  0.139200  0.116000  1.0  0.2111
  H  H124  1  0.067800  0.155300  0.196900  1.0  0.3766
  H  H125  1  0.805100  0.598800  0.392700  1.0  0.0964
  H  H126  1  0.769700  0.630400  0.484700  1.0  0.0832
  H  H127  1  0.637100  0.547900  0.425700  1.0  0.091
  H  H128  1  0.682200  0.508500  0.343400  1.0  0.0711
  H  H129  1  0.673200  0.484800  0.587300  1.0  0.0821
  H  H130  1  0.766300  0.529400  0.590100  1.0  0.0723
  H  H131  1  0.727600  0.349800  0.649600  1.0  0.0812
  H  H132  1  0.792300  0.423200  0.705500  1.0  0.074
  H  H133  1  0.933000  0.249800  0.668700  1.0  0.0912
  H  H134  1  0.872500  0.283200  0.740000  1.0  0.0766
  H  H135  1  0.753700  0.199900  0.641700  1.0  0.0701
  H  H136  1  0.826600  0.133600  0.696200  1.0  0.0837
  H  H137  1  0.685000  0.312200  0.493100  1.0  0.0748
  H  H138  1  0.610500  0.376400  0.438800  1.0  0.0801
  H  H139  1  0.952000  0.421400  0.678800  1.0  0.0716
  H  H140  1  0.901000  0.473100  0.589000  1.0  0.0829
  H  H141  1  0.039600  0.416300  0.567100  1.0  0.0894
  H  H142  1  0.005500  0.313800  0.577400  1.0  0.0957
  H  H143  1  0.525600  0.639200  0.384000  1.0  0.2108
  H  H144  1  0.432200  0.655300  0.303100  1.0  0.3745
  H  H145  1  0.305100  0.098800  0.392700  1.0  0.0964
  H  H146  1  0.269700  0.130400  0.484700  1.0  0.0832
  H  H147  1  0.137100  0.047900  0.425700  1.0  0.091
  H  H148  1  0.182200  0.008500  0.343400  1.0  0.0711
  H  H149  1  0.173200  0.984800  0.587300  1.0  0.0821
  H  H150  1  0.266300  0.029400  0.590100  1.0  0.0723
  H  H151  1  0.227600  0.849800  0.649600  1.0  0.0812
  H  H152  1  0.292300  0.923200  0.705500  1.0  0.074
  H  H153  1  0.433000  0.749800  0.668700  1.0  0.0912
  H  H154  1  0.372500  0.783200  0.740000  1.0  0.0766
  H  H155  1  0.253700  0.699900  0.641700  1.0  0.0701
  H  H156  1  0.326600  0.633600  0.696200  1.0  0.0837
  H  H157  1  0.185000  0.812200  0.493100  1.0  0.0748
  H  H158  1  0.110500  0.876400  0.438800  1.0  0.0801
  H  H159  1  0.452000  0.921400  0.678800  1.0  0.0716
  H  H160  1  0.401000  0.973100  0.589000  1.0  0.0829
  H  H161  1  0.539600  0.916300  0.567100  1.0  0.0894
  H  H162  1  0.505500  0.813800  0.577400  1.0  0.0957
  H  H163  1  0.025600  0.139200  0.384000  1.0  0.2108
  H  H164  1  0.932200  0.155300  0.303100  1.0  0.3745
  C  C165  1  0.707800  0.301500  0.864800  1.0  0.7285
  C  C166  1  0.752400  0.385600  0.918000  1.0  -0.3015
  C  C167  1  0.693000  0.470900  0.909300  1.0  -0.0461
  C  C168  1  0.732300  0.527800  0.076400  1.0  -0.0345
  C  C169  1  0.772600  0.604300  0.143200  1.0  -0.0385
  C  C170  1  0.873300  0.733400  0.174100  1.0  -0.0407
  C  C171  1  0.814600  0.819200  0.146600  1.0  -0.1301
  C  C172  1  0.671800  0.640600  0.943600  1.0  -0.0243
  C  C173  1  0.922400  0.587600  0.113700  1.0  -0.0381
  C  C174  1  0.987800  0.623200  0.055800  1.0  -0.3292
  C  C175  1  0.953000  0.625500  0.948900  1.0  0.7479
  C  C176  1  0.207800  0.801500  0.864800  1.0  0.7285
  C  C177  1  0.252400  0.885600  0.918000  1.0  -0.3015
  C  C178  1  0.193000  0.970900  0.909300  1.0  -0.0461
  C  C179  1  0.232300  0.027800  0.076400  1.0  -0.0345
  C  C180  1  0.272600  0.104300  0.143200  1.0  -0.0385
  C  C181  1  0.373300  0.233400  0.174100  1.0  -0.0407
  C  C182  1  0.314600  0.319200  0.146600  1.0  -0.1301
  C  C183  1  0.171800  0.140600  0.943600  1.0  -0.0243
  C  C184  1  0.422400  0.087600  0.113700  1.0  -0.0381
  C  C185  1  0.487800  0.123200  0.055800  1.0  -0.3292
  C  C186  1  0.453000  0.125500  0.948900  1.0  0.7479
  C  C187  1  0.292200  0.301500  0.635200  1.0  0.7289
  C  C188  1  0.247600  0.385600  0.582000  1.0  -0.3021
  C  C189  1  0.307000  0.470900  0.590700  1.0  -0.0449
  C  C190  1  0.267700  0.527800  0.423600  1.0  -0.036
  C  C191  1  0.227400  0.604300  0.356800  1.0  -0.037
  C  C192  1  0.126700  0.733400  0.325900  1.0  -0.0388
  C  C193  1  0.185400  0.819200  0.353400  1.0  -0.1275
  C  C194  1  0.328200  0.640600  0.556400  1.0  -0.0222
  C  C195  1  0.077600  0.587600  0.386300  1.0  -0.0371
  C  C196  1  0.012200  0.623200  0.444200  1.0  -0.3338
  C  C197  1  0.047000  0.625500  0.551100  1.0  0.7477
  C  C198  1  0.792200  0.801500  0.635200  1.0  0.7289
  C  C199  1  0.747600  0.885600  0.582000  1.0  -0.3021
  C  C200  1  0.807000  0.970900  0.590700  1.0  -0.0449
  C  C201  1  0.767700  0.027800  0.423600  1.0  -0.036
  C  C202  1  0.727400  0.104300  0.356800  1.0  -0.037
  C  C203  1  0.626700  0.233400  0.325900  1.0  -0.0388
  C  C204  1  0.685400  0.319200  0.353400  1.0  -0.1275
  C  C205  1  0.828200  0.140600  0.556400  1.0  -0.0222
  C  C206  1  0.577600  0.087600  0.386300  1.0  -0.0371
  C  C207  1  0.512200  0.123200  0.444200  1.0  -0.3338
  C  C208  1  0.547000  0.125500  0.551100  1.0  0.7477
  C  C209  1  0.292200  0.698500  0.135200  1.0  0.7294
  C  C210  1  0.247600  0.614400  0.082000  1.0  -0.3032
  C  C211  1  0.307000  0.529100  0.090700  1.0  -0.0453
  C  C212  1  0.267700  0.472200  0.923600  1.0  -0.0359
  C  C213  1  0.227400  0.395700  0.856800  1.0  -0.037
  C  C214  1  0.126700  0.266600  0.825900  1.0  -0.0395
  C  C215  1  0.185400  0.180800  0.853400  1.0  -0.1291
  C  C216  1  0.328200  0.359400  0.056400  1.0  -0.0224
  C  C217  1  0.077600  0.412400  0.886300  1.0  -0.0377
  C  C218  1  0.012200  0.376800  0.944200  1.0  -0.3329
  C  C219  1  0.047000  0.374500  0.051100  1.0  0.7483
  C  C220  1  0.792200  0.198500  0.135200  1.0  0.7294
  C  C221  1  0.747600  0.114400  0.082000  1.0  -0.3032
  C  C222  1  0.807000  0.029100  0.090700  1.0  -0.0453
  C  C223  1  0.767700  0.972200  0.923600  1.0  -0.0359
  C  C224  1  0.727400  0.895700  0.856800  1.0  -0.037
  C  C225  1  0.626700  0.766600  0.825900  1.0  -0.0395
  C  C226  1  0.685400  0.680800  0.853400  1.0  -0.1291
  C  C227  1  0.828200  0.859400  0.056400  1.0  -0.0224
  C  C228  1  0.577600  0.912400  0.886300  1.0  -0.0377
  C  C229  1  0.512200  0.876800  0.944200  1.0  -0.3329
  C  C230  1  0.547000  0.874500  0.051100  1.0  0.7483
  C  C231  1  0.707800  0.698500  0.364800  1.0  0.73
  C  C232  1  0.752400  0.614400  0.418000  1.0  -0.3013
  C  C233  1  0.693000  0.529100  0.409300  1.0  -0.0464
  C  C234  1  0.732300  0.472200  0.576400  1.0  -0.0354
  C  C235  1  0.772600  0.395700  0.643200  1.0  -0.0383
  C  C236  1  0.873300  0.266600  0.674100  1.0  -0.0408
  C  C237  1  0.814600  0.180800  0.646600  1.0  -0.1294
  C  C238  1  0.671800  0.359400  0.443600  1.0  -0.0246
  C  C239  1  0.922400  0.412400  0.613700  1.0  -0.0386
  C  C240  1  0.987800  0.376800  0.555800  1.0  -0.3288
  C  C241  1  0.953000  0.374500  0.448900  1.0  0.748
  C  C242  1  0.207800  0.198500  0.364800  1.0  0.73
  C  C243  1  0.252400  0.114400  0.418000  1.0  -0.3013
  C  C244  1  0.193000  0.029100  0.409300  1.0  -0.0464
  C  C245  1  0.232300  0.972200  0.576400  1.0  -0.0354
  C  C246  1  0.272600  0.895700  0.643200  1.0  -0.0383
  C  C247  1  0.373300  0.766600  0.674100  1.0  -0.0408
  C  C248  1  0.314600  0.680800  0.646600  1.0  -0.1294
  C  C249  1  0.171800  0.859400  0.443600  1.0  -0.0246
  C  C250  1  0.422400  0.912400  0.613700  1.0  -0.0386
  C  C251  1  0.487800  0.876800  0.555800  1.0  -0.3288
  C  C252  1  0.453000  0.874500  0.448900  1.0  0.748
  N  N253  1  0.729030  0.553500  0.972700  1.0  -0.2192
  N  N254  1  0.846810  0.651520  0.113350  1.0  -0.2779
  N  N255  1  0.229030  0.053500  0.972700  1.0  -0.2192
  N  N256  1  0.346810  0.151520  0.113350  1.0  -0.2779
  N  N257  1  0.270970  0.553500  0.527300  1.0  -0.219
  N  N258  1  0.153190  0.651520  0.386650  1.0  -0.2788
  N  N259  1  0.770970  0.053500  0.527300  1.0  -0.219
  N  N260  1  0.653190  0.151520  0.386650  1.0  -0.2788
  N  N261  1  0.270970  0.446500  0.027300  1.0  -0.2197
  N  N262  1  0.153190  0.348480  0.886650  1.0  -0.2789
  N  N263  1  0.770970  0.946500  0.027300  1.0  -0.2197
  N  N264  1  0.653190  0.848480  0.886650  1.0  -0.2789
  N  N265  1  0.729030  0.446500  0.472700  1.0  -0.2197
  N  N266  1  0.846810  0.348480  0.613350  1.0  -0.2782
  N  N267  1  0.229030  0.946500  0.472700  1.0  -0.2197
  N  N268  1  0.346810  0.848480  0.613350  1.0  -0.2782
  O  O269  1  0.629460  0.311810  0.823490  1.0  -0.6299
  O  O270  1  0.750790  0.228240  0.864310  1.0  -0.5846
  O  O271  1  0.998360  0.671300  0.902140  1.0  -0.6675
  O  O272  1  0.886220  0.583000  0.913350  1.0  -0.5425
  O  O273  1  0.459400  0.359100  0.858200  1.0  -0.6724
  O  O274  1  0.129460  0.811810  0.823490  1.0  -0.6299
  O  O275  1  0.250790  0.728240  0.864310  1.0  -0.5846
  O  O276  1  0.498360  0.171300  0.902140  1.0  -0.6675
  O  O277  1  0.386220  0.083000  0.913350  1.0  -0.5425
  O  O278  1  0.959400  0.859100  0.858200  1.0  -0.6724
  O  O279  1  0.370540  0.311810  0.676510  1.0  -0.63
  O  O280  1  0.249210  0.228240  0.635690  1.0  -0.5844
  O  O281  1  0.001640  0.671300  0.597860  1.0  -0.6678
  O  O282  1  0.113780  0.583000  0.586650  1.0  -0.5439
  O  O283  1  0.540600  0.359100  0.641800  1.0  -0.6741
  O  O284  1  0.870540  0.811810  0.676510  1.0  -0.63
  O  O285  1  0.749210  0.728240  0.635690  1.0  -0.5844
  O  O286  1  0.501640  0.171300  0.597860  1.0  -0.6678
  O  O287  1  0.613780  0.083000  0.586650  1.0  -0.5439
  O  O288  1  0.040600  0.859100  0.641800  1.0  -0.674
  O  O289  1  0.370540  0.688190  0.176510  1.0  -0.6316
  O  O290  1  0.249210  0.771760  0.135690  1.0  -0.5844
  O  O291  1  0.001640  0.328700  0.097860  1.0  -0.6673
  O  O292  1  0.113780  0.417000  0.086650  1.0  -0.5441
  O  O293  1  0.540600  0.640900  0.141800  1.0  -0.6741
  O  O294  1  0.870540  0.188190  0.176510  1.0  -0.6316
  O  O295  1  0.749210  0.271760  0.135690  1.0  -0.5844
  O  O296  1  0.501640  0.828700  0.097860  1.0  -0.6673
  O  O297  1  0.613780  0.917000  0.086650  1.0  -0.5441
  O  O298  1  0.040600  0.140900  0.141800  1.0  -0.6741
  O  O299  1  0.629460  0.688190  0.323490  1.0  -0.6306
  O  O300  1  0.750790  0.771760  0.364310  1.0  -0.5844
  O  O301  1  0.998360  0.328700  0.402140  1.0  -0.6681
  O  O302  1  0.886220  0.417000  0.413350  1.0  -0.5423
  O  O303  1  0.459400  0.640900  0.358200  1.0  -0.6721
  O  O304  1  0.129460  0.188190  0.323490  1.0  -0.6306
  O  O305  1  0.250790  0.271760  0.364310  1.0  -0.5844
  O  O306  1  0.498360  0.828700  0.402140  1.0  -0.6681
  O  O307  1  0.386220  0.917000  0.413350  1.0  -0.5423
  O  O308  1  0.959400  0.140900  0.358200  1.0  -0.6722
