# generated using pymatgen
data_CdH8C12(NO2)2
_symmetry_space_group_name_H-M   'P 1'
_cell_length_a   12.24630000
_cell_length_b   15.45770000
_cell_length_c   18.84540000
_cell_angle_alpha   90.00000000
_cell_angle_beta   90.00000000
_cell_angle_gamma   90.00000000
_symmetry_Int_Tables_number   1
_chemical_formula_structural   CdH8C12(NO2)2
_chemical_formula_sum   'Cd8 H64 C96 N16 O32'
_cell_volume   3567.42727566
_cell_formula_units_Z   8
loop_
 _symmetry_equiv_pos_site_id
 _symmetry_equiv_pos_as_xyz
  1  'x, y, z'
loop_
 _atom_site_type_symbol
 _atom_site_label
 _atom_site_symmetry_multiplicity
 _atom_site_fract_x
 _atom_site_fract_y
 _atom_site_fract_z
 _atom_site_occupancy
 _atom_site_charge
  Cd  Cd1  1  0.192500  0.215350  0.316040  1.0  0.9436
  Cd  Cd2  1  0.307500  0.784650  0.816040  1.0  0.9444
  Cd  Cd3  1  0.807500  0.715350  0.183960  1.0  0.9438
  Cd  Cd4  1  0.692500  0.284650  0.683960  1.0  0.9436
  Cd  Cd5  1  0.807500  0.784650  0.683960  1.0  0.9443
  Cd  Cd6  1  0.692500  0.215350  0.183960  1.0  0.9442
  Cd  Cd7  1  0.192500  0.284650  0.816040  1.0  0.9436
  Cd  Cd8  1  0.307500  0.715350  0.316040  1.0  0.9433
  H  H9  1  0.389200  0.374900  0.496300  1.0  0.1293
  H  H10  1  0.506500  0.386900  0.592500  1.0  0.0853
  H  H11  1  0.657500  0.172500  0.539000  1.0  0.0919
  H  H12  1  0.541300  0.153100  0.442900  1.0  0.1298
  H  H13  1  0.196000  0.423500  0.342700  1.0  0.093
  H  H14  1  0.104300  0.551300  0.316500  1.0  0.1313
  H  H15  1  0.919600  0.416000  0.175900  1.0  0.1352
  H  H16  1  0.017600  0.292400  0.206300  1.0  0.0844
  H  H17  1  0.110800  0.625100  0.996300  1.0  0.1289
  H  H18  1  0.993500  0.613100  0.092500  1.0  0.0854
  H  H19  1  0.842500  0.827500  0.039000  1.0  0.0921
  H  H20  1  0.958700  0.846900  0.942900  1.0  0.1306
  H  H21  1  0.304000  0.576500  0.842700  1.0  0.0936
  H  H22  1  0.395700  0.448700  0.816500  1.0  0.1317
  H  H23  1  0.580400  0.584000  0.675900  1.0  0.1347
  H  H24  1  0.482400  0.707600  0.706300  1.0  0.0848
  H  H25  1  0.610800  0.874900  0.003700  1.0  0.1289
  H  H26  1  0.493500  0.886900  0.907500  1.0  0.0852
  H  H27  1  0.342500  0.672500  0.961000  1.0  0.092
  H  H28  1  0.458700  0.653100  0.057100  1.0  0.1304
  H  H29  1  0.804000  0.923500  0.157300  1.0  0.0933
  H  H30  1  0.895700  0.051300  0.183500  1.0  0.1319
  H  H31  1  0.080400  0.916000  0.324100  1.0  0.135
  H  H32  1  0.982400  0.792400  0.293700  1.0  0.0847
  H  H33  1  0.889200  0.125100  0.503700  1.0  0.1283
  H  H34  1  0.006500  0.113100  0.407500  1.0  0.0851
  H  H35  1  0.157500  0.327500  0.461000  1.0  0.0916
  H  H36  1  0.041300  0.346900  0.557100  1.0  0.1299
  H  H37  1  0.696000  0.076500  0.657300  1.0  0.093
  H  H38  1  0.604300  0.948700  0.683500  1.0  0.132
  H  H39  1  0.419600  0.084000  0.824100  1.0  0.1351
  H  H40  1  0.517600  0.207600  0.793700  1.0  0.0848
  H  H41  1  0.610800  0.625100  0.503700  1.0  0.1286
  H  H42  1  0.493500  0.613100  0.407500  1.0  0.0852
  H  H43  1  0.342500  0.827500  0.461000  1.0  0.092
  H  H44  1  0.458700  0.846900  0.557100  1.0  0.1303
  H  H45  1  0.804000  0.576500  0.657300  1.0  0.0927
  H  H46  1  0.895700  0.448700  0.683500  1.0  0.1318
  H  H47  1  0.080400  0.584000  0.824100  1.0  0.1341
  H  H48  1  0.982400  0.707600  0.793700  1.0  0.0853
  H  H49  1  0.889200  0.374900  0.003700  1.0  0.1294
  H  H50  1  0.006500  0.386900  0.907500  1.0  0.0853
  H  H51  1  0.157500  0.172500  0.961000  1.0  0.0919
  H  H52  1  0.041300  0.153100  0.057100  1.0  0.1301
  H  H53  1  0.696000  0.423500  0.157300  1.0  0.0922
  H  H54  1  0.604300  0.551300  0.183500  1.0  0.1317
  H  H55  1  0.419600  0.416000  0.324100  1.0  0.1342
  H  H56  1  0.517600  0.292400  0.293700  1.0  0.085
  H  H57  1  0.389200  0.125100  0.996300  1.0  0.1286
  H  H58  1  0.506500  0.113100  0.092500  1.0  0.0853
  H  H59  1  0.657500  0.327500  0.039000  1.0  0.0917
  H  H60  1  0.541300  0.346900  0.942900  1.0  0.1302
  H  H61  1  0.196000  0.076500  0.842700  1.0  0.0928
  H  H62  1  0.104300  0.948700  0.816500  1.0  0.1318
  H  H63  1  0.919600  0.084000  0.675900  1.0  0.1337
  H  H64  1  0.017600  0.207600  0.706300  1.0  0.0853
  H  H65  1  0.110800  0.874900  0.496300  1.0  0.1289
  H  H66  1  0.993500  0.886900  0.592500  1.0  0.0854
  H  H67  1  0.842500  0.672500  0.539000  1.0  0.092
  H  H68  1  0.958700  0.653100  0.442900  1.0  0.1301
  H  H69  1  0.304000  0.923500  0.342700  1.0  0.0928
  H  H70  1  0.395700  0.051300  0.316500  1.0  0.1313
  H  H71  1  0.580400  0.916000  0.175900  1.0  0.1339
  H  H72  1  0.482400  0.792400  0.206300  1.0  0.0849
  C  C73  1  0.364900  0.245900  0.404540  1.0  0.6493
  C  C74  1  0.449000  0.259800  0.461860  1.0  -0.0752
  C  C75  1  0.442000  0.331200  0.505200  1.0  -0.1506
  C  C76  1  0.513100  0.338200  0.562000  1.0  0.1585
  C  C77  1  0.600700  0.213300  0.531200  1.0  0.1802
  C  C78  1  0.531700  0.201200  0.473700  1.0  -0.1505
  C  C79  1  0.138700  0.422200  0.308710  1.0  0.1651
  C  C80  1  0.084500  0.498900  0.293530  1.0  -0.133
  C  C81  1  0.000300  0.497100  0.243960  1.0  -0.0786
  C  C82  1  0.975700  0.419000  0.210640  1.0  -0.1405
  C  C83  1  0.034700  0.345500  0.229200  1.0  0.1754
  C  C84  1  0.935900  0.577500  0.225780  1.0  0.6621
  C  C85  1  0.135100  0.754100  0.904540  1.0  0.6507
  C  C86  1  0.051000  0.740200  0.961860  1.0  -0.0752
  C  C87  1  0.058000  0.668800  0.005200  1.0  -0.1513
  C  C88  1  0.986900  0.661800  0.062000  1.0  0.1596
  C  C89  1  0.899300  0.786700  0.031200  1.0  0.1808
  C  C90  1  0.968300  0.798800  0.973700  1.0  -0.1507
  C  C91  1  0.361300  0.577800  0.808710  1.0  0.1653
  C  C92  1  0.415500  0.501100  0.793530  1.0  -0.1341
  C  C93  1  0.499700  0.502900  0.743960  1.0  -0.0775
  C  C94  1  0.524300  0.581000  0.710640  1.0  -0.1412
  C  C95  1  0.465300  0.654500  0.729200  1.0  0.1756
  C  C96  1  0.564100  0.422500  0.725780  1.0  0.6621
  C  C97  1  0.635100  0.745900  0.095460  1.0  0.6498
  C  C98  1  0.551000  0.759800  0.038140  1.0  -0.0748
  C  C99  1  0.558000  0.831200  0.994800  1.0  -0.1504
  C  C100  1  0.486900  0.838200  0.938000  1.0  0.1587
  C  C101  1  0.399300  0.713300  0.968800  1.0  0.1802
  C  C102  1  0.468300  0.701200  0.026300  1.0  -0.1503
  C  C103  1  0.861300  0.922200  0.191290  1.0  0.1649
  C  C104  1  0.915500  0.998900  0.206470  1.0  -0.1329
  C  C105  1  0.999700  0.997100  0.256040  1.0  -0.0783
  C  C106  1  0.024300  0.919000  0.289360  1.0  -0.1411
  C  C107  1  0.965300  0.845500  0.270800  1.0  0.1758
  C  C108  1  0.064100  0.077500  0.274220  1.0  0.6621
  C  C109  1  0.864900  0.254100  0.595460  1.0  0.6497
  C  C110  1  0.949000  0.240200  0.538140  1.0  -0.0754
  C  C111  1  0.942000  0.168800  0.494800  1.0  -0.1507
  C  C112  1  0.013100  0.161800  0.438000  1.0  0.1584
  C  C113  1  0.100700  0.286700  0.468800  1.0  0.1807
  C  C114  1  0.031700  0.298800  0.526300  1.0  -0.1504
  C  C115  1  0.638700  0.077800  0.691290  1.0  0.1646
  C  C116  1  0.584500  0.001100  0.706470  1.0  -0.133
  C  C117  1  0.500300  0.002900  0.756040  1.0  -0.0793
  C  C118  1  0.475700  0.081000  0.789360  1.0  -0.1403
  C  C119  1  0.534700  0.154500  0.770800  1.0  0.1743
  C  C120  1  0.435900  0.922500  0.774220  1.0  0.6626
  C  C121  1  0.635100  0.754100  0.595460  1.0  0.6505
  C  C122  1  0.551000  0.740200  0.538140  1.0  -0.0752
  C  C123  1  0.558000  0.668800  0.494800  1.0  -0.1509
  C  C124  1  0.486900  0.661800  0.438000  1.0  0.1583
  C  C125  1  0.399300  0.786700  0.468800  1.0  0.1808
  C  C126  1  0.468300  0.798800  0.526300  1.0  -0.1509
  C  C127  1  0.861300  0.577800  0.691290  1.0  0.1648
  C  C128  1  0.915500  0.501100  0.706470  1.0  -0.1333
  C  C129  1  0.999700  0.502900  0.756040  1.0  -0.0776
  C  C130  1  0.024300  0.581000  0.789360  1.0  -0.1412
  C  C131  1  0.965300  0.654500  0.770800  1.0  0.1752
  C  C132  1  0.064100  0.422500  0.774220  1.0  0.6621
  C  C133  1  0.864900  0.245900  0.095460  1.0  0.6494
  C  C134  1  0.949000  0.259800  0.038140  1.0  -0.0753
  C  C135  1  0.942000  0.331200  0.994800  1.0  -0.1507
  C  C136  1  0.013100  0.338200  0.938000  1.0  0.1584
  C  C137  1  0.100700  0.213300  0.968800  1.0  0.18
  C  C138  1  0.031700  0.201200  0.026300  1.0  -0.1503
  C  C139  1  0.638700  0.422200  0.191290  1.0  0.1648
  C  C140  1  0.584500  0.498900  0.206470  1.0  -0.1329
  C  C141  1  0.500300  0.497100  0.256040  1.0  -0.0786
  C  C142  1  0.475700  0.419000  0.289360  1.0  -0.1403
  C  C143  1  0.534700  0.345500  0.270800  1.0  0.1752
  C  C144  1  0.435900  0.577500  0.274220  1.0  0.6623
  C  C145  1  0.364900  0.254100  0.904540  1.0  0.6499
  C  C146  1  0.449000  0.240200  0.961860  1.0  -0.0753
  C  C147  1  0.442000  0.168800  0.005200  1.0  -0.151
  C  C148  1  0.513100  0.161800  0.062000  1.0  0.1594
  C  C149  1  0.600700  0.286700  0.031200  1.0  0.1809
  C  C150  1  0.531700  0.298800  0.973700  1.0  -0.1504
  C  C151  1  0.138700  0.077800  0.808710  1.0  0.165
  C  C152  1  0.084500  0.001100  0.793530  1.0  -0.1336
  C  C153  1  0.000300  0.002900  0.743960  1.0  -0.0791
  C  C154  1  0.975700  0.081000  0.710640  1.0  -0.1404
  C  C155  1  0.034700  0.154500  0.729200  1.0  0.1749
  C  C156  1  0.935900  0.922500  0.725780  1.0  0.6622
  C  C157  1  0.135100  0.745900  0.404540  1.0  0.6497
  C  C158  1  0.051000  0.759800  0.461860  1.0  -0.0748
  C  C159  1  0.058000  0.831200  0.505200  1.0  -0.1506
  C  C160  1  0.986900  0.838200  0.562000  1.0  0.1589
  C  C161  1  0.899300  0.713300  0.531200  1.0  0.1803
  C  C162  1  0.968300  0.701200  0.473700  1.0  -0.1503
  C  C163  1  0.361300  0.922200  0.308710  1.0  0.1652
  C  C164  1  0.415500  0.998900  0.293530  1.0  -0.1332
  C  C165  1  0.499700  0.997100  0.243960  1.0  -0.0784
  C  C166  1  0.524300  0.919000  0.210640  1.0  -0.1412
  C  C167  1  0.465300  0.845500  0.229200  1.0  0.1758
  C  C168  1  0.564100  0.077500  0.225780  1.0  0.6622
  N  N169  1  0.590900  0.279660  0.576170  1.0  -0.3421
  N  N170  1  0.114400  0.346070  0.277720  1.0  -0.3545
  N  N171  1  0.909100  0.720340  0.076170  1.0  -0.3414
  N  N172  1  0.385600  0.653930  0.777720  1.0  -0.3559
  N  N173  1  0.409100  0.779660  0.923830  1.0  -0.34
  N  N174  1  0.885600  0.846070  0.222280  1.0  -0.3549
  N  N175  1  0.090900  0.220340  0.423830  1.0  -0.3426
  N  N176  1  0.614400  0.153930  0.722280  1.0  -0.356
  N  N177  1  0.409100  0.720340  0.423830  1.0  -0.3408
  N  N178  1  0.885600  0.653930  0.722280  1.0  -0.3554
  N  N179  1  0.090900  0.279660  0.923830  1.0  -0.3419
  N  N180  1  0.614400  0.346070  0.222280  1.0  -0.354
  N  N181  1  0.590900  0.220340  0.076170  1.0  -0.3422
  N  N182  1  0.114400  0.153930  0.777720  1.0  -0.3565
  N  N183  1  0.909100  0.779660  0.576170  1.0  -0.3413
  N  N184  1  0.385600  0.846070  0.277720  1.0  -0.3552
  O  O185  1  0.348300  0.169680  0.383570  1.0  -0.6016
  O  O186  1  0.312600  0.310110  0.382370  1.0  -0.5737
  O  O187  1  0.974570  0.650220  0.241900  1.0  -0.6286
  O  O188  1  0.847060  0.568080  0.193930  1.0  -0.5836
  O  O189  1  0.151700  0.830320  0.883570  1.0  -0.6035
  O  O190  1  0.187400  0.689890  0.882370  1.0  -0.5732
  O  O191  1  0.525430  0.349780  0.741900  1.0  -0.6297
  O  O192  1  0.652940  0.431920  0.693930  1.0  -0.5831
  O  O193  1  0.651700  0.669680  0.116430  1.0  -0.6032
  O  O194  1  0.687400  0.810110  0.117630  1.0  -0.5746
  O  O195  1  0.025430  0.150220  0.258100  1.0  -0.6297
  O  O196  1  0.152940  0.068080  0.306070  1.0  -0.5833
  O  O197  1  0.848300  0.330320  0.616430  1.0  -0.6042
  O  O198  1  0.812600  0.189890  0.617630  1.0  -0.5732
  O  O199  1  0.474570  0.849780  0.758100  1.0  -0.6282
  O  O200  1  0.347060  0.931920  0.806070  1.0  -0.5835
  O  O201  1  0.651700  0.830320  0.616430  1.0  -0.6048
  O  O202  1  0.687400  0.689890  0.617630  1.0  -0.5748
  O  O203  1  0.025430  0.349780  0.758100  1.0  -0.6298
  O  O204  1  0.152940  0.431920  0.806070  1.0  -0.5832
  O  O205  1  0.848300  0.169680  0.116430  1.0  -0.6028
  O  O206  1  0.812600  0.310110  0.117630  1.0  -0.5756
  O  O207  1  0.474570  0.650220  0.258100  1.0  -0.6282
  O  O208  1  0.347060  0.568080  0.306070  1.0  -0.5836
  O  O209  1  0.348300  0.330320  0.883570  1.0  -0.6031
  O  O210  1  0.312600  0.189890  0.882370  1.0  -0.5743
  O  O211  1  0.974570  0.849780  0.741900  1.0  -0.6284
  O  O212  1  0.847060  0.931920  0.693930  1.0  -0.5835
  O  O213  1  0.151700  0.669680  0.383570  1.0  -0.6021
  O  O214  1  0.187400  0.810110  0.382370  1.0  -0.5755
  O  O215  1  0.525430  0.150220  0.241900  1.0  -0.6299
  O  O216  1  0.652940  0.068080  0.193930  1.0  -0.5832
