# generated using pymatgen
data_CdH8C12(NO2)2
_symmetry_space_group_name_H-M   'P 1'
_cell_length_a   12.33970000
_cell_length_b   15.50500000
_cell_length_c   18.94370000
_cell_angle_alpha   90.00000000
_cell_angle_beta   90.00000000
_cell_angle_gamma   90.00000000
_symmetry_Int_Tables_number   1
_chemical_formula_structural   CdH8C12(NO2)2
_chemical_formula_sum   'Cd8 H64 C96 N16 O32'
_cell_volume   3624.44220867
_cell_formula_units_Z   8
loop_
 _symmetry_equiv_pos_site_id
 _symmetry_equiv_pos_as_xyz
  1  'x, y, z'
loop_
 _atom_site_type_symbol
 _atom_site_label
 _atom_site_symmetry_multiplicity
 _atom_site_fract_x
 _atom_site_fract_y
 _atom_site_fract_z
 _atom_site_occupancy
 _atom_site_charge
  Cd  Cd1  1  0.688660  0.784000  0.317820  1.0  0.9293
  Cd  Cd2  1  0.311340  0.284000  0.182180  1.0  0.9297
  Cd  Cd3  1  0.811340  0.216000  0.817820  1.0  0.9295
  Cd  Cd4  1  0.188660  0.716000  0.682180  1.0  0.93
  Cd  Cd5  1  0.311340  0.216000  0.682180  1.0  0.9298
  Cd  Cd6  1  0.688660  0.716000  0.817820  1.0  0.9294
  Cd  Cd7  1  0.188660  0.784000  0.182180  1.0  0.9297
  Cd  Cd8  1  0.811340  0.284000  0.317820  1.0  0.9298
  H  H9  1  0.307000  0.076800  0.158100  1.0  0.088
  H  H10  1  0.395700  0.950100  0.184400  1.0  0.133
  H  H11  1  0.580700  0.082800  0.320400  1.0  0.122
  H  H12  1  0.487900  0.205500  0.289400  1.0  0.0769
  H  H13  1  0.345100  0.177100  0.034300  1.0  0.0781
  H  H14  1  0.459700  0.158000  0.940300  1.0  0.1319
  H  H15  1  0.615900  0.370800  0.999600  1.0  0.1273
  H  H16  1  0.500600  0.381600  0.093700  1.0  0.0749
  H  H17  1  0.693000  0.576800  0.341900  1.0  0.0886
  H  H18  1  0.604300  0.450100  0.315600  1.0  0.1326
  H  H19  1  0.419300  0.582800  0.179600  1.0  0.1218
  H  H20  1  0.512100  0.705500  0.210600  1.0  0.0767
  H  H21  1  0.654900  0.677100  0.465700  1.0  0.0784
  H  H22  1  0.540300  0.658000  0.559700  1.0  0.132
  H  H23  1  0.384100  0.870800  0.500400  1.0  0.1278
  H  H24  1  0.499400  0.881600  0.406300  1.0  0.075
  H  H25  1  0.154900  0.822900  0.534300  1.0  0.078
  H  H26  1  0.040300  0.842000  0.440300  1.0  0.132
  H  H27  1  0.884100  0.629200  0.499600  1.0  0.1273
  H  H28  1  0.999400  0.618400  0.593700  1.0  0.0745
  H  H29  1  0.193000  0.923200  0.658100  1.0  0.0879
  H  H30  1  0.104300  0.049900  0.684400  1.0  0.1328
  H  H31  1  0.919300  0.917200  0.820400  1.0  0.1219
  H  H32  1  0.012100  0.794500  0.789400  1.0  0.0766
  H  H33  1  0.845100  0.322900  0.965700  1.0  0.0783
  H  H34  1  0.959700  0.342000  0.059700  1.0  0.1321
  H  H35  1  0.115900  0.129200  0.000400  1.0  0.1271
  H  H36  1  0.000600  0.118400  0.906300  1.0  0.0742
  H  H37  1  0.807000  0.423200  0.841900  1.0  0.0886
  H  H38  1  0.895700  0.549900  0.815600  1.0  0.1324
  H  H39  1  0.080700  0.417200  0.679600  1.0  0.1219
  H  H40  1  0.987900  0.294500  0.710600  1.0  0.0768
  H  H41  1  0.693000  0.923200  0.841900  1.0  0.0883
  H  H42  1  0.604300  0.049900  0.815600  1.0  0.1324
  H  H43  1  0.419300  0.917200  0.679600  1.0  0.122
  H  H44  1  0.512100  0.794500  0.710600  1.0  0.0769
  H  H45  1  0.654900  0.822900  0.965700  1.0  0.0779
  H  H46  1  0.540300  0.842000  0.059700  1.0  0.1319
  H  H47  1  0.384100  0.629200  0.000400  1.0  0.1272
  H  H48  1  0.499400  0.618400  0.906300  1.0  0.0742
  H  H49  1  0.307000  0.423200  0.658100  1.0  0.0881
  H  H50  1  0.395700  0.549900  0.684400  1.0  0.1329
  H  H51  1  0.580700  0.417200  0.820400  1.0  0.1218
  H  H52  1  0.487900  0.294500  0.789400  1.0  0.0773
  H  H53  1  0.345100  0.322900  0.534300  1.0  0.0782
  H  H54  1  0.459700  0.342000  0.440300  1.0  0.1322
  H  H55  1  0.615900  0.129200  0.499600  1.0  0.1275
  H  H56  1  0.500600  0.118400  0.593700  1.0  0.0745
  H  H57  1  0.845100  0.177100  0.465700  1.0  0.0783
  H  H58  1  0.959700  0.158000  0.559700  1.0  0.1323
  H  H59  1  0.115900  0.370800  0.500400  1.0  0.1274
  H  H60  1  0.000600  0.381600  0.406300  1.0  0.0748
  H  H61  1  0.807000  0.076800  0.341900  1.0  0.0882
  H  H62  1  0.895700  0.950100  0.315600  1.0  0.1323
  H  H63  1  0.080700  0.082800  0.179600  1.0  0.1217
  H  H64  1  0.987900  0.205500  0.210600  1.0  0.0772
  H  H65  1  0.154900  0.677100  0.034300  1.0  0.0781
  H  H66  1  0.040300  0.658000  0.940300  1.0  0.1317
  H  H67  1  0.884100  0.870800  0.999600  1.0  0.1277
  H  H68  1  0.999400  0.881600  0.093700  1.0  0.075
  H  H69  1  0.193000  0.576800  0.158100  1.0  0.0877
  H  H70  1  0.104300  0.450100  0.184400  1.0  0.1327
  H  H71  1  0.919300  0.582800  0.320400  1.0  0.1219
  H  H72  1  0.012100  0.705500  0.289400  1.0  0.077
  C  C73  1  0.363300  0.077980  0.190720  1.0  0.1666
  C  C74  1  0.416080  0.001290  0.206310  1.0  -0.1336
  C  C75  1  0.499490  0.002440  0.254910  1.0  -0.0156
  C  C76  1  0.525840  0.080160  0.286830  1.0  -0.1515
  C  C77  1  0.469360  0.153570  0.267920  1.0  0.1608
  C  C78  1  0.561330  0.921440  0.274170  1.0  0.6194
  C  C79  1  0.401850  0.215810  0.028090  1.0  0.1631
  C  C80  1  0.470170  0.203920  0.971100  1.0  -0.16
  C  C81  1  0.553860  0.261050  0.960640  1.0  0.0101
  C  C82  1  0.562650  0.329160  0.006400  1.0  -0.1681
  C  C83  1  0.492170  0.335670  0.062580  1.0  0.1694
  C  C84  1  0.637780  0.247140  0.903940  1.0  0.6134
  C  C85  1  0.636700  0.577980  0.309280  1.0  0.1669
  C  C86  1  0.583920  0.501290  0.293690  1.0  -0.1333
  C  C87  1  0.500510  0.502440  0.245090  1.0  -0.0196
  C  C88  1  0.474160  0.580160  0.213170  1.0  -0.1507
  C  C89  1  0.530640  0.653570  0.232080  1.0  0.1606
  C  C90  1  0.438670  0.421440  0.225830  1.0  0.6203
  C  C91  1  0.598150  0.715810  0.471910  1.0  0.1634
  C  C92  1  0.529830  0.703920  0.528900  1.0  -0.1604
  C  C93  1  0.446140  0.761050  0.539360  1.0  0.0098
  C  C94  1  0.437350  0.829160  0.493600  1.0  -0.1672
  C  C95  1  0.507830  0.835670  0.437420  1.0  0.17
  C  C96  1  0.362220  0.747140  0.596060  1.0  0.6131
  C  C97  1  0.098150  0.784190  0.528090  1.0  0.1627
  C  C98  1  0.029830  0.796080  0.471100  1.0  -0.1608
  C  C99  1  0.946140  0.738950  0.460640  1.0  0.0093
  C  C100  1  0.937350  0.670840  0.506400  1.0  -0.1671
  C  C101  1  0.007830  0.664330  0.562580  1.0  0.1704
  C  C102  1  0.862220  0.752860  0.403940  1.0  0.6133
  C  C103  1  0.136700  0.922020  0.690720  1.0  0.1662
  C  C104  1  0.083920  0.998710  0.706310  1.0  -0.1338
  C  C105  1  0.000510  0.997560  0.754910  1.0  -0.02
  C  C106  1  0.974160  0.919840  0.786830  1.0  -0.1508
  C  C107  1  0.030640  0.846430  0.767920  1.0  0.1609
  C  C108  1  0.938670  0.078560  0.774170  1.0  0.6206
  C  C109  1  0.901850  0.284190  0.971910  1.0  0.1634
  C  C110  1  0.970170  0.296080  0.028900  1.0  -0.162
  C  C111  1  0.053860  0.238950  0.039360  1.0  0.01
  C  C112  1  0.062650  0.170840  0.993600  1.0  -0.1668
  C  C113  1  0.992170  0.164330  0.937420  1.0  0.1695
  C  C114  1  0.137780  0.252860  0.096060  1.0  0.6139
  C  C115  1  0.863300  0.422020  0.809280  1.0  0.1667
  C  C116  1  0.916080  0.498710  0.793690  1.0  -0.1339
  C  C117  1  0.999490  0.497560  0.745090  1.0  -0.0175
  C  C118  1  0.025840  0.419840  0.713170  1.0  -0.1512
  C  C119  1  0.969360  0.346430  0.732080  1.0  0.161
  C  C120  1  0.061330  0.578560  0.725830  1.0  0.6192
  C  C121  1  0.636700  0.922020  0.809280  1.0  0.1666
  C  C122  1  0.583920  0.998710  0.793690  1.0  -0.1338
  C  C123  1  0.500510  0.997560  0.745090  1.0  -0.0202
  C  C124  1  0.474160  0.919840  0.713170  1.0  -0.1506
  C  C125  1  0.530640  0.846430  0.732080  1.0  0.1609
  C  C126  1  0.438670  0.078560  0.725830  1.0  0.6203
  C  C127  1  0.598150  0.784190  0.971910  1.0  0.163
  C  C128  1  0.529830  0.796080  0.028900  1.0  -0.1615
  C  C129  1  0.446140  0.738950  0.039360  1.0  0.0095
  C  C130  1  0.437350  0.670840  0.993600  1.0  -0.1663
  C  C131  1  0.507830  0.664330  0.937420  1.0  0.17
  C  C132  1  0.362220  0.752860  0.096060  1.0  0.6131
  C  C133  1  0.363300  0.422020  0.690720  1.0  0.1663
  C  C134  1  0.416080  0.498710  0.706310  1.0  -0.1337
  C  C135  1  0.499490  0.497560  0.754910  1.0  -0.0172
  C  C136  1  0.525840  0.419840  0.786830  1.0  -0.1514
  C  C137  1  0.469360  0.346430  0.767920  1.0  0.1612
  C  C138  1  0.561330  0.578560  0.774170  1.0  0.6196
  C  C139  1  0.401850  0.284190  0.528090  1.0  0.1629
  C  C140  1  0.470170  0.296080  0.471100  1.0  -0.161
  C  C141  1  0.553860  0.238950  0.460640  1.0  0.0097
  C  C142  1  0.562650  0.170840  0.506400  1.0  -0.1677
  C  C143  1  0.492170  0.164330  0.562580  1.0  0.1702
  C  C144  1  0.637780  0.252860  0.403940  1.0  0.6141
  C  C145  1  0.901850  0.215810  0.471910  1.0  0.1638
  C  C146  1  0.970170  0.203920  0.528900  1.0  -0.1603
  C  C147  1  0.053860  0.261050  0.539360  1.0  0.0105
  C  C148  1  0.062650  0.329160  0.493600  1.0  -0.167
  C  C149  1  0.992170  0.335670  0.437420  1.0  0.1697
  C  C150  1  0.137780  0.247140  0.596060  1.0  0.6137
  C  C151  1  0.863300  0.077980  0.309280  1.0  0.1669
  C  C152  1  0.916080  0.001290  0.293690  1.0  -0.1338
  C  C153  1  0.999490  0.002440  0.245090  1.0  -0.0155
  C  C154  1  0.025840  0.080160  0.213170  1.0  -0.1512
  C  C155  1  0.969360  0.153570  0.232080  1.0  0.161
  C  C156  1  0.061330  0.921440  0.225830  1.0  0.6192
  C  C157  1  0.098150  0.715810  0.028090  1.0  0.1628
  C  C158  1  0.029830  0.703920  0.971100  1.0  -0.1603
  C  C159  1  0.946140  0.761050  0.960640  1.0  0.0095
  C  C160  1  0.937350  0.829160  0.006400  1.0  -0.1681
  C  C161  1  0.007830  0.835670  0.062580  1.0  0.1694
  C  C162  1  0.862220  0.747140  0.903940  1.0  0.6128
  C  C163  1  0.136700  0.577980  0.190720  1.0  0.1667
  C  C164  1  0.083920  0.501290  0.206310  1.0  -0.1335
  C  C165  1  0.000510  0.502440  0.254910  1.0  -0.0197
  C  C166  1  0.974160  0.580160  0.286830  1.0  -0.1508
  C  C167  1  0.030640  0.653570  0.267920  1.0  0.1603
  C  C168  1  0.938670  0.421440  0.274170  1.0  0.6204
  N  N169  1  0.389330  0.153740  0.220340  1.0  -0.3653
  N  N170  1  0.412850  0.279580  0.074490  1.0  -0.3435
  N  N171  1  0.610670  0.653740  0.279660  1.0  -0.366
  N  N172  1  0.587150  0.779580  0.425510  1.0  -0.3431
  N  N173  1  0.087150  0.720420  0.574490  1.0  -0.3428
  N  N174  1  0.110670  0.846260  0.720340  1.0  -0.3641
  N  N175  1  0.912850  0.220420  0.925510  1.0  -0.3432
  N  N176  1  0.889330  0.346260  0.779660  1.0  -0.3654
  N  N177  1  0.610670  0.846260  0.779660  1.0  -0.3647
  N  N178  1  0.587150  0.720420  0.925510  1.0  -0.3433
  N  N179  1  0.389330  0.346260  0.720340  1.0  -0.3649
  N  N180  1  0.412850  0.220420  0.574490  1.0  -0.3434
  N  N181  1  0.912850  0.279580  0.425510  1.0  -0.3428
  N  N182  1  0.889330  0.153740  0.279660  1.0  -0.3656
  N  N183  1  0.087150  0.779580  0.074490  1.0  -0.343
  N  N184  1  0.110670  0.653740  0.220340  1.0  -0.3655
  O  O185  1  0.521590  0.849930  0.258830  1.0  -0.6065
  O  O186  1  0.648930  0.930150  0.305860  1.0  -0.5694
  O  O187  1  0.654220  0.171890  0.883370  1.0  -0.5673
  O  O188  1  0.690240  0.311160  0.882920  1.0  -0.5839
  O  O189  1  0.478410  0.349930  0.241170  1.0  -0.6035
  O  O190  1  0.351070  0.430150  0.194140  1.0  -0.5691
  O  O191  1  0.345780  0.671890  0.616630  1.0  -0.5683
  O  O192  1  0.309760  0.811160  0.617080  1.0  -0.5846
  O  O193  1  0.845780  0.828110  0.383370  1.0  -0.5685
  O  O194  1  0.809760  0.688840  0.382920  1.0  -0.5838
  O  O195  1  0.978410  0.150070  0.758830  1.0  -0.6028
  O  O196  1  0.851070  0.069850  0.805860  1.0  -0.5693
  O  O197  1  0.154220  0.328110  0.116630  1.0  -0.5701
  O  O198  1  0.190240  0.188840  0.117080  1.0  -0.5839
  O  O199  1  0.021590  0.650070  0.741170  1.0  -0.6043
  O  O200  1  0.148930  0.569850  0.694140  1.0  -0.5687
  O  O201  1  0.478410  0.150070  0.741170  1.0  -0.6027
  O  O202  1  0.351070  0.069850  0.694140  1.0  -0.5688
  O  O203  1  0.345780  0.828110  0.116630  1.0  -0.5695
  O  O204  1  0.309760  0.688840  0.117080  1.0  -0.5837
  O  O205  1  0.521590  0.650070  0.758830  1.0  -0.6045
  O  O206  1  0.648930  0.569850  0.805860  1.0  -0.5691
  O  O207  1  0.654220  0.328110  0.383370  1.0  -0.5688
  O  O208  1  0.690240  0.188840  0.382920  1.0  -0.5834
  O  O209  1  0.154220  0.171890  0.616630  1.0  -0.5685
  O  O210  1  0.190240  0.311160  0.617080  1.0  -0.5841
  O  O211  1  0.021590  0.849930  0.241170  1.0  -0.6059
  O  O212  1  0.148930  0.930150  0.194140  1.0  -0.5689
  O  O213  1  0.845780  0.671890  0.883370  1.0  -0.5671
  O  O214  1  0.809760  0.811160  0.882920  1.0  -0.5838
  O  O215  1  0.978410  0.349930  0.258830  1.0  -0.604
  O  O216  1  0.851070  0.430150  0.305860  1.0  -0.5695
