# generated using pymatgen
data_CuH21C29N2O5
_symmetry_space_group_name_H-M   'P 1'
_cell_length_a   12.65600000
_cell_length_b   9.24080000
_cell_length_c   25.54400000
_cell_angle_alpha   90.00000000
_cell_angle_beta   96.15800000
_cell_angle_gamma   90.00000000
_symmetry_Int_Tables_number   1
_chemical_formula_structural   CuH21C29N2O5
_chemical_formula_sum   'Cu4 H84 C116 N8 O20'
_cell_volume   2970.17300639
_cell_formula_units_Z   4
loop_
 _symmetry_equiv_pos_site_id
 _symmetry_equiv_pos_as_xyz
  1  'x, y, z'
loop_
 _atom_site_type_symbol
 _atom_site_label
 _atom_site_symmetry_multiplicity
 _atom_site_fract_x
 _atom_site_fract_y
 _atom_site_fract_z
 _atom_site_occupancy
 _atom_site_charge
  Cu  Cu1  1  0.051550  0.374450  0.996950  1.0  0.8402
  Cu  Cu2  1  0.948450  0.874450  0.503050  1.0  0.8399
  Cu  Cu3  1  0.948450  0.625550  0.003050  1.0  0.8397
  Cu  Cu4  1  0.051550  0.125550  0.496950  1.0  0.8399
  H  H5  1  0.721700  0.917500  0.366700  1.0  0.0929
  H  H6  1  0.895700  0.268500  0.347600  1.0  0.1129
  H  H7  1  0.623400  0.961100  0.288000  1.0  0.1009
  H  H8  1  0.800000  0.311800  0.268600  1.0  0.108
  H  H9  1  0.252600  0.051200  0.175600  1.0  0.1098
  H  H10  1  0.312400  0.144600  0.258200  1.0  0.1134
  H  H11  1  0.369600  0.020300  0.114400  1.0  0.0993
  H  H12  1  0.494700  0.186100  0.279200  1.0  0.1122
  H  H13  1  0.546200  0.075000  0.135200  1.0  0.1062
  H  H14  1  0.817900  0.075300  0.186100  1.0  0.113
  H  H15  1  0.604000  0.392900  0.159600  1.0  0.1334
  H  H16  1  0.697400  0.480700  0.094700  1.0  0.0994
  H  H17  1  0.911900  0.164500  0.121100  1.0  0.1091
  H  H18  1  0.057100  0.086900  0.049200  1.0  0.0477
  H  H19  1  0.150600  0.888200  0.071300  1.0  0.1035
  H  H20  1  0.240700  0.221900  0.949400  1.0  0.0914
  H  H21  1  0.343400  0.990800  0.963900  1.0  0.1157
  H  H22  1  0.332900  0.763500  0.065900  1.0  0.0951
  H  H23  1  0.262000  0.692600  0.018600  1.0  0.0742
  H  H24  1  0.352900  0.508200  0.045000  1.0  0.1009
  H  H25  1  0.553700  0.705600  0.959900  1.0  0.1136
  H  H26  1  0.278300  0.417500  0.133300  1.0  0.093
  H  H27  1  0.104300  0.768500  0.152400  1.0  0.1129
  H  H28  1  0.376600  0.461100  0.212000  1.0  0.1005
  H  H29  1  0.200000  0.811800  0.231400  1.0  0.1085
  H  H30  1  0.747400  0.551200  0.324400  1.0  0.1102
  H  H31  1  0.687600  0.644600  0.241800  1.0  0.1136
  H  H32  1  0.630400  0.520300  0.385600  1.0  0.0988
  H  H33  1  0.505300  0.686100  0.220800  1.0  0.1127
  H  H34  1  0.453800  0.575000  0.364800  1.0  0.1053
  H  H35  1  0.182100  0.575300  0.313900  1.0  0.1125
  H  H36  1  0.396000  0.892900  0.340400  1.0  0.1336
  H  H37  1  0.302600  0.980700  0.405300  1.0  0.0996
  H  H38  1  0.088100  0.664500  0.378900  1.0  0.1089
  H  H39  1  0.942900  0.586900  0.450800  1.0  0.0474
  H  H40  1  0.849400  0.388200  0.428700  1.0  0.1033
  H  H41  1  0.759300  0.721900  0.550600  1.0  0.0914
  H  H42  1  0.656600  0.490800  0.536100  1.0  0.1162
  H  H43  1  0.667100  0.263500  0.434100  1.0  0.0958
  H  H44  1  0.738000  0.192600  0.481400  1.0  0.0748
  H  H45  1  0.647100  0.008200  0.455000  1.0  0.1009
  H  H46  1  0.446300  0.205600  0.540100  1.0  0.1131
  H  H47  1  0.278300  0.082500  0.633300  1.0  0.093
  H  H48  1  0.104300  0.731500  0.652400  1.0  0.113
  H  H49  1  0.376600  0.038900  0.712000  1.0  0.1004
  H  H50  1  0.200000  0.688200  0.731400  1.0  0.1086
  H  H51  1  0.747400  0.948800  0.824400  1.0  0.1103
  H  H52  1  0.687600  0.855400  0.741800  1.0  0.1136
  H  H53  1  0.630400  0.979700  0.885600  1.0  0.0986
  H  H54  1  0.505300  0.813900  0.720800  1.0  0.1128
  H  H55  1  0.453800  0.925000  0.864800  1.0  0.1054
  H  H56  1  0.182100  0.924700  0.813900  1.0  0.113
  H  H57  1  0.396000  0.607100  0.840400  1.0  0.1337
  H  H58  1  0.302600  0.519300  0.905300  1.0  0.0991
  H  H59  1  0.088100  0.835500  0.878900  1.0  0.1088
  H  H60  1  0.942900  0.913100  0.950800  1.0  0.0473
  H  H61  1  0.849400  0.111800  0.928700  1.0  0.103
  H  H62  1  0.759300  0.778100  0.050600  1.0  0.0917
  H  H63  1  0.656600  0.009200  0.036100  1.0  0.116
  H  H64  1  0.667100  0.236500  0.934100  1.0  0.0956
  H  H65  1  0.738000  0.307400  0.981400  1.0  0.074
  H  H66  1  0.647100  0.491800  0.955000  1.0  0.1012
  H  H67  1  0.446300  0.294400  0.040100  1.0  0.113
  H  H68  1  0.721700  0.582500  0.866700  1.0  0.0928
  H  H69  1  0.895700  0.231500  0.847600  1.0  0.1127
  H  H70  1  0.623400  0.538900  0.788000  1.0  0.1009
  H  H71  1  0.800000  0.188200  0.768600  1.0  0.1081
  H  H72  1  0.252600  0.448800  0.675600  1.0  0.1096
  H  H73  1  0.312400  0.355400  0.758200  1.0  0.1136
  H  H74  1  0.369600  0.479700  0.614400  1.0  0.0992
  H  H75  1  0.494700  0.313900  0.779200  1.0  0.1127
  H  H76  1  0.546200  0.425000  0.635200  1.0  0.1061
  H  H77  1  0.817900  0.424700  0.686100  1.0  0.1128
  H  H78  1  0.604000  0.107100  0.659600  1.0  0.1333
  H  H79  1  0.697400  0.019300  0.594700  1.0  0.0992
  H  H80  1  0.911900  0.335500  0.621100  1.0  0.1092
  H  H81  1  0.057100  0.413100  0.549200  1.0  0.0476
  H  H82  1  0.150600  0.611800  0.571300  1.0  0.103
  H  H83  1  0.240700  0.278100  0.449400  1.0  0.0918
  H  H84  1  0.343400  0.509200  0.463900  1.0  0.1157
  H  H85  1  0.332900  0.736500  0.565900  1.0  0.0954
  H  H86  1  0.262000  0.807400  0.518600  1.0  0.0739
  H  H87  1  0.352900  0.991800  0.545000  1.0  0.1008
  H  H88  1  0.553700  0.794400  0.459900  1.0  0.1133
  C  C89  1  0.881500  0.061300  0.417200  1.0  0.6622
  C  C90  1  0.817300  0.089600  0.366400  1.0  -0.1445
  C  C91  1  0.736800  0.998300  0.347100  1.0  -0.0282
  C  C92  1  0.840400  0.206600  0.335700  1.0  -0.0584
  C  C93  1  0.678400  0.023600  0.299900  1.0  -0.2138
  C  C94  1  0.783300  0.232300  0.288400  1.0  -0.2077
  C  C95  1  0.700800  0.141900  0.269500  1.0  0.19
  C  C96  1  0.324100  0.074000  0.183900  1.0  -0.0901
  C  C97  1  0.359800  0.127300  0.233500  1.0  -0.1076
  C  C98  1  0.393400  0.055000  0.147800  1.0  -0.1096
  C  C99  1  0.469100  0.154600  0.245700  1.0  -0.1641
  C  C100  1  0.499400  0.087000  0.160500  1.0  -0.123
  C  C101  1  0.537200  0.135400  0.208900  1.0  0.1696
  C  C102  1  0.702100  0.222800  0.179200  1.0  0.1826
  C  C103  1  0.793500  0.157200  0.167400  1.0  -0.1466
  C  C104  1  0.665600  0.346500  0.151700  1.0  -0.2384
  C  C105  1  0.721400  0.398200  0.113200  1.0  -0.019
  C  C106  1  0.849700  0.210100  0.128500  1.0  -0.0313
  C  C107  1  0.813800  0.330400  0.100800  1.0  -0.1398
  C  C108  1  0.877600  0.392400  0.060700  1.0  0.6547
  C  C109  1  0.117700  0.070600  0.032400  1.0  0.176
  C  C110  1  0.169200  0.949700  0.044900  1.0  -0.1153
  C  C111  1  0.221300  0.152700  0.973000  1.0  0.1587
  C  C112  1  0.284900  0.012500  0.981600  1.0  -0.099
  C  C113  1  0.248000  0.922400  0.017700  1.0  0.0796
  C  C114  1  0.310000  0.772100  0.028500  1.0  -0.0523
  C  C115  1  0.443700  0.627000  0.002700  1.0  0.2442
  C  C116  1  0.412400  0.505500  0.026600  1.0  -0.185
  C  C117  1  0.531400  0.622600  0.976200  1.0  -0.1447
  C  C118  1  0.118500  0.561300  0.082800  1.0  0.6617
  C  C119  1  0.182700  0.589600  0.133600  1.0  -0.1466
  C  C120  1  0.263200  0.498300  0.152900  1.0  -0.0272
  C  C121  1  0.159600  0.706600  0.164300  1.0  -0.0578
  C  C122  1  0.321600  0.523600  0.200100  1.0  -0.2143
  C  C123  1  0.216700  0.732300  0.211600  1.0  -0.2084
  C  C124  1  0.299200  0.641900  0.230500  1.0  0.1899
  C  C125  1  0.675900  0.574000  0.316100  1.0  -0.0913
  C  C126  1  0.640200  0.627300  0.266500  1.0  -0.1065
  C  C127  1  0.606600  0.555000  0.352200  1.0  -0.1096
  C  C128  1  0.530900  0.654600  0.254300  1.0  -0.1644
  C  C129  1  0.500600  0.587000  0.339500  1.0  -0.1211
  C  C130  1  0.462800  0.635400  0.291100  1.0  0.1691
  C  C131  1  0.297900  0.722800  0.320800  1.0  0.181
  C  C132  1  0.206500  0.657200  0.332600  1.0  -0.1471
  C  C133  1  0.334400  0.846500  0.348300  1.0  -0.2395
  C  C134  1  0.278600  0.898200  0.386800  1.0  -0.0206
  C  C135  1  0.150300  0.710100  0.371500  1.0  -0.0324
  C  C136  1  0.186200  0.830400  0.399200  1.0  -0.1387
  C  C137  1  0.122400  0.892400  0.439300  1.0  0.655
  C  C138  1  0.882300  0.570600  0.467600  1.0  0.176
  C  C139  1  0.830800  0.449700  0.455100  1.0  -0.115
  C  C140  1  0.778700  0.652700  0.527000  1.0  0.1584
  C  C141  1  0.715100  0.512500  0.518400  1.0  -0.0975
  C  C142  1  0.752000  0.422400  0.482300  1.0  0.0786
  C  C143  1  0.690000  0.272100  0.471500  1.0  -0.0531
  C  C144  1  0.556300  0.127000  0.497300  1.0  0.2441
  C  C145  1  0.587600  0.005500  0.473400  1.0  -0.1855
  C  C146  1  0.468600  0.122600  0.523800  1.0  -0.1462
  C  C147  1  0.118500  0.938700  0.582800  1.0  0.6617
  C  C148  1  0.182700  0.910400  0.633600  1.0  -0.146
  C  C149  1  0.263200  0.001700  0.652900  1.0  -0.0268
  C  C150  1  0.159600  0.793400  0.664300  1.0  -0.0571
  C  C151  1  0.321600  0.976400  0.700100  1.0  -0.2131
  C  C152  1  0.216700  0.767700  0.711600  1.0  -0.2086
  C  C153  1  0.299200  0.858100  0.730500  1.0  0.1903
  C  C154  1  0.675900  0.926000  0.816100  1.0  -0.0918
  C  C155  1  0.640200  0.872700  0.766500  1.0  -0.1063
  C  C156  1  0.606600  0.945000  0.852200  1.0  -0.1091
  C  C157  1  0.530900  0.845400  0.754300  1.0  -0.1639
  C  C158  1  0.500600  0.913000  0.839500  1.0  -0.1213
  C  C159  1  0.462800  0.864600  0.791100  1.0  0.1692
  C  C160  1  0.297900  0.777200  0.820800  1.0  0.1808
  C  C161  1  0.206500  0.842800  0.832600  1.0  -0.1466
  C  C162  1  0.334400  0.653500  0.848300  1.0  -0.2407
  C  C163  1  0.278600  0.601800  0.886800  1.0  -0.0226
  C  C164  1  0.150300  0.789900  0.871500  1.0  -0.0323
  C  C165  1  0.186200  0.669600  0.899200  1.0  -0.1393
  C  C166  1  0.122400  0.607600  0.939300  1.0  0.6547
  C  C167  1  0.882300  0.929400  0.967600  1.0  0.1753
  C  C168  1  0.830800  0.050300  0.955100  1.0  -0.1152
  C  C169  1  0.778700  0.847300  0.027000  1.0  0.1588
  C  C170  1  0.715100  0.987500  0.018400  1.0  -0.0976
  C  C171  1  0.752000  0.077600  0.982300  1.0  0.078
  C  C172  1  0.690000  0.227900  0.971500  1.0  -0.0541
  C  C173  1  0.556300  0.373000  0.997300  1.0  0.2442
  C  C174  1  0.587600  0.494500  0.973400  1.0  -0.1883
  C  C175  1  0.468600  0.377400  0.023800  1.0  -0.147
  C  C176  1  0.881500  0.438700  0.917200  1.0  0.6622
  C  C177  1  0.817300  0.410400  0.866400  1.0  -0.1448
  C  C178  1  0.736800  0.501700  0.847100  1.0  -0.0279
  C  C179  1  0.840400  0.293400  0.835700  1.0  -0.058
  C  C180  1  0.678400  0.476400  0.799900  1.0  -0.213
  C  C181  1  0.783300  0.267700  0.788400  1.0  -0.208
  C  C182  1  0.700800  0.358100  0.769500  1.0  0.19
  C  C183  1  0.324100  0.426000  0.683900  1.0  -0.0909
  C  C184  1  0.359800  0.372700  0.733500  1.0  -0.1073
  C  C185  1  0.393400  0.445000  0.647800  1.0  -0.1092
  C  C186  1  0.469100  0.345400  0.745700  1.0  -0.1639
  C  C187  1  0.499400  0.413000  0.660500  1.0  -0.1223
  C  C188  1  0.537200  0.364600  0.708900  1.0  0.1696
  C  C189  1  0.702100  0.277200  0.679200  1.0  0.1823
  C  C190  1  0.793500  0.342800  0.667400  1.0  -0.1458
  C  C191  1  0.665600  0.153500  0.651700  1.0  -0.238
  C  C192  1  0.721400  0.101800  0.613200  1.0  -0.0209
  C  C193  1  0.849700  0.289900  0.628500  1.0  -0.031
  C  C194  1  0.813800  0.169600  0.600800  1.0  -0.1401
  C  C195  1  0.877600  0.107600  0.560700  1.0  0.6546
  C  C196  1  0.117700  0.429400  0.532400  1.0  0.1763
  C  C197  1  0.169200  0.550300  0.544900  1.0  -0.1155
  C  C198  1  0.221300  0.347300  0.473000  1.0  0.1592
  C  C199  1  0.284900  0.487500  0.481600  1.0  -0.1004
  C  C200  1  0.248000  0.577600  0.517700  1.0  0.0792
  C  C201  1  0.310000  0.727900  0.528500  1.0  -0.0524
  C  C202  1  0.443700  0.873000  0.502700  1.0  0.2452
  C  C203  1  0.412400  0.994500  0.526600  1.0  -0.1888
  C  C204  1  0.531400  0.877400  0.476200  1.0  -0.1468
  N  N205  1  0.645400  0.169000  0.220200  1.0  -0.1486
  N  N206  1  0.141900  0.173800  0.998400  1.0  -0.3244
  N  N207  1  0.354600  0.669000  0.279800  1.0  -0.1496
  N  N208  1  0.858100  0.673800  0.501600  1.0  -0.3253
  N  N209  1  0.354600  0.831000  0.779800  1.0  -0.1493
  N  N210  1  0.858100  0.826200  0.001600  1.0  -0.325
  N  N211  1  0.645400  0.331000  0.720200  1.0  -0.1484
  N  N212  1  0.141900  0.326200  0.498400  1.0  -0.3249
  O  O213  1  0.862000  0.944800  0.440760  1.0  -0.5884
  O  O214  1  0.951000  0.151800  0.433720  1.0  -0.5753
  O  O215  1  0.858500  0.521900  0.047150  1.0  -0.5793
  O  O216  1  0.945600  0.313500  0.043310  1.0  -0.5738
  O  O217  1  0.394200  0.762300  0.001800  1.0  -0.2913
  O  O218  1  0.138000  0.444800  0.059240  1.0  -0.5887
  O  O219  1  0.049000  0.651800  0.066280  1.0  -0.5754
  O  O220  1  0.141500  0.021900  0.452850  1.0  -0.5792
  O  O221  1  0.054400  0.813500  0.456690  1.0  -0.5745
  O  O222  1  0.605800  0.262300  0.498200  1.0  -0.2938
  O  O223  1  0.138000  0.055200  0.559240  1.0  -0.5895
  O  O224  1  0.049000  0.848200  0.566280  1.0  -0.5755
  O  O225  1  0.141500  0.478100  0.952850  1.0  -0.579
  O  O226  1  0.054400  0.686500  0.956690  1.0  -0.575
  O  O227  1  0.605800  0.237700  0.998200  1.0  -0.2946
  O  O228  1  0.862000  0.555200  0.940760  1.0  -0.5885
  O  O229  1  0.951000  0.348200  0.933720  1.0  -0.5757
  O  O230  1  0.858500  0.978100  0.547150  1.0  -0.58
  O  O231  1  0.945600  0.186500  0.543310  1.0  -0.5738
  O  O232  1  0.394200  0.737700  0.501800  1.0  -0.291
