# generated using pymatgen
data_NiH15C15N3O2
_symmetry_space_group_name_H-M   'P 1'
_cell_length_a   13.74950000
_cell_length_b   13.74950000
_cell_length_c   25.53300000
_cell_angle_alpha   90.00000000
_cell_angle_beta   90.00000000
_cell_angle_gamma   90.00000000
_symmetry_Int_Tables_number   1
_chemical_formula_structural   NiH15C15N3O2
_chemical_formula_sum   'Ni8 H120 C120 N24 O16'
_cell_volume   4826.98174013
_cell_formula_units_Z   8
loop_
 _symmetry_equiv_pos_site_id
 _symmetry_equiv_pos_as_xyz
  1  'x, y, z'
loop_
 _atom_site_type_symbol
 _atom_site_label
 _atom_site_symmetry_multiplicity
 _atom_site_fract_x
 _atom_site_fract_y
 _atom_site_fract_z
 _atom_site_occupancy
 _atom_site_charge
  Ni  Ni1  1  0.093380  0.249060  0.023680  1.0  0.6909
  Ni  Ni2  1  0.906620  0.750940  0.023680  1.0  0.6893
  Ni  Ni3  1  0.749060  0.593380  0.476320  1.0  0.6895
  Ni  Ni4  1  0.250940  0.406620  0.476320  1.0  0.6903
  Ni  Ni5  1  0.249060  0.906620  0.976320  1.0  0.6895
  Ni  Ni6  1  0.750940  0.093380  0.976320  1.0  0.6897
  Ni  Ni7  1  0.593380  0.250940  0.523680  1.0  0.6892
  Ni  Ni8  1  0.406620  0.749060  0.523680  1.0  0.6897
  H  H9  1  0.200300  0.207300  0.942600  1.0  0.1871
  H  H10  1  0.039500  0.253900  0.900200  1.0  0.1036
  H  H11  1  0.136500  0.127900  0.863800  1.0  0.1132
  H  H12  1  0.026300  0.131600  0.848100  1.0  0.1039
  H  H13  1  0.062200  0.056400  0.890000  1.0  0.1245
  H  H14  1  0.921600  0.365500  0.054100  1.0  0.0667
  H  H15  1  0.852100  0.435200  0.127700  1.0  0.1068
  H  H16  1  0.054100  0.304400  0.214400  1.0  0.1158
  H  H17  1  0.122100  0.242600  0.137600  1.0  0.0778
  H  H18  1  0.850300  0.465400  0.220400  1.0  0.0877
  H  H19  1  0.167800  0.443400  0.045900  1.0  0.0688
  H  H20  1  0.310500  0.525800  0.064400  1.0  0.1177
  H  H21  1  0.448100  0.270100  0.059300  1.0  0.1105
  H  H22  1  0.304000  0.196800  0.040100  1.0  0.0757
  H  H23  1  0.547200  0.414300  0.070700  1.0  0.0871
  H  H24  1  0.799700  0.792700  0.942600  1.0  0.187
  H  H25  1  0.960500  0.746100  0.900200  1.0  0.095
  H  H26  1  0.863500  0.872100  0.863800  1.0  0.1123
  H  H27  1  0.973700  0.868400  0.848100  1.0  0.1038
  H  H28  1  0.937800  0.943600  0.890000  1.0  0.125
  H  H29  1  0.078400  0.634500  0.054100  1.0  0.0669
  H  H30  1  0.147900  0.564800  0.127700  1.0  0.1073
  H  H31  1  0.945900  0.695600  0.214400  1.0  0.1159
  H  H32  1  0.877900  0.757400  0.137600  1.0  0.0767
  H  H33  1  0.149700  0.534600  0.220400  1.0  0.0873
  H  H34  1  0.832200  0.556600  0.045900  1.0  0.0682
  H  H35  1  0.689500  0.474200  0.064400  1.0  0.1188
  H  H36  1  0.551900  0.729900  0.059300  1.0  0.1114
  H  H37  1  0.696000  0.803200  0.040100  1.0  0.0754
  H  H38  1  0.452800  0.585700  0.070700  1.0  0.0865
  H  H39  1  0.707300  0.700300  0.557400  1.0  0.184
  H  H40  1  0.753900  0.539500  0.599800  1.0  0.097
  H  H41  1  0.627900  0.636500  0.636200  1.0  0.1128
  H  H42  1  0.631600  0.526300  0.651900  1.0  0.1039
  H  H43  1  0.556400  0.562200  0.610000  1.0  0.1231
  H  H44  1  0.865500  0.421600  0.445900  1.0  0.0669
  H  H45  1  0.935200  0.352100  0.372300  1.0  0.105
  H  H46  1  0.804400  0.554100  0.285600  1.0  0.1154
  H  H47  1  0.742600  0.622100  0.362400  1.0  0.0779
  H  H48  1  0.965400  0.350300  0.279600  1.0  0.0871
  H  H49  1  0.943400  0.667800  0.454100  1.0  0.069
  H  H50  1  0.025800  0.810500  0.435600  1.0  0.1187
  H  H51  1  0.770100  0.948100  0.440700  1.0  0.1112
  H  H52  1  0.696800  0.804000  0.459900  1.0  0.0738
  H  H53  1  0.914300  0.047200  0.429300  1.0  0.0877
  H  H54  1  0.292700  0.299700  0.557400  1.0  0.1856
  H  H55  1  0.246100  0.460500  0.599800  1.0  0.0982
  H  H56  1  0.372100  0.363500  0.636200  1.0  0.1125
  H  H57  1  0.368400  0.473700  0.651900  1.0  0.1052
  H  H58  1  0.443600  0.437800  0.610000  1.0  0.1212
  H  H59  1  0.134500  0.578400  0.445900  1.0  0.0666
  H  H60  1  0.064800  0.647900  0.372300  1.0  0.1054
  H  H61  1  0.195600  0.445900  0.285600  1.0  0.116
  H  H62  1  0.257400  0.377900  0.362400  1.0  0.0783
  H  H63  1  0.034600  0.649700  0.279600  1.0  0.0872
  H  H64  1  0.056600  0.332200  0.454100  1.0  0.0677
  H  H65  1  0.974200  0.189500  0.435600  1.0  0.1196
  H  H66  1  0.229900  0.051900  0.440700  1.0  0.1119
  H  H67  1  0.303200  0.196000  0.459900  1.0  0.0736
  H  H68  1  0.085700  0.952800  0.429300  1.0  0.0881
  H  H69  1  0.207300  0.799700  0.057400  1.0  0.1848
  H  H70  1  0.253900  0.960500  0.099800  1.0  0.0974
  H  H71  1  0.127900  0.863500  0.136200  1.0  0.113
  H  H72  1  0.131600  0.973700  0.151900  1.0  0.1042
  H  H73  1  0.056400  0.937800  0.110000  1.0  0.1231
  H  H74  1  0.365500  0.078400  0.945900  1.0  0.0665
  H  H75  1  0.435200  0.147900  0.872300  1.0  0.1054
  H  H76  1  0.304400  0.945900  0.785600  1.0  0.1157
  H  H77  1  0.242600  0.877900  0.862400  1.0  0.0773
  H  H78  1  0.465400  0.149700  0.779600  1.0  0.0873
  H  H79  1  0.443400  0.832200  0.954100  1.0  0.0681
  H  H80  1  0.525800  0.689500  0.935600  1.0  0.1186
  H  H81  1  0.270100  0.551900  0.940700  1.0  0.1106
  H  H82  1  0.196800  0.696000  0.959900  1.0  0.0727
  H  H83  1  0.414300  0.452800  0.929300  1.0  0.0873
  H  H84  1  0.792700  0.200300  0.057400  1.0  0.184
  H  H85  1  0.746100  0.039500  0.099800  1.0  0.0978
  H  H86  1  0.872100  0.136500  0.136200  1.0  0.1128
  H  H87  1  0.868400  0.026300  0.151900  1.0  0.1052
  H  H88  1  0.943600  0.062200  0.110000  1.0  0.1212
  H  H89  1  0.634500  0.921600  0.945900  1.0  0.0673
  H  H90  1  0.564800  0.852100  0.872300  1.0  0.1047
  H  H91  1  0.695600  0.054100  0.785600  1.0  0.116
  H  H92  1  0.757400  0.122100  0.862400  1.0  0.0781
  H  H93  1  0.534600  0.850300  0.779600  1.0  0.0869
  H  H94  1  0.556600  0.167800  0.954100  1.0  0.0686
  H  H95  1  0.474200  0.310500  0.935600  1.0  0.1195
  H  H96  1  0.729900  0.448100  0.940700  1.0  0.1121
  H  H97  1  0.803200  0.304000  0.959900  1.0  0.0749
  H  H98  1  0.585700  0.547200  0.929300  1.0  0.0886
  H  H99  1  0.700300  0.292700  0.442600  1.0  0.187
  H  H100  1  0.539500  0.246100  0.400200  1.0  0.0952
  H  H101  1  0.636500  0.372100  0.363800  1.0  0.1128
  H  H102  1  0.526300  0.368400  0.348100  1.0  0.1037
  H  H103  1  0.562200  0.443600  0.390000  1.0  0.1247
  H  H104  1  0.421600  0.134500  0.554100  1.0  0.0667
  H  H105  1  0.352100  0.064800  0.627700  1.0  0.1065
  H  H106  1  0.554100  0.195600  0.714400  1.0  0.1159
  H  H107  1  0.622100  0.257400  0.637600  1.0  0.0771
  H  H108  1  0.350300  0.034600  0.720400  1.0  0.0868
  H  H109  1  0.667800  0.056600  0.545900  1.0  0.0686
  H  H110  1  0.810500  0.974200  0.564400  1.0  0.1186
  H  H111  1  0.948100  0.229900  0.559300  1.0  0.1104
  H  H112  1  0.804000  0.303200  0.540100  1.0  0.0759
  H  H113  1  0.047200  0.085700  0.570700  1.0  0.0872
  H  H114  1  0.299700  0.707300  0.442600  1.0  0.1877
  H  H115  1  0.460500  0.753900  0.400200  1.0  0.1031
  H  H116  1  0.363500  0.627900  0.363800  1.0  0.1126
  H  H117  1  0.473700  0.631600  0.348100  1.0  0.1039
  H  H118  1  0.437800  0.556400  0.390000  1.0  0.1247
  H  H119  1  0.578400  0.865500  0.554100  1.0  0.067
  H  H120  1  0.647900  0.935200  0.627700  1.0  0.1073
  H  H121  1  0.445900  0.804400  0.714400  1.0  0.1158
  H  H122  1  0.377900  0.742600  0.637600  1.0  0.0769
  H  H123  1  0.649700  0.965400  0.720400  1.0  0.0876
  H  H124  1  0.332200  0.943400  0.545900  1.0  0.0687
  H  H125  1  0.189500  0.025800  0.564400  1.0  0.1177
  H  H126  1  0.051900  0.770100  0.559300  1.0  0.1109
  H  H127  1  0.196000  0.696800  0.540100  1.0  0.0744
  H  H128  1  0.952800  0.914300  0.570700  1.0  0.0866
  C  C129  1  0.963400  0.172200  0.951200  1.0  0.6664
  C  C130  1  0.053000  0.192500  0.918200  1.0  -1e-04
  C  C131  1  0.071100  0.120900  0.876400  1.0  -0.3544
  C  C132  1  0.950000  0.354500  0.086600  1.0  0.1462
  C  C133  1  0.906200  0.395100  0.131000  1.0  -0.2106
  C  C134  1  0.943800  0.375400  0.179100  1.0  0.0197
  C  C135  1  0.026000  0.318400  0.182100  1.0  -0.1809
  C  C136  1  0.067100  0.281700  0.135500  1.0  0.1401
  C  C137  1  0.898300  0.418800  0.226000  1.0  -0.1561
  C  C138  1  0.225000  0.407500  0.048300  1.0  0.1553
  C  C139  1  0.310700  0.458800  0.059100  1.0  -0.2346
  C  C140  1  0.397600  0.403900  0.061500  1.0  0.0881
  C  C141  1  0.392200  0.307800  0.055900  1.0  -0.1863
  C  C142  1  0.304500  0.263800  0.045100  1.0  0.1469
  C  C143  1  0.492700  0.453800  0.067000  1.0  -0.1122
  C  C144  1  0.036600  0.827800  0.951200  1.0  0.6664
  C  C145  1  0.947000  0.807500  0.918200  1.0  -0.0007
  C  C146  1  0.928900  0.879100  0.876400  1.0  -0.3504
  C  C147  1  0.050000  0.645500  0.086600  1.0  0.1456
  C  C148  1  0.093800  0.604900  0.131000  1.0  -0.213
  C  C149  1  0.056200  0.624600  0.179100  1.0  0.0207
  C  C150  1  0.974000  0.681600  0.182100  1.0  -0.1822
  C  C151  1  0.932900  0.718300  0.135500  1.0  0.1417
  C  C152  1  0.101700  0.581200  0.226000  1.0  -0.1541
  C  C153  1  0.775000  0.592500  0.048300  1.0  0.1552
  C  C154  1  0.689300  0.541200  0.059100  1.0  -0.2343
  C  C155  1  0.602400  0.596100  0.061500  1.0  0.0792
  C  C156  1  0.607800  0.692200  0.055900  1.0  -0.1911
  C  C157  1  0.695500  0.736200  0.045100  1.0  0.1452
  C  C158  1  0.507300  0.546200  0.067000  1.0  -0.1141
  C  C159  1  0.672200  0.463400  0.548800  1.0  0.6673
  C  C160  1  0.692500  0.553000  0.581800  1.0  0.0008
  C  C161  1  0.620900  0.571100  0.623600  1.0  -0.3488
  C  C162  1  0.854500  0.450000  0.413400  1.0  0.1459
  C  C163  1  0.895100  0.406200  0.369000  1.0  -0.2094
  C  C164  1  0.875400  0.443800  0.320900  1.0  0.0194
  C  C165  1  0.818400  0.526000  0.317900  1.0  -0.1818
  C  C166  1  0.781700  0.567100  0.364500  1.0  0.1407
  C  C167  1  0.918800  0.398300  0.274000  1.0  -0.1547
  C  C168  1  0.907500  0.725000  0.451700  1.0  0.1566
  C  C169  1  0.958800  0.810700  0.440900  1.0  -0.2358
  C  C170  1  0.903900  0.897600  0.438500  1.0  0.0847
  C  C171  1  0.807800  0.892200  0.444100  1.0  -0.1899
  C  C172  1  0.763800  0.804500  0.454900  1.0  0.1439
  C  C173  1  0.953800  0.992700  0.433000  1.0  -0.1212
  C  C174  1  0.327800  0.536600  0.548800  1.0  0.6673
  C  C175  1  0.307500  0.447000  0.581800  1.0  -0.0017
  C  C176  1  0.379100  0.428900  0.623600  1.0  -0.3514
  C  C177  1  0.145500  0.550000  0.413400  1.0  0.1465
  C  C178  1  0.104900  0.593800  0.369000  1.0  -0.2079
  C  C179  1  0.124600  0.556200  0.320900  1.0  0.0213
  C  C180  1  0.181600  0.474000  0.317900  1.0  -0.1814
  C  C181  1  0.218300  0.432900  0.364500  1.0  0.1377
  C  C182  1  0.081200  0.601700  0.274000  1.0  -0.1553
  C  C183  1  0.092500  0.275000  0.451700  1.0  0.1594
  C  C184  1  0.041200  0.189300  0.440900  1.0  -0.2355
  C  C185  1  0.096100  0.102400  0.438500  1.0  0.0737
  C  C186  1  0.192200  0.107800  0.444100  1.0  -0.1868
  C  C187  1  0.236200  0.195500  0.454900  1.0  0.1448
  C  C188  1  0.046200  0.007300  0.433000  1.0  -0.1196
  C  C189  1  0.172200  0.036600  0.048800  1.0  0.667
  C  C190  1  0.192500  0.947000  0.081800  1.0  0.0006
  C  C191  1  0.120900  0.928900  0.123600  1.0  -0.3488
  C  C192  1  0.354500  0.050000  0.913400  1.0  0.1455
  C  C193  1  0.395100  0.093800  0.869000  1.0  -0.2078
  C  C194  1  0.375400  0.056200  0.820900  1.0  0.0192
  C  C195  1  0.318400  0.974000  0.817900  1.0  -0.1819
  C  C196  1  0.281700  0.932900  0.864500  1.0  0.1406
  C  C197  1  0.418800  0.101700  0.774000  1.0  -0.1549
  C  C198  1  0.407500  0.775000  0.951700  1.0  0.1562
  C  C199  1  0.458800  0.689300  0.940900  1.0  -0.2357
  C  C200  1  0.403900  0.602400  0.938500  1.0  0.0844
  C  C201  1  0.307800  0.607800  0.944100  1.0  -0.1873
  C  C202  1  0.263800  0.695500  0.954900  1.0  0.1425
  C  C203  1  0.453800  0.507300  0.933000  1.0  -0.1201
  C  C204  1  0.827800  0.963400  0.048800  1.0  0.6675
  C  C205  1  0.807500  0.053000  0.081800  1.0  -1e-04
  C  C206  1  0.879100  0.071100  0.123600  1.0  -0.355
  C  C207  1  0.645500  0.950000  0.913400  1.0  0.147
  C  C208  1  0.604900  0.906200  0.869000  1.0  -0.208
  C  C209  1  0.624600  0.943800  0.820900  1.0  0.021
  C  C210  1  0.681600  0.026000  0.817900  1.0  -0.1818
  C  C211  1  0.718300  0.067100  0.864500  1.0  0.1384
  C  C212  1  0.581200  0.898300  0.774000  1.0  -0.1548
  C  C213  1  0.592500  0.225000  0.951700  1.0  0.1575
  C  C214  1  0.541200  0.310700  0.940900  1.0  -0.2358
  C  C215  1  0.596100  0.397600  0.938500  1.0  0.0748
  C  C216  1  0.692200  0.392200  0.944100  1.0  -0.1879
  C  C217  1  0.736200  0.304500  0.954900  1.0  0.1404
  C  C218  1  0.546200  0.492700  0.933000  1.0  -0.1207
  C  C219  1  0.463400  0.327800  0.451200  1.0  0.6663
  C  C220  1  0.553000  0.307500  0.418200  1.0  0.001
  C  C221  1  0.571100  0.379100  0.376400  1.0  -0.3553
  C  C222  1  0.450000  0.145500  0.586600  1.0  0.146
  C  C223  1  0.406200  0.104900  0.631000  1.0  -0.2113
  C  C224  1  0.443800  0.124600  0.679100  1.0  0.0199
  C  C225  1  0.526000  0.181600  0.682100  1.0  -0.1814
  C  C226  1  0.567100  0.218300  0.635500  1.0  0.1399
  C  C227  1  0.398300  0.081200  0.726000  1.0  -0.156
  C  C228  1  0.725000  0.092500  0.548300  1.0  0.1561
  C  C229  1  0.810700  0.041200  0.559100  1.0  -0.2341
  C  C230  1  0.897600  0.096100  0.561500  1.0  0.0828
  C  C231  1  0.892200  0.192200  0.555900  1.0  -0.1911
  C  C232  1  0.804500  0.236200  0.545100  1.0  0.1418
  C  C233  1  0.992700  0.046200  0.567000  1.0  -0.1125
  C  C234  1  0.536600  0.672200  0.451200  1.0  0.6668
  C  C235  1  0.447000  0.692500  0.418200  1.0  0.0005
  C  C236  1  0.428900  0.620900  0.376400  1.0  -0.3492
  C  C237  1  0.550000  0.854500  0.586600  1.0  0.1458
  C  C238  1  0.593800  0.895100  0.631000  1.0  -0.2053
  C  C239  1  0.556200  0.875400  0.679100  1.0  0.0204
  C  C240  1  0.474000  0.818400  0.682100  1.0  -0.1816
  C  C241  1  0.432900  0.781700  0.635500  1.0  0.1421
  C  C242  1  0.601700  0.918800  0.726000  1.0  -0.1547
  C  C243  1  0.275000  0.907500  0.548300  1.0  0.1543
  C  C244  1  0.189300  0.958800  0.559100  1.0  -0.2345
  C  C245  1  0.102400  0.903900  0.561500  1.0  0.0797
  C  C246  1  0.107800  0.807800  0.555900  1.0  -0.1906
  C  C247  1  0.195500  0.763800  0.545100  1.0  0.1459
  C  C248  1  0.007300  0.953800  0.567000  1.0  -0.1133
  N  N249  1  0.137700  0.212400  0.952500  1.0  -0.3705
  N  N250  1  0.029600  0.301300  0.088800  1.0  -0.3127
  N  N251  1  0.218500  0.312600  0.041200  1.0  -0.3272
  N  N252  1  0.862300  0.787600  0.952500  1.0  -0.3707
  N  N253  1  0.970400  0.698700  0.088800  1.0  -0.3122
  N  N254  1  0.781500  0.687400  0.041200  1.0  -0.325
  N  N255  1  0.712400  0.637700  0.547500  1.0  -0.3681
  N  N256  1  0.801300  0.529600  0.411200  1.0  -0.3115
  N  N257  1  0.812600  0.718500  0.458800  1.0  -0.3253
  N  N258  1  0.287600  0.362300  0.547500  1.0  -0.3699
  N  N259  1  0.198700  0.470400  0.411200  1.0  -0.3107
  N  N260  1  0.187400  0.281500  0.458800  1.0  -0.3258
  N  N261  1  0.212400  0.862300  0.047500  1.0  -0.3696
  N  N262  1  0.301300  0.970400  0.911200  1.0  -0.311
  N  N263  1  0.312600  0.781500  0.958800  1.0  -0.3257
  N  N264  1  0.787600  0.137700  0.047500  1.0  -0.3723
  N  N265  1  0.698700  0.029600  0.911200  1.0  -0.3113
  N  N266  1  0.687400  0.218500  0.958800  1.0  -0.3252
  N  N267  1  0.637700  0.287600  0.452500  1.0  -0.3715
  N  N268  1  0.529600  0.198700  0.588800  1.0  -0.3123
  N  N269  1  0.718500  0.187400  0.541200  1.0  -0.3275
  N  N270  1  0.362300  0.712400  0.452500  1.0  -0.3712
  N  N271  1  0.470400  0.801300  0.588800  1.0  -0.3126
  N  N272  1  0.281500  0.812600  0.541200  1.0  -0.3249
  O  O273  1  0.969100  0.201800  0.999910  1.0  -0.5746
  O  O274  1  0.890700  0.136500  0.932260  1.0  -0.5606
  O  O275  1  0.030900  0.798200  0.999910  1.0  -0.5739
  O  O276  1  0.109300  0.863500  0.932260  1.0  -0.5617
  O  O277  1  0.701800  0.469100  0.500090  1.0  -0.5731
  O  O278  1  0.636500  0.390700  0.567740  1.0  -0.5637
  O  O279  1  0.298200  0.530900  0.500090  1.0  -0.5729
  O  O280  1  0.363500  0.609300  0.567740  1.0  -0.5642
  O  O281  1  0.201800  0.030900  0.000090  1.0  -0.5729
  O  O282  1  0.136500  0.109300  0.067740  1.0  -0.564
  O  O283  1  0.798200  0.969100  0.000090  1.0  -0.5733
  O  O284  1  0.863500  0.890700  0.067740  1.0  -0.5639
  O  O285  1  0.469100  0.298200  0.499910  1.0  -0.574
  O  O286  1  0.390700  0.363500  0.432260  1.0  -0.5609
  O  O287  1  0.530900  0.701800  0.499910  1.0  -0.5745
  O  O288  1  0.609300  0.636500  0.432260  1.0  -0.5613
