# generated using pymatgen
data_CuH15C15N3O2
_symmetry_space_group_name_H-M   'P 1'
_cell_length_a   13.75610000
_cell_length_b   13.75610000
_cell_length_c   25.53060000
_cell_angle_alpha   90.00000000
_cell_angle_beta   90.00000000
_cell_angle_gamma   90.00000000
_symmetry_Int_Tables_number   1
_chemical_formula_structural   CuH15C15N3O2
_chemical_formula_sum   'Cu8 H120 C120 N24 O16'
_cell_volume   4831.16277064
_cell_formula_units_Z   8
loop_
 _symmetry_equiv_pos_site_id
 _symmetry_equiv_pos_as_xyz
  1  'x, y, z'
loop_
 _atom_site_type_symbol
 _atom_site_label
 _atom_site_symmetry_multiplicity
 _atom_site_fract_x
 _atom_site_fract_y
 _atom_site_fract_z
 _atom_site_occupancy
 _atom_site_charge
  Cu  Cu1  1  0.906610  0.750740  0.523730  1.0  0.7058
  Cu  Cu2  1  0.093390  0.249260  0.523730  1.0  0.7049
  Cu  Cu3  1  0.250740  0.406610  0.976270  1.0  0.705
  Cu  Cu4  1  0.749260  0.593390  0.976270  1.0  0.7047
  Cu  Cu5  1  0.750740  0.093390  0.476270  1.0  0.705
  Cu  Cu6  1  0.249260  0.906610  0.476270  1.0  0.705
  Cu  Cu7  1  0.406610  0.749260  0.023730  1.0  0.7063
  Cu  Cu8  1  0.593390  0.250740  0.023730  1.0  0.704
  H  H9  1  0.802900  0.797300  0.442900  1.0  0.3079
  H  H10  1  0.953900  0.743400  0.400300  1.0  0.046
  H  H11  1  0.919100  0.943700  0.394600  1.0  0.1215
  H  H12  1  0.982300  0.883800  0.355000  1.0  0.1013
  H  H13  1  0.869800  0.866600  0.358000  1.0  0.0985
  H  H14  1  0.878600  0.755700  0.637900  1.0  0.0798
  H  H15  1  0.942600  0.693200  0.713400  1.0  0.1221
  H  H16  1  0.148500  0.567300  0.627300  1.0  0.1071
  H  H17  1  0.074700  0.632700  0.552700  1.0  0.0778
  H  H18  1  0.154000  0.538500  0.720000  1.0  0.0994
  H  H19  1  0.697400  0.800200  0.541400  1.0  0.0635
  H  H20  1  0.555000  0.733400  0.554200  1.0  0.13
  H  H21  1  0.691900  0.473200  0.561800  1.0  0.1274
  H  H22  1  0.835100  0.557200  0.547100  1.0  0.0669
  H  H23  1  0.453300  0.586100  0.571100  1.0  0.0988
  H  H24  1  0.197100  0.202700  0.442900  1.0  0.309
  H  H25  1  0.046100  0.256600  0.400300  1.0  0.0502
  H  H26  1  0.080900  0.056300  0.394600  1.0  0.1208
  H  H27  1  0.017700  0.116200  0.355000  1.0  0.1006
  H  H28  1  0.130200  0.133400  0.358000  1.0  0.0999
  H  H29  1  0.121400  0.244300  0.637900  1.0  0.0799
  H  H30  1  0.057400  0.306800  0.713400  1.0  0.1223
  H  H31  1  0.851500  0.432700  0.627300  1.0  0.1064
  H  H32  1  0.925300  0.367300  0.552700  1.0  0.0773
  H  H33  1  0.846000  0.461500  0.720000  1.0  0.1003
  H  H34  1  0.302600  0.199800  0.541400  1.0  0.0642
  H  H35  1  0.445000  0.266600  0.554200  1.0  0.1289
  H  H36  1  0.308100  0.526800  0.561800  1.0  0.1269
  H  H37  1  0.164900  0.442800  0.547100  1.0  0.0668
  H  H38  1  0.546700  0.413900  0.571100  1.0  0.0988
  H  H39  1  0.297300  0.302900  0.057100  1.0  0.305
  H  H40  1  0.243400  0.453900  0.099700  1.0  0.0481
  H  H41  1  0.443700  0.419100  0.105400  1.0  0.1197
  H  H42  1  0.383800  0.482300  0.145000  1.0  0.1022
  H  H43  1  0.366600  0.369800  0.142000  1.0  0.1007
  H  H44  1  0.255700  0.378600  0.862100  1.0  0.08
  H  H45  1  0.193200  0.442600  0.786600  1.0  0.1221
  H  H46  1  0.067300  0.648500  0.872700  1.0  0.1053
  H  H47  1  0.132700  0.574700  0.947300  1.0  0.0779
  H  H48  1  0.038500  0.654000  0.780000  1.0  0.0995
  H  H49  1  0.300200  0.197400  0.958600  1.0  0.0649
  H  H50  1  0.233400  0.055000  0.945800  1.0  0.1297
  H  H51  1  0.973200  0.191900  0.938200  1.0  0.1269
  H  H52  1  0.057200  0.335100  0.952900  1.0  0.0675
  H  H53  1  0.086100  0.953300  0.928900  1.0  0.0993
  H  H54  1  0.702700  0.697100  0.057100  1.0  0.3059
  H  H55  1  0.756600  0.546100  0.099700  1.0  0.0455
  H  H56  1  0.556300  0.580900  0.105400  1.0  0.1208
  H  H57  1  0.616200  0.517700  0.145000  1.0  0.1026
  H  H58  1  0.633400  0.630200  0.142000  1.0  0.0995
  H  H59  1  0.744300  0.621400  0.862100  1.0  0.08
  H  H60  1  0.806800  0.557400  0.786600  1.0  0.1214
  H  H61  1  0.932700  0.351500  0.872700  1.0  0.1047
  H  H62  1  0.867300  0.425300  0.947300  1.0  0.0776
  H  H63  1  0.961500  0.346000  0.780000  1.0  0.0993
  H  H64  1  0.699800  0.802600  0.958600  1.0  0.0656
  H  H65  1  0.766600  0.945000  0.945800  1.0  0.1302
  H  H66  1  0.026800  0.808100  0.938200  1.0  0.1263
  H  H67  1  0.942800  0.664900  0.952900  1.0  0.0673
  H  H68  1  0.913900  0.046700  0.928900  1.0  0.099
  H  H69  1  0.797300  0.197100  0.557100  1.0  0.3056
  H  H70  1  0.743400  0.046100  0.599700  1.0  0.0483
  H  H71  1  0.943700  0.080900  0.605400  1.0  0.1196
  H  H72  1  0.883800  0.017700  0.645000  1.0  0.1029
  H  H73  1  0.866600  0.130200  0.642000  1.0  0.0999
  H  H74  1  0.755700  0.121400  0.362100  1.0  0.0798
  H  H75  1  0.693200  0.057400  0.286600  1.0  0.1221
  H  H76  1  0.567300  0.851500  0.372700  1.0  0.1045
  H  H77  1  0.632700  0.925300  0.447300  1.0  0.0782
  H  H78  1  0.538500  0.846000  0.280000  1.0  0.099
  H  H79  1  0.800200  0.302600  0.458600  1.0  0.0656
  H  H80  1  0.733400  0.445000  0.445800  1.0  0.13
  H  H81  1  0.473200  0.308100  0.438200  1.0  0.1269
  H  H82  1  0.557200  0.164900  0.452900  1.0  0.0679
  H  H83  1  0.586100  0.546700  0.428900  1.0  0.0994
  H  H84  1  0.202700  0.802900  0.557100  1.0  0.3055
  H  H85  1  0.256600  0.953900  0.599700  1.0  0.0458
  H  H86  1  0.056300  0.919100  0.605400  1.0  0.1208
  H  H87  1  0.116200  0.982300  0.645000  1.0  0.102
  H  H88  1  0.133400  0.869800  0.642000  1.0  0.1004
  H  H89  1  0.244300  0.878600  0.362100  1.0  0.0796
  H  H90  1  0.306800  0.942600  0.286600  1.0  0.1219
  H  H91  1  0.432700  0.148500  0.372700  1.0  0.1052
  H  H92  1  0.367300  0.074700  0.447300  1.0  0.0778
  H  H93  1  0.461500  0.154000  0.280000  1.0  0.1001
  H  H94  1  0.199800  0.697400  0.458600  1.0  0.065
  H  H95  1  0.266600  0.555000  0.445800  1.0  0.1294
  H  H96  1  0.526800  0.691900  0.438200  1.0  0.1264
  H  H97  1  0.442800  0.835100  0.452900  1.0  0.0669
  H  H98  1  0.413900  0.453300  0.428900  1.0  0.099
  H  H99  1  0.302900  0.702700  0.942900  1.0  0.3083
  H  H100  1  0.453900  0.756600  0.900300  1.0  0.0497
  H  H101  1  0.419100  0.556300  0.894600  1.0  0.1207
  H  H102  1  0.482300  0.616200  0.855000  1.0  0.1012
  H  H103  1  0.369800  0.633400  0.858000  1.0  0.0981
  H  H104  1  0.378600  0.744300  0.137900  1.0  0.0797
  H  H105  1  0.442600  0.806800  0.213400  1.0  0.1223
  H  H106  1  0.648500  0.932700  0.127300  1.0  0.1073
  H  H107  1  0.574700  0.867300  0.052700  1.0  0.0779
  H  H108  1  0.654000  0.961500  0.220000  1.0  0.0999
  H  H109  1  0.197400  0.699800  0.041400  1.0  0.0641
  H  H110  1  0.055000  0.766600  0.054200  1.0  0.1295
  H  H111  1  0.191900  0.026800  0.061800  1.0  0.1269
  H  H112  1  0.335100  0.942800  0.047100  1.0  0.0672
  H  H113  1  0.953300  0.913900  0.071100  1.0  0.0988
  H  H114  1  0.697100  0.297300  0.942900  1.0  0.3086
  H  H115  1  0.546100  0.243400  0.900300  1.0  0.0466
  H  H116  1  0.580900  0.443700  0.894600  1.0  0.1218
  H  H117  1  0.517700  0.383800  0.855000  1.0  0.1003
  H  H118  1  0.630200  0.366600  0.858000  1.0  0.1003
  H  H119  1  0.621400  0.255700  0.137900  1.0  0.0799
  H  H120  1  0.557400  0.193200  0.213400  1.0  0.1222
  H  H121  1  0.351500  0.067300  0.127300  1.0  0.1063
  H  H122  1  0.425300  0.132700  0.052700  1.0  0.0777
  H  H123  1  0.346000  0.038500  0.220000  1.0  0.0994
  H  H124  1  0.802600  0.300200  0.041400  1.0  0.0635
  H  H125  1  0.945000  0.233400  0.054200  1.0  0.1293
  H  H126  1  0.808100  0.973200  0.061800  1.0  0.1272
  H  H127  1  0.664900  0.057200  0.047100  1.0  0.0665
  H  H128  1  0.046700  0.086100  0.071100  1.0  0.0987
  C  C129  1  0.039500  0.828900  0.451300  1.0  0.6221
  C  C130  1  0.942500  0.804800  0.418800  1.0  0.1235
  C  C131  1  0.927000  0.881600  0.377900  1.0  -0.3495
  C  C132  1  0.933400  0.716300  0.635700  1.0  0.1519
  C  C133  1  0.972000  0.680100  0.681400  1.0  -0.2191
  C  C134  1  0.056800  0.622700  0.679000  1.0  0.1281
  C  C135  1  0.093100  0.605500  0.630900  1.0  -0.21
  C  C136  1  0.048000  0.645000  0.585600  1.0  0.1397
  C  C137  1  0.104200  0.583000  0.725500  1.0  -0.1421
  C  C138  1  0.695800  0.733000  0.544900  1.0  0.1673
  C  C139  1  0.610300  0.694500  0.553400  1.0  -0.2289
  C  C140  1  0.603100  0.594300  0.561500  1.0  0.1197
  C  C141  1  0.691400  0.540400  0.557900  1.0  -0.227
  C  C142  1  0.777100  0.591900  0.548200  1.0  0.1408
  C  C143  1  0.507400  0.546200  0.567200  1.0  -0.1404
  C  C144  1  0.960500  0.171100  0.451300  1.0  0.6222
  C  C145  1  0.057500  0.195200  0.418800  1.0  0.1228
  C  C146  1  0.073000  0.118400  0.377900  1.0  -0.3489
  C  C147  1  0.066600  0.283700  0.635700  1.0  0.1526
  C  C148  1  0.028000  0.319900  0.681400  1.0  -0.2169
  C  C149  1  0.943200  0.377300  0.679000  1.0  0.1282
  C  C150  1  0.906900  0.394500  0.630900  1.0  -0.2077
  C  C151  1  0.952000  0.355000  0.585600  1.0  0.1402
  C  C152  1  0.895800  0.417000  0.725500  1.0  -0.1413
  C  C153  1  0.304200  0.267000  0.544900  1.0  0.1689
  C  C154  1  0.389700  0.305500  0.553400  1.0  -0.2269
  C  C155  1  0.396900  0.405700  0.561500  1.0  0.1189
  C  C156  1  0.308600  0.459600  0.557900  1.0  -0.2295
  C  C157  1  0.222900  0.408100  0.548200  1.0  0.1421
  C  C158  1  0.492600  0.453800  0.567200  1.0  -0.1394
  C  C159  1  0.328900  0.539500  0.048700  1.0  0.6225
  C  C160  1  0.304800  0.442500  0.081200  1.0  0.1217
  C  C161  1  0.381600  0.427000  0.122100  1.0  -0.3508
  C  C162  1  0.216300  0.433400  0.864300  1.0  0.1501
  C  C163  1  0.180100  0.472000  0.818600  1.0  -0.2179
  C  C164  1  0.122700  0.556800  0.821000  1.0  0.1285
  C  C165  1  0.105500  0.593100  0.869100  1.0  -0.209
  C  C166  1  0.145000  0.548000  0.914400  1.0  0.1403
  C  C167  1  0.083000  0.604200  0.774500  1.0  -0.1419
  C  C168  1  0.233000  0.195800  0.955100  1.0  0.1673
  C  C169  1  0.194500  0.110300  0.946600  1.0  -0.2226
  C  C170  1  0.094300  0.103100  0.938500  1.0  0.1172
  C  C171  1  0.040400  0.191400  0.942100  1.0  -0.2304
  C  C172  1  0.091900  0.277100  0.951800  1.0  0.1437
  C  C173  1  0.046200  0.007400  0.932800  1.0  -0.1415
  C  C174  1  0.671100  0.460500  0.048700  1.0  0.6229
  C  C175  1  0.695200  0.557500  0.081200  1.0  0.1224
  C  C176  1  0.618400  0.573000  0.122100  1.0  -0.3496
  C  C177  1  0.783700  0.566600  0.864300  1.0  0.1515
  C  C178  1  0.819900  0.528000  0.818600  1.0  -0.2192
  C  C179  1  0.877300  0.443200  0.821000  1.0  0.1274
  C  C180  1  0.894500  0.406900  0.869100  1.0  -0.2108
  C  C181  1  0.855000  0.452000  0.914400  1.0  0.1407
  C  C182  1  0.917000  0.395800  0.774500  1.0  -0.1425
  C  C183  1  0.767000  0.804200  0.955100  1.0  0.1683
  C  C184  1  0.805500  0.889700  0.946600  1.0  -0.225
  C  C185  1  0.905700  0.896900  0.938500  1.0  0.1178
  C  C186  1  0.959600  0.808600  0.942100  1.0  -0.2311
  C  C187  1  0.908100  0.722900  0.951800  1.0  0.1426
  C  C188  1  0.953800  0.992600  0.932800  1.0  -0.1412
  C  C189  1  0.828900  0.960500  0.548700  1.0  0.6228
  C  C190  1  0.804800  0.057500  0.581200  1.0  0.1218
  C  C191  1  0.881600  0.073000  0.622100  1.0  -0.3506
  C  C192  1  0.716300  0.066600  0.364300  1.0  0.1506
  C  C193  1  0.680100  0.028000  0.318600  1.0  -0.219
  C  C194  1  0.622700  0.943200  0.321000  1.0  0.1288
  C  C195  1  0.605500  0.906900  0.369100  1.0  -0.211
  C  C196  1  0.645000  0.952000  0.414400  1.0  0.1408
  C  C197  1  0.583000  0.895800  0.274500  1.0  -0.1415
  C  C198  1  0.733000  0.304200  0.455100  1.0  0.1673
  C  C199  1  0.694500  0.389700  0.446600  1.0  -0.2236
  C  C200  1  0.594300  0.396900  0.438500  1.0  0.1179
  C  C201  1  0.540400  0.308600  0.442100  1.0  -0.2306
  C  C202  1  0.591900  0.222900  0.451800  1.0  0.1434
  C  C203  1  0.546200  0.492600  0.432800  1.0  -0.142
  C  C204  1  0.171100  0.039500  0.548700  1.0  0.6223
  C  C205  1  0.195200  0.942500  0.581200  1.0  0.1228
  C  C206  1  0.118400  0.927000  0.622100  1.0  -0.3499
  C  C207  1  0.283700  0.933400  0.364300  1.0  0.1515
  C  C208  1  0.319900  0.972000  0.318600  1.0  -0.219
  C  C209  1  0.377300  0.056800  0.321000  1.0  0.1271
  C  C210  1  0.394500  0.093100  0.369100  1.0  -0.2084
  C  C211  1  0.355000  0.048000  0.414400  1.0  0.1403
  C  C212  1  0.417000  0.104200  0.274500  1.0  -0.1421
  C  C213  1  0.267000  0.695800  0.455100  1.0  0.168
  C  C214  1  0.305500  0.610300  0.446600  1.0  -0.2246
  C  C215  1  0.405700  0.603100  0.438500  1.0  0.1172
  C  C216  1  0.459600  0.691400  0.442100  1.0  -0.2311
  C  C217  1  0.408100  0.777100  0.451800  1.0  0.1428
  C  C218  1  0.453800  0.507400  0.432800  1.0  -0.141
  C  C219  1  0.539500  0.671100  0.951300  1.0  0.6228
  C  C220  1  0.442500  0.695200  0.918800  1.0  0.1231
  C  C221  1  0.427000  0.618400  0.877900  1.0  -0.3484
  C  C222  1  0.433400  0.783700  0.135700  1.0  0.153
  C  C223  1  0.472000  0.819900  0.181400  1.0  -0.2181
  C  C224  1  0.556800  0.877300  0.179000  1.0  0.1287
  C  C225  1  0.593100  0.894500  0.130900  1.0  -0.2093
  C  C226  1  0.548000  0.855000  0.085600  1.0  0.1398
  C  C227  1  0.604200  0.917000  0.225500  1.0  -0.1424
  C  C228  1  0.195800  0.767000  0.044900  1.0  0.1686
  C  C229  1  0.110300  0.805500  0.053400  1.0  -0.2279
  C  C230  1  0.103100  0.905700  0.061500  1.0  0.1188
  C  C231  1  0.191400  0.959600  0.057900  1.0  -0.2293
  C  C232  1  0.277100  0.908100  0.048200  1.0  0.1413
  C  C233  1  0.007400  0.953800  0.067200  1.0  -0.1402
  C  C234  1  0.460500  0.328900  0.951300  1.0  0.6215
  C  C235  1  0.557500  0.304800  0.918800  1.0  0.1227
  C  C236  1  0.573000  0.381600  0.877900  1.0  -0.3501
  C  C237  1  0.566600  0.216300  0.135700  1.0  0.1515
  C  C238  1  0.528000  0.180100  0.181400  1.0  -0.2173
  C  C239  1  0.443200  0.122700  0.179000  1.0  0.1277
  C  C240  1  0.406900  0.105500  0.130900  1.0  -0.2087
  C  C241  1  0.452000  0.145000  0.085600  1.0  0.1401
  C  C242  1  0.395800  0.083000  0.225500  1.0  -0.1413
  C  C243  1  0.804200  0.233000  0.044900  1.0  0.1674
  C  C244  1  0.889700  0.194500  0.053400  1.0  -0.2272
  C  C245  1  0.896900  0.094300  0.061500  1.0  0.1198
  C  C246  1  0.808600  0.040400  0.057900  1.0  -0.2273
  C  C247  1  0.722900  0.091900  0.048200  1.0  0.1417
  C  C248  1  0.992600  0.046200  0.067200  1.0  -0.1391
  N  N249  1  0.969600  0.698400  0.589200  1.0  -0.2963
  N  N250  1  0.780900  0.687300  0.540500  1.0  -0.329
  N  N251  1  0.862600  0.790200  0.452000  1.0  -0.7079
  N  N252  1  0.030400  0.301600  0.589200  1.0  -0.2963
  N  N253  1  0.219100  0.312700  0.540500  1.0  -0.3315
  N  N254  1  0.137400  0.209800  0.452000  1.0  -0.7098
  N  N255  1  0.198400  0.469600  0.910800  1.0  -0.2951
  N  N256  1  0.187300  0.280900  0.959500  1.0  -0.3304
  N  N257  1  0.290200  0.362600  0.048000  1.0  -0.7098
  N  N258  1  0.801600  0.530400  0.910800  1.0  -0.2959
  N  N259  1  0.812700  0.719100  0.959500  1.0  -0.3305
  N  N260  1  0.709800  0.637400  0.048000  1.0  -0.7145
  N  N261  1  0.698400  0.030400  0.410800  1.0  -0.2956
  N  N262  1  0.687300  0.219100  0.459500  1.0  -0.3299
  N  N263  1  0.790200  0.137400  0.548000  1.0  -0.7134
  N  N264  1  0.301600  0.969600  0.410800  1.0  -0.2957
  N  N265  1  0.312700  0.780900  0.459500  1.0  -0.3309
  N  N266  1  0.209800  0.862600  0.548000  1.0  -0.7125
  N  N267  1  0.469600  0.801600  0.089200  1.0  -0.2966
  N  N268  1  0.280900  0.812700  0.040500  1.0  -0.3288
  N  N269  1  0.362600  0.709800  0.952000  1.0  -0.7041
  N  N270  1  0.530400  0.198400  0.089200  1.0  -0.2962
  N  N271  1  0.719100  0.187300  0.040500  1.0  -0.3317
  N  N272  1  0.637400  0.290200  0.952000  1.0  -0.7141
  O  O273  1  0.030300  0.798300  0.499300  1.0  -0.5684
  O  O274  1  0.109400  0.863900  0.431800  1.0  -0.5259
  O  O275  1  0.969700  0.201700  0.499300  1.0  -0.5687
  O  O276  1  0.890600  0.136100  0.431800  1.0  -0.5251
  O  O277  1  0.298300  0.530300  0.000700  1.0  -0.5681
  O  O278  1  0.363900  0.609400  0.068200  1.0  -0.528
  O  O279  1  0.701700  0.469700  0.000700  1.0  -0.5682
  O  O280  1  0.636100  0.390600  0.068200  1.0  -0.5276
  O  O281  1  0.798300  0.969700  0.500700  1.0  -0.5681
  O  O282  1  0.863900  0.890600  0.568200  1.0  -0.5286
  O  O283  1  0.201700  0.030300  0.500700  1.0  -0.5683
  O  O284  1  0.136100  0.109400  0.568200  1.0  -0.5271
  O  O285  1  0.530300  0.701700  0.999300  1.0  -0.5685
  O  O286  1  0.609400  0.636100  0.931800  1.0  -0.5254
  O  O287  1  0.469700  0.298300  0.999300  1.0  -0.5685
  O  O288  1  0.390600  0.363900  0.931800  1.0  -0.5259
