# generated using pymatgen
data_NiH15C15N3O2
_symmetry_space_group_name_H-M   'P 1'
_cell_length_a   13.73270000
_cell_length_b   13.73270000
_cell_length_c   25.46600000
_cell_angle_alpha   90.00000000
_cell_angle_beta   90.00000000
_cell_angle_gamma   90.00000000
_symmetry_Int_Tables_number   1
_chemical_formula_structural   NiH15C15N3O2
_chemical_formula_sum   'Ni8 H120 C120 N24 O16'
_cell_volume   4802.55779722
_cell_formula_units_Z   8
loop_
 _symmetry_equiv_pos_site_id
 _symmetry_equiv_pos_as_xyz
  1  'x, y, z'
loop_
 _atom_site_type_symbol
 _atom_site_label
 _atom_site_symmetry_multiplicity
 _atom_site_fract_x
 _atom_site_fract_y
 _atom_site_fract_z
 _atom_site_occupancy
 _atom_site_charge
  Ni  Ni1  1  0.252310  0.405850  0.523720  1.0  0.4461
  Ni  Ni2  1  0.747690  0.594150  0.523720  1.0  0.4471
  Ni  Ni3  1  0.905850  0.752310  0.976280  1.0  0.4466
  Ni  Ni4  1  0.094150  0.247690  0.976280  1.0  0.4476
  Ni  Ni5  1  0.405850  0.747690  0.476280  1.0  0.4471
  Ni  Ni6  1  0.594150  0.252310  0.476280  1.0  0.4471
  Ni  Ni7  1  0.752310  0.094150  0.023720  1.0  0.446
  Ni  Ni8  1  0.247690  0.905850  0.023720  1.0  0.4473
  H  H9  1  0.294700  0.301000  0.442900  1.0  0.2904
  H  H10  1  0.248600  0.455100  0.413600  1.0  0.0776
  H  H11  1  0.327700  0.505000  0.357200  1.0  0.123
  H  H12  1  0.404500  0.422200  0.366100  1.0  0.1003
  H  H13  1  0.296200  0.395600  0.352900  1.0  0.11
  H  H14  1  0.117000  0.568300  0.551600  1.0  0.0923
  H  H15  1  0.074300  0.653200  0.626600  1.0  0.1035
  H  H16  1  0.193600  0.442000  0.714600  1.0  0.1351
  H  H17  1  0.248500  0.380000  0.635700  1.0  0.0604
  H  H18  1  0.040600  0.652500  0.719400  1.0  0.0883
  H  H19  1  0.054400  0.331900  0.538500  1.0  0.0772
  H  H20  1  0.971600  0.184200  0.567600  1.0  0.1352
  H  H21  1  0.235100  0.047000  0.562400  1.0  0.1438
  H  H22  1  0.306400  0.196700  0.545800  1.0  0.0856
  H  H23  1  0.088700  0.946600  0.565100  1.0  0.1186
  H  H24  1  0.705300  0.699000  0.442900  1.0  0.2916
  H  H25  1  0.751400  0.544900  0.413600  1.0  0.0777
  H  H26  1  0.672300  0.495000  0.357200  1.0  0.1247
  H  H27  1  0.595500  0.577800  0.366100  1.0  0.1005
  H  H28  1  0.703800  0.604400  0.352900  1.0  0.1112
  H  H29  1  0.883000  0.431700  0.551600  1.0  0.0932
  H  H30  1  0.925700  0.346800  0.626600  1.0  0.1031
  H  H31  1  0.806400  0.558000  0.714600  1.0  0.1353
  H  H32  1  0.751500  0.620000  0.635700  1.0  0.0617
  H  H33  1  0.959400  0.347500  0.719400  1.0  0.0875
  H  H34  1  0.945600  0.668100  0.538500  1.0  0.079
  H  H35  1  0.028400  0.815800  0.567600  1.0  0.1357
  H  H36  1  0.764900  0.953000  0.562400  1.0  0.1443
  H  H37  1  0.693600  0.803300  0.545800  1.0  0.0845
  H  H38  1  0.911300  0.053400  0.565100  1.0  0.1182
  H  H39  1  0.801000  0.794700  0.057100  1.0  0.2902
  H  H40  1  0.955100  0.748600  0.086400  1.0  0.078
  H  H41  1  0.005000  0.827700  0.142800  1.0  0.1247
  H  H42  1  0.922200  0.904500  0.133900  1.0  0.102
  H  H43  1  0.895600  0.796200  0.147100  1.0  0.1118
  H  H44  1  0.068300  0.617000  0.948400  1.0  0.0926
  H  H45  1  0.153200  0.574300  0.873400  1.0  0.1041
  H  H46  1  0.942000  0.693600  0.785400  1.0  0.1361
  H  H47  1  0.880000  0.748500  0.864300  1.0  0.061
  H  H48  1  0.152500  0.540600  0.780600  1.0  0.0888
  H  H49  1  0.831900  0.554400  0.961500  1.0  0.0775
  H  H50  1  0.684200  0.471600  0.932400  1.0  0.1352
  H  H51  1  0.547000  0.735100  0.937600  1.0  0.144
  H  H52  1  0.696700  0.806400  0.954200  1.0  0.085
  H  H53  1  0.446600  0.588700  0.934900  1.0  0.1185
  H  H54  1  0.199000  0.205300  0.057100  1.0  0.2909
  H  H55  1  0.044900  0.251400  0.086400  1.0  0.0785
  H  H56  1  0.995000  0.172300  0.142800  1.0  0.1251
  H  H57  1  0.077800  0.095500  0.133900  1.0  0.1012
  H  H58  1  0.104400  0.203800  0.147100  1.0  0.1118
  H  H59  1  0.931700  0.383000  0.948400  1.0  0.0928
  H  H60  1  0.846800  0.425700  0.873400  1.0  0.1033
  H  H61  1  0.058000  0.306400  0.785400  1.0  0.1358
  H  H62  1  0.120000  0.251500  0.864300  1.0  0.0613
  H  H63  1  0.847500  0.459400  0.780600  1.0  0.0894
  H  H64  1  0.168100  0.445600  0.961500  1.0  0.0786
  H  H65  1  0.315800  0.528400  0.932400  1.0  0.1378
  H  H66  1  0.453000  0.264900  0.937600  1.0  0.1435
  H  H67  1  0.303300  0.193600  0.954200  1.0  0.0861
  H  H68  1  0.553400  0.411300  0.934900  1.0  0.1188
  H  H69  1  0.301000  0.705300  0.557100  1.0  0.2901
  H  H70  1  0.455100  0.751400  0.586400  1.0  0.0778
  H  H71  1  0.505000  0.672300  0.642800  1.0  0.1244
  H  H72  1  0.422200  0.595500  0.633900  1.0  0.1008
  H  H73  1  0.395600  0.703800  0.647100  1.0  0.1109
  H  H74  1  0.568300  0.883000  0.448400  1.0  0.0927
  H  H75  1  0.653200  0.925700  0.373400  1.0  0.1039
  H  H76  1  0.442000  0.806400  0.285400  1.0  0.136
  H  H77  1  0.380000  0.751500  0.364300  1.0  0.0617
  H  H78  1  0.652500  0.959400  0.280600  1.0  0.0883
  H  H79  1  0.331900  0.945600  0.461500  1.0  0.0775
  H  H80  1  0.184200  0.028400  0.432400  1.0  0.135
  H  H81  1  0.047000  0.764900  0.437600  1.0  0.1437
  H  H82  1  0.196700  0.693600  0.454200  1.0  0.085
  H  H83  1  0.946600  0.911300  0.434900  1.0  0.1175
  H  H84  1  0.699000  0.294700  0.557100  1.0  0.2915
  H  H85  1  0.544900  0.248600  0.586400  1.0  0.0781
  H  H86  1  0.495000  0.327700  0.642800  1.0  0.1258
  H  H87  1  0.577800  0.404500  0.633900  1.0  0.1024
  H  H88  1  0.604400  0.296200  0.647100  1.0  0.1118
  H  H89  1  0.431700  0.117000  0.448400  1.0  0.0927
  H  H90  1  0.346800  0.074300  0.373400  1.0  0.1035
  H  H91  1  0.558000  0.193600  0.285400  1.0  0.1356
  H  H92  1  0.620000  0.248500  0.364300  1.0  0.0618
  H  H93  1  0.347500  0.040600  0.280600  1.0  0.0892
  H  H94  1  0.668100  0.054400  0.461500  1.0  0.0789
  H  H95  1  0.815800  0.971600  0.432400  1.0  0.1378
  H  H96  1  0.953000  0.235100  0.437600  1.0  0.1437
  H  H97  1  0.803300  0.306400  0.454200  1.0  0.0854
  H  H98  1  0.053400  0.088700  0.434900  1.0  0.119
  H  H99  1  0.794700  0.199000  0.942900  1.0  0.2913
  H  H100  1  0.748600  0.044900  0.913600  1.0  0.0774
  H  H101  1  0.827700  0.995000  0.857200  1.0  0.1233
  H  H102  1  0.904500  0.077800  0.866100  1.0  0.1007
  H  H103  1  0.796200  0.104400  0.852900  1.0  0.1106
  H  H104  1  0.617000  0.931700  0.051600  1.0  0.0931
  H  H105  1  0.574300  0.846800  0.126600  1.0  0.1032
  H  H106  1  0.693600  0.058000  0.214600  1.0  0.1348
  H  H107  1  0.748500  0.120000  0.135700  1.0  0.0609
  H  H108  1  0.540600  0.847500  0.219400  1.0  0.0877
  H  H109  1  0.554400  0.168100  0.038500  1.0  0.0779
  H  H110  1  0.471600  0.315800  0.067600  1.0  0.1351
  H  H111  1  0.735100  0.453000  0.062400  1.0  0.1435
  H  H112  1  0.806400  0.303300  0.045800  1.0  0.0852
  H  H113  1  0.588700  0.553400  0.065100  1.0  0.118
  H  H114  1  0.205300  0.801000  0.942900  1.0  0.29
  H  H115  1  0.251400  0.955100  0.913600  1.0  0.0779
  H  H116  1  0.172300  0.005000  0.857200  1.0  0.1247
  H  H117  1  0.095500  0.922200  0.866100  1.0  0.1004
  H  H118  1  0.203800  0.895600  0.852900  1.0  0.1112
  H  H119  1  0.383000  0.068300  0.051600  1.0  0.0922
  H  H120  1  0.425700  0.153200  0.126600  1.0  0.103
  H  H121  1  0.306400  0.942000  0.214600  1.0  0.1359
  H  H122  1  0.251500  0.880000  0.135700  1.0  0.0611
  H  H123  1  0.459400  0.152500  0.219400  1.0  0.0878
  H  H124  1  0.445600  0.831900  0.038500  1.0  0.0779
  H  H125  1  0.528400  0.684200  0.067600  1.0  0.1359
  H  H126  1  0.264900  0.547000  0.062400  1.0  0.1441
  H  H127  1  0.193600  0.696700  0.045800  1.0  0.0847
  H  H128  1  0.411300  0.446600  0.065100  1.0  0.1183
  C  C129  1  0.333500  0.534900  0.450800  1.0  0.5792
  C  C130  1  0.317000  0.440000  0.420100  1.0  0.1522
  C  C131  1  0.338000  0.441000  0.371000  1.0  -0.3759
  C  C132  1  0.137900  0.547100  0.584400  1.0  0.0879
  C  C133  1  0.107200  0.594300  0.629800  1.0  -0.19
  C  C134  1  0.123500  0.557400  0.678900  1.0  0.1265
  C  C135  1  0.179300  0.472300  0.682800  1.0  -0.2482
  C  C136  1  0.211900  0.436900  0.633600  1.0  0.1587
  C  C137  1  0.085100  0.602700  0.725500  1.0  -0.1338
  C  C138  1  0.090900  0.276400  0.545500  1.0  0.1164
  C  C139  1  0.037900  0.184700  0.560300  1.0  -0.2272
  C  C140  1  0.092000  0.103800  0.562300  1.0  0.1084
  C  C141  1  0.198100  0.103200  0.558500  1.0  -0.2191
  C  C142  1  0.238900  0.194200  0.548500  1.0  0.1256
  C  C143  1  0.047100  0.001700  0.566900  1.0  -0.1555
  C  C144  1  0.666500  0.465100  0.450800  1.0  0.5798
  C  C145  1  0.683000  0.560000  0.420100  1.0  0.1575
  C  C146  1  0.662000  0.559000  0.371000  1.0  -0.3749
  C  C147  1  0.862100  0.452900  0.584400  1.0  0.0849
  C  C148  1  0.892800  0.405700  0.629800  1.0  -0.1919
  C  C149  1  0.876500  0.442600  0.678900  1.0  0.1263
  C  C150  1  0.820700  0.527700  0.682800  1.0  -0.2548
  C  C151  1  0.788100  0.563100  0.633600  1.0  0.1574
  C  C152  1  0.914900  0.397300  0.725500  1.0  -0.1348
  C  C153  1  0.909100  0.723600  0.545500  1.0  0.1115
  C  C154  1  0.962100  0.815300  0.560300  1.0  -0.2189
  C  C155  1  0.908000  0.896200  0.562300  1.0  0.1082
  C  C156  1  0.801900  0.896800  0.558500  1.0  -0.2187
  C  C157  1  0.761100  0.805800  0.548500  1.0  0.1265
  C  C158  1  0.952900  0.998300  0.566900  1.0  -0.1569
  C  C159  1  0.034900  0.833500  0.049200  1.0  0.5799
  C  C160  1  0.940000  0.817000  0.079900  1.0  0.1518
  C  C161  1  0.941000  0.838000  0.129000  1.0  -0.3748
  C  C162  1  0.047100  0.637900  0.915600  1.0  0.0845
  C  C163  1  0.094300  0.607200  0.870200  1.0  -0.189
  C  C164  1  0.057400  0.623500  0.821100  1.0  0.126
  C  C165  1  0.972300  0.679300  0.817200  1.0  -0.2524
  C  C166  1  0.936900  0.711900  0.866400  1.0  0.1541
  C  C167  1  0.102700  0.585100  0.774500  1.0  -0.1341
  C  C168  1  0.776400  0.590900  0.954500  1.0  0.1161
  C  C169  1  0.684700  0.537900  0.939700  1.0  -0.2283
  C  C170  1  0.603800  0.592000  0.937700  1.0  0.1107
  C  C171  1  0.603200  0.698100  0.941500  1.0  -0.221
  C  C172  1  0.694200  0.738900  0.951500  1.0  0.1244
  C  C173  1  0.501700  0.547100  0.933100  1.0  -0.1571
  C  C174  1  0.965100  0.166500  0.049200  1.0  0.5778
  C  C175  1  0.060000  0.183000  0.079900  1.0  0.1592
  C  C176  1  0.059000  0.162000  0.129000  1.0  -0.375
  C  C177  1  0.952900  0.362100  0.915600  1.0  0.0855
  C  C178  1  0.905700  0.392800  0.870200  1.0  -0.1873
  C  C179  1  0.942600  0.376500  0.821100  1.0  0.1261
  C  C180  1  0.027700  0.320700  0.817200  1.0  -0.2474
  C  C181  1  0.063100  0.288100  0.866400  1.0  0.1576
  C  C182  1  0.897300  0.414900  0.774500  1.0  -0.131
  C  C183  1  0.223600  0.409100  0.954500  1.0  0.1134
  C  C184  1  0.315300  0.462100  0.939700  1.0  -0.2217
  C  C185  1  0.396200  0.408000  0.937700  1.0  0.1096
  C  C186  1  0.396800  0.301900  0.941500  1.0  -0.2227
  C  C187  1  0.305800  0.261100  0.951500  1.0  0.1261
  C  C188  1  0.498300  0.452900  0.933100  1.0  -0.1568
  C  C189  1  0.534900  0.666500  0.549200  1.0  0.5783
  C  C190  1  0.440000  0.683000  0.579900  1.0  0.1587
  C  C191  1  0.441000  0.662000  0.629000  1.0  -0.3746
  C  C192  1  0.547100  0.862100  0.415600  1.0  0.0849
  C  C193  1  0.594300  0.892800  0.370200  1.0  -0.1886
  C  C194  1  0.557400  0.876500  0.321100  1.0  0.1258
  C  C195  1  0.472300  0.820700  0.317200  1.0  -0.2492
  C  C196  1  0.436900  0.788100  0.366400  1.0  0.1549
  C  C197  1  0.602700  0.914900  0.274500  1.0  -0.1319
  C  C198  1  0.276400  0.909100  0.454500  1.0  0.11
  C  C199  1  0.184700  0.962100  0.439700  1.0  -0.2274
  C  C200  1  0.103800  0.908000  0.437700  1.0  0.1102
  C  C201  1  0.103200  0.801900  0.441500  1.0  -0.2231
  C  C202  1  0.194200  0.761100  0.451500  1.0  0.1242
  C  C203  1  0.001700  0.952900  0.433100  1.0  -0.1563
  C  C204  1  0.465100  0.333500  0.549200  1.0  0.5792
  C  C205  1  0.560000  0.317000  0.579900  1.0  0.1525
  C  C206  1  0.559000  0.338000  0.629000  1.0  -0.375
  C  C207  1  0.452900  0.137900  0.415600  1.0  0.0852
  C  C208  1  0.405700  0.107200  0.370200  1.0  -0.1876
  C  C209  1  0.442600  0.123500  0.321100  1.0  0.1258
  C  C210  1  0.527700  0.179300  0.317200  1.0  -0.2508
  C  C211  1  0.563100  0.211900  0.366400  1.0  0.157
  C  C212  1  0.397300  0.085100  0.274500  1.0  -0.1297
  C  C213  1  0.723600  0.090900  0.454500  1.0  0.1172
  C  C214  1  0.815300  0.037900  0.439700  1.0  -0.2223
  C  C215  1  0.896200  0.092000  0.437700  1.0  0.11
  C  C216  1  0.896800  0.198100  0.441500  1.0  -0.2235
  C  C217  1  0.805800  0.238900  0.451500  1.0  0.1191
  C  C218  1  0.998300  0.047100  0.433100  1.0  -0.1577
  C  C219  1  0.833500  0.965100  0.950800  1.0  0.5803
  C  C220  1  0.817000  0.060000  0.920100  1.0  0.1557
  C  C221  1  0.838000  0.059000  0.871000  1.0  -0.3758
  C  C222  1  0.637900  0.952900  0.084400  1.0  0.0884
  C  C223  1  0.607200  0.905700  0.129800  1.0  -0.1913
  C  C224  1  0.623500  0.942600  0.178900  1.0  0.1262
  C  C225  1  0.679300  0.027700  0.182800  1.0  -0.2502
  C  C226  1  0.711900  0.063100  0.133600  1.0  0.1584
  C  C227  1  0.585100  0.897300  0.225500  1.0  -0.1338
  C  C228  1  0.590900  0.223600  0.045500  1.0  0.1164
  C  C229  1  0.537900  0.315300  0.060300  1.0  -0.2204
  C  C230  1  0.592000  0.396200  0.062300  1.0  0.1077
  C  C231  1  0.698100  0.396800  0.058500  1.0  -0.2166
  C  C232  1  0.738900  0.305800  0.048500  1.0  0.1189
  C  C233  1  0.547100  0.498300  0.066900  1.0  -0.1558
  C  C234  1  0.166500  0.034900  0.950800  1.0  0.5787
  C  C235  1  0.183000  0.940000  0.920100  1.0  0.1571
  C  C236  1  0.162000  0.941000  0.871000  1.0  -0.375
  C  C237  1  0.362100  0.047100  0.084400  1.0  0.0844
  C  C238  1  0.392800  0.094300  0.129800  1.0  -0.1907
  C  C239  1  0.376500  0.057400  0.178900  1.0  0.1266
  C  C240  1  0.320700  0.972300  0.182800  1.0  -0.2531
  C  C241  1  0.288100  0.936900  0.133600  1.0  0.158
  C  C242  1  0.414900  0.102700  0.225500  1.0  -0.1358
  C  C243  1  0.409100  0.776400  0.045500  1.0  0.1116
  C  C244  1  0.462100  0.684700  0.060300  1.0  -0.2253
  C  C245  1  0.408000  0.603800  0.062300  1.0  0.109
  C  C246  1  0.301900  0.603200  0.058500  1.0  -0.2218
  C  C247  1  0.261100  0.694200  0.048500  1.0  0.1252
  C  C248  1  0.452900  0.501700  0.066900  1.0  -0.1571
  N  N249  1  0.294000  0.360900  0.452800  1.0  -0.6246
  N  N250  1  0.200400  0.467800  0.588700  1.0  -0.2155
  N  N251  1  0.188800  0.282400  0.541900  1.0  -0.2511
  N  N252  1  0.706000  0.639100  0.452800  1.0  -0.6255
  N  N253  1  0.799600  0.532200  0.588700  1.0  -0.2159
  N  N254  1  0.811200  0.717600  0.541900  1.0  -0.2511
  N  N255  1  0.860900  0.794000  0.047200  1.0  -0.6265
  N  N256  1  0.967800  0.700400  0.911300  1.0  -0.216
  N  N257  1  0.782400  0.688800  0.958100  1.0  -0.2505
  N  N258  1  0.139100  0.206000  0.047200  1.0  -0.6237
  N  N259  1  0.032200  0.299600  0.911300  1.0  -0.2155
  N  N260  1  0.217600  0.311200  0.958100  1.0  -0.2499
  N  N261  1  0.360900  0.706000  0.547200  1.0  -0.622
  N  N262  1  0.467800  0.799600  0.411300  1.0  -0.2159
  N  N263  1  0.282400  0.811200  0.458100  1.0  -0.2501
  N  N264  1  0.639100  0.294000  0.547200  1.0  -0.6266
  N  N265  1  0.532200  0.200400  0.411300  1.0  -0.2158
  N  N266  1  0.717600  0.188800  0.458100  1.0  -0.2504
  N  N267  1  0.794000  0.139100  0.952800  1.0  -0.6254
  N  N268  1  0.700400  0.032200  0.088700  1.0  -0.2151
  N  N269  1  0.688800  0.217600  0.041900  1.0  -0.251
  N  N270  1  0.206000  0.860900  0.952800  1.0  -0.6225
  N  N271  1  0.299600  0.967800  0.088700  1.0  -0.2161
  N  N272  1  0.311200  0.782400  0.041900  1.0  -0.251
  O  O273  1  0.295200  0.533000  0.497600  1.0  -0.5036
  O  O274  1  0.371500  0.606600  0.434400  1.0  -0.5009
  O  O275  1  0.704800  0.467000  0.497600  1.0  -0.5026
  O  O276  1  0.628500  0.393400  0.434400  1.0  -0.4984
  O  O277  1  0.033000  0.795200  0.002400  1.0  -0.5042
  O  O278  1  0.106600  0.871500  0.065600  1.0  -0.5015
  O  O279  1  0.967000  0.204800  0.002400  1.0  -0.5039
  O  O280  1  0.893400  0.128500  0.065600  1.0  -0.5008
  O  O281  1  0.533000  0.704800  0.502400  1.0  -0.5038
  O  O282  1  0.606600  0.628500  0.565600  1.0  -0.5008
  O  O283  1  0.467000  0.295200  0.502400  1.0  -0.5042
  O  O284  1  0.393400  0.371500  0.565600  1.0  -0.5023
  O  O285  1  0.795200  0.967000  0.997600  1.0  -0.5032
  O  O286  1  0.871500  0.893400  0.934400  1.0  -0.5037
  O  O287  1  0.204800  0.033000  0.997600  1.0  -0.503
  O  O288  1  0.128500  0.106600  0.934400  1.0  -0.4998
