# generated using pymatgen
data_Zn2H10C22NO8
_symmetry_space_group_name_H-M   'P 1'
_cell_length_a   12.49570000
_cell_length_b   15.31630000
_cell_length_c   24.25400000
_cell_angle_alpha   90.00000000
_cell_angle_beta   102.30400000
_cell_angle_gamma   90.00000000
_symmetry_Int_Tables_number   1
_chemical_formula_structural   Zn2H10C22NO8
_chemical_formula_sum   'Zn8 H40 C88 N4 O32'
_cell_volume   4535.30018433
_cell_formula_units_Z   4
loop_
 _symmetry_equiv_pos_site_id
 _symmetry_equiv_pos_as_xyz
  1  'x, y, z'
loop_
 _atom_site_type_symbol
 _atom_site_label
 _atom_site_symmetry_multiplicity
 _atom_site_fract_x
 _atom_site_fract_y
 _atom_site_fract_z
 _atom_site_occupancy
 _atom_site_charge
  Zn  Zn1  1  0.528920  0.530790  0.356350  1.0  1.0742
  Zn  Zn2  1  0.341890  0.678740  0.261340  1.0  0.8884
  Zn  Zn3  1  0.471080  0.030790  0.143650  1.0  1.0742
  Zn  Zn4  1  0.658110  0.178740  0.238660  1.0  0.8907
  Zn  Zn5  1  0.471080  0.469210  0.643650  1.0  1.075
  Zn  Zn6  1  0.658110  0.321260  0.738660  1.0  0.8903
  Zn  Zn7  1  0.528920  0.969210  0.856350  1.0  1.0747
  Zn  Zn8  1  0.341890  0.821260  0.761340  1.0  0.8893
  H  H9  1  0.192000  0.471100  0.175500  1.0  0.1186
  H  H10  1  0.221600  0.229500  0.119400  1.0  0.1047
  H  H11  1  0.437400  0.317700  0.254100  1.0  0.1109
  H  H12  1  0.145200  0.479600  0.070600  1.0  0.108
  H  H13  1  0.853700  0.410000  0.978000  1.0  0.11
  H  H14  1  0.814300  0.243200  0.946000  1.0  0.1133
  H  H15  1  0.598100  0.095000  0.004300  1.0  0.1077
  H  H16  1  0.782100  0.268500  0.106200  1.0  0.1059
  H  H17  1  0.950600  0.197700  0.111200  1.0  0.3376
  H  H18  1  0.059800  0.224200  0.144900  1.0  0.324
  H  H19  1  0.808000  0.971100  0.324500  1.0  0.1179
  H  H20  1  0.778400  0.729500  0.380600  1.0  0.1052
  H  H21  1  0.562600  0.817700  0.245900  1.0  0.1106
  H  H22  1  0.854800  0.979600  0.429400  1.0  0.1075
  H  H23  1  0.146300  0.910000  0.522000  1.0  0.1102
  H  H24  1  0.185700  0.743200  0.554000  1.0  0.1136
  H  H25  1  0.401900  0.595000  0.495700  1.0  0.1083
  H  H26  1  0.217900  0.768500  0.393800  1.0  0.1061
  H  H27  1  0.049400  0.697700  0.388800  1.0  0.3355
  H  H28  1  0.940200  0.724200  0.355100  1.0  0.3232
  H  H29  1  0.808000  0.528900  0.824500  1.0  0.1185
  H  H30  1  0.778400  0.770500  0.880600  1.0  0.1048
  H  H31  1  0.562600  0.682300  0.745900  1.0  0.1108
  H  H32  1  0.854800  0.520400  0.929400  1.0  0.1073
  H  H33  1  0.146300  0.590000  0.022000  1.0  0.1103
  H  H34  1  0.185700  0.756800  0.054000  1.0  0.1137
  H  H35  1  0.401900  0.905000  0.995700  1.0  0.1078
  H  H36  1  0.217900  0.731500  0.893800  1.0  0.1066
  H  H37  1  0.049400  0.802300  0.888800  1.0  0.335
  H  H38  1  0.940200  0.775800  0.855100  1.0  0.3234
  H  H39  1  0.192000  0.028900  0.675500  1.0  0.1182
  H  H40  1  0.221600  0.270500  0.619400  1.0  0.1041
  H  H41  1  0.437400  0.182300  0.754100  1.0  0.1107
  H  H42  1  0.145200  0.020400  0.570600  1.0  0.1077
  H  H43  1  0.853700  0.090000  0.478000  1.0  0.11
  H  H44  1  0.814300  0.256800  0.446000  1.0  0.1131
  H  H45  1  0.598100  0.405000  0.504300  1.0  0.1075
  H  H46  1  0.782100  0.231500  0.606200  1.0  0.1065
  H  H47  1  0.950600  0.302300  0.611200  1.0  0.3374
  H  H48  1  0.059800  0.275800  0.644900  1.0  0.323
  C  C49  1  0.366000  0.477700  0.260120  1.0  0.7315
  C  C50  1  0.322720  0.405250  0.220710  1.0  -0.1376
  C  C51  1  0.228500  0.417780  0.178420  1.0  -0.0493
  C  C52  1  0.189470  0.351310  0.140960  1.0  0.0231
  C  C53  1  0.246000  0.273890  0.145110  1.0  -0.1131
  C  C54  1  0.339900  0.260790  0.187500  1.0  -0.1395
  C  C55  1  0.376200  0.326550  0.225290  1.0  0.0003
  C  C56  1  0.404500  0.177720  0.189450  1.0  0.7089
  C  C57  1  0.090560  0.367280  0.094890  1.0  -0.0582
  C  C58  1  0.086920  0.440630  0.062280  1.0  -0.0906
  C  C59  1  0.000320  0.460040  0.017250  1.0  0.0439
  C  C60  1  0.913180  0.399680  0.007630  1.0  -0.0777
  C  C61  1  0.912350  0.325870  0.040320  1.0  -0.0436
  C  C62  1  0.001600  0.307600  0.085020  1.0  0.1162
  C  C63  1  0.817010  0.263710  0.028620  1.0  0.0511
  C  C64  1  0.782100  0.226220  0.975520  1.0  -0.0639
  C  C65  1  0.699100  0.163380  0.966080  1.0  -0.1504
  C  C66  1  0.650900  0.138750  0.009910  1.0  0.0182
  C  C67  1  0.680700  0.178750  0.062360  1.0  -0.1539
  C  C68  1  0.762800  0.241150  0.071210  1.0  -0.0917
  C  C69  1  0.662800  0.119770  0.909160  1.0  0.7035
  C  C70  1  0.628300  0.151300  0.109500  1.0  0.7289
  C  C71  1  0.634000  0.977700  0.239880  1.0  0.7316
  C  C72  1  0.677280  0.905250  0.279290  1.0  -0.1379
  C  C73  1  0.771500  0.917780  0.321580  1.0  -0.0493
  C  C74  1  0.810530  0.851310  0.359040  1.0  0.0233
  C  C75  1  0.754000  0.773890  0.354890  1.0  -0.1143
  C  C76  1  0.660100  0.760790  0.312500  1.0  -0.1394
  C  C77  1  0.623800  0.826550  0.274710  1.0  0.0008
  C  C78  1  0.595500  0.677720  0.310550  1.0  0.7094
  C  C79  1  0.909440  0.867280  0.405110  1.0  -0.0579
  C  C80  1  0.913080  0.940630  0.437720  1.0  -0.0922
  C  C81  1  0.999680  0.960040  0.482750  1.0  0.0443
  C  C82  1  0.086820  0.899680  0.492370  1.0  -0.0774
  C  C83  1  0.087650  0.825870  0.459680  1.0  -0.0431
  C  C84  1  0.998400  0.807600  0.414980  1.0  0.1163
  C  C85  1  0.182990  0.763710  0.471380  1.0  0.0499
  C  C86  1  0.217900  0.726220  0.524480  1.0  -0.0648
  C  C87  1  0.300900  0.663380  0.533920  1.0  -0.1503
  C  C88  1  0.349100  0.638750  0.490090  1.0  0.0171
  C  C89  1  0.319300  0.678750  0.437640  1.0  -0.1527
  C  C90  1  0.237200  0.741150  0.428790  1.0  -0.093
  C  C91  1  0.337200  0.619770  0.590840  1.0  0.7027
  C  C92  1  0.371700  0.651300  0.390500  1.0  0.7282
  C  C93  1  0.634000  0.522300  0.739880  1.0  0.7316
  C  C94  1  0.677280  0.594750  0.779290  1.0  -0.1388
  C  C95  1  0.771500  0.582220  0.821580  1.0  -0.0484
  C  C96  1  0.810530  0.648690  0.859040  1.0  0.0231
  C  C97  1  0.754000  0.726110  0.854890  1.0  -0.1142
  C  C98  1  0.660100  0.739210  0.812500  1.0  -0.1387
  C  C99  1  0.623800  0.673450  0.774710  1.0  0.0011
  C  C100  1  0.595500  0.822280  0.810550  1.0  0.7096
  C  C101  1  0.909440  0.632720  0.905110  1.0  -0.0578
  C  C102  1  0.913080  0.559370  0.937720  1.0  -0.092
  C  C103  1  0.999680  0.539960  0.982750  1.0  0.0441
  C  C104  1  0.086820  0.600320  0.992370  1.0  -0.0798
  C  C105  1  0.087650  0.674130  0.959680  1.0  -0.043
  C  C106  1  0.998400  0.692400  0.914980  1.0  0.1164
  C  C107  1  0.182990  0.736290  0.971380  1.0  0.0501
  C  C108  1  0.217900  0.773780  0.024480  1.0  -0.0649
  C  C109  1  0.300900  0.836620  0.033920  1.0  -0.1503
  C  C110  1  0.349100  0.861250  0.990090  1.0  0.0161
  C  C111  1  0.319300  0.821250  0.937640  1.0  -0.1525
  C  C112  1  0.237200  0.758850  0.928790  1.0  -0.0932
  C  C113  1  0.337200  0.880230  0.090840  1.0  0.7031
  C  C114  1  0.371700  0.848700  0.890500  1.0  0.7284
  C  C115  1  0.366000  0.022300  0.760120  1.0  0.7314
  C  C116  1  0.322720  0.094750  0.720710  1.0  -0.1377
  C  C117  1  0.228500  0.082220  0.678420  1.0  -0.0493
  C  C118  1  0.189470  0.148690  0.640960  1.0  0.023
  C  C119  1  0.246000  0.226110  0.645110  1.0  -0.1124
  C  C120  1  0.339900  0.239210  0.687500  1.0  -0.1393
  C  C121  1  0.376200  0.173450  0.725290  1.0  0.0005
  C  C122  1  0.404500  0.322280  0.689450  1.0  0.7093
  C  C123  1  0.090560  0.132720  0.594890  1.0  -0.0581
  C  C124  1  0.086920  0.059370  0.562280  1.0  -0.0908
  C  C125  1  0.000320  0.039960  0.517250  1.0  0.0435
  C  C126  1  0.913180  0.100320  0.507630  1.0  -0.0805
  C  C127  1  0.912350  0.174130  0.540320  1.0  -0.0439
  C  C128  1  0.001600  0.192400  0.585020  1.0  0.1161
  C  C129  1  0.817010  0.236290  0.528620  1.0  0.0511
  C  C130  1  0.782100  0.273780  0.475520  1.0  -0.0642
  C  C131  1  0.699100  0.336620  0.466080  1.0  -0.1503
  C  C132  1  0.650900  0.361250  0.509910  1.0  0.0175
  C  C133  1  0.680700  0.321250  0.562360  1.0  -0.1537
  C  C134  1  0.762800  0.258850  0.571210  1.0  -0.0919
  C  C135  1  0.662800  0.380230  0.409160  1.0  0.7038
  C  C136  1  0.628300  0.348700  0.609500  1.0  0.7291
  N  N137  1  0.004300  0.233930  0.117800  1.0  -0.708
  N  N138  1  0.995700  0.733930  0.382200  1.0  -0.7074
  N  N139  1  0.995700  0.766070  0.882200  1.0  -0.7059
  N  N140  1  0.004300  0.266070  0.617800  1.0  -0.7062
  O  O141  1  0.455560  0.461410  0.294520  1.0  -0.6002
  O  O142  1  0.314700  0.547110  0.256780  1.0  -0.6232
  O  O143  1  0.487370  0.167750  0.228200  1.0  -0.6305
  O  O144  1  0.370030  0.122330  0.151500  1.0  -0.5727
  O  O145  1  0.644300  0.195440  0.152840  1.0  -0.6315
  O  O146  1  0.570250  0.082370  0.100720  1.0  -0.6227
  O  O147  1  0.610910  0.049080  0.911160  1.0  -0.6204
  O  O148  1  0.682800  0.153240  0.866120  1.0  -0.4427
  O  O149  1  0.544440  0.961410  0.205480  1.0  -0.6008
  O  O150  1  0.685300  0.047110  0.243220  1.0  -0.6239
  O  O151  1  0.512630  0.667750  0.271800  1.0  -0.6325
  O  O152  1  0.629970  0.622330  0.348500  1.0  -0.5733
  O  O153  1  0.355700  0.695440  0.347160  1.0  -0.6319
  O  O154  1  0.429750  0.582370  0.399280  1.0  -0.6218
  O  O155  1  0.389090  0.549080  0.588840  1.0  -0.6214
  O  O156  1  0.317200  0.653240  0.633880  1.0  -0.4448
  O  O157  1  0.544440  0.538590  0.705480  1.0  -0.6007
  O  O158  1  0.685300  0.452890  0.743220  1.0  -0.6232
  O  O159  1  0.512630  0.832250  0.771800  1.0  -0.6319
  O  O160  1  0.629970  0.877670  0.848500  1.0  -0.5751
  O  O161  1  0.355700  0.804560  0.847160  1.0  -0.632
  O  O162  1  0.429750  0.917630  0.899280  1.0  -0.625
  O  O163  1  0.389090  0.950920  0.088840  1.0  -0.6201
  O  O164  1  0.317200  0.846760  0.133880  1.0  -0.4441
  O  O165  1  0.455560  0.038590  0.794520  1.0  -0.6009
  O  O166  1  0.314700  0.952890  0.756780  1.0  -0.6232
  O  O167  1  0.487370  0.332250  0.728200  1.0  -0.6303
  O  O168  1  0.370030  0.377670  0.651500  1.0  -0.5745
  O  O169  1  0.644300  0.304560  0.652840  1.0  -0.6323
  O  O170  1  0.570250  0.417630  0.600720  1.0  -0.626
  O  O171  1  0.610910  0.450920  0.411160  1.0  -0.6191
  O  O172  1  0.682800  0.346760  0.366120  1.0  -0.4427
