# generated using pymatgen
data_Cd2H9C23O10
_symmetry_space_group_name_H-M   'P 1'
_cell_length_a   29.21800000
_cell_length_b   11.19120000
_cell_length_c   22.98330000
_cell_angle_alpha   90.00000000
_cell_angle_beta   90.00000000
_cell_angle_gamma   90.00000000
_symmetry_Int_Tables_number   1
_chemical_formula_structural   Cd2H9C23O10
_chemical_formula_sum   'Cd16 H72 C184 O80'
_cell_volume   7515.18243596
_cell_formula_units_Z   8
loop_
 _symmetry_equiv_pos_site_id
 _symmetry_equiv_pos_as_xyz
  1  'x, y, z'
loop_
 _atom_site_type_symbol
 _atom_site_label
 _atom_site_symmetry_multiplicity
 _atom_site_fract_x
 _atom_site_fract_y
 _atom_site_fract_z
 _atom_site_occupancy
 _atom_site_charge
  Cd  Cd1  1  0.114800  0.543110  0.191350  1.0  1.1175
  Cd  Cd2  1  0.061840  0.753610  0.093480  1.0  1.0577
  Cd  Cd3  1  0.385200  0.956890  0.191350  1.0  1.113
  Cd  Cd4  1  0.438160  0.746390  0.093480  1.0  1.0557
  Cd  Cd5  1  0.885200  0.043110  0.308650  1.0  1.1171
  Cd  Cd6  1  0.938160  0.253610  0.406520  1.0  1.0567
  Cd  Cd7  1  0.614800  0.456890  0.308650  1.0  1.1145
  Cd  Cd8  1  0.561840  0.246390  0.406520  1.0  1.0573
  Cd  Cd9  1  0.885200  0.456890  0.808650  1.0  1.1136
  Cd  Cd10  1  0.938160  0.246390  0.906520  1.0  1.0559
  Cd  Cd11  1  0.614800  0.043110  0.808650  1.0  1.1189
  Cd  Cd12  1  0.561840  0.253610  0.906520  1.0  1.0582
  Cd  Cd13  1  0.114800  0.956890  0.691350  1.0  1.1147
  Cd  Cd14  1  0.061840  0.746390  0.593480  1.0  1.057
  Cd  Cd15  1  0.385200  0.543110  0.691350  1.0  1.1188
  Cd  Cd16  1  0.438160  0.753610  0.593480  1.0  1.0561
  H  H17  1  0.233600  0.569200  0.034300  1.0  0.1325
  H  H18  1  0.202000  0.588900  0.865300  1.0  0.1186
  H  H19  1  0.102600  0.566600  0.984400  1.0  0.1294
  H  H20  1  0.399700  0.598100  0.895800  1.0  0.1254
  H  H21  1  0.298800  0.627200  0.011600  1.0  0.1043
  H  H22  1  0.270900  0.532800  0.848200  1.0  0.1287
  H  H23  1  0.020500  0.556400  0.757600  1.0  0.1334
  H  H24  1  0.142800  0.674600  0.810600  1.0  0.1195
  H  H25  1  0.066600  0.471300  0.915200  1.0  0.1282
  H  H26  1  0.266400  0.930800  0.034300  1.0  0.1323
  H  H27  1  0.298000  0.911100  0.865300  1.0  0.1182
  H  H28  1  0.397400  0.933400  0.984400  1.0  0.1301
  H  H29  1  0.100300  0.901900  0.895800  1.0  0.1264
  H  H30  1  0.201200  0.872800  0.011600  1.0  0.1035
  H  H31  1  0.229100  0.967200  0.848200  1.0  0.1286
  H  H32  1  0.479500  0.943600  0.757600  1.0  0.1331
  H  H33  1  0.357200  0.825400  0.810600  1.0  0.119
  H  H34  1  0.433400  0.028700  0.915200  1.0  0.1277
  H  H35  1  0.766400  0.069200  0.465700  1.0  0.1312
  H  H36  1  0.798000  0.088900  0.634700  1.0  0.1184
  H  H37  1  0.897400  0.066600  0.515600  1.0  0.1303
  H  H38  1  0.600300  0.098100  0.604200  1.0  0.1267
  H  H39  1  0.701200  0.127200  0.488400  1.0  0.1052
  H  H40  1  0.729100  0.032800  0.651800  1.0  0.1285
  H  H41  1  0.979500  0.056400  0.742400  1.0  0.134
  H  H42  1  0.857200  0.174600  0.689400  1.0  0.1193
  H  H43  1  0.933400  0.971300  0.584800  1.0  0.1281
  H  H44  1  0.733600  0.430800  0.465700  1.0  0.1304
  H  H45  1  0.702000  0.411100  0.634700  1.0  0.1173
  H  H46  1  0.602600  0.433400  0.515600  1.0  0.1298
  H  H47  1  0.899700  0.401900  0.604200  1.0  0.125
  H  H48  1  0.798800  0.372800  0.488400  1.0  0.1032
  H  H49  1  0.770900  0.467200  0.651800  1.0  0.1284
  H  H50  1  0.520500  0.443600  0.742400  1.0  0.1343
  H  H51  1  0.642800  0.325400  0.689400  1.0  0.1196
  H  H52  1  0.566600  0.528700  0.584800  1.0  0.1274
  H  H53  1  0.766400  0.430800  0.965700  1.0  0.131
  H  H54  1  0.798000  0.411100  0.134700  1.0  0.1178
  H  H55  1  0.897400  0.433400  0.015600  1.0  0.1301
  H  H56  1  0.600300  0.401900  0.104200  1.0  0.1264
  H  H57  1  0.701200  0.372800  0.988400  1.0  0.1033
  H  H58  1  0.729100  0.467200  0.151800  1.0  0.1282
  H  H59  1  0.979500  0.443600  0.242400  1.0  0.1339
  H  H60  1  0.857200  0.325400  0.189400  1.0  0.1192
  H  H61  1  0.933400  0.528700  0.084800  1.0  0.1276
  H  H62  1  0.733600  0.069200  0.965700  1.0  0.131
  H  H63  1  0.702000  0.088900  0.134700  1.0  0.1178
  H  H64  1  0.602600  0.066600  0.015600  1.0  0.1294
  H  H65  1  0.899700  0.098100  0.104200  1.0  0.1252
  H  H66  1  0.798800  0.127200  0.988400  1.0  0.1049
  H  H67  1  0.770900  0.032800  0.151800  1.0  0.1286
  H  H68  1  0.520500  0.056400  0.242400  1.0  0.1343
  H  H69  1  0.642800  0.174600  0.189400  1.0  0.1198
  H  H70  1  0.566600  0.971300  0.084800  1.0  0.1282
  H  H71  1  0.233600  0.930800  0.534300  1.0  0.1324
  H  H72  1  0.202000  0.911100  0.365300  1.0  0.1176
  H  H73  1  0.102600  0.933400  0.484400  1.0  0.1297
  H  H74  1  0.399700  0.901900  0.395800  1.0  0.1251
  H  H75  1  0.298800  0.872800  0.511600  1.0  0.1032
  H  H76  1  0.270900  0.967200  0.348200  1.0  0.1287
  H  H77  1  0.020500  0.943600  0.257600  1.0  0.1335
  H  H78  1  0.142800  0.825400  0.310600  1.0  0.1194
  H  H79  1  0.066600  0.028700  0.415200  1.0  0.1277
  H  H80  1  0.266400  0.569200  0.534300  1.0  0.1322
  H  H81  1  0.298000  0.588900  0.365300  1.0  0.1191
  H  H82  1  0.397400  0.566600  0.484400  1.0  0.1302
  H  H83  1  0.100300  0.598100  0.395800  1.0  0.1267
  H  H84  1  0.201200  0.627200  0.511600  1.0  0.105
  H  H85  1  0.229100  0.532800  0.348200  1.0  0.1288
  H  H86  1  0.479500  0.556400  0.257600  1.0  0.1329
  H  H87  1  0.357200  0.674600  0.310600  1.0  0.1191
  H  H88  1  0.433400  0.471300  0.415200  1.0  0.1281
  C  C89  1  0.151400  0.565300  0.081200  1.0  0.7014
  C  C90  1  0.166400  0.569900  0.018100  1.0  -0.1279
  C  C91  1  0.211900  0.572400  0.004800  1.0  -0.0217
  C  C92  1  0.225900  0.579700  0.946800  1.0  0.0648
  C  C93  1  0.192800  0.582400  0.903900  1.0  -0.1018
  C  C94  1  0.146600  0.575700  0.916200  1.0  0.0551
  C  C95  1  0.133500  0.570200  0.974600  1.0  -0.081
  C  C96  1  0.353300  0.542600  0.801200  1.0  0.6974
  C  C97  1  0.385600  0.659300  0.007900  1.0  0.6936
  C  C98  1  0.337900  0.568300  0.862000  1.0  -0.1522
  C  C99  1  0.368600  0.596600  0.904400  1.0  0.0124
  C  C100  1  0.353500  0.623900  0.961700  1.0  0.0067
  C  C101  1  0.308400  0.614300  0.973500  1.0  -0.0402
  C  C102  1  0.275900  0.586500  0.932200  1.0  0.0938
  C  C103  1  0.291600  0.558400  0.876300  1.0  -0.0529
  C  C104  1  0.993600  0.438200  0.848400  1.0  0.7319
  C  C105  1  0.089100  0.686600  0.717700  1.0  0.7576
  C  C106  1  0.037500  0.505900  0.837500  1.0  -0.1215
  C  C107  1  0.043200  0.560900  0.785800  1.0  -0.0073
  C  C108  1  0.083200  0.624300  0.774800  1.0  -0.1564
  C  C109  1  0.116300  0.630600  0.817700  1.0  -0.0726
  C  C110  1  0.111400  0.574000  0.870500  1.0  0.0534
  C  C111  1  0.071100  0.510700  0.880000  1.0  -0.0742
  C  C112  1  0.348600  0.934700  0.081200  1.0  0.7018
  C  C113  1  0.333600  0.930100  0.018100  1.0  -0.1302
  C  C114  1  0.288100  0.927600  0.004800  1.0  -0.0225
  C  C115  1  0.274100  0.920300  0.946800  1.0  0.0634
  C  C116  1  0.307200  0.917600  0.903900  1.0  -0.1037
  C  C117  1  0.353400  0.924300  0.916200  1.0  0.0562
  C  C118  1  0.366500  0.929800  0.974600  1.0  -0.0827
  C  C119  1  0.146700  0.957400  0.801200  1.0  0.6965
  C  C120  1  0.114400  0.840700  0.007900  1.0  0.6908
  C  C121  1  0.162100  0.931700  0.862000  1.0  -0.1518
  C  C122  1  0.131400  0.903400  0.904400  1.0  0.0124
  C  C123  1  0.146500  0.876100  0.961700  1.0  0.0054
  C  C124  1  0.191600  0.885700  0.973500  1.0  -0.039
  C  C125  1  0.224100  0.913500  0.932200  1.0  0.0957
  C  C126  1  0.208400  0.941600  0.876300  1.0  -0.053
  C  C127  1  0.506400  0.061800  0.848400  1.0  0.7317
  C  C128  1  0.410900  0.813400  0.717700  1.0  0.7575
  C  C129  1  0.462500  0.994100  0.837500  1.0  -0.1218
  C  C130  1  0.456800  0.939100  0.785800  1.0  -0.0078
  C  C131  1  0.416800  0.875700  0.774800  1.0  -0.1561
  C  C132  1  0.383700  0.869400  0.817700  1.0  -0.0754
  C  C133  1  0.388600  0.926000  0.870500  1.0  0.0544
  C  C134  1  0.428900  0.989300  0.880000  1.0  -0.0748
  C  C135  1  0.848600  0.065300  0.418800  1.0  0.7011
  C  C136  1  0.833600  0.069900  0.481900  1.0  -0.1287
  C  C137  1  0.788100  0.072400  0.495200  1.0  -0.0225
  C  C138  1  0.774100  0.079700  0.553200  1.0  0.0637
  C  C139  1  0.807200  0.082400  0.596100  1.0  -0.1036
  C  C140  1  0.853400  0.075700  0.583800  1.0  0.0551
  C  C141  1  0.866500  0.070200  0.525400  1.0  -0.082
  C  C142  1  0.646700  0.042600  0.698800  1.0  0.6967
  C  C143  1  0.614400  0.159300  0.492100  1.0  0.6914
  C  C144  1  0.662100  0.068300  0.638000  1.0  -0.1512
  C  C145  1  0.631400  0.096600  0.595600  1.0  0.0121
  C  C146  1  0.646500  0.123900  0.538300  1.0  0.0052
  C  C147  1  0.691600  0.114300  0.526500  1.0  -0.0389
  C  C148  1  0.724100  0.086500  0.567800  1.0  0.0945
  C  C149  1  0.708400  0.058400  0.623700  1.0  -0.0529
  C  C150  1  0.006400  0.938200  0.651600  1.0  0.7317
  C  C151  1  0.910900  0.186600  0.782300  1.0  0.7594
  C  C152  1  0.962500  0.005900  0.662500  1.0  -0.1212
  C  C153  1  0.956800  0.060900  0.714200  1.0  -0.0081
  C  C154  1  0.916800  0.124300  0.725200  1.0  -0.1575
  C  C155  1  0.883700  0.130600  0.682300  1.0  -0.0755
  C  C156  1  0.888600  0.074000  0.629500  1.0  0.0547
  C  C157  1  0.928900  0.010700  0.620000  1.0  -0.0738
  C  C158  1  0.651400  0.434700  0.418800  1.0  0.7014
  C  C159  1  0.666400  0.430100  0.481900  1.0  -0.1312
  C  C160  1  0.711900  0.427600  0.495200  1.0  -0.0209
  C  C161  1  0.725900  0.420300  0.553200  1.0  0.0646
  C  C162  1  0.692800  0.417600  0.596100  1.0  -0.101
  C  C163  1  0.646600  0.424300  0.583800  1.0  0.0548
  C  C164  1  0.633500  0.429800  0.525400  1.0  -0.0839
  C  C165  1  0.853300  0.457400  0.698800  1.0  0.6951
  C  C166  1  0.885600  0.340700  0.492100  1.0  0.6909
  C  C167  1  0.837900  0.431700  0.638000  1.0  -0.1499
  C  C168  1  0.868600  0.403400  0.595600  1.0  0.0131
  C  C169  1  0.853500  0.376100  0.538300  1.0  0.0044
  C  C170  1  0.808400  0.385700  0.526500  1.0  -0.0408
  C  C171  1  0.775900  0.413500  0.567800  1.0  0.0947
  C  C172  1  0.791600  0.441600  0.623700  1.0  -0.0519
  C  C173  1  0.493600  0.561800  0.651600  1.0  0.7317
  C  C174  1  0.589100  0.313400  0.782300  1.0  0.7592
  C  C175  1  0.537500  0.494100  0.662500  1.0  -0.1214
  C  C176  1  0.543200  0.439100  0.714200  1.0  -0.0081
  C  C177  1  0.583200  0.375700  0.725200  1.0  -0.1571
  C  C178  1  0.616300  0.369400  0.682300  1.0  -0.0745
  C  C179  1  0.611400  0.426000  0.629500  1.0  0.054
  C  C180  1  0.571100  0.489300  0.620000  1.0  -0.0755
  C  C181  1  0.848600  0.434700  0.918800  1.0  0.7023
  C  C182  1  0.833600  0.430100  0.981900  1.0  -0.1308
  C  C183  1  0.788100  0.427600  0.995200  1.0  -0.0216
  C  C184  1  0.774100  0.420300  0.053200  1.0  0.0636
  C  C185  1  0.807200  0.417600  0.096100  1.0  -0.1023
  C  C186  1  0.853400  0.424300  0.083800  1.0  0.0556
  C  C187  1  0.866500  0.429800  0.025400  1.0  -0.0834
  C  C188  1  0.646700  0.457400  0.198800  1.0  0.6949
  C  C189  1  0.614400  0.340700  0.992100  1.0  0.6909
  C  C190  1  0.662100  0.431700  0.138000  1.0  -0.1504
  C  C191  1  0.631400  0.403400  0.095600  1.0  0.012
  C  C192  1  0.646500  0.376100  0.038300  1.0  0.0043
  C  C193  1  0.691600  0.385700  0.026500  1.0  -0.0393
  C  C194  1  0.724100  0.413500  0.067800  1.0  0.0956
  C  C195  1  0.708400  0.441600  0.123700  1.0  -0.0518
  C  C196  1  0.006400  0.561800  0.151600  1.0  0.7318
  C  C197  1  0.910900  0.313400  0.282300  1.0  0.7589
  C  C198  1  0.962500  0.494100  0.162500  1.0  -0.1213
  C  C199  1  0.956800  0.439100  0.214200  1.0  -0.0081
  C  C200  1  0.916800  0.375700  0.225200  1.0  -0.1567
  C  C201  1  0.883700  0.369400  0.182300  1.0  -0.0762
  C  C202  1  0.888600  0.426000  0.129500  1.0  0.0547
  C  C203  1  0.928900  0.489300  0.120000  1.0  -0.0749
  C  C204  1  0.651400  0.065300  0.918800  1.0  0.6999
  C  C205  1  0.666400  0.069900  0.981900  1.0  -0.129
  C  C206  1  0.711900  0.072400  0.995200  1.0  -0.0225
  C  C207  1  0.725900  0.079700  0.053200  1.0  0.065
  C  C208  1  0.692800  0.082400  0.096100  1.0  -0.1025
  C  C209  1  0.646600  0.075700  0.083800  1.0  0.0546
  C  C210  1  0.633500  0.070200  0.025400  1.0  -0.0819
  C  C211  1  0.853300  0.042600  0.198800  1.0  0.6968
  C  C212  1  0.885600  0.159300  0.992100  1.0  0.6915
  C  C213  1  0.837900  0.068300  0.138000  1.0  -0.1514
  C  C214  1  0.868600  0.096600  0.095600  1.0  0.0128
  C  C215  1  0.853500  0.123900  0.038300  1.0  0.0064
  C  C216  1  0.808400  0.114300  0.026500  1.0  -0.04
  C  C217  1  0.775900  0.086500  0.067800  1.0  0.0937
  C  C218  1  0.791600  0.058400  0.123700  1.0  -0.0524
  C  C219  1  0.493600  0.938200  0.151600  1.0  0.732
  C  C220  1  0.589100  0.186600  0.282300  1.0  0.7597
  C  C221  1  0.537500  0.005900  0.162500  1.0  -0.1221
  C  C222  1  0.543200  0.060900  0.214200  1.0  -0.008
  C  C223  1  0.583200  0.124300  0.225200  1.0  -0.1578
  C  C224  1  0.616300  0.130600  0.182300  1.0  -0.0738
  C  C225  1  0.611400  0.074000  0.129500  1.0  0.0539
  C  C226  1  0.571100  0.010700  0.120000  1.0  -0.074
  C  C227  1  0.151400  0.934700  0.581200  1.0  0.7021
  C  C228  1  0.166400  0.930100  0.518100  1.0  -0.1302
  C  C229  1  0.211900  0.927600  0.504800  1.0  -0.0202
  C  C230  1  0.225900  0.920300  0.446800  1.0  0.0644
  C  C231  1  0.192800  0.917600  0.403900  1.0  -0.1028
  C  C232  1  0.146600  0.924300  0.416200  1.0  0.0555
  C  C233  1  0.133500  0.929800  0.474600  1.0  -0.0831
  C  C234  1  0.353300  0.957400  0.301200  1.0  0.6959
  C  C235  1  0.385600  0.840700  0.507900  1.0  0.6918
  C  C236  1  0.337900  0.931700  0.362000  1.0  -0.151
  C  C237  1  0.368600  0.903400  0.404400  1.0  0.0122
  C  C238  1  0.353500  0.876100  0.461700  1.0  0.0042
  C  C239  1  0.308400  0.885700  0.473500  1.0  -0.0412
  C  C240  1  0.275900  0.913500  0.432200  1.0  0.0948
  C  C241  1  0.291600  0.941600  0.376300  1.0  -0.053
  C  C242  1  0.993600  0.061800  0.348400  1.0  0.7317
  C  C243  1  0.089100  0.813400  0.217700  1.0  0.7577
  C  C244  1  0.037500  0.994100  0.337500  1.0  -0.1213
  C  C245  1  0.043200  0.939100  0.285800  1.0  -0.0071
  C  C246  1  0.083200  0.875700  0.274800  1.0  -0.156
  C  C247  1  0.116300  0.869400  0.317700  1.0  -0.0732
  C  C248  1  0.111400  0.926000  0.370500  1.0  0.0537
  C  C249  1  0.071100  0.989300  0.380000  1.0  -0.0756
  C  C250  1  0.348600  0.565300  0.581200  1.0  0.7017
  C  C251  1  0.333600  0.569900  0.518100  1.0  -0.1279
  C  C252  1  0.288100  0.572400  0.504800  1.0  -0.0233
  C  C253  1  0.274100  0.579700  0.446800  1.0  0.0635
  C  C254  1  0.307200  0.582400  0.403900  1.0  -0.1026
  C  C255  1  0.353400  0.575700  0.416200  1.0  0.0555
  C  C256  1  0.366500  0.570200  0.474600  1.0  -0.0815
  C  C257  1  0.146700  0.542600  0.301200  1.0  0.6979
  C  C258  1  0.114400  0.659300  0.507900  1.0  0.6925
  C  C259  1  0.162100  0.568300  0.362000  1.0  -0.1524
  C  C260  1  0.131400  0.596600  0.404400  1.0  0.0123
  C  C261  1  0.146500  0.623900  0.461700  1.0  0.0068
  C  C262  1  0.191600  0.614300  0.473500  1.0  -0.0382
  C  C263  1  0.224100  0.586500  0.432200  1.0  0.0945
  C  C264  1  0.208400  0.558400  0.376300  1.0  -0.0536
  C  C265  1  0.506400  0.438200  0.348400  1.0  0.7315
  C  C266  1  0.410900  0.686600  0.217700  1.0  0.7574
  C  C267  1  0.462500  0.505900  0.337500  1.0  -0.1213
  C  C268  1  0.456800  0.560900  0.285800  1.0  -0.0081
  C  C269  1  0.416800  0.624300  0.274800  1.0  -0.1565
  C  C270  1  0.383700  0.630600  0.317700  1.0  -0.0749
  C  C271  1  0.388600  0.574000  0.370500  1.0  0.0543
  C  C272  1  0.428900  0.510700  0.380000  1.0  -0.0737
  O  O273  1  0.108900  0.578900  0.092100  1.0  -0.6934
  O  O274  1  0.179000  0.548000  0.119900  1.0  -0.5736
  O  O275  1  0.324500  0.535500  0.762400  1.0  -0.6061
  O  O276  1  0.395300  0.536200  0.791700  1.0  -0.5923
  O  O277  1  0.373000  0.656100  0.058800  1.0  -0.5969
  O  O278  1  0.425200  0.696500  0.995100  1.0  -0.5979
  O  O279  1  0.962700  0.446800  0.812600  1.0  -0.6449
  O  O280  1  0.991900  0.376400  0.896100  1.0  -0.5822
  O  O281  1  0.122600  0.753700  0.709800  1.0  -0.6528
  O  O282  1  0.059800  0.664000  0.679800  1.0  -0.6021
  O  O283  1  0.391100  0.921100  0.092100  1.0  -0.6907
  O  O284  1  0.321000  0.952000  0.119900  1.0  -0.5703
  O  O285  1  0.175500  0.964500  0.762400  1.0  -0.6053
  O  O286  1  0.104700  0.963800  0.791700  1.0  -0.597
  O  O287  1  0.127000  0.843900  0.058800  1.0  -0.5947
  O  O288  1  0.074800  0.803500  0.995100  1.0  -0.5995
  O  O289  1  0.537300  0.053200  0.812600  1.0  -0.6458
  O  O290  1  0.508100  0.123600  0.896100  1.0  -0.5835
  O  O291  1  0.377400  0.746300  0.709800  1.0  -0.6529
  O  O292  1  0.440200  0.836000  0.679800  1.0  -0.6037
  O  O293  1  0.891100  0.078900  0.407900  1.0  -0.6918
  O  O294  1  0.821000  0.048000  0.380100  1.0  -0.5729
  O  O295  1  0.675500  0.035500  0.737600  1.0  -0.6078
  O  O296  1  0.604700  0.036200  0.708300  1.0  -0.5954
  O  O297  1  0.627000  0.156100  0.441200  1.0  -0.5918
  O  O298  1  0.574800  0.196500  0.504900  1.0  -0.5967
  O  O299  1  0.037300  0.946800  0.687400  1.0  -0.6464
  O  O300  1  0.008100  0.876400  0.603900  1.0  -0.5818
  O  O301  1  0.877400  0.253700  0.790200  1.0  -0.652
  O  O302  1  0.940200  0.164000  0.820200  1.0  -0.6016
  O  O303  1  0.608900  0.421100  0.407900  1.0  -0.6925
  O  O304  1  0.679000  0.452000  0.380100  1.0  -0.5749
  O  O305  1  0.824500  0.464500  0.737600  1.0  -0.6033
  O  O306  1  0.895300  0.463800  0.708300  1.0  -0.5941
  O  O307  1  0.873000  0.343900  0.441200  1.0  -0.5945
  O  O308  1  0.925200  0.303500  0.504900  1.0  -0.599
  O  O309  1  0.462700  0.553200  0.687400  1.0  -0.6461
  O  O310  1  0.491900  0.623600  0.603900  1.0  -0.5831
  O  O311  1  0.622600  0.246300  0.790200  1.0  -0.6537
  O  O312  1  0.559800  0.336000  0.820200  1.0  -0.6026
  O  O313  1  0.891100  0.421100  0.907900  1.0  -0.6907
  O  O314  1  0.821000  0.452000  0.880100  1.0  -0.575
  O  O315  1  0.675500  0.464500  0.237600  1.0  -0.6043
  O  O316  1  0.604700  0.463800  0.208300  1.0  -0.5965
  O  O317  1  0.627000  0.343900  0.941200  1.0  -0.5951
  O  O318  1  0.574800  0.303500  0.004900  1.0  -0.5988
  O  O319  1  0.037300  0.553200  0.187400  1.0  -0.6469
  O  O320  1  0.008100  0.623600  0.103900  1.0  -0.5834
  O  O321  1  0.877400  0.246300  0.290200  1.0  -0.6531
  O  O322  1  0.940200  0.336000  0.320200  1.0  -0.6019
  O  O323  1  0.608900  0.078900  0.907900  1.0  -0.6934
  O  O324  1  0.679000  0.048000  0.880100  1.0  -0.5748
  O  O325  1  0.824500  0.035500  0.237600  1.0  -0.6058
  O  O326  1  0.895300  0.036200  0.208300  1.0  -0.5929
  O  O327  1  0.873000  0.156100  0.941200  1.0  -0.5914
  O  O328  1  0.925200  0.196500  0.004900  1.0  -0.5983
  O  O329  1  0.462700  0.946800  0.187400  1.0  -0.6468
  O  O330  1  0.491900  0.876400  0.103900  1.0  -0.5813
  O  O331  1  0.622600  0.253700  0.290200  1.0  -0.6528
  O  O332  1  0.559800  0.164000  0.320200  1.0  -0.602
  O  O333  1  0.108900  0.921100  0.592100  1.0  -0.6926
  O  O334  1  0.179000  0.952000  0.619900  1.0  -0.5756
  O  O335  1  0.324500  0.964500  0.262400  1.0  -0.6051
  O  O336  1  0.395300  0.963800  0.291700  1.0  -0.5936
  O  O337  1  0.373000  0.843900  0.558800  1.0  -0.5947
  O  O338  1  0.425200  0.803500  0.495100  1.0  -0.5987
  O  O339  1  0.962700  0.053200  0.312600  1.0  -0.6465
  O  O340  1  0.991900  0.123600  0.396100  1.0  -0.5812
  O  O341  1  0.122600  0.746300  0.209800  1.0  -0.653
  O  O342  1  0.059800  0.836000  0.179800  1.0  -0.6034
  O  O343  1  0.391100  0.578900  0.592100  1.0  -0.692
  O  O344  1  0.321000  0.548000  0.619900  1.0  -0.5715
  O  O345  1  0.175500  0.535500  0.262400  1.0  -0.6057
  O  O346  1  0.104700  0.536200  0.291700  1.0  -0.5954
  O  O347  1  0.127000  0.656100  0.558800  1.0  -0.5978
  O  O348  1  0.074800  0.696500  0.495100  1.0  -0.5972
  O  O349  1  0.537300  0.446800  0.312600  1.0  -0.6461
  O  O350  1  0.508100  0.376400  0.396100  1.0  -0.5812
  O  O351  1  0.377400  0.753700  0.209800  1.0  -0.6525
  O  O352  1  0.440200  0.664000  0.179800  1.0  -0.6028
