# generated using pymatgen
data_Zn2H9C23O10
_symmetry_space_group_name_H-M   'P 1'
_cell_length_a   16.14750000
_cell_length_b   12.51600000
_cell_length_c   19.86870000
_cell_angle_alpha   90.00000000
_cell_angle_beta   93.32100000
_cell_angle_gamma   90.00000000
_symmetry_Int_Tables_number   1
_chemical_formula_structural   Zn2H9C23O10
_chemical_formula_sum   'Zn8 H36 C92 O40'
_cell_volume   4008.76275761
_cell_formula_units_Z   4
loop_
 _symmetry_equiv_pos_site_id
 _symmetry_equiv_pos_as_xyz
  1  'x, y, z'
loop_
 _atom_site_type_symbol
 _atom_site_label
 _atom_site_symmetry_multiplicity
 _atom_site_fract_x
 _atom_site_fract_y
 _atom_site_fract_z
 _atom_site_occupancy
 _atom_site_charge
  Zn  Zn1  1  0.143250  0.564760  0.210310  1.0  1.0967
  Zn  Zn2  1  0.665810  0.125840  0.346040  1.0  1.0701
  Zn  Zn3  1  0.856750  0.064760  0.289690  1.0  1.0941
  Zn  Zn4  1  0.334190  0.625840  0.153960  1.0  1.0686
  Zn  Zn5  1  0.856750  0.435240  0.789690  1.0  1.0942
  Zn  Zn6  1  0.334190  0.874160  0.653960  1.0  1.0685
  Zn  Zn7  1  0.143250  0.935240  0.710310  1.0  1.0967
  Zn  Zn8  1  0.665810  0.374160  0.846040  1.0  1.0698
  H  H9  1  0.826300  0.770100  0.359900  1.0  0.1178
  H  H10  1  0.745300  0.560600  0.491900  1.0  0.1191
  H  H11  1  0.681500  0.868400  0.503900  1.0  0.1243
  H  H12  1  0.925900  0.350700  0.279300  1.0  0.1177
  H  H13  1  0.748600  0.448000  0.399400  1.0  0.1236
  H  H14  1  0.929800  0.648700  0.352600  1.0  0.1206
  H  H15  1  0.555000  0.613800  0.724700  1.0  0.1261
  H  H16  1  0.567800  0.787000  0.556500  1.0  0.119
  H  H17  1  0.746100  0.576600  0.607900  1.0  0.1192
  H  H18  1  0.173700  0.270100  0.140100  1.0  0.1181
  H  H19  1  0.254700  0.060600  0.008100  1.0  0.1195
  H  H20  1  0.318500  0.368400  0.996100  1.0  0.1241
  H  H21  1  0.074100  0.850700  0.220700  1.0  0.1173
  H  H22  1  0.251400  0.948000  0.100600  1.0  0.1229
  H  H23  1  0.070200  0.148700  0.147400  1.0  0.1206
  H  H24  1  0.445000  0.113800  0.775300  1.0  0.1259
  H  H25  1  0.432200  0.287000  0.943500  1.0  0.1182
  H  H26  1  0.253900  0.076600  0.892100  1.0  0.1196
  H  H27  1  0.173700  0.229900  0.640100  1.0  0.118
  H  H28  1  0.254700  0.439400  0.508100  1.0  0.1191
  H  H29  1  0.318500  0.131600  0.496100  1.0  0.1242
  H  H30  1  0.074100  0.649300  0.720700  1.0  0.1172
  H  H31  1  0.251400  0.552000  0.600600  1.0  0.123
  H  H32  1  0.070200  0.351300  0.647400  1.0  0.1207
  H  H33  1  0.445000  0.386200  0.275300  1.0  0.1257
  H  H34  1  0.432200  0.213000  0.443500  1.0  0.1183
  H  H35  1  0.253900  0.423400  0.392100  1.0  0.1194
  H  H36  1  0.826300  0.729900  0.859900  1.0  0.1176
  H  H37  1  0.745300  0.939400  0.991900  1.0  0.1185
  H  H38  1  0.681500  0.631600  0.003900  1.0  0.1245
  H  H39  1  0.925900  0.149300  0.779300  1.0  0.1178
  H  H40  1  0.748600  0.052000  0.899400  1.0  0.1235
  H  H41  1  0.929800  0.851300  0.852600  1.0  0.1212
  H  H42  1  0.555000  0.886200  0.224700  1.0  0.126
  H  H43  1  0.567800  0.713000  0.056500  1.0  0.1188
  H  H44  1  0.746100  0.923400  0.107900  1.0  0.1192
  C  C45  1  0.755200  0.945400  0.396760  1.0  0.6975
  C  C46  1  0.754400  0.836500  0.426710  1.0  -0.1745
  C  C47  1  0.795100  0.754700  0.396560  1.0  -0.0512
  C  C48  1  0.791200  0.650900  0.418760  1.0  0.0189
  C  C49  1  0.747590  0.630200  0.475670  1.0  -0.0754
  C  C50  1  0.707460  0.710800  0.508760  1.0  0.003
  C  C51  1  0.709800  0.813900  0.483230  1.0  -0.0432
  C  C52  1  0.016900  0.526900  0.275400  1.0  0.66
  C  C53  1  0.790200  0.273700  0.332800  1.0  0.7361
  C  C54  1  0.940300  0.502000  0.311110  1.0  -0.1719
  C  C55  1  0.903200  0.403400  0.305640  1.0  0.0386
  C  C56  1  0.831300  0.382000  0.339580  1.0  -0.1385
  C  C57  1  0.796400  0.462100  0.377020  1.0  -0.0334
  C  C58  1  0.831800  0.562600  0.381430  1.0  -0.0079
  C  C59  1  0.904700  0.581900  0.348990  1.0  -0.0398
  C  C60  1  0.695400  0.504200  0.723140  1.0  0.7454
  C  C61  1  0.469800  0.764700  0.658300  1.0  0.6604
  C  C62  1  0.656600  0.582700  0.673870  1.0  -0.1386
  C  C63  1  0.582800  0.632600  0.686760  1.0  0.0488
  C  C64  1  0.550200  0.710300  0.643240  1.0  -0.1398
  C  C65  1  0.590400  0.735500  0.585930  1.0  -0.0099
  C  C66  1  0.663700  0.685600  0.571340  1.0  0.0412
  C  C67  1  0.696300  0.609900  0.616460  1.0  -0.0563
  C  C68  1  0.244800  0.445400  0.103240  1.0  0.6978
  C  C69  1  0.245600  0.336500  0.073290  1.0  -0.1738
  C  C70  1  0.204900  0.254700  0.103440  1.0  -0.0528
  C  C71  1  0.208800  0.150900  0.081240  1.0  0.0189
  C  C72  1  0.252410  0.130200  0.024330  1.0  -0.0752
  C  C73  1  0.292540  0.210800  0.991240  1.0  0.0036
  C  C74  1  0.290200  0.313900  0.016770  1.0  -0.043
  C  C75  1  0.983100  0.026900  0.224600  1.0  0.662
  C  C76  1  0.209800  0.773700  0.167200  1.0  0.7367
  C  C77  1  0.059700  0.002000  0.188890  1.0  -0.1716
  C  C78  1  0.096800  0.903400  0.194360  1.0  0.0395
  C  C79  1  0.168700  0.882000  0.160420  1.0  -0.1385
  C  C80  1  0.203600  0.962100  0.122980  1.0  -0.0342
  C  C81  1  0.168200  0.062600  0.118570  1.0  -0.007
  C  C82  1  0.095300  0.081900  0.151010  1.0  -0.0396
  C  C83  1  0.304600  0.004200  0.776860  1.0  0.7455
  C  C84  1  0.530200  0.264700  0.841700  1.0  0.6601
  C  C85  1  0.343400  0.082700  0.826130  1.0  -0.1387
  C  C86  1  0.417200  0.132600  0.813240  1.0  0.0482
  C  C87  1  0.449800  0.210300  0.856760  1.0  -0.1393
  C  C88  1  0.409600  0.235500  0.914070  1.0  -0.0098
  C  C89  1  0.336300  0.185600  0.928660  1.0  0.0405
  C  C90  1  0.303700  0.109900  0.883540  1.0  -0.056
  C  C91  1  0.244800  0.054600  0.603240  1.0  0.6978
  C  C92  1  0.245600  0.163500  0.573290  1.0  -0.1737
  C  C93  1  0.204900  0.245300  0.603440  1.0  -0.0529
  C  C94  1  0.208800  0.349100  0.581240  1.0  0.019
  C  C95  1  0.252410  0.369800  0.524330  1.0  -0.0737
  C  C96  1  0.292540  0.289200  0.491240  1.0  0.0036
  C  C97  1  0.290200  0.186100  0.516770  1.0  -0.0414
  C  C98  1  0.983100  0.473100  0.724600  1.0  0.6617
  C  C99  1  0.209800  0.726300  0.667200  1.0  0.7371
  C  C100  1  0.059700  0.498000  0.688890  1.0  -0.1715
  C  C101  1  0.096800  0.596600  0.694360  1.0  0.0379
  C  C102  1  0.168700  0.618000  0.660420  1.0  -0.138
  C  C103  1  0.203600  0.537900  0.622980  1.0  -0.0342
  C  C104  1  0.168200  0.437400  0.618570  1.0  -0.0069
  C  C105  1  0.095300  0.418100  0.651010  1.0  -0.0401
  C  C106  1  0.304600  0.495800  0.276860  1.0  0.7458
  C  C107  1  0.530200  0.235300  0.341700  1.0  0.6595
  C  C108  1  0.343400  0.417300  0.326130  1.0  -0.1381
  C  C109  1  0.417200  0.367400  0.313240  1.0  0.0479
  C  C110  1  0.449800  0.289700  0.356760  1.0  -0.1392
  C  C111  1  0.409600  0.264500  0.414070  1.0  -0.01
  C  C112  1  0.336300  0.314400  0.428660  1.0  0.0404
  C  C113  1  0.303700  0.390100  0.383540  1.0  -0.056
  C  C114  1  0.755200  0.554600  0.896760  1.0  0.6962
  C  C115  1  0.754400  0.663500  0.926710  1.0  -0.1743
  C  C116  1  0.795100  0.745300  0.896560  1.0  -0.0514
  C  C117  1  0.791200  0.849100  0.918760  1.0  0.0189
  C  C118  1  0.747590  0.869800  0.975670  1.0  -0.0739
  C  C119  1  0.707460  0.789200  0.008760  1.0  0.003
  C  C120  1  0.709800  0.686100  0.983230  1.0  -0.0415
  C  C121  1  0.016900  0.973100  0.775400  1.0  0.6595
  C  C122  1  0.790200  0.226300  0.832800  1.0  0.7367
  C  C123  1  0.940300  0.998000  0.811110  1.0  -0.1719
  C  C124  1  0.903200  0.096600  0.805640  1.0  0.0385
  C  C125  1  0.831300  0.118000  0.839580  1.0  -0.1378
  C  C126  1  0.796400  0.037900  0.877020  1.0  -0.0337
  C  C127  1  0.831800  0.937400  0.881430  1.0  -0.0078
  C  C128  1  0.904700  0.918100  0.848990  1.0  -0.0395
  C  C129  1  0.695400  0.995800  0.223140  1.0  0.7456
  C  C130  1  0.469800  0.735300  0.158300  1.0  0.6603
  C  C131  1  0.656600  0.917300  0.173870  1.0  -0.1383
  C  C132  1  0.582800  0.867400  0.186760  1.0  0.0485
  C  C133  1  0.550200  0.789700  0.143240  1.0  -0.14
  C  C134  1  0.590400  0.764500  0.085930  1.0  -0.0104
  C  C135  1  0.663700  0.814400  0.071340  1.0  0.0411
  C  C136  1  0.696300  0.890100  0.116460  1.0  -0.0561
  O  O137  1  0.701040  0.011740  0.411600  1.0  -0.5852
  O  O138  1  0.810710  0.963500  0.356950  1.0  -0.6688
  O  O139  1  0.052900  0.613800  0.284920  1.0  -0.5345
  O  O140  1  0.044410  0.459800  0.235310  1.0  -0.5731
  O  O141  1  0.733830  0.252190  0.368590  1.0  -0.5656
  O  O142  1  0.811300  0.213700  0.287430  1.0  -0.5939
  O  O143  1  0.649830  0.465300  0.766050  1.0  -0.5948
  O  O144  1  0.770260  0.483000  0.717940  1.0  -0.5741
  O  O145  1  0.441990  0.835000  0.617820  1.0  -0.5556
  O  O146  1  0.434170  0.740100  0.709410  1.0  -0.5791
  O  O147  1  0.298960  0.511740  0.088400  1.0  -0.5846
  O  O148  1  0.189290  0.463500  0.143050  1.0  -0.6704
  O  O149  1  0.947100  0.113800  0.215080  1.0  -0.5351
  O  O150  1  0.955590  0.959800  0.264690  1.0  -0.5712
  O  O151  1  0.266170  0.752190  0.131410  1.0  -0.5649
  O  O152  1  0.188700  0.713700  0.212570  1.0  -0.5949
  O  O153  1  0.350170  0.965300  0.733950  1.0  -0.593
  O  O154  1  0.229740  0.983000  0.782060  1.0  -0.5753
  O  O155  1  0.558010  0.335000  0.882180  1.0  -0.5541
  O  O156  1  0.565830  0.240100  0.790590  1.0  -0.579
  O  O157  1  0.298960  0.988260  0.588400  1.0  -0.5827
  O  O158  1  0.189290  0.036500  0.643050  1.0  -0.6705
  O  O159  1  0.947100  0.386200  0.715080  1.0  -0.5367
  O  O160  1  0.955590  0.540200  0.764690  1.0  -0.5704
  O  O161  1  0.266170  0.747810  0.631410  1.0  -0.5643
  O  O162  1  0.188700  0.786300  0.712570  1.0  -0.5949
  O  O163  1  0.350170  0.534700  0.233950  1.0  -0.5931
  O  O164  1  0.229740  0.517000  0.282060  1.0  -0.5751
  O  O165  1  0.558010  0.165000  0.382180  1.0  -0.555
  O  O166  1  0.565830  0.259900  0.290590  1.0  -0.5795
  O  O167  1  0.701040  0.488260  0.911600  1.0  -0.5843
  O  O168  1  0.810710  0.536500  0.856950  1.0  -0.6692
  O  O169  1  0.052900  0.886200  0.784920  1.0  -0.536
  O  O170  1  0.044410  0.040200  0.735310  1.0  -0.5716
  O  O171  1  0.733830  0.247810  0.868590  1.0  -0.5656
  O  O172  1  0.811300  0.286300  0.787430  1.0  -0.594
  O  O173  1  0.649830  0.034700  0.266050  1.0  -0.5954
  O  O174  1  0.770260  0.017000  0.217940  1.0  -0.574
  O  O175  1  0.441990  0.665000  0.117820  1.0  -0.5554
  O  O176  1  0.434170  0.759900  0.209410  1.0  -0.5796
