# generated using pymatgen
data_Cd3H10C10N15Cl
_symmetry_space_group_name_H-M   'P 1'
_cell_length_a   10.34170000
_cell_length_b   13.41480000
_cell_length_c   17.56770000
_cell_angle_alpha   90.00000000
_cell_angle_beta   107.11800000
_cell_angle_gamma   90.00000000
_symmetry_Int_Tables_number   1
_chemical_formula_structural   Cd3H10C10N15Cl
_chemical_formula_sum   'Cd12 H40 C40 N60 Cl4'
_cell_volume   2329.23281004
_cell_formula_units_Z   4
loop_
 _symmetry_equiv_pos_site_id
 _symmetry_equiv_pos_as_xyz
  1  'x, y, z'
loop_
 _atom_site_type_symbol
 _atom_site_label
 _atom_site_symmetry_multiplicity
 _atom_site_fract_x
 _atom_site_fract_y
 _atom_site_fract_z
 _atom_site_occupancy
 _atom_site_charge
  Cd  Cd1  1  0.434680  0.527530  0.869360  1.0  0.8507
  Cd  Cd2  1  0.356580  0.752080  0.713160  1.0  0.7627
  Cd  Cd3  1  0.313610  0.012460  0.627220  1.0  0.7736
  Cd  Cd4  1  0.268360  0.276140  0.536720  1.0  0.8139
  Cd  Cd5  1  0.565320  0.027530  0.130640  1.0  0.8503
  Cd  Cd6  1  0.643420  0.252080  0.286840  1.0  0.7628
  Cd  Cd7  1  0.686390  0.512460  0.372780  1.0  0.7738
  Cd  Cd8  1  0.731640  0.776140  0.463280  1.0  0.8139
  Cd  Cd9  1  0.894370  0.247160  0.788740  1.0  0.8645
  Cd  Cd10  1  0.105630  0.747160  0.211250  1.0  0.8679
  Cd  Cd11  1  0.984920  0.789340  0.969840  1.0  0.8068
  Cd  Cd12  1  0.015080  0.289340  0.030160  1.0  0.8059
  H  H13  1  0.204900  0.622400  0.954200  1.0  0.0661
  H  H14  1  0.098500  0.826900  0.793000  1.0  0.0664
  H  H15  1  0.581000  0.693300  0.597600  1.0  0.076
  H  H16  1  0.547700  0.965400  0.523800  1.0  0.0628
  H  H17  1  0.015300  0.322100  0.634000  1.0  0.0775
  H  H18  1  0.092000  0.067100  0.738600  1.0  0.0592
  H  H19  1  0.621200  0.397700  0.781200  1.0  0.0589
  H  H20  1  0.698900  0.393800  0.008600  1.0  0.0764
  H  H21  1  0.795100  0.122400  0.045800  1.0  0.0667
  H  H22  1  0.901500  0.326900  0.207000  1.0  0.0662
  H  H23  1  0.419000  0.193300  0.402400  1.0  0.0757
  H  H24  1  0.452300  0.465400  0.476200  1.0  0.063
  H  H25  1  0.984700  0.822100  0.366000  1.0  0.0775
  H  H26  1  0.908000  0.567100  0.261400  1.0  0.0593
  H  H27  1  0.378800  0.897700  0.218800  1.0  0.0589
  H  H28  1  0.301100  0.893800  0.991400  1.0  0.0729
  H  H29  1  0.250700  0.122400  0.045800  1.0  0.0663
  H  H30  1  0.305500  0.326900  0.207000  1.0  0.0653
  H  H31  1  0.983400  0.193300  0.402400  1.0  0.0708
  H  H32  1  0.023900  0.465400  0.476200  1.0  0.066
  H  H33  1  0.381300  0.822100  0.366000  1.0  0.0775
  H  H34  1  0.353400  0.567100  0.261400  1.0  0.0591
  H  H35  1  0.840000  0.897700  0.218800  1.0  0.0569
  H  H36  1  0.690300  0.893800  0.991400  1.0  0.0763
  H  H37  1  0.749300  0.622400  0.954200  1.0  0.0669
  H  H38  1  0.694500  0.826900  0.793000  1.0  0.0651
  H  H39  1  0.016600  0.693300  0.597600  1.0  0.0707
  H  H40  1  0.976100  0.965400  0.523800  1.0  0.0658
  H  H41  1  0.618700  0.322100  0.634000  1.0  0.0767
  H  H42  1  0.646600  0.067100  0.738600  1.0  0.0595
  H  H43  1  0.160000  0.397700  0.781200  1.0  0.0574
  H  H44  1  0.309700  0.393800  0.008600  1.0  0.0721
  H  H45  1  0.356900  0.358900  0.713800  1.0  0.0683
  H  H46  1  0.278100  0.566500  0.556200  1.0  0.078
  H  H47  1  0.643100  0.858900  0.286200  1.0  0.0684
  H  H48  1  0.721900  0.066500  0.443800  1.0  0.0786
  H  H49  1  0.020200  0.021000  0.040400  1.0  0.0719
  H  H50  1  0.907300  0.985800  0.814600  1.0  0.0724
  H  H51  1  0.979800  0.521000  0.959600  1.0  0.0712
  H  H52  1  0.092700  0.485800  0.185400  1.0  0.0727
  C  C53  1  0.198270  0.661800  0.909540  1.0  0.2263
  C  C54  1  0.140980  0.772300  0.822560  1.0  0.2518
  C  C55  1  0.555010  0.759700  0.589620  1.0  0.2425
  C  C56  1  0.537040  0.906800  0.549680  1.0  0.2292
  C  C57  1  0.053010  0.259900  0.650620  1.0  0.2163
  C  C58  1  0.094160  0.122400  0.707120  1.0  0.2379
  C  C59  1  0.662630  0.385100  0.834860  1.0  0.2556
  C  C60  1  0.704250  0.383300  0.957300  1.0  0.233
  C  C61  1  0.801730  0.161800  0.090460  1.0  0.2263
  C  C62  1  0.859020  0.272300  0.177440  1.0  0.2517
  C  C63  1  0.444990  0.259700  0.410380  1.0  0.2426
  C  C64  1  0.462960  0.406800  0.450320  1.0  0.2287
  C  C65  1  0.946990  0.759900  0.349380  1.0  0.2166
  C  C66  1  0.905840  0.622400  0.292880  1.0  0.2376
  C  C67  1  0.337370  0.885100  0.165140  1.0  0.2557
  C  C68  1  0.295750  0.883300  0.042700  1.0  0.2321
  C  C69  1  0.288730  0.161800  0.090460  1.0  0.2252
  C  C70  1  0.318420  0.272300  0.177440  1.0  0.2473
  C  C71  1  0.965390  0.259700  0.410380  1.0  0.2426
  C  C72  1  0.987360  0.406800  0.450320  1.0  0.2277
  C  C73  1  0.402390  0.759900  0.349380  1.0  0.217
  C  C74  1  0.387040  0.622400  0.292880  1.0  0.2377
  C  C75  1  0.827770  0.885100  0.165140  1.0  0.2562
  C  C76  1  0.746950  0.883300  0.042700  1.0  0.2413
  C  C77  1  0.711270  0.661800  0.909540  1.0  0.2257
  C  C78  1  0.681580  0.772300  0.822560  1.0  0.2477
  C  C79  1  0.034610  0.759700  0.589620  1.0  0.243
  C  C80  1  0.012640  0.906800  0.549680  1.0  0.228
  C  C81  1  0.597610  0.259900  0.650620  1.0  0.2168
  C  C82  1  0.612960  0.122400  0.707120  1.0  0.2374
  C  C83  1  0.172230  0.385100  0.834860  1.0  0.2558
  C  C84  1  0.253050  0.383300  0.957300  1.0  0.2403
  C  C85  1  0.344870  0.421300  0.689740  1.0  0.2233
  C  C86  1  0.302470  0.533300  0.604940  1.0  0.2376
  C  C87  1  0.655130  0.921300  0.310260  1.0  0.2228
  C  C88  1  0.697530  0.033300  0.395060  1.0  0.2384
  C  C89  1  0.993090  0.034900  0.986180  1.0  0.224
  C  C90  1  0.932480  0.014700  0.864960  1.0  0.2448
  C  C91  1  0.006910  0.534900  0.013820  1.0  0.2243
  C  C92  1  0.067520  0.514700  0.135040  1.0  0.247
  N  N93  1  0.273330  0.648400  0.861460  1.0  -0.2654
  N  N94  1  0.237110  0.720500  0.804620  1.0  -0.2512
  N  N95  1  0.110540  0.739000  0.887280  1.0  -0.4512
  N  N96  1  0.468050  0.802200  0.621700  1.0  -0.2705
  N  N97  1  0.456320  0.899000  0.595240  1.0  -0.2613
  N  N98  1  0.601840  0.821900  0.544480  1.0  -0.4572
  N  N99  1  0.149780  0.219400  0.625160  1.0  -0.2535
  N  N100  1  0.176420  0.130000  0.661840  1.0  -0.2395
  N  N101  1  0.014840  0.201900  0.703080  1.0  -0.471
  N  N102  1  0.776300  0.335400  0.860600  1.0  -0.2879
  N  N103  1  0.804620  0.334400  0.941640  1.0  -0.2563
  N  N104  1  0.611580  0.416000  0.891960  1.0  -0.4335
  N  N105  1  0.726670  0.148400  0.138540  1.0  -0.2667
  N  N106  1  0.762890  0.220500  0.195380  1.0  -0.2512
  N  N107  1  0.889460  0.239000  0.112720  1.0  -0.4518
  N  N108  1  0.531950  0.302200  0.378300  1.0  -0.2714
  N  N109  1  0.543680  0.399000  0.404760  1.0  -0.2599
  N  N110  1  0.398160  0.321900  0.455520  1.0  -0.4568
  N  N111  1  0.850220  0.719400  0.374840  1.0  -0.2541
  N  N112  1  0.823580  0.630000  0.338160  1.0  -0.2399
  N  N113  1  0.985160  0.701900  0.296920  1.0  -0.4724
  N  N114  1  0.223700  0.835400  0.139400  1.0  -0.2877
  N  N115  1  0.195380  0.834400  0.058360  1.0  -0.2568
  N  N116  1  0.388420  0.916000  0.108040  1.0  -0.4395
  N  N117  1  0.411870  0.148400  0.138540  1.0  -0.2658
  N  N118  1  0.432490  0.220500  0.195380  1.0  -0.2475
  N  N119  1  0.223260  0.239000  0.112720  1.0  -0.4453
  N  N120  1  0.846350  0.302200  0.378300  1.0  -0.2696
  N  N121  1  0.861080  0.399000  0.404760  1.0  -0.2574
  N  N122  1  0.057360  0.321900  0.455520  1.0  -0.458
  N  N123  1  0.524620  0.719400  0.374840  1.0  -0.2577
  N  N124  1  0.514580  0.630000  0.338160  1.0  -0.239
  N  N125  1  0.311760  0.701900  0.296920  1.0  -0.4658
  N  N126  1  0.915700  0.835400  0.139400  1.0  -0.2913
  N  N127  1  0.862980  0.834400  0.058360  1.0  -0.2457
  N  N128  1  0.719620  0.916000  0.108040  1.0  -0.4364
  N  N129  1  0.588130  0.648400  0.861460  1.0  -0.2669
  N  N130  1  0.567510  0.720500  0.804620  1.0  -0.2425
  N  N131  1  0.776740  0.739000  0.887280  1.0  -0.4488
  N  N132  1  0.153650  0.802200  0.621700  1.0  -0.2699
  N  N133  1  0.138920  0.899000  0.595240  1.0  -0.2565
  N  N134  1  0.942640  0.821900  0.544480  1.0  -0.4561
  N  N135  1  0.475380  0.219400  0.625160  1.0  -0.2584
  N  N136  1  0.485420  0.130000  0.661840  1.0  -0.2377
  N  N137  1  0.688240  0.201900  0.703080  1.0  -0.4694
  N  N138  1  0.084300  0.335400  0.860600  1.0  -0.2915
  N  N139  1  0.137020  0.334400  0.941640  1.0  -0.2477
  N  N140  1  0.280380  0.416000  0.891960  1.0  -0.442
  N  N141  1  0.365400  0.505100  0.730800  1.0  -0.2904
  N  N142  1  0.337130  0.580400  0.674260  1.0  -0.2706
  N  N143  1  0.305490  0.433000  0.610980  1.0  -0.4538
  N  N144  1  0.634600  0.005100  0.269200  1.0  -0.2906
  N  N145  1  0.662870  0.080400  0.325740  1.0  -0.2694
  N  N146  1  0.694510  0.933000  0.389020  1.0  -0.452
  N  N147  1  0.938190  0.114300  0.876380  1.0  -0.3292
  N  N148  1  0.979270  0.125400  0.958540  1.0  -0.2669
  N  N149  1  0.965210  0.962600  0.930420  1.0  -0.4475
  N  N150  1  0.061810  0.614300  0.123620  1.0  -0.3272
  N  N151  1  0.020730  0.625400  0.041460  1.0  -0.2662
  N  N152  1  0.034790  0.462600  0.069580  1.0  -0.447
  Cl  Cl153  1  0.386420  0.938340  0.772840  1.0  -0.5615
  Cl  Cl154  1  0.239790  0.090070  0.479580  1.0  -0.5596
  Cl  Cl155  1  0.613580  0.438340  0.227160  1.0  -0.5576
  Cl  Cl156  1  0.760210  0.590070  0.520420  1.0  -0.5572
