# generated using pymatgen
data_Cd3H16(C3O2)16
_symmetry_space_group_name_H-M   'P 1'
_cell_length_a   29.22000000
_cell_length_b   29.22000000
_cell_length_c   9.38820000
_cell_angle_alpha   90.00000000
_cell_angle_beta   90.00000000
_cell_angle_gamma   90.00000000
_symmetry_Int_Tables_number   1
_chemical_formula_structural   Cd3H16(C3O2)16
_chemical_formula_sum   'Cd12 H64 C192 O128'
_cell_volume   8015.72402088
_cell_formula_units_Z   4
loop_
 _symmetry_equiv_pos_site_id
 _symmetry_equiv_pos_as_xyz
  1  'x, y, z'
loop_
 _atom_site_type_symbol
 _atom_site_label
 _atom_site_symmetry_multiplicity
 _atom_site_fract_x
 _atom_site_fract_y
 _atom_site_fract_z
 _atom_site_occupancy
 _atom_site_charge
  Cd  Cd1  1  0.500000  0.000000  0.750000  1.0  0.9967
  Cd  Cd2  1  0.000000  0.500000  0.250000  1.0  0.9967
  Cd  Cd3  1  0.000000  0.000000  0.000000  1.0  0.9967
  Cd  Cd4  1  0.500000  0.500000  0.500000  1.0  0.9967
  Cd  Cd5  1  0.355630  0.250000  0.125000  1.0  1.0877
  Cd  Cd6  1  0.644370  0.750000  0.125000  1.0  1.0888
  Cd  Cd7  1  0.144370  0.250000  0.625000  1.0  1.0888
  Cd  Cd8  1  0.250000  0.644370  0.875000  1.0  1.0886
  Cd  Cd9  1  0.750000  0.144370  0.375000  1.0  1.0886
  Cd  Cd10  1  0.750000  0.355630  0.875000  1.0  1.0885
  Cd  Cd11  1  0.250000  0.855630  0.375000  1.0  1.0885
  Cd  Cd12  1  0.855630  0.750000  0.625000  1.0  1.0877
  H  H13  1  0.428300  0.132800  0.413800  1.0  0.2004
  H  H14  1  0.492000  0.254400  0.444700  1.0  0.2109
  H  H15  1  0.543200  0.142600  0.634400  1.0  0.2071
  H  H16  1  0.607000  0.184300  0.497300  1.0  0.1904
  H  H17  1  0.928300  0.632800  0.913800  1.0  0.2004
  H  H18  1  0.992000  0.754400  0.944700  1.0  0.2109
  H  H19  1  0.043200  0.642600  0.134400  1.0  0.2071
  H  H20  1  0.107000  0.684300  0.997300  1.0  0.1904
  H  H21  1  0.571700  0.867200  0.413800  1.0  0.2009
  H  H22  1  0.508000  0.745600  0.444700  1.0  0.2125
  H  H23  1  0.456800  0.857400  0.634400  1.0  0.2069
  H  H24  1  0.393000  0.815700  0.497300  1.0  0.1899
  H  H25  1  0.071700  0.367200  0.913800  1.0  0.2009
  H  H26  1  0.008000  0.245600  0.944700  1.0  0.2125
  H  H27  1  0.956800  0.357400  0.134400  1.0  0.2069
  H  H28  1  0.893000  0.315700  0.997300  1.0  0.1899
  H  H29  1  0.132800  0.571700  0.586200  1.0  0.2004
  H  H30  1  0.254400  0.508000  0.555300  1.0  0.2132
  H  H31  1  0.142600  0.456800  0.365600  1.0  0.2052
  H  H32  1  0.184300  0.393000  0.502700  1.0  0.1887
  H  H33  1  0.632800  0.071700  0.086200  1.0  0.2004
  H  H34  1  0.754400  0.008000  0.055300  1.0  0.2132
  H  H35  1  0.642600  0.956800  0.865600  1.0  0.2052
  H  H36  1  0.684300  0.893000  0.002700  1.0  0.1887
  H  H37  1  0.867200  0.428300  0.586200  1.0  0.2004
  H  H38  1  0.745600  0.492000  0.555300  1.0  0.2134
  H  H39  1  0.857400  0.543200  0.365600  1.0  0.2056
  H  H40  1  0.815700  0.607000  0.502700  1.0  0.1894
  H  H41  1  0.367200  0.928300  0.086200  1.0  0.2004
  H  H42  1  0.245600  0.992000  0.055300  1.0  0.2134
  H  H43  1  0.357400  0.043200  0.865600  1.0  0.2056
  H  H44  1  0.315700  0.107000  0.002700  1.0  0.1894
  H  H45  1  0.071700  0.132800  0.336200  1.0  0.2008
  H  H46  1  0.008000  0.254400  0.305300  1.0  0.2113
  H  H47  1  0.956800  0.142600  0.115600  1.0  0.2066
  H  H48  1  0.893000  0.184300  0.252700  1.0  0.1894
  H  H49  1  0.571700  0.632800  0.836200  1.0  0.2008
  H  H50  1  0.508000  0.754400  0.805300  1.0  0.2113
  H  H51  1  0.456800  0.642600  0.615600  1.0  0.2066
  H  H52  1  0.393000  0.684300  0.752700  1.0  0.1894
  H  H53  1  0.928300  0.867200  0.336200  1.0  0.2008
  H  H54  1  0.992000  0.745600  0.305300  1.0  0.2123
  H  H55  1  0.043200  0.857400  0.115600  1.0  0.2064
  H  H56  1  0.107000  0.815700  0.252700  1.0  0.1896
  H  H57  1  0.428300  0.367200  0.836200  1.0  0.2008
  H  H58  1  0.492000  0.245600  0.805300  1.0  0.2123
  H  H59  1  0.543200  0.357400  0.615600  1.0  0.2064
  H  H60  1  0.607000  0.315700  0.752700  1.0  0.1896
  H  H61  1  0.367200  0.571700  0.163800  1.0  0.2006
  H  H62  1  0.245600  0.508000  0.194700  1.0  0.2142
  H  H63  1  0.357400  0.456800  0.384400  1.0  0.2057
  H  H64  1  0.315700  0.393000  0.247300  1.0  0.1898
  H  H65  1  0.867200  0.071700  0.663800  1.0  0.2006
  H  H66  1  0.745600  0.008000  0.694700  1.0  0.2142
  H  H67  1  0.857400  0.956800  0.884400  1.0  0.2057
  H  H68  1  0.815700  0.893000  0.747300  1.0  0.1898
  H  H69  1  0.632800  0.428300  0.163800  1.0  0.1995
  H  H70  1  0.754400  0.492000  0.194700  1.0  0.2136
  H  H71  1  0.642600  0.543200  0.384400  1.0  0.2059
  H  H72  1  0.684300  0.607000  0.247300  1.0  0.1894
  H  H73  1  0.132800  0.928300  0.663800  1.0  0.1995
  H  H74  1  0.254400  0.992000  0.694700  1.0  0.2136
  H  H75  1  0.142600  0.043200  0.884400  1.0  0.2059
  H  H76  1  0.184300  0.107000  0.747300  1.0  0.1894
  C  C77  1  0.481800  0.081000  0.574800  1.0  0.7978
  C  C78  1  0.419000  0.219400  0.318100  1.0  0.7973
  C  C79  1  0.484600  0.131100  0.532100  1.0  -0.0397
  C  C80  1  0.452200  0.150600  0.449100  1.0  0.0972
  C  C81  1  0.454100  0.197400  0.415600  1.0  -0.053
  C  C82  1  0.490300  0.223300  0.465800  1.0  0.0858
  C  C83  1  0.523700  0.203200  0.546300  1.0  0.1472
  C  C84  1  0.520600  0.156300  0.579600  1.0  0.0443
  C  C85  1  0.689100  0.205400  0.530700  1.0  -0.0442
  C  C86  1  0.650800  0.230300  0.589900  1.0  0.1939
  C  C87  1  0.607100  0.210900  0.551800  1.0  -0.004
  C  C88  1  0.566900  0.228700  0.590000  1.0  0.1379
  C  C89  1  0.981800  0.581000  0.074800  1.0  0.7978
  C  C90  1  0.919000  0.719400  0.818100  1.0  0.7973
  C  C91  1  0.984600  0.631100  0.032100  1.0  -0.0397
  C  C92  1  0.952200  0.650600  0.949100  1.0  0.0972
  C  C93  1  0.954100  0.697400  0.915600  1.0  -0.053
  C  C94  1  0.990300  0.723300  0.965800  1.0  0.0858
  C  C95  1  0.023700  0.703200  0.046300  1.0  0.1472
  C  C96  1  0.020600  0.656300  0.079600  1.0  0.0443
  C  C97  1  0.189100  0.705400  0.030700  1.0  -0.0442
  C  C98  1  0.150800  0.730300  0.089900  1.0  0.1939
  C  C99  1  0.107100  0.710900  0.051800  1.0  -0.004
  C  C100  1  0.066900  0.728700  0.090000  1.0  0.1379
  C  C101  1  0.518200  0.919000  0.574800  1.0  0.7976
  C  C102  1  0.581000  0.780600  0.318100  1.0  0.7972
  C  C103  1  0.515400  0.868900  0.532100  1.0  -0.0423
  C  C104  1  0.547800  0.849400  0.449100  1.0  0.0975
  C  C105  1  0.545900  0.802600  0.415600  1.0  -0.0532
  C  C106  1  0.509700  0.776700  0.465800  1.0  0.0855
  C  C107  1  0.476300  0.796800  0.546300  1.0  0.1478
  C  C108  1  0.479400  0.843700  0.579600  1.0  0.0429
  C  C109  1  0.310900  0.794600  0.530700  1.0  -0.0428
  C  C110  1  0.349200  0.769700  0.589900  1.0  0.1936
  C  C111  1  0.392900  0.789100  0.551800  1.0  -0.0047
  C  C112  1  0.433100  0.771300  0.590000  1.0  0.1394
  C  C113  1  0.018200  0.419000  0.074800  1.0  0.7976
  C  C114  1  0.081000  0.280600  0.818100  1.0  0.7972
  C  C115  1  0.015400  0.368900  0.032100  1.0  -0.0423
  C  C116  1  0.047800  0.349400  0.949100  1.0  0.0975
  C  C117  1  0.045900  0.302600  0.915600  1.0  -0.0532
  C  C118  1  0.009700  0.276700  0.965800  1.0  0.0855
  C  C119  1  0.976300  0.296800  0.046300  1.0  0.1478
  C  C120  1  0.979400  0.343700  0.079600  1.0  0.0429
  C  C121  1  0.810900  0.294600  0.030700  1.0  -0.0428
  C  C122  1  0.849200  0.269700  0.089900  1.0  0.1936
  C  C123  1  0.892900  0.289100  0.051800  1.0  -0.0047
  C  C124  1  0.933100  0.271300  0.090000  1.0  0.1394
  C  C125  1  0.081000  0.518200  0.425200  1.0  0.8026
  C  C126  1  0.219400  0.581000  0.681900  1.0  0.7977
  C  C127  1  0.131100  0.515400  0.467900  1.0  -0.0403
  C  C128  1  0.150600  0.547800  0.550900  1.0  0.095
  C  C129  1  0.197400  0.545900  0.584400  1.0  -0.0527
  C  C130  1  0.223300  0.509700  0.534200  1.0  0.0849
  C  C131  1  0.203200  0.476300  0.453700  1.0  0.1444
  C  C132  1  0.156300  0.479400  0.420400  1.0  0.0438
  C  C133  1  0.205400  0.310900  0.469300  1.0  -0.0461
  C  C134  1  0.230300  0.349200  0.410100  1.0  0.1937
  C  C135  1  0.210900  0.392900  0.448200  1.0  -0.0062
  C  C136  1  0.228700  0.433100  0.410000  1.0  0.1387
  C  C137  1  0.581000  0.018200  0.925200  1.0  0.8026
  C  C138  1  0.719400  0.081000  0.181900  1.0  0.7977
  C  C139  1  0.631100  0.015400  0.967900  1.0  -0.0403
  C  C140  1  0.650600  0.047800  0.050900  1.0  0.095
  C  C141  1  0.697400  0.045900  0.084400  1.0  -0.0527
  C  C142  1  0.723300  0.009700  0.034200  1.0  0.0849
  C  C143  1  0.703200  0.976300  0.953700  1.0  0.1444
  C  C144  1  0.656300  0.979400  0.920400  1.0  0.0438
  C  C145  1  0.705400  0.810900  0.969300  1.0  -0.0461
  C  C146  1  0.730300  0.849200  0.910100  1.0  0.1937
  C  C147  1  0.710900  0.892900  0.948200  1.0  -0.0062
  C  C148  1  0.728700  0.933100  0.910000  1.0  0.1387
  C  C149  1  0.919000  0.481800  0.425200  1.0  0.8005
  C  C150  1  0.780600  0.419000  0.681900  1.0  0.7977
  C  C151  1  0.868900  0.484600  0.467900  1.0  -0.0401
  C  C152  1  0.849400  0.452200  0.550900  1.0  0.0982
  C  C153  1  0.802600  0.454100  0.584400  1.0  -0.0527
  C  C154  1  0.776700  0.490300  0.534200  1.0  0.0844
  C  C155  1  0.796800  0.523700  0.453700  1.0  0.1461
  C  C156  1  0.843700  0.520600  0.420400  1.0  0.0444
  C  C157  1  0.794600  0.689100  0.469300  1.0  -0.0448
  C  C158  1  0.769700  0.650800  0.410100  1.0  0.1929
  C  C159  1  0.789100  0.607100  0.448200  1.0  -0.0062
  C  C160  1  0.771300  0.566900  0.410000  1.0  0.1392
  C  C161  1  0.419000  0.981800  0.925200  1.0  0.8005
  C  C162  1  0.280600  0.919000  0.181900  1.0  0.7977
  C  C163  1  0.368900  0.984600  0.967900  1.0  -0.0401
  C  C164  1  0.349400  0.952200  0.050900  1.0  0.0982
  C  C165  1  0.302600  0.954100  0.084400  1.0  -0.0527
  C  C166  1  0.276700  0.990300  0.034200  1.0  0.0844
  C  C167  1  0.296800  0.023700  0.953700  1.0  0.1461
  C  C168  1  0.343700  0.020600  0.920400  1.0  0.0444
  C  C169  1  0.294600  0.189100  0.969300  1.0  -0.0448
  C  C170  1  0.269700  0.150800  0.910100  1.0  0.1929
  C  C171  1  0.289100  0.107100  0.948200  1.0  -0.0062
  C  C172  1  0.271300  0.066900  0.910000  1.0  0.1392
  C  C173  1  0.018200  0.081000  0.175200  1.0  0.7975
  C  C174  1  0.081000  0.219400  0.431900  1.0  0.7978
  C  C175  1  0.015400  0.131100  0.217900  1.0  -0.04
  C  C176  1  0.047800  0.150600  0.300900  1.0  0.0982
  C  C177  1  0.045900  0.197400  0.334400  1.0  -0.0539
  C  C178  1  0.009700  0.223300  0.284200  1.0  0.087
  C  C179  1  0.976300  0.203200  0.203700  1.0  0.1472
  C  C180  1  0.979400  0.156300  0.170400  1.0  0.0442
  C  C181  1  0.810900  0.205400  0.219300  1.0  -0.042
  C  C182  1  0.849200  0.230300  0.160100  1.0  0.1942
  C  C183  1  0.892900  0.210900  0.198200  1.0  -0.005
  C  C184  1  0.933100  0.228700  0.160000  1.0  0.1419
  C  C185  1  0.518200  0.581000  0.675200  1.0  0.7975
  C  C186  1  0.581000  0.719400  0.931900  1.0  0.7978
  C  C187  1  0.515400  0.631100  0.717900  1.0  -0.04
  C  C188  1  0.547800  0.650600  0.800900  1.0  0.0982
  C  C189  1  0.545900  0.697400  0.834400  1.0  -0.0539
  C  C190  1  0.509700  0.723300  0.784200  1.0  0.087
  C  C191  1  0.476300  0.703200  0.703700  1.0  0.1472
  C  C192  1  0.479400  0.656300  0.670400  1.0  0.0442
  C  C193  1  0.310900  0.705400  0.719300  1.0  -0.042
  C  C194  1  0.349200  0.730300  0.660100  1.0  0.1942
  C  C195  1  0.392900  0.710900  0.698200  1.0  -0.005
  C  C196  1  0.433100  0.728700  0.660000  1.0  0.1419
  C  C197  1  0.981800  0.919000  0.175200  1.0  0.7982
  C  C198  1  0.919000  0.780600  0.431900  1.0  0.797
  C  C199  1  0.984600  0.868900  0.217900  1.0  -0.0415
  C  C200  1  0.952200  0.849400  0.300900  1.0  0.0968
  C  C201  1  0.954100  0.802600  0.334400  1.0  -0.0531
  C  C202  1  0.990300  0.776700  0.284200  1.0  0.0853
  C  C203  1  0.023700  0.796800  0.203700  1.0  0.147
  C  C204  1  0.020600  0.843700  0.170400  1.0  0.045
  C  C205  1  0.189100  0.794600  0.219300  1.0  -0.0447
  C  C206  1  0.150800  0.769700  0.160100  1.0  0.1938
  C  C207  1  0.107100  0.789100  0.198200  1.0  -0.0044
  C  C208  1  0.066900  0.771300  0.160000  1.0  0.1403
  C  C209  1  0.481800  0.419000  0.675200  1.0  0.7982
  C  C210  1  0.419000  0.280600  0.931900  1.0  0.797
  C  C211  1  0.484600  0.368900  0.717900  1.0  -0.0415
  C  C212  1  0.452200  0.349400  0.800900  1.0  0.0968
  C  C213  1  0.454100  0.302600  0.834400  1.0  -0.0531
  C  C214  1  0.490300  0.276700  0.784200  1.0  0.0853
  C  C215  1  0.523700  0.296800  0.703700  1.0  0.147
  C  C216  1  0.520600  0.343700  0.670400  1.0  0.045
  C  C217  1  0.689100  0.294600  0.719300  1.0  -0.0447
  C  C218  1  0.650800  0.269700  0.660100  1.0  0.1938
  C  C219  1  0.607100  0.289100  0.698200  1.0  -0.0044
  C  C220  1  0.566900  0.271300  0.660000  1.0  0.1403
  C  C221  1  0.419000  0.518200  0.324800  1.0  0.8001
  C  C222  1  0.280600  0.581000  0.068100  1.0  0.7978
  C  C223  1  0.368900  0.515400  0.282100  1.0  -0.0406
  C  C224  1  0.349400  0.547800  0.199100  1.0  0.0954
  C  C225  1  0.302600  0.545900  0.165600  1.0  -0.0515
  C  C226  1  0.276700  0.509700  0.215800  1.0  0.0844
  C  C227  1  0.296800  0.476300  0.296300  1.0  0.1464
  C  C228  1  0.343700  0.479400  0.329600  1.0  0.0434
  C  C229  1  0.294600  0.310900  0.280700  1.0  -0.0456
  C  C230  1  0.269700  0.349200  0.339900  1.0  0.1924
  C  C231  1  0.289100  0.392900  0.301800  1.0  -0.0075
  C  C232  1  0.271300  0.433100  0.340000  1.0  0.1417
  C  C233  1  0.919000  0.018200  0.824800  1.0  0.8001
  C  C234  1  0.780600  0.081000  0.568100  1.0  0.7978
  C  C235  1  0.868900  0.015400  0.782100  1.0  -0.0406
  C  C236  1  0.849400  0.047800  0.699100  1.0  0.0954
  C  C237  1  0.802600  0.045900  0.665600  1.0  -0.0515
  C  C238  1  0.776700  0.009700  0.715800  1.0  0.0844
  C  C239  1  0.796800  0.976300  0.796300  1.0  0.1464
  C  C240  1  0.843700  0.979400  0.829600  1.0  0.0434
  C  C241  1  0.794600  0.810900  0.780700  1.0  -0.0456
  C  C242  1  0.769700  0.849200  0.839900  1.0  0.1924
  C  C243  1  0.789100  0.892900  0.801800  1.0  -0.0075
  C  C244  1  0.771300  0.933100  0.840000  1.0  0.1417
  C  C245  1  0.581000  0.481800  0.324800  1.0  0.8024
  C  C246  1  0.719400  0.419000  0.068100  1.0  0.7975
  C  C247  1  0.631100  0.484600  0.282100  1.0  -0.0403
  C  C248  1  0.650600  0.452200  0.199100  1.0  0.0984
  C  C249  1  0.697400  0.454100  0.165600  1.0  -0.0529
  C  C250  1  0.723300  0.490300  0.215800  1.0  0.0833
  C  C251  1  0.703200  0.523700  0.296300  1.0  0.1448
  C  C252  1  0.656300  0.520600  0.329600  1.0  0.0436
  C  C253  1  0.705400  0.689100  0.280700  1.0  -0.0436
  C  C254  1  0.730300  0.650800  0.339900  1.0  0.1933
  C  C255  1  0.710900  0.607100  0.301800  1.0  -0.0074
  C  C256  1  0.728700  0.566900  0.340000  1.0  0.1401
  C  C257  1  0.081000  0.981800  0.824800  1.0  0.8024
  C  C258  1  0.219400  0.919000  0.568100  1.0  0.7975
  C  C259  1  0.131100  0.984600  0.782100  1.0  -0.0403
  C  C260  1  0.150600  0.952200  0.699100  1.0  0.0984
  C  C261  1  0.197400  0.954100  0.665600  1.0  -0.0529
  C  C262  1  0.223300  0.990300  0.715800  1.0  0.0833
  C  C263  1  0.203200  0.023700  0.796300  1.0  0.1448
  C  C264  1  0.156300  0.020600  0.829600  1.0  0.0436
  C  C265  1  0.205400  0.189100  0.780700  1.0  -0.0436
  C  C266  1  0.230300  0.150800  0.839900  1.0  0.1933
  C  C267  1  0.210900  0.107100  0.801800  1.0  -0.0074
  C  C268  1  0.228700  0.066900  0.840000  1.0  0.1401
  O  O269  1  0.512300  0.066800  0.657800  1.0  -0.5057
  O  O270  1  0.452600  0.056800  0.522300  1.0  -0.3258
  O  O271  1  0.389400  0.194350  0.264400  1.0  -0.5008
  O  O272  1  0.421400  0.260700  0.294500  1.0  -0.4995
  O  O273  1  0.689700  0.173500  0.456000  1.0  -0.5369
  O  O274  1  0.728500  0.224500  0.575200  1.0  -0.487
  O  O275  1  0.708000  0.173300  0.581000  1.0  -0.4283
  O  O276  1  0.706400  0.214500  0.406000  1.0  -0.4755
  O  O277  1  0.012300  0.566800  0.157800  1.0  -0.5057
  O  O278  1  0.952600  0.556800  0.022300  1.0  -0.3258
  O  O279  1  0.889400  0.694350  0.764400  1.0  -0.5008
  O  O280  1  0.921400  0.760700  0.794500  1.0  -0.4995
  O  O281  1  0.189700  0.673500  0.956000  1.0  -0.5369
  O  O282  1  0.228500  0.724500  0.075200  1.0  -0.487
  O  O283  1  0.208000  0.673300  0.081000  1.0  -0.4283
  O  O284  1  0.206400  0.714500  0.906000  1.0  -0.4755
  O  O285  1  0.487700  0.933200  0.657800  1.0  -0.5084
  O  O286  1  0.547400  0.943200  0.522300  1.0  -0.3259
  O  O287  1  0.610600  0.805650  0.264400  1.0  -0.5001
  O  O288  1  0.578600  0.739300  0.294500  1.0  -0.5001
  O  O289  1  0.310300  0.826500  0.456000  1.0  -0.5362
  O  O290  1  0.271500  0.775500  0.575200  1.0  -0.4854
  O  O291  1  0.292000  0.826700  0.581000  1.0  -0.4284
  O  O292  1  0.293600  0.785500  0.406000  1.0  -0.4732
  O  O293  1  0.987700  0.433200  0.157800  1.0  -0.5084
  O  O294  1  0.047400  0.443200  0.022300  1.0  -0.3259
  O  O295  1  0.110600  0.305650  0.764400  1.0  -0.5001
  O  O296  1  0.078600  0.239300  0.794500  1.0  -0.5001
  O  O297  1  0.810300  0.326500  0.956000  1.0  -0.5362
  O  O298  1  0.771500  0.275500  0.075200  1.0  -0.4854
  O  O299  1  0.792000  0.326700  0.081000  1.0  -0.4284
  O  O300  1  0.793600  0.285500  0.906000  1.0  -0.4732
  O  O301  1  0.066800  0.487700  0.342200  1.0  -0.5098
  O  O302  1  0.056800  0.547400  0.477700  1.0  -0.3263
  O  O303  1  0.194350  0.610600  0.735600  1.0  -0.5021
  O  O304  1  0.260700  0.578600  0.705500  1.0  -0.5063
  O  O305  1  0.173500  0.310300  0.544000  1.0  -0.5424
  O  O306  1  0.224500  0.271500  0.424800  1.0  -0.4834
  O  O307  1  0.173300  0.292000  0.419000  1.0  -0.4239
  O  O308  1  0.214500  0.293600  0.594000  1.0  -0.4725
  O  O309  1  0.566800  0.987700  0.842200  1.0  -0.5098
  O  O310  1  0.556800  0.047400  0.977700  1.0  -0.3263
  O  O311  1  0.694350  0.110600  0.235600  1.0  -0.5021
  O  O312  1  0.760700  0.078600  0.205500  1.0  -0.5063
  O  O313  1  0.673500  0.810300  0.044000  1.0  -0.5424
  O  O314  1  0.724500  0.771500  0.924800  1.0  -0.4834
  O  O315  1  0.673300  0.792000  0.919000  1.0  -0.4239
  O  O316  1  0.714500  0.793600  0.094000  1.0  -0.4725
  O  O317  1  0.933200  0.512300  0.342200  1.0  -0.5103
  O  O318  1  0.943200  0.452600  0.477700  1.0  -0.3251
  O  O319  1  0.805650  0.389400  0.735600  1.0  -0.5014
  O  O320  1  0.739300  0.421400  0.705500  1.0  -0.5057
  O  O321  1  0.826500  0.689700  0.544000  1.0  -0.5376
  O  O322  1  0.775500  0.728500  0.424800  1.0  -0.4805
  O  O323  1  0.826700  0.708000  0.419000  1.0  -0.4254
  O  O324  1  0.785500  0.706400  0.594000  1.0  -0.4734
  O  O325  1  0.433200  0.012300  0.842200  1.0  -0.5103
  O  O326  1  0.443200  0.952600  0.977700  1.0  -0.3251
  O  O327  1  0.305650  0.889400  0.235600  1.0  -0.5014
  O  O328  1  0.239300  0.921400  0.205500  1.0  -0.5057
  O  O329  1  0.326500  0.189700  0.044000  1.0  -0.5376
  O  O330  1  0.275500  0.228500  0.924800  1.0  -0.4805
  O  O331  1  0.326700  0.208000  0.919000  1.0  -0.4254
  O  O332  1  0.285500  0.206400  0.094000  1.0  -0.4734
  O  O333  1  0.987700  0.066800  0.092200  1.0  -0.5077
  O  O334  1  0.047400  0.056800  0.227700  1.0  -0.3252
  O  O335  1  0.110600  0.194350  0.485600  1.0  -0.4995
  O  O336  1  0.078600  0.260700  0.455500  1.0  -0.4998
  O  O337  1  0.810300  0.173500  0.294000  1.0  -0.5373
  O  O338  1  0.771500  0.224500  0.174800  1.0  -0.4846
  O  O339  1  0.792000  0.173300  0.169000  1.0  -0.4255
  O  O340  1  0.793600  0.214500  0.344000  1.0  -0.4757
  O  O341  1  0.487700  0.566800  0.592200  1.0  -0.5077
  O  O342  1  0.547400  0.556800  0.727700  1.0  -0.3252
  O  O343  1  0.610600  0.694350  0.985600  1.0  -0.4995
  O  O344  1  0.578600  0.760700  0.955500  1.0  -0.4998
  O  O345  1  0.310300  0.673500  0.794000  1.0  -0.5373
  O  O346  1  0.271500  0.724500  0.674800  1.0  -0.4846
  O  O347  1  0.292000  0.673300  0.669000  1.0  -0.4255
  O  O348  1  0.293600  0.714500  0.844000  1.0  -0.4757
  O  O349  1  0.012300  0.933200  0.092200  1.0  -0.5072
  O  O350  1  0.952600  0.943200  0.227700  1.0  -0.3266
  O  O351  1  0.889400  0.805650  0.485600  1.0  -0.5008
  O  O352  1  0.921400  0.739300  0.455500  1.0  -0.5007
  O  O353  1  0.189700  0.826500  0.294000  1.0  -0.5401
  O  O354  1  0.228500  0.775500  0.174800  1.0  -0.4857
  O  O355  1  0.208000  0.826700  0.169000  1.0  -0.4273
  O  O356  1  0.206400  0.785500  0.344000  1.0  -0.4749
  O  O357  1  0.512300  0.433200  0.592200  1.0  -0.5072
  O  O358  1  0.452600  0.443200  0.727700  1.0  -0.3266
  O  O359  1  0.389400  0.305650  0.985600  1.0  -0.5008
  O  O360  1  0.421400  0.239300  0.955500  1.0  -0.5007
  O  O361  1  0.689700  0.326500  0.794000  1.0  -0.5401
  O  O362  1  0.728500  0.275500  0.674800  1.0  -0.4857
  O  O363  1  0.708000  0.326700  0.669000  1.0  -0.4273
  O  O364  1  0.706400  0.285500  0.844000  1.0  -0.4749
  O  O365  1  0.433200  0.487700  0.407800  1.0  -0.5085
  O  O366  1  0.443200  0.547400  0.272300  1.0  -0.3262
  O  O367  1  0.305650  0.610600  0.014400  1.0  -0.5054
  O  O368  1  0.239300  0.578600  0.044500  1.0  -0.5052
  O  O369  1  0.326500  0.310300  0.206000  1.0  -0.5401
  O  O370  1  0.275500  0.271500  0.325200  1.0  -0.484
  O  O371  1  0.326700  0.292000  0.331000  1.0  -0.4283
  O  O372  1  0.285500  0.293600  0.156000  1.0  -0.4688
  O  O373  1  0.933200  0.987700  0.907800  1.0  -0.5085
  O  O374  1  0.943200  0.047400  0.772300  1.0  -0.3262
  O  O375  1  0.805650  0.110600  0.514400  1.0  -0.5054
  O  O376  1  0.739300  0.078600  0.544500  1.0  -0.5052
  O  O377  1  0.826500  0.810300  0.706000  1.0  -0.5401
  O  O378  1  0.775500  0.771500  0.825200  1.0  -0.484
  O  O379  1  0.826700  0.792000  0.831000  1.0  -0.4283
  O  O380  1  0.785500  0.793600  0.656000  1.0  -0.4688
  O  O381  1  0.566800  0.512300  0.407800  1.0  -0.5103
  O  O382  1  0.556800  0.452600  0.272300  1.0  -0.3254
  O  O383  1  0.694350  0.389400  0.014400  1.0  -0.5051
  O  O384  1  0.760700  0.421400  0.044500  1.0  -0.5057
  O  O385  1  0.673500  0.689700  0.206000  1.0  -0.5399
  O  O386  1  0.724500  0.728500  0.325200  1.0  -0.4817
  O  O387  1  0.673300  0.708000  0.331000  1.0  -0.4268
  O  O388  1  0.714500  0.706400  0.156000  1.0  -0.4716
  O  O389  1  0.066800  0.012300  0.907800  1.0  -0.5103
  O  O390  1  0.056800  0.952600  0.772300  1.0  -0.3254
  O  O391  1  0.194350  0.889400  0.514400  1.0  -0.5051
  O  O392  1  0.260700  0.921400  0.544500  1.0  -0.5057
  O  O393  1  0.173500  0.189700  0.706000  1.0  -0.5399
  O  O394  1  0.224500  0.228500  0.825200  1.0  -0.4817
  O  O395  1  0.173300  0.208000  0.831000  1.0  -0.4268
  O  O396  1  0.214500  0.206400  0.656000  1.0  -0.4716
