# generated using pymatgen
data_Cd3H12C32(NO5)4
_symmetry_space_group_name_H-M   'P 1'
_cell_length_a   9.86690000
_cell_length_b   10.42500000
_cell_length_c   12.43970000
_cell_angle_alpha   111.31600000
_cell_angle_beta   102.56800000
_cell_angle_gamma   93.86250000
_symmetry_Int_Tables_number   1
_chemical_formula_structural   Cd3H12C32(NO5)4
_chemical_formula_sum   'Cd3 H12 C32 N4 O20'
_cell_volume   1148.28558845
_cell_formula_units_Z   1
loop_
 _symmetry_equiv_pos_site_id
 _symmetry_equiv_pos_as_xyz
  1  'x, y, z'
loop_
 _atom_site_type_symbol
 _atom_site_label
 _atom_site_symmetry_multiplicity
 _atom_site_fract_x
 _atom_site_fract_y
 _atom_site_fract_z
 _atom_site_occupancy
 _atom_site_charge
  Cd  Cd1  1  0.453300  0.178850  0.258270  1.0  1.1495
  Cd  Cd2  1  0.546700  0.821150  0.741730  1.0  1.1497
  Cd  Cd3  1  0.500000  0.500000  0.500000  1.0  1.1373
  H  H4  1  0.887800  0.433800  0.631900  1.0  0.1626
  H  H5  1  0.277600  0.372100  0.601300  1.0  0.1631
  H  H6  1  0.949000  0.220800  0.309400  1.0  0.1563
  H  H7  1  0.305600  0.725100  0.941100  1.0  0.1661
  H  H8  1  0.456200  0.715100  0.264700  1.0  0.1489
  H  H9  1  0.316300  0.357300  0.976500  1.0  0.1623
  H  H10  1  0.112200  0.566200  0.368100  1.0  0.1617
  H  H11  1  0.722400  0.627900  0.398700  1.0  0.1635
  H  H12  1  0.051000  0.779200  0.690600  1.0  0.1567
  H  H13  1  0.694400  0.274900  0.058900  1.0  0.1661
  H  H14  1  0.543800  0.284900  0.735300  1.0  0.1489
  H  H15  1  0.683700  0.642700  0.023500  1.0  0.1602
  C  C16  1  0.738600  0.302800  0.408000  1.0  0.7567
  C  C17  1  0.894600  0.322400  0.461900  1.0  -0.1152
  C  C18  1  0.947600  0.396000  0.584400  1.0  -0.0501
  C  C19  1  0.089300  0.412100  0.634400  1.0  0.1307
  C  C20  1  0.181900  0.360000  0.565900  1.0  -0.1152
  C  C21  1  0.128500  0.289300  0.443200  1.0  -0.0917
  C  C22  1  0.984600  0.269500  0.391400  1.0  0.0457
  C  C23  1  0.226200  0.236400  0.366800  1.0  0.7472
  C  C24  1  0.298500  0.529900  0.940900  1.0  0.1887
  C  C25  1  0.326600  0.675200  0.989600  1.0  -0.0439
  C  C26  1  0.386300  0.744300  0.111300  1.0  -0.0942
  C  C27  1  0.416800  0.668500  0.182900  1.0  0.0478
  C  C28  1  0.388800  0.523700  0.133300  1.0  -0.0985
  C  C29  1  0.331800  0.454300  0.010900  1.0  -0.0566
  C  C30  1  0.422800  0.441400  0.210500  1.0  0.7606
  C  C31  1  0.414400  0.901000  0.165500  1.0  0.7075
  C  C32  1  0.261400  0.697200  0.592000  1.0  0.7581
  C  C33  1  0.105400  0.677600  0.538100  1.0  -0.1166
  C  C34  1  0.052400  0.604000  0.415600  1.0  -0.053
  C  C35  1  0.910700  0.587900  0.365600  1.0  0.1314
  C  C36  1  0.818100  0.640000  0.434100  1.0  -0.1151
  C  C37  1  0.871500  0.710700  0.556800  1.0  -0.0931
  C  C38  1  0.015400  0.730500  0.608600  1.0  0.047
  C  C39  1  0.773800  0.763600  0.633200  1.0  0.7472
  C  C40  1  0.701500  0.470100  0.059100  1.0  0.1884
  C  C41  1  0.673400  0.324800  0.010400  1.0  -0.0426
  C  C42  1  0.613700  0.255700  0.888700  1.0  -0.0959
  C  C43  1  0.583200  0.331500  0.817100  1.0  0.0481
  C  C44  1  0.611200  0.476300  0.866700  1.0  -0.1004
  C  C45  1  0.668200  0.545700  0.989100  1.0  -0.0575
  C  C46  1  0.577200  0.558600  0.789500  1.0  0.7601
  C  C47  1  0.585600  0.099000  0.834500  1.0  0.7086
  N  N48  1  0.141600  0.490500  0.762200  1.0  0.1118
  N  N49  1  0.243100  0.451700  0.814600  1.0  0.1107
  N  N50  1  0.858400  0.509500  0.237800  1.0  0.1116
  N  N51  1  0.756900  0.548300  0.185400  1.0  0.1117
  O  O52  1  0.689500  0.224600  0.300300  1.0  -0.5408
  O  O53  1  0.666100  0.363400  0.475800  1.0  -0.6423
  O  O54  1  0.181400  0.145700  0.264700  1.0  -0.551
  O  O55  1  0.357600  0.286200  0.411100  1.0  -0.6352
  O  O56  1  0.394700  0.310600  0.158300  1.0  -0.5428
  O  O57  1  0.476600  0.507000  0.319000  1.0  -0.6001
  O  O58  1  0.389200  0.966100  0.099000  1.0  -0.5375
  O  O59  1  0.461000  0.961800  0.276200  1.0  -0.545
  O  O60  1  0.065300  0.574000  0.813100  1.0  -0.5318
  O  O61  1  0.250300  0.317200  0.777900  1.0  -0.4865
  O  O62  1  0.310500  0.775400  0.699700  1.0  -0.5426
  O  O63  1  0.333900  0.636600  0.524200  1.0  -0.643
  O  O64  1  0.818600  0.854300  0.735300  1.0  -0.5482
  O  O65  1  0.642400  0.713800  0.588900  1.0  -0.6386
  O  O66  1  0.605300  0.689400  0.841700  1.0  -0.545
  O  O67  1  0.523400  0.493000  0.681000  1.0  -0.5992
  O  O68  1  0.610800  0.033900  0.901000  1.0  -0.5399
  O  O69  1  0.539000  0.038200  0.723800  1.0  -0.5444
  O  O70  1  0.934700  0.426000  0.186900  1.0  -0.531
  O  O71  1  0.749700  0.682800  0.222100  1.0  -0.4879
