# generated using pymatgen
data_TmH3(C3O2)3
_symmetry_space_group_name_H-M   'P 1'
_cell_length_a   10.20000000
_cell_length_b   10.20000000
_cell_length_c   14.43860000
_cell_angle_alpha   90.00000000
_cell_angle_beta   90.00000000
_cell_angle_gamma   90.00000000
_symmetry_Int_Tables_number   1
_chemical_formula_structural   TmH3(C3O2)3
_chemical_formula_sum   'Tm4 H12 C36 O24'
_cell_volume   1502.19194400
_cell_formula_units_Z   4
loop_
 _symmetry_equiv_pos_site_id
 _symmetry_equiv_pos_as_xyz
  1  'x, y, z'
loop_
 _atom_site_type_symbol
 _atom_site_label
 _atom_site_symmetry_multiplicity
 _atom_site_fract_x
 _atom_site_fract_y
 _atom_site_fract_z
 _atom_site_occupancy
 _atom_site_charge
  Tm  Tm1  1  0.149780  0.850220  0.125000  1.0  2.1733
  Tm  Tm2  1  0.850220  0.149780  0.625000  1.0  2.1733
  Tm  Tm3  1  0.149780  0.149780  0.375000  1.0  2.1727
  Tm  Tm4  1  0.850220  0.850220  0.875000  1.0  2.1738
  H  H5  1  0.559300  0.927200  0.119800  1.0  0.1023
  H  H6  1  0.440700  0.072800  0.619800  1.0  0.1024
  H  H7  1  0.072800  0.559300  0.369800  1.0  0.1023
  H  H8  1  0.927200  0.440700  0.869800  1.0  0.1024
  H  H9  1  0.440700  0.927200  0.880200  1.0  0.1027
  H  H10  1  0.559300  0.072800  0.380200  1.0  0.1026
  H  H11  1  0.927200  0.559300  0.630200  1.0  0.1029
  H  H12  1  0.072800  0.440700  0.130200  1.0  0.1026
  H  H13  1  0.901300  0.000000  0.250000  1.0  0.0858
  H  H14  1  0.098700  0.000000  0.750000  1.0  0.086
  H  H15  1  0.000000  0.901300  0.500000  1.0  0.0871
  H  H16  1  0.000000  0.098700  0.000000  1.0  0.0868
  C  C17  1  0.818900  0.911500  0.089800  1.0  0.7438
  C  C18  1  0.740600  0.958400  0.172700  1.0  -0.164
  C  C19  1  0.605700  0.957300  0.172700  1.0  -0.0064
  C  C20  1  0.181100  0.088500  0.589800  1.0  0.743
  C  C21  1  0.259400  0.041600  0.672700  1.0  -0.1639
  C  C22  1  0.394300  0.042700  0.672700  1.0  -0.0075
  C  C23  1  0.088500  0.818900  0.339800  1.0  0.7434
  C  C24  1  0.041600  0.740600  0.422700  1.0  -0.1654
  C  C25  1  0.042700  0.605700  0.422700  1.0  -0.0075
  C  C26  1  0.911500  0.181100  0.839800  1.0  0.7449
  C  C27  1  0.958400  0.259400  0.922700  1.0  -0.1654
  C  C28  1  0.957300  0.394300  0.922700  1.0  -0.0066
  C  C29  1  0.181100  0.911500  0.910200  1.0  0.7435
  C  C30  1  0.259400  0.958400  0.827300  1.0  -0.1648
  C  C31  1  0.394300  0.957300  0.827300  1.0  -0.0058
  C  C32  1  0.818900  0.088500  0.410200  1.0  0.7445
  C  C33  1  0.740600  0.041600  0.327300  1.0  -0.1646
  C  C34  1  0.605700  0.042700  0.327300  1.0  -0.0064
  C  C35  1  0.911500  0.818900  0.660200  1.0  0.7443
  C  C36  1  0.958400  0.740600  0.577300  1.0  -0.1669
  C  C37  1  0.957300  0.605700  0.577300  1.0  -0.0063
  C  C38  1  0.088500  0.181100  0.160200  1.0  0.7453
  C  C39  1  0.041600  0.259400  0.077300  1.0  -0.1659
  C  C40  1  0.042700  0.394300  0.077300  1.0  -0.0062
  C  C41  1  0.537500  0.000000  0.250000  1.0  -0.1853
  C  C42  1  0.808200  0.000000  0.250000  1.0  -0.0097
  C  C43  1  0.389800  0.000000  0.250000  1.0  0.7447
  C  C44  1  0.462500  0.000000  0.750000  1.0  -0.1851
  C  C45  1  0.191800  0.000000  0.750000  1.0  -0.0124
  C  C46  1  0.610200  0.000000  0.750000  1.0  0.7445
  C  C47  1  0.000000  0.537500  0.500000  1.0  -0.1849
  C  C48  1  0.000000  0.808200  0.500000  1.0  -0.0135
  C  C49  1  0.000000  0.389800  0.500000  1.0  0.7431
  C  C50  1  0.000000  0.462500  0.000000  1.0  -0.1841
  C  C51  1  0.000000  0.191800  0.000000  1.0  -0.0139
  C  C52  1  0.000000  0.610200  0.000000  1.0  0.7444
  O  O53  1  0.335000  0.926500  0.191900  1.0  -0.7127
  O  O54  1  0.935200  0.885200  0.100100  1.0  -0.6758
  O  O55  1  0.760100  0.903900  0.012800  1.0  -0.6907
  O  O56  1  0.665000  0.073500  0.691900  1.0  -0.7139
  O  O57  1  0.064800  0.114800  0.600100  1.0  -0.6732
  O  O58  1  0.239900  0.096100  0.512800  1.0  -0.6903
  O  O59  1  0.073500  0.335000  0.441900  1.0  -0.7112
  O  O60  1  0.114800  0.935200  0.350100  1.0  -0.6756
  O  O61  1  0.096100  0.760100  0.262800  1.0  -0.6894
  O  O62  1  0.926500  0.665000  0.941900  1.0  -0.7111
  O  O63  1  0.885200  0.064800  0.850100  1.0  -0.6756
  O  O64  1  0.903900  0.239900  0.762800  1.0  -0.6912
  O  O65  1  0.665000  0.926500  0.808100  1.0  -0.7131
  O  O66  1  0.064800  0.885200  0.899900  1.0  -0.6757
  O  O67  1  0.239900  0.903900  0.987200  1.0  -0.6907
  O  O68  1  0.335000  0.073500  0.308100  1.0  -0.714
  O  O69  1  0.935200  0.114800  0.399900  1.0  -0.6745
  O  O70  1  0.760100  0.096100  0.487200  1.0  -0.6911
  O  O71  1  0.926500  0.335000  0.558100  1.0  -0.7124
  O  O72  1  0.885200  0.935200  0.649900  1.0  -0.676
  O  O73  1  0.903900  0.760100  0.737200  1.0  -0.6909
  O  O74  1  0.073500  0.665000  0.058100  1.0  -0.711
  O  O75  1  0.114800  0.064800  0.149900  1.0  -0.6751
  O  O76  1  0.096100  0.239900  0.237200  1.0  -0.6906
