# generated using pymatgen
data_HoH3(C3O2)3
_symmetry_space_group_name_H-M   'P 1'
_cell_length_a   10.25500000
_cell_length_b   10.25500000
_cell_length_c   14.49400000
_cell_angle_alpha   90.00000000
_cell_angle_beta   90.00000000
_cell_angle_gamma   90.00000000
_symmetry_Int_Tables_number   1
_chemical_formula_structural   HoH3(C3O2)3
_chemical_formula_sum   'Ho4 H12 C36 O24'
_cell_volume   1524.26187235
_cell_formula_units_Z   4
loop_
 _symmetry_equiv_pos_site_id
 _symmetry_equiv_pos_as_xyz
  1  'x, y, z'
loop_
 _atom_site_type_symbol
 _atom_site_label
 _atom_site_symmetry_multiplicity
 _atom_site_fract_x
 _atom_site_fract_y
 _atom_site_fract_z
 _atom_site_occupancy
 _atom_site_charge
  Ho  Ho1  1  0.850220  0.849830  0.705350  1.0  2.2176
  Ho  Ho2  1  0.149780  0.150170  0.205350  1.0  2.2186
  Ho  Ho3  1  0.150170  0.850220  0.455350  1.0  2.2183
  Ho  Ho4  1  0.849830  0.149780  0.955350  1.0  2.218
  H  H5  1  0.075600  0.438700  0.452900  1.0  0.0935
  H  H6  1  0.930400  0.439300  0.710200  1.0  0.0905
  H  H7  1  0.996600  0.101000  0.578900  1.0  0.0711
  H  H8  1  0.924400  0.561300  0.952900  1.0  0.0933
  H  H9  1  0.069600  0.560700  0.210200  1.0  0.0908
  H  H10  1  0.003400  0.899000  0.078900  1.0  0.0711
  H  H11  1  0.561300  0.075600  0.202900  1.0  0.0935
  H  H12  1  0.560700  0.930400  0.460200  1.0  0.0906
  H  H13  1  0.899000  0.996600  0.328900  1.0  0.0728
  H  H14  1  0.438700  0.924400  0.702900  1.0  0.0935
  H  H15  1  0.439300  0.069600  0.960200  1.0  0.0907
  H  H16  1  0.101000  0.003400  0.828900  1.0  0.0719
  C  C17  1  0.909000  0.183100  0.740600  1.0  0.7566
  C  C18  1  0.044700  0.393600  0.504000  1.0  0.0312
  C  C19  1  0.084400  0.182700  0.419900  1.0  0.741
  C  C20  1  0.958200  0.393800  0.658300  1.0  0.018
  C  C21  1  0.002000  0.461800  0.581400  1.0  -0.1932
  C  C22  1  0.955800  0.259500  0.658300  1.0  -0.175
  C  C23  1  0.041200  0.260400  0.503200  1.0  -0.1942
  C  C24  1  0.003600  0.610500  0.582900  1.0  0.7709
  C  C25  1  0.997800  0.191700  0.579700  1.0  0.0128
  C  C26  1  0.091000  0.816900  0.240600  1.0  0.7572
  C  C27  1  0.955300  0.606400  0.004000  1.0  0.0312
  C  C28  1  0.915600  0.817300  0.919900  1.0  0.7419
  C  C29  1  0.041800  0.606200  0.158300  1.0  0.0188
  C  C30  1  0.998000  0.538200  0.081400  1.0  -0.1939
  C  C31  1  0.044200  0.740500  0.158300  1.0  -0.1773
  C  C32  1  0.958800  0.739600  0.003200  1.0  -0.1937
  C  C33  1  0.996400  0.389500  0.082900  1.0  0.7697
  C  C34  1  0.002200  0.808300  0.079700  1.0  0.012
  C  C35  1  0.816900  0.909000  0.490600  1.0  0.7753
  C  C36  1  0.606400  0.044700  0.254000  1.0  0.0307
  C  C37  1  0.817300  0.084400  0.169900  1.0  0.759
  C  C38  1  0.606200  0.958200  0.408300  1.0  0.0188
  C  C39  1  0.538200  0.002000  0.331400  1.0  -0.1948
  C  C40  1  0.740500  0.955800  0.408300  1.0  -0.1747
  C  C41  1  0.739600  0.041200  0.253200  1.0  -0.1928
  C  C42  1  0.389500  0.003600  0.332900  1.0  0.7726
  C  C43  1  0.808300  0.997800  0.329700  1.0  0.0124
  C  C44  1  0.183100  0.091000  0.990600  1.0  0.7753
  C  C45  1  0.393600  0.955300  0.754000  1.0  0.0309
  C  C46  1  0.182700  0.915600  0.669900  1.0  0.7596
  C  C47  1  0.393800  0.041800  0.908300  1.0  0.0183
  C  C48  1  0.461800  0.998000  0.831400  1.0  -0.1948
  C  C49  1  0.259500  0.044200  0.908300  1.0  -0.1758
  C  C50  1  0.260400  0.958800  0.753200  1.0  -0.1936
  C  C51  1  0.610500  0.996400  0.832900  1.0  0.7716
  C  C52  1  0.191700  0.002200  0.829700  1.0  0.011
  O  O53  1  0.933900  0.664300  0.640800  1.0  -0.7572
  O  O54  1  0.094300  0.241200  0.344300  1.0  -0.6548
  O  O55  1  0.078900  0.662900  0.525100  1.0  -0.7714
  O  O56  1  0.108200  0.065200  0.429600  1.0  -0.7107
  O  O57  1  0.905300  0.238800  0.816200  1.0  -0.6774
  O  O58  1  0.879800  0.067900  0.729700  1.0  -0.685
  O  O59  1  0.066100  0.335700  0.140800  1.0  -0.7577
  O  O60  1  0.905700  0.758800  0.844300  1.0  -0.6548
  O  O61  1  0.921100  0.337100  0.025100  1.0  -0.7723
  O  O62  1  0.891800  0.934800  0.929600  1.0  -0.7125
  O  O63  1  0.094700  0.761200  0.316200  1.0  -0.6774
  O  O64  1  0.120200  0.932100  0.229700  1.0  -0.6848
  O  O65  1  0.335700  0.933900  0.390800  1.0  -0.7597
  O  O66  1  0.758800  0.094300  0.094300  1.0  -0.6555
  O  O67  1  0.337100  0.078900  0.275100  1.0  -0.7738
  O  O68  1  0.934800  0.108200  0.179600  1.0  -0.7116
  O  O69  1  0.761200  0.905300  0.566200  1.0  -0.6767
  O  O70  1  0.932100  0.879800  0.479700  1.0  -0.6846
  O  O71  1  0.664300  0.066100  0.890800  1.0  -0.7598
  O  O72  1  0.241200  0.905700  0.594300  1.0  -0.656
  O  O73  1  0.662900  0.921100  0.775100  1.0  -0.7738
  O  O74  1  0.065200  0.891800  0.679600  1.0  -0.7105
  O  O75  1  0.238800  0.094700  0.066200  1.0  -0.6786
  O  O76  1  0.067900  0.120200  0.979700  1.0  -0.6818
