# generated using pymatgen
data_ZnH9(C3O)5
_symmetry_space_group_name_H-M   'P 1'
_cell_length_a   23.48200000
_cell_length_b   16.72310000
_cell_length_c   7.70660000
_cell_angle_alpha   90.00000000
_cell_angle_beta   104.71600000
_cell_angle_gamma   90.00000000
_symmetry_Int_Tables_number   1
_chemical_formula_structural   ZnH9(C3O)5
_chemical_formula_sum   'Zn8 H72 C120 O40'
_cell_volume   2927.04610446
_cell_formula_units_Z   8
loop_
 _symmetry_equiv_pos_site_id
 _symmetry_equiv_pos_as_xyz
  1  'x, y, z'
loop_
 _atom_site_type_symbol
 _atom_site_label
 _atom_site_symmetry_multiplicity
 _atom_site_fract_x
 _atom_site_fract_y
 _atom_site_fract_z
 _atom_site_occupancy
 _atom_site_charge
  Zn  Zn1  1  0.764250  0.031950  0.991180  1.0  1.0276
  Zn  Zn2  1  0.264250  0.531950  0.991180  1.0  1.0276
  Zn  Zn3  1  0.235750  0.031950  0.508820  1.0  1.0263
  Zn  Zn4  1  0.735750  0.531950  0.508820  1.0  1.0263
  Zn  Zn5  1  0.235750  0.968050  0.008820  1.0  1.0266
  Zn  Zn6  1  0.735750  0.468050  0.008820  1.0  1.0266
  Zn  Zn7  1  0.764250  0.968050  0.491180  1.0  1.0278
  Zn  Zn8  1  0.264250  0.468050  0.491180  1.0  1.0278
  H  H9  1  0.709500  0.247800  0.170900  1.0  0.1216
  H  H10  1  0.641600  0.343400  0.551400  1.0  0.1341
  H  H11  1  0.656300  0.105400  0.518900  1.0  0.1163
  H  H12  1  0.641600  0.111400  0.793800  1.0  0.0916
  H  H13  1  0.580000  0.115800  0.653600  1.0  0.0837
  H  H14  1  0.586400  0.034500  0.971900  1.0  0.1063
  H  H15  1  0.537600  0.036300  0.193400  1.0  0.1114
  H  H16  1  0.508000  0.270400  0.117200  1.0  0.1269
  H  H17  1  0.557000  0.267400  0.890800  1.0  0.112
  H  H18  1  0.209500  0.747800  0.170900  1.0  0.1216
  H  H19  1  0.141600  0.843400  0.551400  1.0  0.1341
  H  H20  1  0.156300  0.605400  0.518900  1.0  0.1163
  H  H21  1  0.141600  0.611400  0.793800  1.0  0.0916
  H  H22  1  0.080000  0.615800  0.653600  1.0  0.0837
  H  H23  1  0.086400  0.534500  0.971900  1.0  0.1063
  H  H24  1  0.037600  0.536300  0.193400  1.0  0.1114
  H  H25  1  0.008000  0.770400  0.117200  1.0  0.1269
  H  H26  1  0.057000  0.767400  0.890800  1.0  0.112
  H  H27  1  0.290500  0.247800  0.329100  1.0  0.1205
  H  H28  1  0.358400  0.343400  0.948600  1.0  0.134
  H  H29  1  0.343700  0.105400  0.981100  1.0  0.1162
  H  H30  1  0.358400  0.111400  0.706200  1.0  0.0916
  H  H31  1  0.420000  0.115800  0.846400  1.0  0.0831
  H  H32  1  0.413600  0.034500  0.528100  1.0  0.1061
  H  H33  1  0.462400  0.036300  0.306600  1.0  0.1111
  H  H34  1  0.492000  0.270400  0.382800  1.0  0.1272
  H  H35  1  0.443000  0.267400  0.609200  1.0  0.1115
  H  H36  1  0.790500  0.747800  0.329100  1.0  0.1205
  H  H37  1  0.858400  0.843400  0.948600  1.0  0.134
  H  H38  1  0.843700  0.605400  0.981100  1.0  0.1162
  H  H39  1  0.858400  0.611400  0.706200  1.0  0.0916
  H  H40  1  0.920000  0.615800  0.846400  1.0  0.0831
  H  H41  1  0.913600  0.534500  0.528100  1.0  0.1061
  H  H42  1  0.962400  0.536300  0.306600  1.0  0.1111
  H  H43  1  0.992000  0.770400  0.382800  1.0  0.1272
  H  H44  1  0.943000  0.767400  0.609200  1.0  0.1115
  H  H45  1  0.290500  0.752200  0.829100  1.0  0.1209
  H  H46  1  0.358400  0.656600  0.448600  1.0  0.1338
  H  H47  1  0.343700  0.894600  0.481100  1.0  0.1162
  H  H48  1  0.358400  0.888600  0.206200  1.0  0.0915
  H  H49  1  0.420000  0.884200  0.346400  1.0  0.0827
  H  H50  1  0.413600  0.965500  0.028100  1.0  0.1063
  H  H51  1  0.462400  0.963700  0.806600  1.0  0.1108
  H  H52  1  0.492000  0.729600  0.882800  1.0  0.1279
  H  H53  1  0.443000  0.732600  0.109200  1.0  0.1122
  H  H54  1  0.790500  0.252200  0.829100  1.0  0.1209
  H  H55  1  0.858400  0.156600  0.448600  1.0  0.1338
  H  H56  1  0.843700  0.394600  0.481100  1.0  0.1162
  H  H57  1  0.858400  0.388600  0.206200  1.0  0.0915
  H  H58  1  0.920000  0.384200  0.346400  1.0  0.0827
  H  H59  1  0.913600  0.465500  0.028100  1.0  0.1063
  H  H60  1  0.962400  0.463700  0.806600  1.0  0.1108
  H  H61  1  0.992000  0.229600  0.882800  1.0  0.1279
  H  H62  1  0.943000  0.232600  0.109200  1.0  0.1122
  H  H63  1  0.709500  0.752200  0.670900  1.0  0.1216
  H  H64  1  0.641600  0.656600  0.051400  1.0  0.1335
  H  H65  1  0.656300  0.894600  0.018900  1.0  0.1161
  H  H66  1  0.641600  0.888600  0.293800  1.0  0.0906
  H  H67  1  0.580000  0.884200  0.153600  1.0  0.0829
  H  H68  1  0.586400  0.965500  0.471900  1.0  0.1063
  H  H69  1  0.537600  0.963700  0.693400  1.0  0.1114
  H  H70  1  0.508000  0.729600  0.617200  1.0  0.1277
  H  H71  1  0.557000  0.732600  0.390800  1.0  0.1121
  H  H72  1  0.209500  0.252200  0.670900  1.0  0.1216
  H  H73  1  0.141600  0.156600  0.051400  1.0  0.1335
  H  H74  1  0.156300  0.394600  0.018900  1.0  0.1161
  H  H75  1  0.141600  0.388600  0.293800  1.0  0.0906
  H  H76  1  0.080000  0.384200  0.153600  1.0  0.0829
  H  H77  1  0.086400  0.465500  0.471900  1.0  0.1063
  H  H78  1  0.037600  0.463700  0.693400  1.0  0.1114
  H  H79  1  0.008000  0.229600  0.617200  1.0  0.1277
  H  H80  1  0.057000  0.232600  0.390800  1.0  0.1121
  C  C81  1  0.706670  0.096000  0.248300  1.0  0.6786
  C  C82  1  0.685950  0.166400  0.331700  1.0  -0.127
  C  C83  1  0.693620  0.241400  0.268900  1.0  -0.0346
  C  C84  1  0.677470  0.307300  0.352600  1.0  -0.1414
  C  C85  1  0.652690  0.298600  0.496600  1.0  -0.1278
  C  C86  1  0.644600  0.222700  0.558500  1.0  0.2996
  C  C87  1  0.661300  0.156400  0.477100  1.0  -0.1813
  C  C88  1  0.689100  0.389000  0.290000  1.0  0.708
  C  C89  1  0.605900  0.142900  0.754500  1.0  0.0017
  C  C90  1  0.575900  0.150700  0.906500  1.0  0.0121
  C  C91  1  0.570260  0.082100  0.999600  1.0  -0.1307
  C  C92  1  0.541090  0.083400  0.132600  1.0  -0.1021
  C  C93  1  0.516830  0.152600  0.178200  1.0  0.0061
  C  C94  1  0.523300  0.222500  0.087500  1.0  -0.0932
  C  C95  1  0.552890  0.220600  0.951500  1.0  -0.0615
  C  C96  1  0.206670  0.596000  0.248300  1.0  0.6786
  C  C97  1  0.185950  0.666400  0.331700  1.0  -0.127
  C  C98  1  0.193620  0.741400  0.268900  1.0  -0.0346
  C  C99  1  0.177470  0.807300  0.352600  1.0  -0.1414
  C  C100  1  0.152690  0.798600  0.496600  1.0  -0.1278
  C  C101  1  0.144600  0.722700  0.558500  1.0  0.2996
  C  C102  1  0.161300  0.656400  0.477100  1.0  -0.1813
  C  C103  1  0.189100  0.889000  0.290000  1.0  0.708
  C  C104  1  0.105900  0.642900  0.754500  1.0  0.0017
  C  C105  1  0.075900  0.650700  0.906500  1.0  0.0121
  C  C106  1  0.070260  0.582100  0.999600  1.0  -0.1307
  C  C107  1  0.041090  0.583400  0.132600  1.0  -0.1021
  C  C108  1  0.016830  0.652600  0.178200  1.0  0.0061
  C  C109  1  0.023300  0.722500  0.087500  1.0  -0.0932
  C  C110  1  0.052890  0.720600  0.951500  1.0  -0.0615
  C  C111  1  0.293330  0.096000  0.251700  1.0  0.6766
  C  C112  1  0.314050  0.166400  0.168300  1.0  -0.1284
  C  C113  1  0.306380  0.241400  0.231100  1.0  -0.0347
  C  C114  1  0.322530  0.307300  0.147400  1.0  -0.1411
  C  C115  1  0.347310  0.298600  0.003400  1.0  -0.1284
  C  C116  1  0.355400  0.222700  0.941500  1.0  0.2999
  C  C117  1  0.338700  0.156400  0.022900  1.0  -0.183
  C  C118  1  0.310900  0.389000  0.210000  1.0  0.705
  C  C119  1  0.394100  0.142900  0.745500  1.0  0.002
  C  C120  1  0.424100  0.150700  0.593500  1.0  0.0127
  C  C121  1  0.429740  0.082100  0.500400  1.0  -0.1309
  C  C122  1  0.458910  0.083400  0.367400  1.0  -0.1028
  C  C123  1  0.483170  0.152600  0.321800  1.0  0.0063
  C  C124  1  0.476700  0.222500  0.412500  1.0  -0.0914
  C  C125  1  0.447110  0.220600  0.548500  1.0  -0.0614
  C  C126  1  0.793330  0.596000  0.251700  1.0  0.6766
  C  C127  1  0.814050  0.666400  0.168300  1.0  -0.1284
  C  C128  1  0.806380  0.741400  0.231100  1.0  -0.0347
  C  C129  1  0.822530  0.807300  0.147400  1.0  -0.1411
  C  C130  1  0.847310  0.798600  0.003400  1.0  -0.1284
  C  C131  1  0.855400  0.722700  0.941500  1.0  0.2999
  C  C132  1  0.838700  0.656400  0.022900  1.0  -0.183
  C  C133  1  0.810900  0.889000  0.210000  1.0  0.705
  C  C134  1  0.894100  0.642900  0.745500  1.0  0.002
  C  C135  1  0.924100  0.650700  0.593500  1.0  0.0127
  C  C136  1  0.929740  0.582100  0.500400  1.0  -0.1309
  C  C137  1  0.958910  0.583400  0.367400  1.0  -0.1028
  C  C138  1  0.983170  0.652600  0.321800  1.0  0.0063
  C  C139  1  0.976700  0.722500  0.412500  1.0  -0.0914
  C  C140  1  0.947110  0.720600  0.548500  1.0  -0.0614
  C  C141  1  0.293330  0.904000  0.751700  1.0  0.6772
  C  C142  1  0.314050  0.833600  0.668300  1.0  -0.1288
  C  C143  1  0.306380  0.758600  0.731100  1.0  -0.0344
  C  C144  1  0.322530  0.692700  0.647400  1.0  -0.1399
  C  C145  1  0.347310  0.701400  0.503400  1.0  -0.1292
  C  C146  1  0.355400  0.777300  0.441500  1.0  0.2991
  C  C147  1  0.338700  0.843600  0.522900  1.0  -0.1837
  C  C148  1  0.310900  0.611000  0.710000  1.0  0.7045
  C  C149  1  0.394100  0.857100  0.245500  1.0  0.0026
  C  C150  1  0.424100  0.849300  0.093500  1.0  0.0121
  C  C151  1  0.429740  0.917900  0.000400  1.0  -0.1301
  C  C152  1  0.458910  0.916600  0.867400  1.0  -0.1027
  C  C153  1  0.483170  0.847400  0.821800  1.0  0.0068
  C  C154  1  0.476700  0.777500  0.912500  1.0  -0.0929
  C  C155  1  0.447110  0.779400  0.048500  1.0  -0.0601
  C  C156  1  0.793330  0.404000  0.751700  1.0  0.6772
  C  C157  1  0.814050  0.333600  0.668300  1.0  -0.1288
  C  C158  1  0.806380  0.258600  0.731100  1.0  -0.0344
  C  C159  1  0.822530  0.192700  0.647400  1.0  -0.1399
  C  C160  1  0.847310  0.201400  0.503400  1.0  -0.1292
  C  C161  1  0.855400  0.277300  0.441500  1.0  0.2991
  C  C162  1  0.838700  0.343600  0.522900  1.0  -0.1837
  C  C163  1  0.810900  0.111000  0.710000  1.0  0.7045
  C  C164  1  0.894100  0.357100  0.245500  1.0  0.0026
  C  C165  1  0.924100  0.349300  0.093500  1.0  0.0121
  C  C166  1  0.929740  0.417900  0.000400  1.0  -0.1301
  C  C167  1  0.958910  0.416600  0.867400  1.0  -0.1027
  C  C168  1  0.983170  0.347400  0.821800  1.0  0.0068
  C  C169  1  0.976700  0.277500  0.912500  1.0  -0.0929
  C  C170  1  0.947110  0.279400  0.048500  1.0  -0.0601
  C  C171  1  0.706670  0.904000  0.748300  1.0  0.6787
  C  C172  1  0.685950  0.833600  0.831700  1.0  -0.1272
  C  C173  1  0.693620  0.758600  0.768900  1.0  -0.0343
  C  C174  1  0.677470  0.692700  0.852600  1.0  -0.1402
  C  C175  1  0.652690  0.701400  0.996600  1.0  -0.1277
  C  C176  1  0.644600  0.777300  0.058500  1.0  0.2995
  C  C177  1  0.661300  0.843600  0.977100  1.0  -0.1822
  C  C178  1  0.689100  0.611000  0.790000  1.0  0.7038
  C  C179  1  0.605900  0.857100  0.254500  1.0  0.0023
  C  C180  1  0.575900  0.849300  0.406500  1.0  0.0121
  C  C181  1  0.570260  0.917900  0.499600  1.0  -0.1299
  C  C182  1  0.541090  0.916600  0.632600  1.0  -0.1033
  C  C183  1  0.516830  0.847400  0.678200  1.0  0.0064
  C  C184  1  0.523300  0.777500  0.587500  1.0  -0.0916
  C  C185  1  0.552890  0.779400  0.451500  1.0  -0.0604
  C  C186  1  0.206670  0.404000  0.748300  1.0  0.6787
  C  C187  1  0.185950  0.333600  0.831700  1.0  -0.1272
  C  C188  1  0.193620  0.258600  0.768900  1.0  -0.0343
  C  C189  1  0.177470  0.192700  0.852600  1.0  -0.1402
  C  C190  1  0.152690  0.201400  0.996600  1.0  -0.1277
  C  C191  1  0.144600  0.277300  0.058500  1.0  0.2995
  C  C192  1  0.161300  0.343600  0.977100  1.0  -0.1822
  C  C193  1  0.189100  0.111000  0.790000  1.0  0.7038
  C  C194  1  0.105900  0.357100  0.254500  1.0  0.0023
  C  C195  1  0.075900  0.349300  0.406500  1.0  0.0121
  C  C196  1  0.070260  0.417900  0.499600  1.0  -0.1299
  C  C197  1  0.041090  0.416600  0.632600  1.0  -0.1033
  C  C198  1  0.016830  0.347400  0.678200  1.0  0.0064
  C  C199  1  0.023300  0.277500  0.587500  1.0  -0.0916
  C  C200  1  0.052890  0.279400  0.451500  1.0  -0.0604
  O  O201  1  0.727020  0.107440  0.115500  1.0  -0.582
  O  O202  1  0.703290  0.026590  0.314000  1.0  -0.6225
  O  O203  1  0.701460  0.394300  0.141700  1.0  -0.6227
  O  O204  1  0.685560  0.447290  0.391100  1.0  -0.6456
  O  O205  1  0.620010  0.219700  0.701200  1.0  -0.2621
  O  O206  1  0.227020  0.607440  0.115500  1.0  -0.582
  O  O207  1  0.203290  0.526590  0.314000  1.0  -0.6225
  O  O208  1  0.201460  0.894300  0.141700  1.0  -0.6227
  O  O209  1  0.185560  0.947290  0.391100  1.0  -0.6456
  O  O210  1  0.120010  0.719700  0.701200  1.0  -0.2621
  O  O211  1  0.272980  0.107440  0.384500  1.0  -0.5817
  O  O212  1  0.296710  0.026590  0.186000  1.0  -0.6228
  O  O213  1  0.298540  0.394300  0.358300  1.0  -0.6212
  O  O214  1  0.314440  0.447290  0.108900  1.0  -0.6409
  O  O215  1  0.379990  0.219700  0.798800  1.0  -0.2625
  O  O216  1  0.772980  0.607440  0.384500  1.0  -0.5817
  O  O217  1  0.796710  0.526590  0.186000  1.0  -0.6228
  O  O218  1  0.798540  0.894300  0.358300  1.0  -0.6212
  O  O219  1  0.814440  0.947290  0.108900  1.0  -0.6409
  O  O220  1  0.879990  0.719700  0.798800  1.0  -0.2625
  O  O221  1  0.272980  0.892560  0.884500  1.0  -0.5813
  O  O222  1  0.296710  0.973410  0.686000  1.0  -0.6238
  O  O223  1  0.298540  0.605700  0.858300  1.0  -0.6214
  O  O224  1  0.314440  0.552710  0.608900  1.0  -0.6434
  O  O225  1  0.379990  0.780300  0.298800  1.0  -0.2632
  O  O226  1  0.772980  0.392560  0.884500  1.0  -0.5813
  O  O227  1  0.796710  0.473410  0.686000  1.0  -0.6238
  O  O228  1  0.798540  0.105700  0.858300  1.0  -0.6214
  O  O229  1  0.814440  0.052710  0.608900  1.0  -0.6434
  O  O230  1  0.879990  0.280300  0.298800  1.0  -0.2632
  O  O231  1  0.727020  0.892560  0.615500  1.0  -0.582
  O  O232  1  0.703290  0.973410  0.814000  1.0  -0.6232
  O  O233  1  0.701460  0.605700  0.641700  1.0  -0.6219
  O  O234  1  0.685560  0.552710  0.891100  1.0  -0.644
  O  O235  1  0.620010  0.780300  0.201200  1.0  -0.2636
  O  O236  1  0.227020  0.392560  0.615500  1.0  -0.582
  O  O237  1  0.203290  0.473410  0.814000  1.0  -0.6232
  O  O238  1  0.201460  0.105700  0.641700  1.0  -0.6219
  O  O239  1  0.185560  0.052710  0.891100  1.0  -0.644
  O  O240  1  0.120010  0.280300  0.201200  1.0  -0.2636
