# generated using pymatgen
data_ZnH9(C3O)5
_symmetry_space_group_name_H-M   'P 1'
_cell_length_a   9.32430000
_cell_length_b   14.45350000
_cell_length_c   26.93900000
_cell_angle_alpha   90.00000000
_cell_angle_beta   90.00000000
_cell_angle_gamma   93.06800000
_symmetry_Int_Tables_number   1
_chemical_formula_structural   ZnH9(C3O)5
_chemical_formula_sum   'Zn8 H72 C120 O40'
_cell_volume   3625.33231425
_cell_formula_units_Z   8
loop_
 _symmetry_equiv_pos_site_id
 _symmetry_equiv_pos_as_xyz
  1  'x, y, z'
loop_
 _atom_site_type_symbol
 _atom_site_label
 _atom_site_symmetry_multiplicity
 _atom_site_fract_x
 _atom_site_fract_y
 _atom_site_fract_z
 _atom_site_occupancy
 _atom_site_charge
  Zn  Zn1  1  0.647650  0.121810  0.320960  1.0  1.1617
  Zn  Zn2  1  0.967670  0.111930  0.379600  1.0  1.0368
  Zn  Zn3  1  0.352350  0.378190  0.820960  1.0  1.166
  Zn  Zn4  1  0.032330  0.388070  0.879600  1.0  1.0372
  Zn  Zn5  1  0.352350  0.878190  0.679040  1.0  1.1676
  Zn  Zn6  1  0.032330  0.888070  0.620400  1.0  1.0373
  Zn  Zn7  1  0.647650  0.621810  0.179040  1.0  1.1641
  Zn  Zn8  1  0.967670  0.611930  0.120400  1.0  1.0372
  H  H9  1  0.104100  0.347200  0.364900  1.0  0.114
  H  H10  1  0.160800  0.560700  0.269200  1.0  0.1367
  H  H11  1  0.807800  0.388000  0.260300  1.0  0.1128
  H  H12  1  0.336700  0.372100  0.371800  1.0  0.0755
  H  H13  1  0.259800  0.436300  0.409600  1.0  0.068
  H  H14  1  0.603100  0.394400  0.361200  1.0  0.1186
  H  H15  1  0.813900  0.465000  0.389400  1.0  0.0801
  H  H16  1  0.607100  0.652400  0.467600  1.0  0.1093
  H  H17  1  0.411800  0.550200  0.456300  1.0  0.075
  H  H18  1  0.004700  0.521600  0.415900  1.0  0.1069
  H  H19  1  0.204000  0.617200  0.433100  1.0  0.0812
  H  H20  1  0.001100  0.764400  0.531300  1.0  0.0989
  H  H21  1  0.789400  0.693500  0.503000  1.0  0.1023
  H  H22  1  0.256200  0.760000  0.542700  1.0  0.0789
  H  H23  1  0.341300  0.683500  0.515500  1.0  0.0742
  H  H24  1  0.443400  0.915000  0.418700  1.0  0.1282
  H  H25  1  0.809100  0.968000  0.493800  1.0  0.1089
  H  H26  1  0.510700  0.781500  0.545400  1.0  0.0997
  H  H27  1  0.895900  0.152800  0.864900  1.0  0.1136
  H  H28  1  0.839200  0.939300  0.769200  1.0  0.1361
  H  H29  1  0.192200  0.112000  0.760300  1.0  0.113
  H  H30  1  0.663300  0.127900  0.871800  1.0  0.0757
  H  H31  1  0.740200  0.063700  0.909600  1.0  0.0681
  H  H32  1  0.396900  0.105600  0.861200  1.0  0.1201
  H  H33  1  0.186100  0.035000  0.889400  1.0  0.0802
  H  H34  1  0.392900  0.847600  0.967600  1.0  0.1089
  H  H35  1  0.588200  0.949800  0.956300  1.0  0.0747
  H  H36  1  0.995300  0.978400  0.915900  1.0  0.1069
  H  H37  1  0.796000  0.882800  0.933100  1.0  0.0803
  H  H38  1  0.998900  0.735600  0.031300  1.0  0.099
  H  H39  1  0.210600  0.806500  0.003000  1.0  0.1023
  H  H40  1  0.743800  0.740000  0.042700  1.0  0.0792
  H  H41  1  0.658700  0.816500  0.015500  1.0  0.0741
  H  H42  1  0.556600  0.585000  0.918700  1.0  0.1285
  H  H43  1  0.190900  0.532000  0.993800  1.0  0.1086
  H  H44  1  0.489300  0.718500  0.045400  1.0  0.0996
  H  H45  1  0.895900  0.652800  0.635100  1.0  0.1148
  H  H46  1  0.839200  0.439300  0.730800  1.0  0.136
  H  H47  1  0.192200  0.612000  0.739700  1.0  0.1135
  H  H48  1  0.663300  0.627900  0.628200  1.0  0.0758
  H  H49  1  0.740200  0.563700  0.590400  1.0  0.0668
  H  H50  1  0.396900  0.605600  0.638800  1.0  0.1176
  H  H51  1  0.186100  0.535000  0.610600  1.0  0.0802
  H  H52  1  0.392900  0.347600  0.532400  1.0  0.1094
  H  H53  1  0.588200  0.449800  0.543700  1.0  0.0746
  H  H54  1  0.995300  0.478400  0.584100  1.0  0.1063
  H  H55  1  0.796000  0.382800  0.566900  1.0  0.0801
  H  H56  1  0.998900  0.235600  0.468700  1.0  0.0992
  H  H57  1  0.210600  0.306500  0.497000  1.0  0.1035
  H  H58  1  0.743800  0.240000  0.457300  1.0  0.0786
  H  H59  1  0.658700  0.316500  0.484500  1.0  0.0737
  H  H60  1  0.556600  0.085000  0.581300  1.0  0.1293
  H  H61  1  0.190900  0.032000  0.506200  1.0  0.1087
  H  H62  1  0.489300  0.218500  0.454600  1.0  0.0999
  H  H63  1  0.104100  0.847200  0.135100  1.0  0.1146
  H  H64  1  0.160800  0.060700  0.230800  1.0  0.1363
  H  H65  1  0.807800  0.888000  0.239700  1.0  0.1131
  H  H66  1  0.336700  0.872100  0.128200  1.0  0.0763
  H  H67  1  0.259800  0.936300  0.090400  1.0  0.0668
  H  H68  1  0.603100  0.894400  0.138800  1.0  0.1184
  H  H69  1  0.813900  0.965000  0.110600  1.0  0.0803
  H  H70  1  0.607100  0.152400  0.032400  1.0  0.1098
  H  H71  1  0.411800  0.050200  0.043700  1.0  0.0753
  H  H72  1  0.004700  0.021600  0.084100  1.0  0.1061
  H  H73  1  0.204000  0.117200  0.066900  1.0  0.0816
  H  H74  1  0.001100  0.264400  0.968700  1.0  0.0994
  H  H75  1  0.789400  0.193500  0.997000  1.0  0.1038
  H  H76  1  0.256200  0.260000  0.957300  1.0  0.0792
  H  H77  1  0.341300  0.183500  0.984500  1.0  0.0736
  H  H78  1  0.443400  0.415000  0.081300  1.0  0.1298
  H  H79  1  0.809100  0.468000  0.006200  1.0  0.1088
  H  H80  1  0.510700  0.281500  0.954600  1.0  0.1001
  C  C81  1  0.944400  0.354900  0.315500  1.0  -0.1053
  C  C82  1  0.071700  0.381100  0.338190  1.0  -0.1775
  C  C83  1  0.152000  0.458300  0.321390  1.0  0.2412
  C  C84  1  0.106300  0.509400  0.280720  1.0  -0.1408
  C  C85  1  0.977000  0.481200  0.258020  1.0  -0.1133
  C  C86  1  0.895000  0.405300  0.275290  1.0  -0.0177
  C  C87  1  0.866900  0.268100  0.331510  1.0  0.718
  C  C88  1  0.923600  0.532600  0.213640  1.0  0.7199
  C  C89  1  0.328100  0.435700  0.382470  1.0  0.0914
  C  C90  1  0.473500  0.477600  0.399070  1.0  0.0019
  C  C91  1  0.601600  0.444100  0.383070  1.0  -0.1467
  C  C92  1  0.728200  0.487300  0.400710  1.0  -0.1195
  C  C93  1  0.737700  0.561100  0.433890  1.0  0.0317
  C  C94  1  0.611100  0.597300  0.449950  1.0  -0.1078
  C  C95  1  0.492600  0.542600  0.436810  1.0  -0.0854
  C  C96  1  0.874600  0.605900  0.454570  1.0  0.0272
  C  C97  1  0.001200  0.573300  0.436290  1.0  -0.123
  C  C98  1  0.121000  0.625100  0.451430  1.0  -0.0866
  C  C99  1  0.134600  0.688700  0.491010  1.0  0.004
  C  C100  1  0.003700  0.717100  0.508030  1.0  -0.0896
  C  C101  1  0.876200  0.674900  0.490380  1.0  -0.1245
  C  C102  1  0.271900  0.730500  0.511020  1.0  0.0984
  C  C103  1  0.452800  0.842800  0.483290  1.0  0.2515
  C  C104  1  0.500300  0.905300  0.446340  1.0  -0.129
  C  C105  1  0.632800  0.952600  0.451310  1.0  -0.1531
  C  C106  1  0.719300  0.937000  0.491450  1.0  -0.0294
  C  C107  1  0.673400  0.875000  0.528770  1.0  -0.0881
  C  C108  1  0.540000  0.826400  0.522260  1.0  -0.204
  C  C109  1  0.686600  0.017800  0.411900  1.0  0.7284
  C  C110  1  0.766600  0.858400  0.571090  1.0  0.68
  C  C111  1  0.055600  0.145100  0.815500  1.0  -0.1049
  C  C112  1  0.928300  0.118900  0.838190  1.0  -0.1809
  C  C113  1  0.848000  0.041700  0.821390  1.0  0.2375
  C  C114  1  0.893700  0.990600  0.780720  1.0  -0.1405
  C  C115  1  0.023000  0.018800  0.758020  1.0  -0.1143
  C  C116  1  0.105000  0.094700  0.775290  1.0  -0.0256
  C  C117  1  0.133100  0.231900  0.831510  1.0  0.7189
  C  C118  1  0.076400  0.967400  0.713640  1.0  0.7194
  C  C119  1  0.671900  0.064300  0.882470  1.0  0.0907
  C  C120  1  0.526500  0.022400  0.899070  1.0  0.0012
  C  C121  1  0.398400  0.055900  0.883070  1.0  -0.1432
  C  C122  1  0.271800  0.012700  0.900710  1.0  -0.1196
  C  C123  1  0.262300  0.938900  0.933890  1.0  0.0303
  C  C124  1  0.388900  0.902700  0.949950  1.0  -0.1082
  C  C125  1  0.507400  0.957400  0.936810  1.0  -0.0851
  C  C126  1  0.125400  0.894100  0.954570  1.0  0.0278
  C  C127  1  0.998800  0.926700  0.936290  1.0  -0.1246
  C  C128  1  0.879000  0.874900  0.951430  1.0  -0.0876
  C  C129  1  0.865400  0.811300  0.991010  1.0  0.0037
  C  C130  1  0.996300  0.782900  0.008030  1.0  -0.0899
  C  C131  1  0.123800  0.825100  0.990380  1.0  -0.1259
  C  C132  1  0.728100  0.769500  0.011020  1.0  0.0986
  C  C133  1  0.547200  0.657200  0.983290  1.0  0.2511
  C  C134  1  0.499700  0.594700  0.946340  1.0  -0.1285
  C  C135  1  0.367200  0.547400  0.951310  1.0  -0.1534
  C  C136  1  0.280700  0.563000  0.991450  1.0  -0.0287
  C  C137  1  0.326600  0.625000  0.028770  1.0  -0.0877
  C  C138  1  0.460000  0.673600  0.022260  1.0  -0.2043
  C  C139  1  0.313400  0.482200  0.911900  1.0  0.7281
  C  C140  1  0.233400  0.641600  0.071090  1.0  0.6788
  C  C141  1  0.055600  0.645100  0.684500  1.0  -0.1046
  C  C142  1  0.928300  0.618900  0.661810  1.0  -0.1848
  C  C143  1  0.848000  0.541700  0.678610  1.0  0.2393
  C  C144  1  0.893700  0.490600  0.719280  1.0  -0.14
  C  C145  1  0.023000  0.518800  0.741980  1.0  -0.1126
  C  C146  1  0.105000  0.594700  0.724710  1.0  -0.018
  C  C147  1  0.133100  0.731900  0.668490  1.0  0.7201
  C  C148  1  0.076400  0.467400  0.786360  1.0  0.7196
  C  C149  1  0.671900  0.564300  0.617530  1.0  0.0913
  C  C150  1  0.526500  0.522400  0.600930  1.0  0.0035
  C  C151  1  0.398400  0.555900  0.616930  1.0  -0.141
  C  C152  1  0.271800  0.512700  0.599290  1.0  -0.1194
  C  C153  1  0.262300  0.438900  0.566110  1.0  0.0325
  C  C154  1  0.388900  0.402700  0.550050  1.0  -0.1085
  C  C155  1  0.507400  0.457400  0.563190  1.0  -0.0849
  C  C156  1  0.125400  0.394100  0.545430  1.0  0.0288
  C  C157  1  0.998800  0.426700  0.563710  1.0  -0.1229
  C  C158  1  0.879000  0.374900  0.548570  1.0  -0.0856
  C  C159  1  0.865400  0.311300  0.508990  1.0  0.0036
  C  C160  1  0.996300  0.282900  0.491970  1.0  -0.0906
  C  C161  1  0.123800  0.325100  0.509620  1.0  -0.1251
  C  C162  1  0.728100  0.269500  0.488980  1.0  0.0977
  C  C163  1  0.547200  0.157200  0.516710  1.0  0.2526
  C  C164  1  0.499700  0.094700  0.553660  1.0  -0.1251
  C  C165  1  0.367200  0.047400  0.548690  1.0  -0.1516
  C  C166  1  0.280700  0.063000  0.508550  1.0  -0.0286
  C  C167  1  0.326600  0.125000  0.471230  1.0  -0.0884
  C  C168  1  0.460000  0.173600  0.477740  1.0  -0.2031
  C  C169  1  0.313400  0.982200  0.588100  1.0  0.7281
  C  C170  1  0.233400  0.141600  0.428910  1.0  0.6791
  C  C171  1  0.944400  0.854900  0.184500  1.0  -0.1042
  C  C172  1  0.071700  0.881100  0.161810  1.0  -0.1798
  C  C173  1  0.152000  0.958300  0.178610  1.0  0.2412
  C  C174  1  0.106300  0.009400  0.219280  1.0  -0.1401
  C  C175  1  0.977000  0.981200  0.241980  1.0  -0.1132
  C  C176  1  0.895000  0.905300  0.224710  1.0  -0.0147
  C  C177  1  0.866900  0.768100  0.168490  1.0  0.7198
  C  C178  1  0.923600  0.032600  0.286360  1.0  0.7199
  C  C179  1  0.328100  0.935700  0.117530  1.0  0.0914
  C  C180  1  0.473500  0.977600  0.100930  1.0  0.0032
  C  C181  1  0.601600  0.944100  0.116930  1.0  -0.1418
  C  C182  1  0.728200  0.987300  0.099290  1.0  -0.1192
  C  C183  1  0.737700  0.061100  0.066110  1.0  0.0317
  C  C184  1  0.611100  0.097300  0.050050  1.0  -0.1093
  C  C185  1  0.492600  0.042600  0.063190  1.0  -0.0865
  C  C186  1  0.874600  0.105900  0.045430  1.0  0.029
  C  C187  1  0.001200  0.073300  0.063710  1.0  -0.1226
  C  C188  1  0.121000  0.125100  0.048570  1.0  -0.0846
  C  C189  1  0.134600  0.188700  0.008990  1.0  0.004
  C  C190  1  0.003700  0.217100  0.991970  1.0  -0.0898
  C  C191  1  0.876200  0.174900  0.009620  1.0  -0.1247
  C  C192  1  0.271900  0.230500  0.988980  1.0  0.098
  C  C193  1  0.452800  0.342800  0.016710  1.0  0.2526
  C  C194  1  0.500300  0.405300  0.053660  1.0  -0.1282
  C  C195  1  0.632800  0.452600  0.048690  1.0  -0.1515
  C  C196  1  0.719300  0.437000  0.008550  1.0  -0.0293
  C  C197  1  0.673400  0.375000  0.971230  1.0  -0.0872
  C  C198  1  0.540000  0.326400  0.977740  1.0  -0.2028
  C  C199  1  0.686600  0.517800  0.088100  1.0  0.73
  C  C200  1  0.766600  0.358400  0.928910  1.0  0.6793
  O  O201  1  0.771400  0.232870  0.303290  1.0  -0.6394
  O  O202  1  0.900100  0.236810  0.371840  1.0  -0.6062
  O  O203  1  0.281900  0.489990  0.342760  1.0  -0.2948
  O  O204  1  0.323000  0.799060  0.474030  1.0  -0.2817
  O  O205  1  0.733100  0.801300  0.605220  1.0  -0.6234
  O  O206  1  0.888500  0.903410  0.571310  1.0  -0.6155
  O  O207  1  0.815800  0.040500  0.414160  1.0  -0.595
  O  O208  1  0.793200  0.529450  0.205320  1.0  -0.6407
  O  O209  1  0.021700  0.572040  0.186050  1.0  -0.5969
  O  O210  1  0.600200  0.045580  0.379950  1.0  -0.6336
  O  O211  1  0.228600  0.267130  0.803290  1.0  -0.6403
  O  O212  1  0.099900  0.263190  0.871840  1.0  -0.6063
  O  O213  1  0.718100  0.010010  0.842760  1.0  -0.2925
  O  O214  1  0.677000  0.700940  0.974030  1.0  -0.2825
  O  O215  1  0.266900  0.698700  0.105220  1.0  -0.6208
  O  O216  1  0.111500  0.596590  0.071310  1.0  -0.6156
  O  O217  1  0.184200  0.459500  0.914160  1.0  -0.5934
  O  O218  1  0.206800  0.970550  0.705320  1.0  -0.643
  O  O219  1  0.978300  0.927960  0.686050  1.0  -0.5965
  O  O220  1  0.399800  0.454420  0.879950  1.0  -0.6359
  O  O221  1  0.228600  0.767130  0.696710  1.0  -0.6395
  O  O222  1  0.099900  0.763190  0.628160  1.0  -0.6071
  O  O223  1  0.718100  0.510010  0.657240  1.0  -0.2945
  O  O224  1  0.677000  0.200940  0.525970  1.0  -0.282
  O  O225  1  0.266900  0.198700  0.394780  1.0  -0.6242
  O  O226  1  0.111500  0.096590  0.428690  1.0  -0.6154
  O  O227  1  0.184200  0.959500  0.585840  1.0  -0.594
  O  O228  1  0.206800  0.470550  0.794680  1.0  -0.6436
  O  O229  1  0.978300  0.427960  0.813950  1.0  -0.5962
  O  O230  1  0.399800  0.954420  0.620050  1.0  -0.6301
  O  O231  1  0.771400  0.732870  0.196710  1.0  -0.6393
  O  O232  1  0.900100  0.736810  0.128160  1.0  -0.6069
  O  O233  1  0.281900  0.989990  0.157240  1.0  -0.2941
  O  O234  1  0.323000  0.299060  0.025970  1.0  -0.2826
  O  O235  1  0.733100  0.301300  0.894780  1.0  -0.6244
  O  O236  1  0.888500  0.403410  0.928690  1.0  -0.6157
  O  O237  1  0.815800  0.540500  0.085840  1.0  -0.5956
  O  O238  1  0.793200  0.029450  0.294680  1.0  -0.6417
  O  O239  1  0.021700  0.072040  0.313950  1.0  -0.5967
  O  O240  1  0.600200  0.545580  0.120050  1.0  -0.6279
