# generated using pymatgen
data_MnH9(C3O)5
_symmetry_space_group_name_H-M   'P 1'
_cell_length_a   8.68010000
_cell_length_b   13.92790000
_cell_length_c   28.70800000
_cell_angle_alpha   90.00000000
_cell_angle_beta   90.00000000
_cell_angle_gamma   90.91000000
_symmetry_Int_Tables_number   1
_chemical_formula_structural   MnH9(C3O)5
_chemical_formula_sum   'Mn8 H72 C120 O40'
_cell_volume   3470.23213856
_cell_formula_units_Z   8
loop_
 _symmetry_equiv_pos_site_id
 _symmetry_equiv_pos_as_xyz
  1  'x, y, z'
loop_
 _atom_site_type_symbol
 _atom_site_label
 _atom_site_symmetry_multiplicity
 _atom_site_fract_x
 _atom_site_fract_y
 _atom_site_fract_z
 _atom_site_occupancy
 _atom_site_charge
  Mn  Mn1  1  0.029070  0.948510  0.126710  1.0  1.096
  Mn  Mn2  1  0.421180  0.937740  0.164900  1.0  1.2007
  Mn  Mn3  1  0.970930  0.551490  0.626710  1.0  1.0979
  Mn  Mn4  1  0.578820  0.562260  0.664900  1.0  1.1998
  Mn  Mn5  1  0.970930  0.051490  0.873290  1.0  1.0979
  Mn  Mn6  1  0.578820  0.062260  0.835100  1.0  1.2013
  Mn  Mn7  1  0.029070  0.448510  0.373290  1.0  1.098
  Mn  Mn8  1  0.421180  0.437740  0.335100  1.0  1.2006
  H  H9  1  0.965200  0.703800  0.132400  1.0  0.1233
  H  H10  1  0.886800  0.487800  0.222900  1.0  0.1298
  H  H11  1  0.264700  0.654600  0.236600  1.0  0.1132
  H  H12  1  0.881900  0.480500  0.106800  1.0  0.0884
  H  H13  1  0.824400  0.575600  0.084000  1.0  0.0776
  H  H14  1  0.759500  0.377200  0.045500  1.0  0.0769
  H  H15  1  0.547900  0.286400  0.025700  1.0  0.0744
  H  H16  1  0.288400  0.478300  0.093100  1.0  0.1109
  H  H17  1  0.508700  0.557100  0.118700  1.0  0.1055
  H  H18  1  0.137500  0.190000  0.957100  1.0  0.0883
  H  H19  1  0.357100  0.267600  0.984500  1.0  0.0883
  H  H20  1  0.120000  0.363400  0.095200  1.0  0.1214
  H  H21  1  0.910600  0.269200  0.071700  1.0  0.1019
  H  H22  1  0.568900  0.193000  0.935400  1.0  0.1156
  H  H23  1  0.195400  0.049000  0.981500  1.0  0.1026
  H  H24  1  0.535200  0.120100  0.071000  1.0  0.1292
  H  H25  1  0.873300  0.110100  0.999600  1.0  0.0773
  H  H26  1  0.858500  0.185900  0.959800  1.0  0.0929
  H  H27  1  0.034800  0.796200  0.632400  1.0  0.1231
  H  H28  1  0.113200  0.012200  0.722900  1.0  0.1299
  H  H29  1  0.735300  0.845400  0.736600  1.0  0.1136
  H  H30  1  0.118100  0.019500  0.606800  1.0  0.0908
  H  H31  1  0.175600  0.924400  0.584000  1.0  0.0772
  H  H32  1  0.240500  0.122800  0.545500  1.0  0.077
  H  H33  1  0.452100  0.213600  0.525700  1.0  0.0756
  H  H34  1  0.711600  0.021700  0.593100  1.0  0.1114
  H  H35  1  0.491300  0.942900  0.618700  1.0  0.1061
  H  H36  1  0.862500  0.310000  0.457100  1.0  0.0881
  H  H37  1  0.642900  0.232400  0.484500  1.0  0.0879
  H  H38  1  0.880000  0.136600  0.595200  1.0  0.1209
  H  H39  1  0.089400  0.230800  0.571700  1.0  0.1017
  H  H40  1  0.431100  0.307000  0.435400  1.0  0.1157
  H  H41  1  0.804600  0.451000  0.481500  1.0  0.104
  H  H42  1  0.464800  0.379900  0.571000  1.0  0.1293
  H  H43  1  0.126700  0.389900  0.499600  1.0  0.0781
  H  H44  1  0.141500  0.314100  0.459800  1.0  0.0919
  H  H45  1  0.034800  0.296200  0.867600  1.0  0.123
  H  H46  1  0.113200  0.512200  0.777100  1.0  0.13
  H  H47  1  0.735300  0.345400  0.763400  1.0  0.1133
  H  H48  1  0.118100  0.519500  0.893200  1.0  0.0927
  H  H49  1  0.175600  0.424400  0.916000  1.0  0.0775
  H  H50  1  0.240500  0.622800  0.954500  1.0  0.0766
  H  H51  1  0.452100  0.713600  0.974300  1.0  0.075
  H  H52  1  0.711600  0.521700  0.906900  1.0  0.1107
  H  H53  1  0.491300  0.442900  0.881300  1.0  0.1055
  H  H54  1  0.862500  0.810000  0.042900  1.0  0.0882
  H  H55  1  0.642900  0.732400  0.015500  1.0  0.0877
  H  H56  1  0.880000  0.636600  0.904800  1.0  0.1196
  H  H57  1  0.089400  0.730800  0.928300  1.0  0.1025
  H  H58  1  0.431100  0.807000  0.064600  1.0  0.1164
  H  H59  1  0.804600  0.951000  0.018500  1.0  0.1034
  H  H60  1  0.464800  0.879900  0.929000  1.0  0.1289
  H  H61  1  0.126700  0.889900  0.000400  1.0  0.0779
  H  H62  1  0.141500  0.814100  0.040200  1.0  0.0913
  H  H63  1  0.965200  0.203800  0.367600  1.0  0.1233
  H  H64  1  0.886800  0.987800  0.277100  1.0  0.1297
  H  H65  1  0.264700  0.154600  0.263400  1.0  0.1131
  H  H66  1  0.881900  0.980500  0.393200  1.0  0.0894
  H  H67  1  0.824400  0.075600  0.416000  1.0  0.0771
  H  H68  1  0.759500  0.877200  0.454500  1.0  0.0765
  H  H69  1  0.547900  0.786400  0.474300  1.0  0.0754
  H  H70  1  0.288400  0.978300  0.406900  1.0  0.1106
  H  H71  1  0.508700  0.057100  0.381300  1.0  0.1051
  H  H72  1  0.137500  0.690000  0.542900  1.0  0.0876
  H  H73  1  0.357100  0.767600  0.515500  1.0  0.0878
  H  H74  1  0.120000  0.863400  0.404800  1.0  0.1197
  H  H75  1  0.910600  0.769200  0.428300  1.0  0.103
  H  H76  1  0.568900  0.693000  0.564600  1.0  0.1154
  H  H77  1  0.195400  0.549000  0.518500  1.0  0.1027
  H  H78  1  0.535200  0.620100  0.429000  1.0  0.1298
  H  H79  1  0.873300  0.610100  0.500400  1.0  0.0765
  H  H80  1  0.858500  0.685900  0.540200  1.0  0.0913
  C  C81  1  0.128000  0.692500  0.182940  1.0  -0.1265
  C  C82  1  0.993900  0.669000  0.158540  1.0  -0.1513
  C  C83  1  0.903500  0.591400  0.174600  1.0  0.2572
  C  C84  1  0.947900  0.539100  0.212810  1.0  -0.1584
  C  C85  1  0.083900  0.562200  0.236550  1.0  -0.1228
  C  C86  1  0.173500  0.638900  0.221190  1.0  0.0122
  C  C87  1  0.219400  0.778060  0.167300  1.0  0.6974
  C  C88  1  0.117100  0.508400  0.280100  1.0  0.7061
  C  C89  1  0.796300  0.524400  0.105410  1.0  0.1137
  C  C90  1  0.660500  0.472400  0.086830  1.0  0.016
  C  C91  1  0.664100  0.394900  0.057070  1.0  -0.1079
  C  C92  1  0.538200  0.342100  0.043290  1.0  -0.1018
  C  C93  1  0.395900  0.375300  0.056740  1.0  0.0261
  C  C94  1  0.384800  0.456000  0.084560  1.0  -0.1525
  C  C95  1  0.517000  0.503500  0.099650  1.0  -0.1213
  C  C96  1  0.134100  0.223800  0.985020  1.0  -0.1244
  C  C97  1  0.265600  0.270700  0.001280  1.0  -0.1124
  C  C98  1  0.260600  0.322700  0.042910  1.0  0.0289
  C  C99  1  0.125500  0.326400  0.068340  1.0  -0.1519
  C  C100  1  0.997600  0.273400  0.052850  1.0  -0.1794
  C  C101  1  0.996500  0.227000  0.010230  1.0  0.03
  C  C102  1  0.577100  0.162500  0.004330  1.0  0.2298
  C  C103  1  0.514900  0.163500  0.959620  1.0  -0.1269
  C  C104  1  0.371200  0.120300  0.951090  1.0  -0.1259
  C  C105  1  0.291500  0.077000  0.987120  1.0  -0.0174
  C  C106  1  0.353500  0.074900  0.031810  1.0  -0.1403
  C  C107  1  0.495400  0.119300  0.040970  1.0  -0.1135
  C  C108  1  0.309300  0.121400  0.904160  1.0  0.7287
  C  C109  1  0.274100  0.026800  0.072180  1.0  0.6928
  C  C110  1  0.862300  0.178100  0.993370  1.0  0.0792
  C  C111  1  0.872000  0.807500  0.682940  1.0  -0.126
  C  C112  1  0.006100  0.831000  0.658540  1.0  -0.1504
  C  C113  1  0.096500  0.908600  0.674600  1.0  0.2589
  C  C114  1  0.052100  0.960900  0.712810  1.0  -0.1605
  C  C115  1  0.916100  0.937800  0.736550  1.0  -0.1242
  C  C116  1  0.826500  0.861100  0.721190  1.0  0.0112
  C  C117  1  0.780600  0.721940  0.667300  1.0  0.6972
  C  C118  1  0.882900  0.991600  0.780100  1.0  0.7058
  C  C119  1  0.203700  0.975600  0.605410  1.0  0.1163
  C  C120  1  0.339500  0.027600  0.586830  1.0  0.0162
  C  C121  1  0.335900  0.105100  0.557070  1.0  -0.1078
  C  C122  1  0.461800  0.157900  0.543290  1.0  -0.103
  C  C123  1  0.604100  0.124700  0.556740  1.0  0.0261
  C  C124  1  0.615200  0.044000  0.584560  1.0  -0.146
  C  C125  1  0.483000  0.996500  0.599650  1.0  -0.1198
  C  C126  1  0.865900  0.276200  0.485020  1.0  -0.1259
  C  C127  1  0.734400  0.229300  0.501280  1.0  -0.1136
  C  C128  1  0.739400  0.177300  0.542910  1.0  0.0302
  C  C129  1  0.874500  0.173600  0.568340  1.0  -0.1521
  C  C130  1  0.002400  0.226600  0.552850  1.0  -0.1745
  C  C131  1  0.003500  0.273000  0.510230  1.0  0.0294
  C  C132  1  0.422900  0.337500  0.504330  1.0  0.2302
  C  C133  1  0.485100  0.336500  0.459620  1.0  -0.1257
  C  C134  1  0.628800  0.379700  0.451090  1.0  -0.1323
  C  C135  1  0.708500  0.423000  0.487120  1.0  -0.015
  C  C136  1  0.646500  0.425100  0.531810  1.0  -0.1417
  C  C137  1  0.504600  0.380700  0.540970  1.0  -0.1148
  C  C138  1  0.690700  0.378600  0.404160  1.0  0.7286
  C  C139  1  0.725900  0.473200  0.572180  1.0  0.6949
  C  C140  1  0.137700  0.321900  0.493370  1.0  0.0755
  C  C141  1  0.872000  0.307500  0.817060  1.0  -0.127
  C  C142  1  0.006100  0.331000  0.841460  1.0  -0.1513
  C  C143  1  0.096500  0.408600  0.825400  1.0  0.2579
  C  C144  1  0.052100  0.460900  0.787190  1.0  -0.1594
  C  C145  1  0.916100  0.437800  0.763450  1.0  -0.1242
  C  C146  1  0.826500  0.361100  0.778810  1.0  0.0109
  C  C147  1  0.780600  0.221940  0.832700  1.0  0.6985
  C  C148  1  0.882900  0.491600  0.719900  1.0  0.7065
  C  C149  1  0.203700  0.475600  0.894590  1.0  0.1157
  C  C150  1  0.339500  0.527600  0.913170  1.0  0.0154
  C  C151  1  0.335900  0.605100  0.942930  1.0  -0.108
  C  C152  1  0.461800  0.657900  0.956710  1.0  -0.1009
  C  C153  1  0.604100  0.624700  0.943260  1.0  0.026
  C  C154  1  0.615200  0.544000  0.915440  1.0  -0.1434
  C  C155  1  0.483000  0.496500  0.900350  1.0  -0.1207
  C  C156  1  0.865900  0.776200  0.014980  1.0  -0.1273
  C  C157  1  0.734400  0.729300  0.998720  1.0  -0.1133
  C  C158  1  0.739400  0.677300  0.957090  1.0  0.0288
  C  C159  1  0.874500  0.673600  0.931660  1.0  -0.1499
  C  C160  1  0.002400  0.726600  0.947150  1.0  -0.1789
  C  C161  1  0.003500  0.773000  0.989770  1.0  0.0277
  C  C162  1  0.422900  0.837500  0.995670  1.0  0.2312
  C  C163  1  0.485100  0.836500  0.040380  1.0  -0.1251
  C  C164  1  0.628800  0.879700  0.048910  1.0  -0.1424
  C  C165  1  0.708500  0.923000  0.012880  1.0  -0.0154
  C  C166  1  0.646500  0.925100  0.968190  1.0  -0.1427
  C  C167  1  0.504600  0.880700  0.959030  1.0  -0.1119
  C  C168  1  0.690700  0.878600  0.095840  1.0  0.7267
  C  C169  1  0.725900  0.973200  0.927820  1.0  0.6934
  C  C170  1  0.137700  0.821900  0.006630  1.0  0.0799
  C  C171  1  0.128000  0.192500  0.317060  1.0  -0.1268
  C  C172  1  0.993900  0.169000  0.341460  1.0  -0.1523
  C  C173  1  0.903500  0.091400  0.325400  1.0  0.2572
  C  C174  1  0.947900  0.039100  0.287190  1.0  -0.158
  C  C175  1  0.083900  0.062200  0.263450  1.0  -0.1246
  C  C176  1  0.173500  0.138900  0.278810  1.0  0.011
  C  C177  1  0.219400  0.278060  0.332700  1.0  0.6981
  C  C178  1  0.117100  0.008400  0.219900  1.0  0.7068
  C  C179  1  0.796300  0.024400  0.394590  1.0  0.1121
  C  C180  1  0.660500  0.972400  0.413170  1.0  0.0149
  C  C181  1  0.664100  0.894900  0.442930  1.0  -0.1082
  C  C182  1  0.538200  0.842100  0.456710  1.0  -0.1004
  C  C183  1  0.395900  0.875300  0.443260  1.0  0.0258
  C  C184  1  0.384800  0.956000  0.415440  1.0  -0.1472
  C  C185  1  0.517000  0.003500  0.400350  1.0  -0.1201
  C  C186  1  0.134100  0.723800  0.514980  1.0  -0.1257
  C  C187  1  0.265600  0.770700  0.498720  1.0  -0.1122
  C  C188  1  0.260600  0.822700  0.457090  1.0  0.0289
  C  C189  1  0.125500  0.826400  0.431660  1.0  -0.1483
  C  C190  1  0.997600  0.773400  0.447150  1.0  -0.1775
  C  C191  1  0.996500  0.727000  0.489770  1.0  0.0288
  C  C192  1  0.577100  0.662500  0.495670  1.0  0.2312
  C  C193  1  0.514900  0.663500  0.540380  1.0  -0.1266
  C  C194  1  0.371200  0.620300  0.548910  1.0  -0.1357
  C  C195  1  0.291500  0.577000  0.512880  1.0  -0.0176
  C  C196  1  0.353500  0.574900  0.468190  1.0  -0.1441
  C  C197  1  0.495400  0.619300  0.459030  1.0  -0.1147
  C  C198  1  0.309300  0.621400  0.595840  1.0  0.7264
  C  C199  1  0.274100  0.526800  0.427820  1.0  0.695
  C  C200  1  0.862300  0.678100  0.506630  1.0  0.0837
  O  O201  1  0.170500  0.828100  0.133310  1.0  -0.6617
  O  O202  1  0.342400  0.798970  0.188340  1.0  -0.5833
  O  O203  1  0.262000  0.511540  0.288190  1.0  -0.6597
  O  O204  1  0.024100  0.455520  0.300160  1.0  -0.594
  O  O205  1  0.773600  0.565250  0.151090  1.0  -0.3106
  O  O206  1  0.714600  0.208560  0.012770  1.0  -0.2783
  O  O207  1  0.395200  0.128840  0.868500  1.0  -0.6524
  O  O208  1  0.162400  0.118600  0.901200  1.0  -0.6103
  O  O209  1  0.142000  0.994360  0.063790  1.0  -0.5737
  O  O210  1  0.348800  0.022580  0.110170  1.0  -0.672
  O  O211  1  0.829500  0.671900  0.633310  1.0  -0.6625
  O  O212  1  0.657600  0.701030  0.688340  1.0  -0.5838
  O  O213  1  0.738000  0.988460  0.788190  1.0  -0.6598
  O  O214  1  0.975900  0.044480  0.800160  1.0  -0.5942
  O  O215  1  0.226400  0.934750  0.651090  1.0  -0.3107
  O  O216  1  0.285400  0.291440  0.512770  1.0  -0.279
  O  O217  1  0.604800  0.371160  0.368500  1.0  -0.6529
  O  O218  1  0.837600  0.381400  0.401200  1.0  -0.6099
  O  O219  1  0.858000  0.505640  0.563790  1.0  -0.5729
  O  O220  1  0.651200  0.477420  0.610170  1.0  -0.6726
  O  O221  1  0.829500  0.171900  0.866690  1.0  -0.6633
  O  O222  1  0.657600  0.201030  0.811660  1.0  -0.5838
  O  O223  1  0.738000  0.488460  0.711810  1.0  -0.6591
  O  O224  1  0.975900  0.544480  0.699840  1.0  -0.5936
  O  O225  1  0.226400  0.434750  0.848910  1.0  -0.3107
  O  O226  1  0.285400  0.791440  0.987230  1.0  -0.2788
  O  O227  1  0.604800  0.871160  0.131500  1.0  -0.6553
  O  O228  1  0.837600  0.881400  0.098800  1.0  -0.6098
  O  O229  1  0.858000  0.005640  0.936210  1.0  -0.5736
  O  O230  1  0.651200  0.977420  0.889830  1.0  -0.6729
  O  O231  1  0.170500  0.328100  0.366690  1.0  -0.6627
  O  O232  1  0.342400  0.298970  0.311660  1.0  -0.5853
  O  O233  1  0.262000  0.011540  0.211810  1.0  -0.6591
  O  O234  1  0.024100  0.955520  0.199840  1.0  -0.5939
  O  O235  1  0.773600  0.065250  0.348910  1.0  -0.3076
  O  O236  1  0.714600  0.708560  0.487230  1.0  -0.2774
  O  O237  1  0.395200  0.628840  0.631500  1.0  -0.6556
  O  O238  1  0.162400  0.618600  0.598800  1.0  -0.6109
  O  O239  1  0.142000  0.494360  0.436210  1.0  -0.5734
  O  O240  1  0.348800  0.522580  0.389830  1.0  -0.6722
