# generated using pymatgen
data_MgH3C7NO4
_symmetry_space_group_name_H-M   'P 1'
_cell_length_a   11.19290000
_cell_length_b   12.34750000
_cell_length_c   28.67340000
_cell_angle_alpha   98.81600000
_cell_angle_beta   90.00000000
_cell_angle_gamma   90.00000000
_symmetry_Int_Tables_number   1
_chemical_formula_structural   MgH3C7NO4
_chemical_formula_sum   'Mg12 H36 C84 N12 O48'
_cell_volume   3915.97023482
_cell_formula_units_Z   12
loop_
 _symmetry_equiv_pos_site_id
 _symmetry_equiv_pos_as_xyz
  1  'x, y, z'
loop_
 _atom_site_type_symbol
 _atom_site_label
 _atom_site_symmetry_multiplicity
 _atom_site_fract_x
 _atom_site_fract_y
 _atom_site_fract_z
 _atom_site_occupancy
 _atom_site_charge
  Mg  Mg1  1  0.173270  0.337070  0.859880  1.0  1.5707
  Mg  Mg2  1  0.457750  0.553410  0.833910  1.0  1.5461
  Mg  Mg3  1  0.289800  0.272600  0.141580  1.0  1.4529
  Mg  Mg4  1  0.673270  0.162930  0.640120  1.0  1.5714
  Mg  Mg5  1  0.957750  0.946590  0.666090  1.0  1.5464
  Mg  Mg6  1  0.789800  0.227400  0.358420  1.0  1.451
  Mg  Mg7  1  0.826730  0.662930  0.140120  1.0  1.5706
  Mg  Mg8  1  0.542250  0.446590  0.166090  1.0  1.5469
  Mg  Mg9  1  0.710200  0.727400  0.858420  1.0  1.4511
  Mg  Mg10  1  0.326730  0.837070  0.359880  1.0  1.5705
  Mg  Mg11  1  0.042250  0.053410  0.333910  1.0  1.5467
  Mg  Mg12  1  0.210200  0.772600  0.641580  1.0  1.4529
  H  H13  1  0.516000  0.332000  0.715900  1.0  0.0854
  H  H14  1  0.194100  0.195600  0.733600  1.0  0.1021
  H  H15  1  0.432700  0.050800  0.638700  1.0  0.081
  H  H16  1  0.343600  0.315600  0.985400  1.0  0.1122
  H  H17  1  0.649600  0.424900  0.935200  1.0  0.0738
  H  H18  1  0.644900  0.352000  0.063500  1.0  0.0749
  H  H19  1  0.966100  0.647600  0.883800  1.0  0.0871
  H  H20  1  0.200500  0.680100  0.780200  1.0  0.113
  H  H21  1  0.872000  0.817500  0.784300  1.0  0.0811
  H  H22  1  0.016000  0.168000  0.784100  1.0  0.0855
  H  H23  1  0.694100  0.304400  0.766400  1.0  0.102
  H  H24  1  0.932700  0.449200  0.861300  1.0  0.0811
  H  H25  1  0.843600  0.184400  0.514600  1.0  0.112
  H  H26  1  0.149600  0.075100  0.564800  1.0  0.0729
  H  H27  1  0.144900  0.148000  0.436500  1.0  0.0748
  H  H28  1  0.466100  0.852400  0.616200  1.0  0.0878
  H  H29  1  0.700500  0.819900  0.719800  1.0  0.1123
  H  H30  1  0.372000  0.682500  0.715700  1.0  0.0808
  H  H31  1  0.484000  0.668000  0.284100  1.0  0.085
  H  H32  1  0.805900  0.804400  0.266400  1.0  0.1021
  H  H33  1  0.567300  0.949200  0.361300  1.0  0.0809
  H  H34  1  0.656400  0.684400  0.014600  1.0  0.1134
  H  H35  1  0.350400  0.575100  0.064800  1.0  0.0736
  H  H36  1  0.355100  0.648000  0.936500  1.0  0.0752
  H  H37  1  0.033900  0.352400  0.116200  1.0  0.088
  H  H38  1  0.799500  0.319900  0.219800  1.0  0.1124
  H  H39  1  0.128000  0.182500  0.215700  1.0  0.0809
  H  H40  1  0.984000  0.832000  0.215900  1.0  0.0849
  H  H41  1  0.305900  0.695600  0.233600  1.0  0.1021
  H  H42  1  0.067300  0.550800  0.138700  1.0  0.081
  H  H43  1  0.156400  0.815600  0.485400  1.0  0.113
  H  H44  1  0.850400  0.924900  0.435200  1.0  0.074
  H  H45  1  0.855100  0.852000  0.563500  1.0  0.0756
  H  H46  1  0.533900  0.147600  0.383800  1.0  0.0874
  H  H47  1  0.299500  0.180100  0.280200  1.0  0.1131
  H  H48  1  0.628000  0.317500  0.284300  1.0  0.0809
  C  C49  1  0.460700  0.273900  0.707620  1.0  0.2507
  C  C50  1  0.350600  0.278900  0.730910  1.0  -0.2478
  C  C51  1  0.269700  0.194400  0.718470  1.0  0.0558
  C  C52  1  0.300410  0.107780  0.683580  1.0  -0.2102
  C  C53  1  0.411900  0.109900  0.662550  1.0  0.2387
  C  C54  1  0.324400  0.369140  0.771290  1.0  0.7714
  C  C55  1  0.184360  0.582440  0.857370  1.0  0.7699
  C  C56  1  0.424600  0.390960  0.907620  1.0  0.8291
  C  C57  1  0.414600  0.302600  0.073100  1.0  0.7135
  C  C58  1  0.483700  0.331200  0.031540  1.0  -0.2233
  C  C59  1  0.425000  0.336790  0.989280  1.0  0.0693
  C  C60  1  0.486500  0.373590  0.952750  1.0  -0.2576
  C  C61  1  0.607100  0.398900  0.959900  1.0  0.2154
  C  C62  1  0.604500  0.357100  0.034740  1.0  0.2253
  C  C63  1  0.218460  0.011250  0.671100  1.0  0.7237
  C  C64  1  0.055490  0.789450  0.727030  1.0  0.7598
  C  C65  1  0.037680  0.752310  0.774250  1.0  -0.2395
  C  C66  1  0.985190  0.676480  0.855890  1.0  0.2384
  C  C67  1  0.096620  0.653700  0.835950  1.0  -0.2247
  C  C68  1  0.124230  0.693190  0.794450  1.0  0.0433
  C  C69  1  0.929300  0.774290  0.797570  1.0  0.2387
  C  C70  1  0.960700  0.226100  0.792380  1.0  0.2502
  C  C71  1  0.850600  0.221100  0.769090  1.0  -0.2477
  C  C72  1  0.769700  0.305600  0.781530  1.0  0.0558
  C  C73  1  0.800410  0.392220  0.816420  1.0  -0.2107
  C  C74  1  0.911900  0.390100  0.837450  1.0  0.2382
  C  C75  1  0.824400  0.130860  0.728710  1.0  0.7703
  C  C76  1  0.684360  0.917560  0.642630  1.0  0.7717
  C  C77  1  0.924600  0.109040  0.592380  1.0  0.8265
  C  C78  1  0.914600  0.197400  0.426900  1.0  0.7124
  C  C79  1  0.983700  0.168800  0.468460  1.0  -0.2244
  C  C80  1  0.925000  0.163210  0.510720  1.0  0.0686
  C  C81  1  0.986500  0.126410  0.547250  1.0  -0.2569
  C  C82  1  0.107100  0.101100  0.540100  1.0  0.2172
  C  C83  1  0.104500  0.142900  0.465260  1.0  0.2266
  C  C84  1  0.718460  0.488750  0.828900  1.0  0.724
  C  C85  1  0.555490  0.710550  0.772970  1.0  0.7618
  C  C86  1  0.537680  0.747690  0.725750  1.0  -0.2389
  C  C87  1  0.485190  0.823520  0.644110  1.0  0.2383
  C  C88  1  0.596620  0.846300  0.664050  1.0  -0.2256
  C  C89  1  0.624230  0.806810  0.705550  1.0  0.0434
  C  C90  1  0.429300  0.725710  0.702430  1.0  0.2398
  C  C91  1  0.539300  0.726100  0.292380  1.0  0.2504
  C  C92  1  0.649400  0.721100  0.269090  1.0  -0.2473
  C  C93  1  0.730300  0.805600  0.281530  1.0  0.0579
  C  C94  1  0.699590  0.892220  0.316420  1.0  -0.2109
  C  C95  1  0.588100  0.890100  0.337450  1.0  0.2383
  C  C96  1  0.675600  0.630860  0.228710  1.0  0.7705
  C  C97  1  0.815640  0.417560  0.142630  1.0  0.7697
  C  C98  1  0.575400  0.609040  0.092380  1.0  0.8259
  C  C99  1  0.585400  0.697400  0.926900  1.0  0.71
  C  C100  1  0.516300  0.668800  0.968460  1.0  -0.2239
  C  C101  1  0.575000  0.663210  0.010720  1.0  0.0727
  C  C102  1  0.513500  0.626410  0.047250  1.0  -0.2565
  C  C103  1  0.392900  0.601100  0.040100  1.0  0.2167
  C  C104  1  0.395500  0.642900  0.965260  1.0  0.2272
  C  C105  1  0.781540  0.988750  0.328900  1.0  0.7231
  C  C106  1  0.944510  0.210550  0.272970  1.0  0.762
  C  C107  1  0.962320  0.247690  0.225750  1.0  -0.239
  C  C108  1  0.014810  0.323520  0.144110  1.0  0.2383
  C  C109  1  0.903380  0.346300  0.164050  1.0  -0.2245
  C  C110  1  0.875770  0.306810  0.205550  1.0  0.0395
  C  C111  1  0.070700  0.225710  0.202430  1.0  0.2389
  C  C112  1  0.039300  0.773900  0.207620  1.0  0.251
  C  C113  1  0.149400  0.778900  0.230910  1.0  -0.2477
  C  C114  1  0.230300  0.694400  0.218470  1.0  0.0568
  C  C115  1  0.199590  0.607780  0.183580  1.0  -0.2107
  C  C116  1  0.088100  0.609900  0.162550  1.0  0.2378
  C  C117  1  0.175600  0.869140  0.271290  1.0  0.7721
  C  C118  1  0.315640  0.082440  0.357370  1.0  0.7675
  C  C119  1  0.075400  0.890960  0.407620  1.0  0.8291
  C  C120  1  0.085400  0.802600  0.573100  1.0  0.7139
  C  C121  1  0.016300  0.831200  0.531540  1.0  -0.2242
  C  C122  1  0.075000  0.836790  0.489280  1.0  0.0725
  C  C123  1  0.013500  0.873590  0.452750  1.0  -0.2574
  C  C124  1  0.892900  0.898900  0.459900  1.0  0.2162
  C  C125  1  0.895500  0.857100  0.534740  1.0  0.2285
  C  C126  1  0.281540  0.511250  0.171100  1.0  0.7228
  C  C127  1  0.444510  0.289450  0.227030  1.0  0.76
  C  C128  1  0.462320  0.252310  0.274250  1.0  -0.2397
  C  C129  1  0.514810  0.176480  0.355890  1.0  0.2392
  C  C130  1  0.403380  0.153700  0.335950  1.0  -0.2231
  C  C131  1  0.375770  0.193190  0.294450  1.0  0.0395
  C  C132  1  0.570700  0.274290  0.297570  1.0  0.239
  N  N133  1  0.491840  0.190500  0.674000  1.0  -0.598
  N  N134  1  0.902130  0.737410  0.837800  1.0  -0.5334
  N  N135  1  0.666790  0.388800  0.999500  1.0  -0.4455
  N  N136  1  0.991840  0.309500  0.826000  1.0  -0.5963
  N  N137  1  0.402130  0.762590  0.662200  1.0  -0.5337
  N  N138  1  0.166790  0.111200  0.500500  1.0  -0.4468
  N  N139  1  0.508160  0.809500  0.326000  1.0  -0.5908
  N  N140  1  0.097870  0.262590  0.162200  1.0  -0.5376
  N  N141  1  0.333210  0.611200  0.000500  1.0  -0.4447
  N  N142  1  0.008160  0.690500  0.174000  1.0  -0.5903
  N  N143  1  0.597870  0.237410  0.337800  1.0  -0.5395
  N  N144  1  0.833210  0.888800  0.499500  1.0  -0.4449
  O  O145  1  0.292010  0.607350  0.854420  1.0  -0.6991
  O  O146  1  0.142250  0.505470  0.876350  1.0  -0.7175
  O  O147  1  0.476390  0.451880  0.883170  1.0  -0.7185
  O  O148  1  0.327010  0.342420  0.898900  1.0  -0.7403
  O  O149  1  0.394410  0.447970  0.777340  1.0  -0.6617
  O  O150  1  0.234610  0.355400  0.795800  1.0  -0.7914
  O  O151  1  0.462110  0.316830  0.114060  1.0  -0.767
  O  O152  1  0.310390  0.265210  0.066980  1.0  -0.6718
  O  O153  1  0.258950  0.932020  0.642550  1.0  -0.6904
  O  O154  1  0.119300  0.014990  0.690770  1.0  -0.676
  O  O155  1  0.156930  0.771960  0.708250  1.0  -0.7383
  O  O156  1  0.968010  0.832060  0.710310  1.0  -0.6576
  O  O157  1  0.792010  0.892650  0.645580  1.0  -0.7006
  O  O158  1  0.642250  0.994530  0.623650  1.0  -0.7259
  O  O159  1  0.976390  0.048120  0.616830  1.0  -0.7206
  O  O160  1  0.827010  0.157580  0.601100  1.0  -0.7546
  O  O161  1  0.894410  0.052030  0.722660  1.0  -0.6608
  O  O162  1  0.734610  0.144600  0.704200  1.0  -0.7902
  O  O163  1  0.962110  0.183170  0.385940  1.0  -0.7684
  O  O164  1  0.810390  0.234790  0.433020  1.0  -0.6717
  O  O165  1  0.758950  0.567980  0.857450  1.0  -0.6909
  O  O166  1  0.619300  0.485010  0.809230  1.0  -0.6766
  O  O167  1  0.656930  0.728040  0.791750  1.0  -0.7385
  O  O168  1  0.468010  0.667940  0.789690  1.0  -0.6579
  O  O169  1  0.707990  0.392650  0.145580  1.0  -0.6995
  O  O170  1  0.857750  0.494530  0.123650  1.0  -0.728
  O  O171  1  0.523610  0.548120  0.116830  1.0  -0.7183
  O  O172  1  0.672990  0.657580  0.101100  1.0  -0.7597
  O  O173  1  0.605590  0.552030  0.222660  1.0  -0.661
  O  O174  1  0.765390  0.644600  0.204200  1.0  -0.7897
  O  O175  1  0.537890  0.683170  0.885940  1.0  -0.7681
  O  O176  1  0.689610  0.734790  0.933020  1.0  -0.6717
  O  O177  1  0.741050  0.067980  0.357450  1.0  -0.6912
  O  O178  1  0.880700  0.985010  0.309230  1.0  -0.677
  O  O179  1  0.843070  0.228040  0.291750  1.0  -0.7373
  O  O180  1  0.031990  0.167940  0.289690  1.0  -0.659
  O  O181  1  0.207990  0.107350  0.354420  1.0  -0.6985
  O  O182  1  0.357750  0.005470  0.376350  1.0  -0.7209
  O  O183  1  0.023610  0.951880  0.383170  1.0  -0.7169
  O  O184  1  0.172990  0.842420  0.398900  1.0  -0.7408
  O  O185  1  0.105590  0.947970  0.277340  1.0  -0.6619
  O  O186  1  0.265390  0.855400  0.295800  1.0  -0.7907
  O  O187  1  0.037890  0.816830  0.614060  1.0  -0.7688
  O  O188  1  0.189610  0.765210  0.566980  1.0  -0.6736
  O  O189  1  0.241050  0.432020  0.142550  1.0  -0.6906
  O  O190  1  0.380700  0.514990  0.190770  1.0  -0.6769
  O  O191  1  0.343070  0.271960  0.208250  1.0  -0.7375
  O  O192  1  0.531990  0.332060  0.210310  1.0  -0.6582
