# generated using pymatgen
data_MgH3C7NO4
_symmetry_space_group_name_H-M   'P 1'
_cell_length_a   13.74420000
_cell_length_b   14.28870000
_cell_length_c   14.11780000
_cell_angle_alpha   90.00000000
_cell_angle_beta   104.91200000
_cell_angle_gamma   90.00000000
_symmetry_Int_Tables_number   1
_chemical_formula_structural   MgH3C7NO4
_chemical_formula_sum   'Mg8 H24 C56 N8 O32'
_cell_volume   2679.17553264
_cell_formula_units_Z   8
loop_
 _symmetry_equiv_pos_site_id
 _symmetry_equiv_pos_as_xyz
  1  'x, y, z'
loop_
 _atom_site_type_symbol
 _atom_site_label
 _atom_site_symmetry_multiplicity
 _atom_site_fract_x
 _atom_site_fract_y
 _atom_site_fract_z
 _atom_site_occupancy
 _atom_site_charge
  Mg  Mg1  1  0.125290  0.208770  0.517380  1.0  1.567
  Mg  Mg2  1  0.383410  0.098880  0.551420  1.0  1.5321
  Mg  Mg3  1  0.374710  0.708770  0.982620  1.0  1.5682
  Mg  Mg4  1  0.116590  0.598880  0.948580  1.0  1.5309
  Mg  Mg5  1  0.874710  0.791230  0.482620  1.0  1.5683
  Mg  Mg6  1  0.616590  0.901120  0.448580  1.0  1.5308
  Mg  Mg7  1  0.625290  0.291230  0.017380  1.0  1.5672
  Mg  Mg8  1  0.883410  0.401120  0.051420  1.0  1.532
  H  H9  1  0.419200  0.238700  0.291900  1.0  0.0618
  H  H10  1  0.297200  0.404600  0.075800  1.0  0.0462
  H  H11  1  0.138700  0.330000  0.263700  1.0  0.0884
  H  H12  1  0.490700  0.250500  0.809800  1.0  0.0586
  H  H13  1  0.448400  0.441200  0.991700  1.0  0.0719
  H  H14  1  0.239700  0.403900  0.739100  1.0  0.0948
  H  H15  1  0.080800  0.738700  0.208100  1.0  0.0628
  H  H16  1  0.202800  0.904600  0.424200  1.0  0.0468
  H  H17  1  0.361300  0.830000  0.236300  1.0  0.0882
  H  H18  1  0.009300  0.750500  0.690200  1.0  0.0584
  H  H19  1  0.051600  0.941200  0.508300  1.0  0.0715
  H  H20  1  0.260300  0.903900  0.760900  1.0  0.0944
  H  H21  1  0.580800  0.761300  0.708100  1.0  0.0628
  H  H22  1  0.702800  0.595400  0.924200  1.0  0.0468
  H  H23  1  0.861300  0.670000  0.736300  1.0  0.0882
  H  H24  1  0.509300  0.749500  0.190200  1.0  0.0584
  H  H25  1  0.551600  0.558800  0.008300  1.0  0.0722
  H  H26  1  0.760300  0.596100  0.260900  1.0  0.0944
  H  H27  1  0.919200  0.261300  0.791900  1.0  0.0622
  H  H28  1  0.797200  0.095400  0.575800  1.0  0.0462
  H  H29  1  0.638700  0.170000  0.763700  1.0  0.0886
  H  H30  1  0.990700  0.249500  0.309800  1.0  0.0584
  H  H31  1  0.948400  0.058800  0.491700  1.0  0.0719
  H  H32  1  0.739700  0.096100  0.239100  1.0  0.0948
  C  C33  1  0.275760  0.224380  0.386280  1.0  0.7047
  C  C34  1  0.279900  0.276690  0.294750  1.0  -0.2399
  C  C35  1  0.364240  0.273900  0.258200  1.0  0.1889
  C  C36  1  0.292230  0.370900  0.130690  1.0  0.1927
  C  C37  1  0.203540  0.377210  0.159880  1.0  -0.224
  C  C38  1  0.116450  0.432760  0.099510  1.0  0.7353
  C  C39  1  0.197570  0.328310  0.242810  1.0  0.001
  C  C40  1  0.324560  0.259480  0.668130  1.0  0.7105
  C  C41  1  0.359590  0.317420  0.759530  1.0  -0.233
  C  C42  1  0.450610  0.297100  0.825930  1.0  0.1841
  C  C43  1  0.426480  0.409880  0.932310  1.0  0.112
  C  C44  1  0.335530  0.437300  0.869100  1.0  -0.1706
  C  C45  1  0.274000  0.513400  0.898820  1.0  0.6513
  C  C46  1  0.301240  0.388750  0.781970  1.0  -0.0053
  C  C47  1  0.224240  0.724380  0.113720  1.0  0.7041
  C  C48  1  0.220100  0.776690  0.205250  1.0  -0.2402
  C  C49  1  0.135760  0.773900  0.241800  1.0  0.1869
  C  C50  1  0.207770  0.870900  0.369310  1.0  0.1947
  C  C51  1  0.296460  0.877210  0.340120  1.0  -0.2241
  C  C52  1  0.383550  0.932760  0.400490  1.0  0.7363
  C  C53  1  0.302430  0.828310  0.257190  1.0  0.0017
  C  C54  1  0.175440  0.759480  0.831870  1.0  0.7096
  C  C55  1  0.140410  0.817420  0.740470  1.0  -0.2339
  C  C56  1  0.049390  0.797100  0.674070  1.0  0.1849
  C  C57  1  0.073520  0.909880  0.567690  1.0  0.1111
  C  C58  1  0.164470  0.937300  0.630900  1.0  -0.1719
  C  C59  1  0.226000  0.013400  0.601180  1.0  0.6503
  C  C60  1  0.198760  0.888750  0.718030  1.0  -0.0053
  C  C61  1  0.724240  0.775620  0.613720  1.0  0.7046
  C  C62  1  0.720100  0.723310  0.705250  1.0  -0.2399
  C  C63  1  0.635760  0.726100  0.741800  1.0  0.1864
  C  C64  1  0.707770  0.629100  0.869310  1.0  0.1939
  C  C65  1  0.796460  0.622790  0.840120  1.0  -0.2235
  C  C66  1  0.883550  0.567240  0.900490  1.0  0.7361
  C  C67  1  0.802430  0.671690  0.757190  1.0  0.0015
  C  C68  1  0.675440  0.740520  0.331870  1.0  0.7096
  C  C69  1  0.640410  0.682580  0.240470  1.0  -0.234
  C  C70  1  0.549390  0.702900  0.174070  1.0  0.1834
  C  C71  1  0.573520  0.590120  0.067690  1.0  0.1118
  C  C72  1  0.664470  0.562700  0.130900  1.0  -0.1719
  C  C73  1  0.726000  0.486600  0.101180  1.0  0.6509
  C  C74  1  0.698760  0.611250  0.218030  1.0  -0.0046
  C  C75  1  0.775760  0.275620  0.886280  1.0  0.7052
  C  C76  1  0.779900  0.223310  0.794750  1.0  -0.24
  C  C77  1  0.864240  0.226100  0.758200  1.0  0.1889
  C  C78  1  0.792230  0.129100  0.630690  1.0  0.1924
  C  C79  1  0.703540  0.122790  0.659880  1.0  -0.2234
  C  C80  1  0.616450  0.067240  0.599510  1.0  0.7356
  C  C81  1  0.697570  0.171690  0.742810  1.0  0.0009
  C  C82  1  0.824560  0.240520  0.168130  1.0  0.7102
  C  C83  1  0.859590  0.182580  0.259530  1.0  -0.2318
  C  C84  1  0.950610  0.202900  0.325930  1.0  0.1826
  C  C85  1  0.926480  0.090120  0.432310  1.0  0.1125
  C  C86  1  0.835530  0.062700  0.369100  1.0  -0.1717
  C  C87  1  0.774000  0.986600  0.398820  1.0  0.6518
  C  C88  1  0.801240  0.111250  0.281970  1.0  -0.005
  N  N89  1  0.371160  0.318870  0.177350  1.0  -0.4556
  N  N90  1  0.483960  0.341070  0.912290  1.0  -0.3365
  N  N91  1  0.128840  0.818870  0.322650  1.0  -0.4544
  N  N92  1  0.016040  0.841070  0.587710  1.0  -0.3368
  N  N93  1  0.628840  0.681130  0.822650  1.0  -0.4551
  N  N94  1  0.516040  0.658930  0.087710  1.0  -0.3351
  N  N95  1  0.871160  0.181130  0.677350  1.0  -0.4557
  N  N96  1  0.983960  0.158930  0.412290  1.0  -0.3372
  O  O97  1  0.191450  0.220520  0.404480  1.0  -0.6743
  O  O98  1  0.356180  0.189630  0.436980  1.0  -0.6494
  O  O99  1  0.136930  0.494030  0.046130  1.0  -0.6837
  O  O100  1  0.031240  0.411320  0.108070  1.0  -0.6928
  O  O101  1  0.385650  0.201300  0.650920  1.0  -0.6188
  O  O102  1  0.237100  0.273780  0.617790  1.0  -0.6944
  O  O103  1  0.317280  0.574590  0.957720  1.0  -0.708
  O  O104  1  0.180320  0.509200  0.865800  1.0  -0.6133
  O  O105  1  0.308550  0.720520  0.095520  1.0  -0.6742
  O  O106  1  0.143820  0.689630  0.063020  1.0  -0.6489
  O  O107  1  0.363070  0.994030  0.453870  1.0  -0.6848
  O  O108  1  0.468760  0.911320  0.391930  1.0  -0.6937
  O  O109  1  0.114350  0.701300  0.849080  1.0  -0.6195
  O  O110  1  0.262900  0.773780  0.882210  1.0  -0.6954
  O  O111  1  0.182720  0.074590  0.542280  1.0  -0.7059
  O  O112  1  0.319680  0.009200  0.634200  1.0  -0.6177
  O  O113  1  0.808550  0.779480  0.595520  1.0  -0.6741
  O  O114  1  0.643820  0.810370  0.563020  1.0  -0.6495
  O  O115  1  0.863070  0.505970  0.953870  1.0  -0.6842
  O  O116  1  0.968760  0.588680  0.891930  1.0  -0.6933
  O  O117  1  0.614350  0.798700  0.349080  1.0  -0.619
  O  O118  1  0.762900  0.726220  0.382210  1.0  -0.6942
  O  O119  1  0.682720  0.425410  0.042280  1.0  -0.7052
  O  O120  1  0.819680  0.490800  0.134200  1.0  -0.6174
  O  O121  1  0.691450  0.279480  0.904480  1.0  -0.6742
  O  O122  1  0.856180  0.310370  0.936980  1.0  -0.6478
  O  O123  1  0.636930  0.005970  0.546130  1.0  -0.6839
  O  O124  1  0.531240  0.088680  0.608070  1.0  -0.693
  O  O125  1  0.885650  0.298700  0.150920  1.0  -0.6183
  O  O126  1  0.737100  0.226220  0.117790  1.0  -0.6933
  O  O127  1  0.817280  0.925410  0.457720  1.0  -0.7078
  O  O128  1  0.680320  0.990800  0.365800  1.0  -0.6129
