# generated using pymatgen
data_Ag2SbH72C66(O2F)6
_symmetry_space_group_name_H-M   'P 1'
_cell_length_a   13.74610000
_cell_length_b   24.40200000
_cell_length_c   24.40200000
_cell_angle_alpha   120.00000000
_cell_angle_beta   90.00000000
_cell_angle_gamma   90.00000000
_symmetry_Int_Tables_number   1
_chemical_formula_structural   Ag2SbH72C66(O2F)6
_chemical_formula_sum   'Ag6 Sb3 H216 C198 O36 F18'
_cell_volume   7088.60825668
_cell_formula_units_Z   3
loop_
 _symmetry_equiv_pos_site_id
 _symmetry_equiv_pos_as_xyz
  1  'x, y, z'
loop_
 _atom_site_type_symbol
 _atom_site_label
 _atom_site_symmetry_multiplicity
 _atom_site_fract_x
 _atom_site_fract_y
 _atom_site_fract_z
 _atom_site_occupancy
 _atom_site_charge
  Ag  Ag1  1  0.907790  0.094740  0.324850  1.0  0.2175
  Ag  Ag2  1  0.753710  0.164540  0.820500  1.0  0.3075
  Ag  Ag3  1  0.241120  0.230110  0.905260  1.0  0.2184
  Ag  Ag4  1  0.087040  0.655960  0.835460  1.0  0.3066
  Ag  Ag5  1  0.574460  0.675150  0.769890  1.0  0.2195
  Ag  Ag6  1  0.420380  0.179500  0.344040  1.0  0.3072
  Sb  Sb7  1  0.043500  0.744530  0.104770  1.0  1.7035
  Sb  Sb8  1  0.376830  0.360240  0.255470  1.0  1.7092
  Sb  Sb9  1  0.710170  0.895230  0.639760  1.0  1.705
  H  H10  1  0.731300  0.905700  0.097700  1.0  0.106
  H  H11  1  0.729300  0.115900  0.150700  1.0  0.0746
  H  H12  1  0.563400  0.025200  0.029500  1.0  0.0889
  H  H13  1  0.590100  0.096100  0.081500  1.0  0.095
  H  H14  1  0.721500  0.150500  0.066000  1.0  0.0883
  H  H15  1  0.736700  0.993600  0.854200  1.0  0.0983
  H  H16  1  0.597700  0.941900  0.870400  1.0  0.0829
  H  H17  1  0.568600  0.959500  0.940800  1.0  0.084
  H  H18  1  0.740400  0.885700  0.824300  1.0  0.0987
  H  H19  1  0.762800  0.828700  0.978300  1.0  0.091
  H  H20  1  0.615000  0.878000  0.019000  1.0  0.0742
  H  H21  1  0.571900  0.929300  0.003100  1.0  0.0869
  H  H22  1  0.795800  0.900100  0.198700  1.0  0.1047
  H  H23  1  0.911000  0.903200  0.190800  1.0  0.0993
  H  H24  1  0.840200  0.886900  0.132600  1.0  0.0807
  H  H25  1  0.762800  0.179300  0.256000  1.0  0.0825
  H  H26  1  0.864000  0.174000  0.220100  1.0  0.0781
  H  H27  1  0.848800  0.218700  0.351200  1.0  0.0758
  H  H28  1  0.017800  0.160600  0.281300  1.0  0.1299
  H  H29  1  0.010200  0.204800  0.358900  1.0  0.1151
  H  H30  1  0.764400  0.247100  0.072300  1.0  0.0837
  H  H31  1  0.876000  0.262300  0.066800  1.0  0.0944
  H  H32  1  0.848700  0.208600  0.083500  1.0  0.0659
  H  H33  1  0.780300  0.025700  0.794500  1.0  0.057
  H  H34  1  0.888500  0.013800  0.811300  1.0  0.0752
  H  H35  1  0.880600  0.053500  0.731200  1.0  0.0902
  H  H36  1  0.932200  0.152800  0.846500  1.0  0.1084
  H  H37  1  0.951200  0.145500  0.776500  1.0  0.1315
  H  H38  1  0.813700  0.806300  0.726400  1.0  0.1146
  H  H39  1  0.926400  0.787500  0.715200  1.0  0.1105
  H  H40  1  0.894600  0.857100  0.768700  1.0  0.1072
  H  H41  1  0.830000  0.740700  0.945500  1.0  0.0704
  H  H42  1  0.942100  0.763100  0.954100  1.0  0.0738
  H  H43  1  0.977500  0.683300  0.957500  1.0  0.1176
  H  H44  1  0.992800  0.611600  0.896800  1.0  0.1199
  H  H45  1  0.910600  0.640000  0.838900  1.0  0.0851
  H  H46  1  0.217700  0.165700  0.511500  1.0  0.1032
  H  H47  1  0.215300  0.363600  0.528100  1.0  0.1025
  H  H48  1  0.398800  0.352300  0.618700  1.0  0.0763
  H  H49  1  0.359200  0.392200  0.587600  1.0  0.0881
  H  H50  1  0.231300  0.466300  0.635200  1.0  0.0954
  H  H51  1  0.254400  0.447700  0.814800  1.0  0.0979
  H  H52  1  0.408900  0.344100  0.695300  1.0  0.0749
  H  H53  1  0.393300  0.378200  0.770300  1.0  0.0734
  H  H54  1  0.248800  0.351700  0.810800  1.0  0.097
  H  H55  1  0.224400  0.160500  0.618200  1.0  0.0948
  H  H56  1  0.352800  0.192300  0.579200  1.0  0.1026
  H  H57  1  0.396800  0.262300  0.615600  1.0  0.0835
  H  H58  1  0.146000  0.362200  0.458400  1.0  0.0718
  H  H59  1  0.037000  0.369300  0.484100  1.0  0.0975
  H  H60  1  0.056700  0.338000  0.409800  1.0  0.1026
  H  H61  1  0.051200  0.101500  0.440700  1.0  0.0821
  H  H62  1  0.165400  0.099200  0.425400  1.0  0.0772
  H  H63  1  0.107700  0.080700  0.316500  1.0  0.0846
  H  H64  1  0.987500  0.010200  0.353300  1.0  0.1682
  H  H65  1  0.002600  0.995600  0.280300  1.0  0.1498
  H  H66  1  0.135100  0.501900  0.881200  1.0  0.0876
  H  H67  1  0.105900  0.575200  0.919800  1.0  0.0765
  H  H68  1  0.217900  0.555100  0.905100  1.0  0.0891
  H  H69  1  0.089500  0.553800  0.661200  1.0  0.0892
  H  H70  1  0.202900  0.567900  0.677500  1.0  0.0995
  H  H71  1  0.168000  0.680800  0.737300  1.0  0.1044
  H  H72  1  0.969700  0.654800  0.749000  1.0  0.1437
  H  H73  1  0.016700  0.725400  0.774000  1.0  0.1348
  H  H74  1  0.102400  0.114500  0.621900  1.0  0.0784
  H  H75  1  0.055900  0.081900  0.658700  1.0  0.0935
  H  H76  1  0.171500  0.083100  0.651500  1.0  0.0895
  H  H77  1  0.088500  0.356000  0.871700  1.0  0.0692
  H  H78  1  0.201900  0.347300  0.881800  1.0  0.0794
  H  H79  1  0.121400  0.348300  0.974100  1.0  0.0903
  H  H80  1  0.059100  0.231200  0.877200  1.0  0.1169
  H  H81  1  0.054500  0.256100  0.953500  1.0  0.1498
  H  H82  1  0.064630  0.192000  0.094300  1.0  0.1036
  H  H83  1  0.062630  0.034800  0.884100  1.0  0.0736
  H  H84  1  0.896730  0.004300  0.974800  1.0  0.0886
  H  H85  1  0.923430  0.985400  0.903900  1.0  0.0972
  H  H86  1  0.054830  0.915500  0.849500  1.0  0.0916
  H  H87  1  0.070030  0.860600  0.006400  1.0  0.1021
  H  H88  1  0.931030  0.928500  0.058100  1.0  0.0828
  H  H89  1  0.901930  0.981300  0.040500  1.0  0.0843
  H  H90  1  0.073730  0.938600  0.114300  1.0  0.0973
  H  H91  1  0.096130  0.149600  0.171300  1.0  0.0901
  H  H92  1  0.948330  0.141000  0.122000  1.0  0.0741
  H  H93  1  0.905230  0.073800  0.070700  1.0  0.0859
  H  H94  1  0.129130  0.298600  0.099900  1.0  0.104
  H  H95  1  0.244330  0.287600  0.096800  1.0  0.0987
  H  H96  1  0.173530  0.245700  0.113100  1.0  0.0824
  H  H97  1  0.096130  0.076700  0.820700  1.0  0.0816
  H  H98  1  0.197330  0.046100  0.826000  1.0  0.0795
  H  H99  1  0.182130  0.132500  0.781300  1.0  0.075
  H  H100  1  0.351130  0.120700  0.839400  1.0  0.1304
  H  H101  1  0.343530  0.154100  0.795200  1.0  0.1147
  H  H102  1  0.097730  0.825200  0.752900  1.0  0.0841
  H  H103  1  0.209330  0.804500  0.737700  1.0  0.093
  H  H104  1  0.182030  0.874900  0.791400  1.0  0.067
  H  H105  1  0.113630  0.768800  0.974300  1.0  0.0558
  H  H106  1  0.221830  0.797500  0.986200  1.0  0.0748
  H  H107  1  0.213930  0.677700  0.946500  1.0  0.0894
  H  H108  1  0.265530  0.693700  0.847200  1.0  0.1083
  H  H109  1  0.284530  0.631000  0.854500  1.0  0.1336
  H  H110  1  0.147030  0.920100  0.193700  1.0  0.1142
  H  H111  1  0.259730  0.927700  0.212500  1.0  0.1114
  H  H112  1  0.227930  0.911600  0.142900  1.0  0.106
  H  H113  1  0.163330  0.204800  0.259300  1.0  0.0686
  H  H114  1  0.275430  0.191000  0.236900  1.0  0.0744
  H  H115  1  0.310830  0.274200  0.316700  1.0  0.1171
  H  H116  1  0.326130  0.285200  0.388400  1.0  0.1192
  H  H117  1  0.243930  0.198900  0.360000  1.0  0.0834
  H  H118  1  0.551030  0.345800  0.834300  1.0  0.1028
  H  H119  1  0.548630  0.164500  0.636400  1.0  0.1027
  H  H120  1  0.732130  0.266400  0.647700  1.0  0.0769
  H  H121  1  0.692530  0.195400  0.607800  1.0  0.0896
  H  H122  1  0.564630  0.168900  0.533700  1.0  0.0946
  H  H123  1  0.587730  0.367100  0.552300  1.0  0.0953
  H  H124  1  0.742230  0.351200  0.655900  1.0  0.0749
  H  H125  1  0.726630  0.392100  0.621800  1.0  0.0727
  H  H126  1  0.582130  0.459100  0.648300  1.0  0.1002
  H  H127  1  0.557730  0.457700  0.839500  1.0  0.0963
  H  H128  1  0.686130  0.386900  0.807700  1.0  0.1018
  H  H129  1  0.730130  0.353300  0.737700  1.0  0.0853
  H  H130  1  0.479330  0.096200  0.637800  1.0  0.0709
  H  H131  1  0.370330  0.114800  0.630700  1.0  0.0961
  H  H132  1  0.390030  0.071800  0.662000  1.0  0.1013
  H  H133  1  0.384530  0.339200  0.898500  1.0  0.0824
  H  H134  1  0.498730  0.326200  0.900800  1.0  0.0756
  H  H135  1  0.441030  0.235800  0.919300  1.0  0.0845
  H  H136  1  0.320830  0.343100  0.989800  1.0  0.1662
  H  H137  1  0.335930  0.284700  0.004400  1.0  0.1503
  H  H138  1  0.468430  0.379300  0.498100  1.0  0.0871
  H  H139  1  0.439230  0.344600  0.424800  1.0  0.0769
  H  H140  1  0.551230  0.350000  0.444900  1.0  0.0903
  H  H141  1  0.422830  0.107400  0.446200  1.0  0.0884
  H  H142  1  0.536230  0.109600  0.432100  1.0  0.1009
  H  H143  1  0.501330  0.056500  0.319200  1.0  0.1053
  H  H144  1  0.303030  0.094200  0.345200  1.0  0.1421
  H  H145  1  0.350030  0.048600  0.274600  1.0  0.1343
  H  H146  1  0.435730  0.507400  0.885500  1.0  0.0798
  H  H147  1  0.389230  0.576800  0.918100  1.0  0.0964
  H  H148  1  0.504830  0.568400  0.916900  1.0  0.0909
  H  H149  1  0.421830  0.515700  0.644000  1.0  0.0691
  H  H150  1  0.535230  0.534500  0.652700  1.0  0.081
  H  H151  1  0.454730  0.625800  0.651700  1.0  0.0892
  H  H152  1  0.392430  0.646000  0.768800  1.0  0.1166
  H  H153  1  0.387830  0.697400  0.743900  1.0  0.1476
  H  H154  1  0.397970  0.902300  0.808000  1.0  0.1036
  H  H155  1  0.395970  0.849300  0.965200  1.0  0.0759
  H  H156  1  0.230070  0.970500  0.995700  1.0  0.0884
  H  H157  1  0.256770  0.918500  0.014600  1.0  0.0972
  H  H158  1  0.388170  0.934000  0.084500  1.0  0.0915
  H  H159  1  0.403370  0.145800  0.139400  1.0  0.0986
  H  H160  1  0.264370  0.129600  0.071500  1.0  0.0816
  H  H161  1  0.235270  0.059200  0.018700  1.0  0.0843
  H  H162  1  0.407070  0.175700  0.061400  1.0  0.0951
  H  H163  1  0.429470  0.021700  0.850400  1.0  0.0904
  H  H164  1  0.281670  0.981000  0.859000  1.0  0.0718
  H  H165  1  0.238570  0.996900  0.926200  1.0  0.0868
  H  H166  1  0.462470  0.801300  0.701400  1.0  0.1041
  H  H167  1  0.577670  0.809200  0.712400  1.0  0.1007
  H  H168  1  0.506870  0.867400  0.754300  1.0  0.0823
  H  H169  1  0.429470  0.744000  0.923300  1.0  0.0829
  H  H170  1  0.530670  0.779900  0.953900  1.0  0.0773
  H  H171  1  0.515470  0.648800  0.867500  1.0  0.0751
  H  H172  1  0.684470  0.718700  0.879300  1.0  0.1307
  H  H173  1  0.676870  0.641100  0.845900  1.0  0.1187
  H  H174  1  0.431070  0.927700  0.174800  1.0  0.0838
  H  H175  1  0.542670  0.933200  0.195500  1.0  0.0942
  H  H176  1  0.515370  0.916500  0.125100  1.0  0.0647
  H  H177  1  0.446970  0.205500  0.231200  1.0  0.0557
  H  H178  1  0.555170  0.188700  0.202500  1.0  0.0733
  H  H179  1  0.547270  0.268800  0.322300  1.0  0.0899
  H  H180  1  0.598870  0.153500  0.306300  1.0  0.1098
  H  H181  1  0.617870  0.223500  0.369000  1.0  0.1316
  H  H182  1  0.480370  0.273600  0.079900  1.0  0.1141
  H  H183  1  0.593070  0.284800  0.072300  1.0  0.1111
  H  H184  1  0.561270  0.231300  0.088400  1.0  0.1042
  H  H185  1  0.496670  0.054500  0.795200  1.0  0.0687
  H  H186  1  0.608770  0.045900  0.809000  1.0  0.075
  H  H187  1  0.644170  0.042500  0.725800  1.0  0.1191
  H  H188  1  0.659470  0.103200  0.714800  1.0  0.1203
  H  H189  1  0.577270  0.161100  0.801100  1.0  0.0859
  H  H190  1  0.884370  0.488500  0.654200  1.0  0.1039
  H  H191  1  0.881970  0.471900  0.835500  1.0  0.1053
  H  H192  1  0.065470  0.381300  0.733600  1.0  0.0779
  H  H193  1  0.025870  0.412400  0.804600  1.0  0.0874
  H  H194  1  0.897970  0.364800  0.831100  1.0  0.0934
  H  H195  1  0.921070  0.185200  0.632900  1.0  0.0939
  H  H196  1  0.075570  0.304700  0.648800  1.0  0.0752
  H  H197  1  0.059970  0.229700  0.607900  1.0  0.0734
  H  H198  1  0.915470  0.189200  0.540900  1.0  0.0963
  H  H199  1  0.891070  0.381800  0.542300  1.0  0.0953
  H  H200  1  0.019470  0.420800  0.613100  1.0  0.1014
  H  H201  1  0.063470  0.384400  0.646700  1.0  0.0833
  H  H202  1  0.812670  0.541600  0.903800  1.0  0.0722
  H  H203  1  0.703670  0.515900  0.885200  1.0  0.0967
  H  H204  1  0.723370  0.590200  0.928200  1.0  0.105
  H  H205  1  0.717870  0.559300  0.660800  1.0  0.0824
  H  H206  1  0.832070  0.574600  0.673800  1.0  0.0772
  H  H207  1  0.774370  0.683500  0.764200  1.0  0.0858
  H  H208  1  0.654170  0.646700  0.656900  1.0  0.1664
  H  H209  1  0.669270  0.719700  0.715300  1.0  0.1499
  H  H210  1  0.801770  0.118800  0.620700  1.0  0.0837
  H  H211  1  0.772570  0.080200  0.655400  1.0  0.0764
  H  H212  1  0.884570  0.094900  0.650000  1.0  0.0914
  H  H213  1  0.756170  0.338800  0.892600  1.0  0.0877
  H  H214  1  0.869570  0.322500  0.890400  1.0  0.1001
  H  H215  1  0.834670  0.262700  0.943500  1.0  0.1063
  H  H216  1  0.636370  0.251000  0.905800  1.0  0.1435
  H  H217  1  0.683370  0.226000  0.951400  1.0  0.1343
  H  H218  1  0.769070  0.378100  0.492600  1.0  0.079
  H  H219  1  0.722570  0.341300  0.423200  1.0  0.0974
  H  H220  1  0.838170  0.348500  0.431600  1.0  0.091
  H  H221  1  0.755170  0.128300  0.484300  1.0  0.0704
  H  H222  1  0.868570  0.118200  0.465500  1.0  0.0801
  H  H223  1  0.788070  0.025900  0.374200  1.0  0.09
  H  H224  1  0.725770  0.122800  0.354000  1.0  0.1179
  H  H225  1  0.721170  0.046500  0.302600  1.0  0.1499
  C  C226  1  0.681600  0.965500  0.070100  1.0  0.0228
  C  C227  1  0.731800  0.948700  0.107700  1.0  -0.1218
  C  C228  1  0.782800  0.992400  0.159300  1.0  0.1428
  C  C229  1  0.780200  0.056300  0.175300  1.0  0.2178
  C  C230  1  0.729600  0.072600  0.139700  1.0  -0.1587
  C  C231  1  0.677300  0.030000  0.087400  1.0  0.018
  C  C232  1  0.618300  0.054600  0.050700  1.0  -0.3228
  C  C233  1  0.672300  0.062200  0.002400  1.0  0.0262
  C  C234  1  0.723200  0.118400  0.022700  1.0  -0.1648
  C  C235  1  0.778400  0.127600  0.978000  1.0  0.105
  C  C236  1  0.779300  0.081200  0.914600  1.0  0.249
  C  C237  1  0.731600  0.026600  0.897000  1.0  -0.1395
  C  C238  1  0.675300  0.015900  0.938100  1.0  0.0388
  C  C239  1  0.624100  0.954300  0.912800  1.0  -0.2454
  C  C240  1  0.691100  0.900400  0.907500  1.0  0.1047
  C  C241  1  0.745200  0.873000  0.855200  1.0  -0.1941
  C  C242  1  0.812200  0.822800  0.846800  1.0  0.11
  C  C243  1  0.818400  0.806000  0.892400  1.0  0.2224
  C  C244  1  0.758600  0.838900  0.945600  1.0  -0.1777
  C  C245  1  0.693000  0.885800  0.952900  1.0  0.1366
  C  C246  1  0.632900  0.912600  0.010800  1.0  -0.2387
  C  C247  1  0.847300  0.911800  0.178700  1.0  -0.0827
  C  C248  1  0.830900  0.164300  0.250300  1.0  -0.079
  C  C249  1  0.884800  0.193500  0.313400  1.0  -0.2231
  C  C250  1  0.980200  0.185500  0.318300  1.0  -0.0529
  C  C251  1  0.829500  0.228800  0.059100  1.0  -0.0154
  C  C252  1  0.843400  0.046200  0.813000  1.0  0.0021
  C  C253  1  0.885600  0.076200  0.776000  1.0  -0.172
  C  C254  1  0.926200  0.129100  0.801800  1.0  -0.0564
  C  C255  1  0.877000  0.812200  0.747100  1.0  -0.067
  C  C256  1  0.891500  0.737200  0.922900  1.0  -0.0035
  C  C257  1  0.967300  0.653200  0.914100  1.0  -0.054
  C  C258  1  0.924100  0.667100  0.882600  1.0  -0.0684
  C  C259  1  0.274800  0.255200  0.562000  1.0  0.0224
  C  C260  1  0.214600  0.206800  0.516400  1.0  -0.1539
  C  C261  1  0.151100  0.217800  0.478800  1.0  0.2324
  C  C262  1  0.150500  0.276400  0.483400  1.0  0.1827
  C  C263  1  0.213600  0.323900  0.526400  1.0  -0.2235
  C  C264  1  0.272900  0.313900  0.565900  1.0  0.0213
  C  C265  1  0.339300  0.369300  0.609700  1.0  -0.2823
  C  C266  1  0.291100  0.415200  0.671400  1.0  0.031
  C  C267  1  0.236000  0.462900  0.672300  1.0  -0.1772
  C  C268  1  0.185500  0.507500  0.728800  1.0  0.1245
  C  C269  1  0.195700  0.503500  0.785400  1.0  0.2377
  C  C270  1  0.250400  0.453300  0.779000  1.0  -0.1403
  C  C271  1  0.298200  0.412000  0.727100  1.0  0.0067
  C  C272  1  0.359100  0.359900  0.729100  1.0  -0.2752
  C  C273  1  0.295200  0.305000  0.720500  1.0  0.0547
  C  C274  1  0.243000  0.313000  0.771900  1.0  -0.1702
  C  C275  1  0.183000  0.266800  0.768800  1.0  0.1326
  C  C276  1  0.176300  0.206700  0.711200  1.0  0.1344
  C  C277  1  0.228200  0.199100  0.657300  1.0  -0.1601
  C  C278  1  0.285100  0.249600  0.662900  1.0  -0.0283
  C  C279  1  0.335500  0.237700  0.604000  1.0  -0.3049
  C  C280  1  0.081400  0.342600  0.449600  1.0  -0.0401
  C  C281  1  0.100200  0.109600  0.415900  1.0  0.0116
  C  C282  1  0.078400  0.070300  0.345400  1.0  -0.202
  C  C283  1  0.016700  0.020400  0.324300  1.0  -0.064
  C  C284  1  0.151300  0.544300  0.888800  1.0  -0.0423
  C  C285  1  0.136800  0.576600  0.696000  1.0  -0.0527
  C  C286  1  0.115000  0.653500  0.731700  1.0  -0.2318
  C  C287  1  0.024200  0.680700  0.753800  1.0  -0.0249
  C  C288  1  0.111000  0.106700  0.657300  1.0  -0.0572
  C  C289  1  0.136600  0.327800  0.875200  1.0  -0.0176
  C  C290  1  0.109500  0.316300  0.931700  1.0  -0.1949
  C  C291  1  0.071000  0.263200  0.919800  1.0  -0.0404
  C  C292  1  0.014930  0.104600  0.034500  1.0  0.0211
  C  C293  1  0.065130  0.159000  0.051300  1.0  -0.1255
  C  C294  1  0.116130  0.166900  0.007600  1.0  0.1415
  C  C295  1  0.113530  0.119000  0.943700  1.0  0.2185
  C  C296  1  0.062930  0.067100  0.927400  1.0  -0.1569
  C  C297  1  0.010630  0.057400  0.970000  1.0  0.0178
  C  C298  1  0.951630  0.996100  0.945400  1.0  -0.3235
  C  C299  1  0.005630  0.940200  0.937800  1.0  0.0262
  C  C300  1  0.056530  0.904300  0.881600  1.0  -0.1644
  C  C301  1  0.111730  0.850400  0.872400  1.0  0.1047
  C  C302  1  0.112630  0.833400  0.918800  1.0  0.2494
  C  C303  1  0.064930  0.870400  0.973400  1.0  -0.1411
  C  C304  1  0.008630  0.922200  0.984100  1.0  0.0389
  C  C305  1  0.957430  0.958500  0.045700  1.0  -0.2443
  C  C306  1  0.024430  0.007100  0.099600  1.0  0.1069
  C  C307  1  0.078530  0.982200  0.127000  1.0  -0.1934
  C  C308  1  0.145530  0.024000  0.177200  1.0  0.1108
  C  C309  1  0.151730  0.086400  0.194000  1.0  0.2219
  C  C310  1  0.091930  0.106700  0.161100  1.0  -0.182
  C  C311  1  0.026330  0.067100  0.114200  1.0  0.1362
  C  C312  1  0.966230  0.098200  0.087400  1.0  -0.2368
  C  C313  1  0.180630  0.266900  0.088200  1.0  -0.0832
  C  C314  1  0.164230  0.086000  0.835700  1.0  -0.0766
  C  C315  1  0.218130  0.119900  0.806500  1.0  -0.2217
  C  C316  1  0.313530  0.132800  0.814500  1.0  -0.0536
  C  C317  1  0.162830  0.830300  0.771200  1.0  -0.0194
  C  C318  1  0.176730  0.766800  0.953800  1.0  0.0034
  C  C319  1  0.218930  0.699800  0.923800  1.0  -0.1672
  C  C320  1  0.259530  0.672700  0.870900  1.0  -0.0566
  C  C321  1  0.210330  0.934900  0.187800  1.0  -0.0637
  C  C322  1  0.224830  0.185700  0.262800  1.0  -0.0075
  C  C323  1  0.300630  0.260900  0.346800  1.0  -0.0565
  C  C324  1  0.257430  0.215500  0.332900  1.0  -0.0686
  C  C325  1  0.608130  0.306800  0.744800  1.0  0.0225
  C  C326  1  0.547930  0.309600  0.793200  1.0  -0.1525
  C  C327  1  0.484430  0.261000  0.782200  1.0  0.2335
  C  C328  1  0.483830  0.207000  0.723600  1.0  0.1809
  C  C329  1  0.546930  0.202500  0.676100  1.0  -0.2229
  C  C330  1  0.606230  0.252000  0.686100  1.0  0.0204
  C  C331  1  0.672630  0.240400  0.630700  1.0  -0.2836
  C  C332  1  0.624430  0.256200  0.584800  1.0  0.0307
  C  C333  1  0.569330  0.209400  0.537100  1.0  -0.1751
  C  C334  1  0.518830  0.221300  0.492500  1.0  0.1227
  C  C335  1  0.529030  0.281900  0.496500  1.0  0.237
  C  C336  1  0.583730  0.325700  0.546700  1.0  -0.1383
  C  C337  1  0.631530  0.315100  0.588000  1.0  0.007
  C  C338  1  0.692430  0.369200  0.640100  1.0  -0.2762
  C  C339  1  0.628530  0.415500  0.695000  1.0  0.0537
  C  C340  1  0.576330  0.458900  0.687000  1.0  -0.1744
  C  C341  1  0.516330  0.502000  0.733200  1.0  0.1311
  C  C342  1  0.509630  0.504500  0.793300  1.0  0.1359
  C  C343  1  0.561530  0.458200  0.800900  1.0  -0.16
  C  C344  1  0.618430  0.413300  0.750400  1.0  -0.0251
  C  C345  1  0.668830  0.366300  0.762300  1.0  -0.3062
  C  C346  1  0.414730  0.107000  0.657400  1.0  -0.042
  C  C347  1  0.433530  0.306300  0.890400  1.0  0.0157
  C  C348  1  0.411730  0.275100  0.929700  1.0  -0.2036
  C  C349  1  0.350030  0.303900  0.979600  1.0  -0.0626
  C  C350  1  0.484630  0.344500  0.455700  1.0  -0.0402
  C  C351  1  0.470130  0.119400  0.423400  1.0  -0.052
  C  C352  1  0.448330  0.078200  0.346500  1.0  -0.2348
  C  C353  1  0.357530  0.073100  0.319300  1.0  -0.0237
  C  C354  1  0.444330  0.550600  0.893300  1.0  -0.0583
  C  C355  1  0.469930  0.547400  0.672200  1.0  -0.0246
  C  C356  1  0.442830  0.615400  0.683700  1.0  -0.193
  C  C357  1  0.404330  0.656600  0.736800  1.0  -0.0404
  C  C358  1  0.348270  0.929900  0.895400  1.0  0.0239
  C  C359  1  0.398470  0.892300  0.841000  1.0  -0.1244
  C  C360  1  0.449470  0.840700  0.833100  1.0  0.1409
  C  C361  1  0.446870  0.824700  0.881000  1.0  0.2166
  C  C362  1  0.396270  0.860300  0.932900  1.0  -0.1595
  C  C363  1  0.343970  0.912600  0.942600  1.0  0.0156
  C  C364  1  0.284970  0.949300  0.003900  1.0  -0.3232
  C  C365  1  0.338970  0.997600  0.059800  1.0  0.0273
  C  C366  1  0.389870  0.977300  0.095700  1.0  -0.162
  C  C367  1  0.445070  0.022000  0.149600  1.0  0.1058
  C  C368  1  0.445970  0.085400  0.166600  1.0  0.2495
  C  C369  1  0.398270  0.103000  0.129600  1.0  -0.1393
  C  C370  1  0.341970  0.061900  0.077800  1.0  0.0397
  C  C371  1  0.290770  0.087200  0.041500  1.0  -0.2453
  C  C372  1  0.357770  0.092500  0.992900  1.0  0.1041
  C  C373  1  0.411870  0.144800  0.017800  1.0  -0.195
  C  C374  1  0.478870  0.153200  0.976000  1.0  0.1084
  C  C375  1  0.485070  0.107600  0.913600  1.0  0.2219
  C  C376  1  0.425270  0.054400  0.893300  1.0  -0.1776
  C  C377  1  0.359670  0.047100  0.932900  1.0  0.1382
  C  C378  1  0.299570  0.989200  0.901800  1.0  -0.238
  C  C379  1  0.513970  0.821300  0.733100  1.0  -0.0861
  C  C380  1  0.497570  0.749700  0.914000  1.0  -0.079
  C  C381  1  0.551470  0.686600  0.880100  1.0  -0.2231
  C  C382  1  0.646870  0.681700  0.867200  1.0  -0.0548
  C  C383  1  0.496170  0.940900  0.169700  1.0  -0.0148
  C  C384  1  0.510070  0.187000  0.233200  1.0  0.0013
  C  C385  1  0.552270  0.224000  0.300200  1.0  -0.1688
  C  C386  1  0.592870  0.198200  0.327300  1.0  -0.0553
  C  C387  1  0.543670  0.252900  0.065100  1.0  -0.0647
  C  C388  1  0.558170  0.077100  0.814300  1.0  -0.0034
  C  C389  1  0.633970  0.085900  0.739100  1.0  -0.0536
  C  C390  1  0.590770  0.117400  0.784500  1.0  -0.0667
  C  C391  1  0.941470  0.438000  0.693200  1.0  0.0238
  C  C392  1  0.881270  0.483600  0.690400  1.0  -0.1579
  C  C393  1  0.817770  0.521200  0.739000  1.0  0.2331
  C  C394  1  0.817170  0.516600  0.793000  1.0  0.1839
  C  C395  1  0.880270  0.473600  0.797500  1.0  -0.222
  C  C396  1  0.939570  0.434100  0.748000  1.0  0.0217
  C  C397  1  0.005970  0.390300  0.759600  1.0  -0.2827
  C  C398  1  0.957770  0.328600  0.743800  1.0  0.0327
  C  C399  1  0.902670  0.327700  0.790600  1.0  -0.175
  C  C400  1  0.852170  0.271200  0.778700  1.0  0.1248
  C  C401  1  0.862370  0.214600  0.718100  1.0  0.2364
  C  C402  1  0.917070  0.221000  0.674300  1.0  -0.1405
  C  C403  1  0.964870  0.272900  0.684900  1.0  0.0074
  C  C404  1  0.025770  0.270900  0.630800  1.0  -0.2763
  C  C405  1  0.961870  0.279500  0.584500  1.0  0.0535
  C  C406  1  0.909670  0.228100  0.541100  1.0  -0.1723
  C  C407  1  0.849670  0.231200  0.498000  1.0  0.1312
  C  C408  1  0.842970  0.288800  0.495500  1.0  0.1347
  C  C409  1  0.894870  0.342700  0.541800  1.0  -0.1583
  C  C410  1  0.951770  0.337100  0.586700  1.0  -0.0269
  C  C411  1  0.002170  0.396000  0.633700  1.0  -0.303
  C  C412  1  0.748070  0.550400  0.893000  1.0  -0.0453
  C  C413  1  0.766870  0.584100  0.693700  1.0  0.0075
  C  C414  1  0.745070  0.654600  0.724900  1.0  -0.2039
  C  C415  1  0.683370  0.675700  0.696100  1.0  -0.0635
  C  C416  1  0.817970  0.111200  0.655500  1.0  -0.0398
  C  C417  1  0.803470  0.304000  0.880600  1.0  -0.0463
  C  C418  1  0.781670  0.268300  0.921800  1.0  -0.2325
  C  C419  1  0.690870  0.246200  0.926900  1.0  -0.0252
  C  C420  1  0.777670  0.342700  0.449400  1.0  -0.0543
  C  C421  1  0.803270  0.124800  0.452600  1.0  -0.0213
  C  C422  1  0.776170  0.068300  0.384600  1.0  -0.1913
  C  C423  1  0.737670  0.080200  0.343400  1.0  -0.0377
  O  O424  1  0.839600  0.979000  0.199300  1.0  -0.3006
  O  O425  1  0.835700  0.094600  0.228500  1.0  -0.4233
  O  O426  1  0.828500  0.183500  0.994400  1.0  -0.2749
  O  O427  1  0.830400  0.095600  0.876600  1.0  -0.326
  O  O428  1  0.871200  0.790300  0.794000  1.0  -0.3103
  O  O429  1  0.878800  0.755500  0.877300  1.0  -0.3258
  O  O430  1  0.087600  0.284600  0.444400  1.0  -0.2653
  O  O431  1  0.096800  0.171400  0.430400  1.0  -0.2986
  O  O432  1  0.115500  0.163500  0.713100  1.0  -0.2743
  O  O433  1  0.135800  0.267900  0.820300  1.0  -0.2867
  O  O434  1  0.144500  0.545100  0.834300  1.0  -0.3586
  O  O435  1  0.130000  0.556900  0.735100  1.0  -0.3926
  O  O436  1  0.172930  0.220300  0.021000  1.0  -0.3019
  O  O437  1  0.169030  0.133900  0.905400  1.0  -0.4252
  O  O438  1  0.161830  0.810900  0.816500  1.0  -0.2711
  O  O439  1  0.163730  0.781000  0.904400  1.0  -0.3252
  O  O440  1  0.204530  0.003700  0.209700  1.0  -0.3085
  O  O441  1  0.212130  0.121800  0.244500  1.0  -0.3269
  O  O442  1  0.420930  0.159800  0.715400  1.0  -0.2661
  O  O443  1  0.430130  0.259000  0.828600  1.0  -0.2986
  O  O444  1  0.448830  0.549600  0.836500  1.0  -0.2713
  O  O445  1  0.469130  0.552400  0.732100  1.0  -0.2868
  O  O446  1  0.477830  0.289200  0.454900  1.0  -0.3585
  O  O447  1  0.463330  0.178200  0.443100  1.0  -0.3953
  O  O448  1  0.506270  0.800700  0.779700  1.0  -0.2999
  O  O449  1  0.502370  0.771500  0.866100  1.0  -0.4236
  O  O450  1  0.495170  0.005600  0.189100  1.0  -0.2745
  O  O451  1  0.497070  0.123400  0.219000  1.0  -0.3279
  O  O452  1  0.537870  0.206000  0.996300  1.0  -0.31
  O  O453  1  0.545470  0.122700  0.878200  1.0  -0.328
  O  O454  1  0.754270  0.555600  0.840200  1.0  -0.2649
  O  O455  1  0.763470  0.569600  0.741000  1.0  -0.298
  O  O456  1  0.782170  0.286900  0.450400  1.0  -0.2714
  O  O457  1  0.802470  0.179700  0.447600  1.0  -0.2867
  O  O458  1  0.811170  0.165700  0.710800  1.0  -0.3584
  O  O459  1  0.796670  0.264900  0.821800  1.0  -0.3925
  F  F460  1  0.103000  0.684200  0.045000  1.0  -0.3949
  F  F461  1  0.961000  0.734000  0.129000  1.0  -0.188
  F  F462  1  0.019000  0.794400  0.075300  1.0  -0.4334
  F  F463  1  0.035000  0.818600  0.168600  1.0  -0.4018
  F  F464  1  0.168000  0.792000  0.097400  1.0  -0.4872
  F  F465  1  0.126000  0.723000  0.150600  1.0  -0.4154
  F  F466  1  0.436330  0.360800  0.315800  1.0  -0.3943
  F  F467  1  0.294330  0.395000  0.266000  1.0  -0.1885
  F  F468  1  0.352330  0.280900  0.205600  1.0  -0.4306
  F  F469  1  0.368330  0.350000  0.181400  1.0  -0.4048
  F  F470  1  0.501330  0.305400  0.208000  1.0  -0.4892
  F  F471  1  0.459330  0.427600  0.277000  1.0  -0.4155
  F  F472  1  0.769670  0.955000  0.639200  1.0  -0.3922
  F  F473  1  0.627670  0.871000  0.605000  1.0  -0.1884
  F  F474  1  0.685670  0.924700  0.719100  1.0  -0.4305
  F  F475  1  0.701670  0.831400  0.650000  1.0  -0.3973
  F  F476  1  0.834670  0.902600  0.694600  1.0  -0.4891
  F  F477  1  0.792670  0.849400  0.572400  1.0  -0.411
