# generated using pymatgen
data_CoH3(C3O2)3
_symmetry_space_group_name_H-M   'P 1'
_cell_length_a   32.81950000
_cell_length_b   32.81950000
_cell_length_c   19.07930000
_cell_angle_alpha   90.00000000
_cell_angle_beta   90.00000000
_cell_angle_gamma   120.00000000
_symmetry_Int_Tables_number   1
_chemical_formula_structural   CoH3(C3O2)3
_chemical_formula_sum   'Co36 H108 C324 O216'
_cell_volume   17797.41753330
_cell_formula_units_Z   36
loop_
 _symmetry_equiv_pos_site_id
 _symmetry_equiv_pos_as_xyz
  1  'x, y, z'
loop_
 _atom_site_type_symbol
 _atom_site_label
 _atom_site_symmetry_multiplicity
 _atom_site_fract_x
 _atom_site_fract_y
 _atom_site_fract_z
 _atom_site_occupancy
 _atom_site_charge
  Co  Co1  1  0.518480  0.048720  0.192880  1.0  1.023
  Co  Co2  1  0.482620  0.021700  0.674250  1.0  1.1024
  Co  Co3  1  0.185140  0.382050  0.526210  1.0  1.0232
  Co  Co4  1  0.149290  0.355030  0.007580  1.0  1.1024
  Co  Co5  1  0.851810  0.715390  0.859550  1.0  1.0245
  Co  Co6  1  0.815950  0.688370  0.340920  1.0  1.1026
  Co  Co7  1  0.951280  0.469760  0.192880  1.0  1.0232
  Co  Co8  1  0.978300  0.460920  0.674250  1.0  1.1011
  Co  Co9  1  0.617950  0.803090  0.526210  1.0  1.0232
  Co  Co10  1  0.644970  0.794250  0.007580  1.0  1.1012
  Co  Co11  1  0.284610  0.136420  0.859550  1.0  1.0219
  Co  Co12  1  0.311630  0.127590  0.340920  1.0  1.1013
  Co  Co13  1  0.530240  0.481520  0.192880  1.0  1.0193
  Co  Co14  1  0.539080  0.517380  0.674250  1.0  1.1001
  Co  Co15  1  0.196910  0.814860  0.526210  1.0  1.0207
  Co  Co16  1  0.205750  0.850710  0.007580  1.0  1.1001
  Co  Co17  1  0.863580  0.148190  0.859550  1.0  1.0197
  Co  Co18  1  0.872410  0.184050  0.340920  1.0  1.1001
  Co  Co19  1  0.481520  0.951280  0.807120  1.0  1.0206
  Co  Co20  1  0.517380  0.978300  0.325750  1.0  1.1009
  Co  Co21  1  0.148190  0.284610  0.140450  1.0  1.0221
  Co  Co22  1  0.184050  0.311630  0.659080  1.0  1.101
  Co  Co23  1  0.814860  0.617950  0.473790  1.0  1.0208
  Co  Co24  1  0.850710  0.644970  0.992420  1.0  1.1009
  Co  Co25  1  0.048720  0.530240  0.807120  1.0  1.0225
  Co  Co26  1  0.021700  0.539080  0.325750  1.0  1.1004
  Co  Co27  1  0.715390  0.863580  0.140450  1.0  1.0213
  Co  Co28  1  0.688370  0.872410  0.659080  1.0  1.1005
  Co  Co29  1  0.382050  0.196910  0.473790  1.0  1.0225
  Co  Co30  1  0.355030  0.205750  0.992420  1.0  1.1004
  Co  Co31  1  0.469760  0.518480  0.807120  1.0  1.0224
  Co  Co32  1  0.460920  0.482620  0.325750  1.0  1.1006
  Co  Co33  1  0.136420  0.851810  0.140450  1.0  1.0228
  Co  Co34  1  0.127590  0.815950  0.659080  1.0  1.1006
  Co  Co35  1  0.803090  0.185140  0.473790  1.0  1.0238
  Co  Co36  1  0.794250  0.149290  0.992420  1.0  1.1006
  H  H37  1  0.508900  0.051500  0.972000  1.0  0.13
  H  H38  1  0.538900  0.141800  0.809000  1.0  0.1546
  H  H39  1  0.558000  0.191000  0.005000  1.0  0.1335
  H  H40  1  0.660900  0.084700  0.142000  1.0  0.1293
  H  H41  1  0.788300  0.142800  0.235000  1.0  0.1255
  H  H42  1  0.669700  0.079800  0.353000  1.0  0.1346
  H  H43  1  0.175570  0.384830  0.305330  1.0  0.13
  H  H44  1  0.205570  0.475130  0.142330  1.0  0.1546
  H  H45  1  0.224670  0.524330  0.338330  1.0  0.1335
  H  H46  1  0.327570  0.418030  0.475330  1.0  0.1293
  H  H47  1  0.454970  0.476130  0.568330  1.0  0.1255
  H  H48  1  0.336370  0.413130  0.686330  1.0  0.1346
  H  H49  1  0.842230  0.718170  0.638670  1.0  0.13
  H  H50  1  0.872230  0.808470  0.475670  1.0  0.1546
  H  H51  1  0.891330  0.857670  0.671670  1.0  0.1335
  H  H52  1  0.994230  0.751370  0.808670  1.0  0.1294
  H  H53  1  0.121630  0.809470  0.901670  1.0  0.1255
  H  H54  1  0.003030  0.746470  0.019670  1.0  0.1346
  H  H55  1  0.948500  0.457400  0.972000  1.0  0.1287
  H  H56  1  0.858200  0.397100  0.809000  1.0  0.1545
  H  H57  1  0.809000  0.367000  0.005000  1.0  0.1336
  H  H58  1  0.915300  0.576200  0.142000  1.0  0.129
  H  H59  1  0.857200  0.645500  0.235000  1.0  0.1249
  H  H60  1  0.920200  0.589900  0.353000  1.0  0.1346
  H  H61  1  0.615170  0.790730  0.305330  1.0  0.1287
  H  H62  1  0.524870  0.730430  0.142330  1.0  0.1545
  H  H63  1  0.475670  0.700330  0.338330  1.0  0.1336
  H  H64  1  0.581970  0.909530  0.475330  1.0  0.129
  H  H65  1  0.523870  0.978830  0.568330  1.0  0.1249
  H  H66  1  0.586870  0.923230  0.686330  1.0  0.1346
  H  H67  1  0.281830  0.124070  0.638670  1.0  0.1287
  H  H68  1  0.191530  0.063770  0.475670  1.0  0.1545
  H  H69  1  0.142330  0.033670  0.671670  1.0  0.1336
  H  H70  1  0.248630  0.242870  0.808670  1.0  0.129
  H  H71  1  0.190530  0.312170  0.901670  1.0  0.1249
  H  H72  1  0.253530  0.256570  0.019670  1.0  0.1345
  H  H73  1  0.542600  0.491100  0.972000  1.0  0.1286
  H  H74  1  0.602900  0.461100  0.809000  1.0  0.1548
  H  H75  1  0.633000  0.442000  0.005000  1.0  0.1339
  H  H76  1  0.423800  0.339100  0.142000  1.0  0.1289
  H  H77  1  0.354500  0.211700  0.235000  1.0  0.1259
  H  H78  1  0.410100  0.330300  0.353000  1.0  0.1342
  H  H79  1  0.209270  0.824430  0.305330  1.0  0.1286
  H  H80  1  0.269570  0.794430  0.142330  1.0  0.1548
  H  H81  1  0.299670  0.775330  0.338330  1.0  0.1339
  H  H82  1  0.090470  0.672430  0.475330  1.0  0.1289
  H  H83  1  0.021170  0.545030  0.568330  1.0  0.1259
  H  H84  1  0.076770  0.663630  0.686330  1.0  0.1342
  H  H85  1  0.875930  0.157770  0.638670  1.0  0.1286
  H  H86  1  0.936230  0.127770  0.475670  1.0  0.1548
  H  H87  1  0.966330  0.108670  0.671670  1.0  0.1339
  H  H88  1  0.757130  0.005770  0.808670  1.0  0.1289
  H  H89  1  0.687830  0.878370  0.901670  1.0  0.1259
  H  H90  1  0.743430  0.996970  0.019670  1.0  0.1342
  H  H91  1  0.491100  0.948500  0.028000  1.0  0.1303
  H  H92  1  0.461100  0.858200  0.191000  1.0  0.1559
  H  H93  1  0.442000  0.809000  0.995000  1.0  0.1334
  H  H94  1  0.339100  0.915300  0.858000  1.0  0.1291
  H  H95  1  0.211700  0.857200  0.765000  1.0  0.1259
  H  H96  1  0.330300  0.920200  0.647000  1.0  0.1343
  H  H97  1  0.157770  0.281830  0.361330  1.0  0.1303
  H  H98  1  0.127770  0.191530  0.524330  1.0  0.1559
  H  H99  1  0.108670  0.142330  0.328330  1.0  0.1334
  H  H100  1  0.005770  0.248630  0.191330  1.0  0.1291
  H  H101  1  0.878370  0.190530  0.098330  1.0  0.1259
  H  H102  1  0.996970  0.253530  0.980330  1.0  0.1343
  H  H103  1  0.824430  0.615170  0.694670  1.0  0.1303
  H  H104  1  0.794430  0.524870  0.857670  1.0  0.1559
  H  H105  1  0.775330  0.475670  0.661670  1.0  0.1334
  H  H106  1  0.672430  0.581970  0.524670  1.0  0.1291
  H  H107  1  0.545030  0.523870  0.431670  1.0  0.1259
  H  H108  1  0.663630  0.586870  0.313670  1.0  0.1343
  H  H109  1  0.051500  0.542600  0.028000  1.0  0.1286
  H  H110  1  0.141800  0.602900  0.191000  1.0  0.1547
  H  H111  1  0.191000  0.633000  0.995000  1.0  0.1338
  H  H112  1  0.084700  0.423800  0.858000  1.0  0.1293
  H  H113  1  0.142800  0.354500  0.765000  1.0  0.1258
  H  H114  1  0.079800  0.410100  0.647000  1.0  0.1345
  H  H115  1  0.718170  0.875930  0.361330  1.0  0.1286
  H  H116  1  0.808470  0.936230  0.524330  1.0  0.1547
  H  H117  1  0.857670  0.966330  0.328330  1.0  0.1338
  H  H118  1  0.751370  0.757130  0.191330  1.0  0.1293
  H  H119  1  0.809470  0.687830  0.098330  1.0  0.1258
  H  H120  1  0.746470  0.743430  0.980330  1.0  0.1345
  H  H121  1  0.384830  0.209270  0.694670  1.0  0.1286
  H  H122  1  0.475130  0.269570  0.857670  1.0  0.1547
  H  H123  1  0.524330  0.299670  0.661670  1.0  0.1338
  H  H124  1  0.418030  0.090470  0.524670  1.0  0.1293
  H  H125  1  0.476130  0.021170  0.431670  1.0  0.1258
  H  H126  1  0.413130  0.076770  0.313670  1.0  0.1345
  H  H127  1  0.457400  0.508900  0.028000  1.0  0.129
  H  H128  1  0.397100  0.538900  0.191000  1.0  0.1543
  H  H129  1  0.367000  0.558000  0.995000  1.0  0.1342
  H  H130  1  0.576200  0.660900  0.858000  1.0  0.1294
  H  H131  1  0.645500  0.788300  0.765000  1.0  0.126
  H  H132  1  0.589900  0.669700  0.647000  1.0  0.1341
  H  H133  1  0.124070  0.842230  0.361330  1.0  0.129
  H  H134  1  0.063770  0.872230  0.524330  1.0  0.1544
  H  H135  1  0.033670  0.891330  0.328330  1.0  0.1342
  H  H136  1  0.242870  0.994230  0.191330  1.0  0.1294
  H  H137  1  0.312170  0.121630  0.098330  1.0  0.126
  H  H138  1  0.256570  0.003030  0.980330  1.0  0.134
  H  H139  1  0.790730  0.175570  0.694670  1.0  0.129
  H  H140  1  0.730430  0.205570  0.857670  1.0  0.1543
  H  H141  1  0.700330  0.224670  0.661670  1.0  0.1342
  H  H142  1  0.909530  0.327570  0.524670  1.0  0.1294
  H  H143  1  0.978830  0.454970  0.431670  1.0  0.126
  H  H144  1  0.923230  0.336370  0.313670  1.0  0.1341
  C  C145  1  0.532700  0.120750  0.995500  1.0  -0.1219
  C  C146  1  0.519660  0.083990  0.948600  1.0  -0.0058
  C  C147  1  0.520990  0.091900  0.876700  1.0  -0.1256
  C  C148  1  0.536660  0.137290  0.851900  1.0  0.1029
  C  C149  1  0.551740  0.174950  0.898100  1.0  -0.1378
  C  C150  1  0.549000  0.166300  0.969700  1.0  -0.0168
  C  C151  1  0.532000  0.113140  0.073400  1.0  0.7342
  C  C152  1  0.573200  0.224740  0.872700  1.0  0.7117
  C  C153  1  0.507500  0.052070  0.825900  1.0  0.7576
  C  C154  1  0.657290  0.077280  0.248100  1.0  -0.1315
  C  C155  1  0.679230  0.091100  0.182900  1.0  0.0415
  C  C156  1  0.728100  0.113300  0.177700  1.0  -0.1351
  C  C157  1  0.755140  0.125960  0.238600  1.0  0.0382
  C  C158  1  0.733500  0.114400  0.304100  1.0  -0.1252
  C  C159  1  0.684360  0.088200  0.307970  1.0  0.03
  C  C160  1  0.604250  0.050870  0.251660  1.0  0.753
  C  C161  1  0.751010  0.124880  0.107470  1.0  0.6779
  C  C162  1  0.761620  0.132700  0.369800  1.0  0.6887
  C  C163  1  0.199370  0.454080  0.328830  1.0  -0.1219
  C  C164  1  0.186330  0.417320  0.281930  1.0  -0.0058
  C  C165  1  0.187660  0.425230  0.210030  1.0  -0.1256
  C  C166  1  0.203330  0.470620  0.185230  1.0  0.1028
  C  C167  1  0.218410  0.508280  0.231430  1.0  -0.1378
  C  C168  1  0.215670  0.499630  0.303030  1.0  -0.0168
  C  C169  1  0.198670  0.446470  0.406730  1.0  0.7342
  C  C170  1  0.239870  0.558070  0.206030  1.0  0.7117
  C  C171  1  0.174170  0.385400  0.159230  1.0  0.7576
  C  C172  1  0.323960  0.410610  0.581430  1.0  -0.1315
  C  C173  1  0.345900  0.424430  0.516230  1.0  0.0415
  C  C174  1  0.394770  0.446630  0.511030  1.0  -0.1351
  C  C175  1  0.421810  0.459290  0.571930  1.0  0.0382
  C  C176  1  0.400170  0.447730  0.637430  1.0  -0.1252
  C  C177  1  0.351030  0.421530  0.641300  1.0  0.03
  C  C178  1  0.270920  0.384200  0.584990  1.0  0.7535
  C  C179  1  0.417680  0.458210  0.440800  1.0  0.6779
  C  C180  1  0.428290  0.466030  0.703130  1.0  0.6887
  C  C181  1  0.866030  0.787420  0.662170  1.0  -0.1219
  C  C182  1  0.852990  0.750660  0.615270  1.0  -0.0058
  C  C183  1  0.854320  0.758570  0.543370  1.0  -0.1256
  C  C184  1  0.869990  0.803960  0.518570  1.0  0.1029
  C  C185  1  0.885070  0.841620  0.564770  1.0  -0.1379
  C  C186  1  0.882330  0.832970  0.636370  1.0  -0.0168
  C  C187  1  0.865330  0.779810  0.740070  1.0  0.7342
  C  C188  1  0.906530  0.891410  0.539370  1.0  0.7118
  C  C189  1  0.840830  0.718740  0.492570  1.0  0.7576
  C  C190  1  0.990620  0.743950  0.914770  1.0  -0.1315
  C  C191  1  0.012560  0.757770  0.849570  1.0  0.0415
  C  C192  1  0.061430  0.779970  0.844370  1.0  -0.1351
  C  C193  1  0.088470  0.792630  0.905270  1.0  0.0382
  C  C194  1  0.066830  0.781070  0.970770  1.0  -0.1252
  C  C195  1  0.017690  0.754870  0.974640  1.0  0.03
  C  C196  1  0.937580  0.717540  0.918330  1.0  0.7529
  C  C197  1  0.084340  0.791550  0.774140  1.0  0.678
  C  C198  1  0.094950  0.799370  0.036470  1.0  0.6887
  C  C199  1  0.879250  0.411950  0.995500  1.0  -0.1207
  C  C200  1  0.916010  0.435670  0.948600  1.0  -0.0053
  C  C201  1  0.908100  0.429090  0.876700  1.0  -0.1261
  C  C202  1  0.862710  0.399370  0.851900  1.0  0.102
  C  C203  1  0.825050  0.376790  0.898100  1.0  -0.1383
  C  C204  1  0.833700  0.382700  0.969700  1.0  -0.0162
  C  C205  1  0.886860  0.418860  0.073400  1.0  0.7343
  C  C206  1  0.775260  0.348460  0.872700  1.0  0.7087
  C  C207  1  0.947930  0.455430  0.825900  1.0  0.7575
  C  C208  1  0.922720  0.580010  0.248100  1.0  -0.1321
  C  C209  1  0.908900  0.588130  0.182900  1.0  0.0419
  C  C210  1  0.886700  0.614800  0.177700  1.0  -0.1353
  C  C211  1  0.874040  0.629180  0.238600  1.0  0.0376
  C  C212  1  0.885600  0.619100  0.304100  1.0  -0.1262
  C  C213  1  0.911800  0.596160  0.307970  1.0  0.0308
  C  C214  1  0.949130  0.553380  0.251660  1.0  0.7523
  C  C215  1  0.875120  0.626130  0.107470  1.0  0.677
  C  C216  1  0.867300  0.628920  0.369800  1.0  0.6898
  C  C217  1  0.545920  0.745280  0.328830  1.0  -0.1207
  C  C218  1  0.582680  0.769000  0.281930  1.0  -0.0053
  C  C219  1  0.574770  0.762420  0.210030  1.0  -0.1261
  C  C220  1  0.529380  0.732700  0.185230  1.0  0.1021
  C  C221  1  0.491720  0.710120  0.231430  1.0  -0.1383
  C  C222  1  0.500370  0.716030  0.303030  1.0  -0.0162
  C  C223  1  0.553530  0.752190  0.406730  1.0  0.7343
  C  C224  1  0.441930  0.681790  0.206030  1.0  0.7087
  C  C225  1  0.614600  0.788760  0.159230  1.0  0.7575
  C  C226  1  0.589390  0.913340  0.581430  1.0  -0.1321
  C  C227  1  0.575570  0.921460  0.516230  1.0  0.0419
  C  C228  1  0.553370  0.948130  0.511030  1.0  -0.1353
  C  C229  1  0.540710  0.962510  0.571930  1.0  0.0376
  C  C230  1  0.552270  0.952430  0.637430  1.0  -0.1262
  C  C231  1  0.578470  0.929490  0.641300  1.0  0.0308
  C  C232  1  0.615800  0.886710  0.584990  1.0  0.7523
  C  C233  1  0.541790  0.959460  0.440800  1.0  0.6769
  C  C234  1  0.533970  0.962250  0.703130  1.0  0.6898
  C  C235  1  0.212580  0.078620  0.662170  1.0  -0.1207
  C  C236  1  0.249340  0.102340  0.615270  1.0  -0.0053
  C  C237  1  0.241430  0.095760  0.543370  1.0  -0.1261
  C  C238  1  0.196040  0.066040  0.518570  1.0  0.1021
  C  C239  1  0.158380  0.043460  0.564770  1.0  -0.1386
  C  C240  1  0.167030  0.049370  0.636370  1.0  -0.0162
  C  C241  1  0.220190  0.085530  0.740070  1.0  0.7343
  C  C242  1  0.108590  0.015130  0.539370  1.0  0.7086
  C  C243  1  0.281260  0.122100  0.492570  1.0  0.7575
  C  C244  1  0.256050  0.246680  0.914770  1.0  -0.1321
  C  C245  1  0.242230  0.254800  0.849570  1.0  0.0419
  C  C246  1  0.220030  0.281470  0.844370  1.0  -0.1353
  C  C247  1  0.207370  0.295850  0.905270  1.0  0.0376
  C  C248  1  0.218930  0.285770  0.970770  1.0  -0.1262
  C  C249  1  0.245130  0.262830  0.974640  1.0  0.0307
  C  C250  1  0.282460  0.220050  0.918330  1.0  0.7521
  C  C251  1  0.208450  0.292800  0.774140  1.0  0.677
  C  C252  1  0.200630  0.295590  0.036470  1.0  0.6898
  C  C253  1  0.588050  0.467300  0.995500  1.0  -0.1222
  C  C254  1  0.564330  0.480340  0.948600  1.0  -0.0036
  C  C255  1  0.570910  0.479010  0.876700  1.0  -0.1256
  C  C256  1  0.600630  0.463340  0.851900  1.0  0.1026
  C  C257  1  0.623210  0.448260  0.898100  1.0  -0.1383
  C  C258  1  0.617300  0.451000  0.969700  1.0  -0.0138
  C  C259  1  0.581140  0.468000  0.073400  1.0  0.7345
  C  C260  1  0.651540  0.426800  0.872700  1.0  0.7102
  C  C261  1  0.544570  0.492500  0.825900  1.0  0.7584
  C  C262  1  0.419990  0.342710  0.248100  1.0  -0.1306
  C  C263  1  0.411870  0.320770  0.182900  1.0  0.042
  C  C264  1  0.385200  0.271900  0.177700  1.0  -0.1355
  C  C265  1  0.370820  0.244860  0.238600  1.0  0.039
  C  C266  1  0.380900  0.266500  0.304100  1.0  -0.1255
  C  C267  1  0.403840  0.315640  0.307970  1.0  0.0311
  C  C268  1  0.446620  0.395750  0.251660  1.0  0.7539
  C  C269  1  0.373870  0.248990  0.107470  1.0  0.678
  C  C270  1  0.371080  0.238380  0.369800  1.0  0.689
  C  C271  1  0.254720  0.800630  0.328830  1.0  -0.1222
  C  C272  1  0.231000  0.813670  0.281930  1.0  -0.0036
  C  C273  1  0.237580  0.812340  0.210030  1.0  -0.1256
  C  C274  1  0.267300  0.796670  0.185230  1.0  0.1026
  C  C275  1  0.289880  0.781590  0.231430  1.0  -0.1383
  C  C276  1  0.283970  0.784330  0.303030  1.0  -0.0138
  C  C277  1  0.247810  0.801330  0.406730  1.0  0.7345
  C  C278  1  0.318210  0.760130  0.206030  1.0  0.7102
  C  C279  1  0.211240  0.825830  0.159230  1.0  0.7584
  C  C280  1  0.086660  0.676040  0.581430  1.0  -0.1306
  C  C281  1  0.078540  0.654100  0.516230  1.0  0.042
  C  C282  1  0.051870  0.605230  0.511030  1.0  -0.1355
  C  C283  1  0.037490  0.578190  0.571930  1.0  0.039
  C  C284  1  0.047570  0.599830  0.637430  1.0  -0.1255
  C  C285  1  0.070510  0.648970  0.641300  1.0  0.0311
  C  C286  1  0.113290  0.729080  0.584990  1.0  0.7548
  C  C287  1  0.040540  0.582320  0.440800  1.0  0.678
  C  C288  1  0.037750  0.571710  0.703130  1.0  0.689
  C  C289  1  0.921380  0.133970  0.662170  1.0  -0.1225
  C  C290  1  0.897660  0.147010  0.615270  1.0  -0.0036
  C  C291  1  0.904240  0.145680  0.543370  1.0  -0.1256
  C  C292  1  0.933960  0.130010  0.518570  1.0  0.1026
  C  C293  1  0.956540  0.114930  0.564770  1.0  -0.1384
  C  C294  1  0.950630  0.117670  0.636370  1.0  -0.0138
  C  C295  1  0.914470  0.134670  0.740070  1.0  0.7345
  C  C296  1  0.984870  0.093470  0.539370  1.0  0.7102
  C  C297  1  0.877900  0.159170  0.492570  1.0  0.7586
  C  C298  1  0.753320  0.009380  0.914770  1.0  -0.1306
  C  C299  1  0.745200  0.987440  0.849570  1.0  0.042
  C  C300  1  0.718530  0.938570  0.844370  1.0  -0.1355
  C  C301  1  0.704150  0.911530  0.905270  1.0  0.039
  C  C302  1  0.714230  0.933170  0.970770  1.0  -0.1255
  C  C303  1  0.737170  0.982310  0.974640  1.0  0.0311
  C  C304  1  0.779950  0.062420  0.918330  1.0  0.754
  C  C305  1  0.707200  0.915660  0.774140  1.0  0.678
  C  C306  1  0.704410  0.905050  0.036470  1.0  0.689
  C  C307  1  0.467300  0.879250  0.004500  1.0  -0.1219
  C  C308  1  0.480340  0.916010  0.051400  1.0  -0.0057
  C  C309  1  0.479010  0.908100  0.123300  1.0  -0.1253
  C  C310  1  0.463340  0.862710  0.148100  1.0  0.103
  C  C311  1  0.448260  0.825050  0.101900  1.0  -0.1389
  C  C312  1  0.451000  0.833700  0.030300  1.0  -0.0155
  C  C313  1  0.468000  0.886860  0.926600  1.0  0.733
  C  C314  1  0.426800  0.775260  0.127300  1.0  0.7126
  C  C315  1  0.492500  0.947930  0.174100  1.0  0.7583
  C  C316  1  0.342710  0.922720  0.751900  1.0  -0.1316
  C  C317  1  0.320770  0.908900  0.817100  1.0  0.0423
  C  C318  1  0.271900  0.886700  0.822300  1.0  -0.1356
  C  C319  1  0.244860  0.874040  0.761400  1.0  0.0372
  C  C320  1  0.266500  0.885600  0.695900  1.0  -0.1242
  C  C321  1  0.315640  0.911800  0.692030  1.0  0.0316
  C  C322  1  0.395750  0.949130  0.748340  1.0  0.7525
  C  C323  1  0.248990  0.875120  0.892530  1.0  0.6787
  C  C324  1  0.238380  0.867300  0.630200  1.0  0.6891
  C  C325  1  0.133970  0.212580  0.337830  1.0  -0.1219
  C  C326  1  0.147010  0.249340  0.384730  1.0  -0.0057
  C  C327  1  0.145680  0.241430  0.456630  1.0  -0.1253
  C  C328  1  0.130010  0.196040  0.481430  1.0  0.103
  C  C329  1  0.114930  0.158380  0.435230  1.0  -0.139
  C  C330  1  0.117670  0.167030  0.363630  1.0  -0.0155
  C  C331  1  0.134670  0.220190  0.259930  1.0  0.733
  C  C332  1  0.093470  0.108590  0.460630  1.0  0.7126
  C  C333  1  0.159170  0.281260  0.507430  1.0  0.7583
  C  C334  1  0.009380  0.256050  0.085230  1.0  -0.1316
  C  C335  1  0.987440  0.242230  0.150430  1.0  0.0423
  C  C336  1  0.938570  0.220030  0.155630  1.0  -0.1356
  C  C337  1  0.911530  0.207370  0.094730  1.0  0.0372
  C  C338  1  0.933170  0.218930  0.029230  1.0  -0.1242
  C  C339  1  0.982310  0.245130  0.025360  1.0  0.0316
  C  C340  1  0.062420  0.282460  0.081670  1.0  0.7524
  C  C341  1  0.915660  0.208450  0.225860  1.0  0.6787
  C  C342  1  0.905050  0.200630  0.963530  1.0  0.6891
  C  C343  1  0.800630  0.545920  0.671170  1.0  -0.1219
  C  C344  1  0.813670  0.582680  0.718070  1.0  -0.0057
  C  C345  1  0.812340  0.574770  0.789970  1.0  -0.1254
  C  C346  1  0.796670  0.529380  0.814770  1.0  0.103
  C  C347  1  0.781590  0.491720  0.768570  1.0  -0.1389
  C  C348  1  0.784330  0.500370  0.696970  1.0  -0.0155
  C  C349  1  0.801330  0.553530  0.593270  1.0  0.7331
  C  C350  1  0.760130  0.441930  0.793970  1.0  0.7126
  C  C351  1  0.825830  0.614600  0.840770  1.0  0.7584
  C  C352  1  0.676040  0.589390  0.418570  1.0  -0.1316
  C  C353  1  0.654100  0.575570  0.483770  1.0  0.0423
  C  C354  1  0.605230  0.553370  0.488970  1.0  -0.1356
  C  C355  1  0.578190  0.540710  0.428070  1.0  0.0372
  C  C356  1  0.599830  0.552270  0.362570  1.0  -0.1242
  C  C357  1  0.648970  0.578470  0.358700  1.0  0.0316
  C  C358  1  0.729080  0.615800  0.415010  1.0  0.753
  C  C359  1  0.582320  0.541790  0.559200  1.0  0.6787
  C  C360  1  0.571710  0.533970  0.296870  1.0  0.6891
  C  C361  1  0.120750  0.588050  0.004500  1.0  -0.1197
  C  C362  1  0.083990  0.564330  0.051400  1.0  -0.004
  C  C363  1  0.091900  0.570910  0.123300  1.0  -0.126
  C  C364  1  0.137290  0.600630  0.148100  1.0  0.1027
  C  C365  1  0.174950  0.623210  0.101900  1.0  -0.137
  C  C366  1  0.166300  0.617300  0.030300  1.0  -0.0153
  C  C367  1  0.113140  0.581140  0.926600  1.0  0.7336
  C  C368  1  0.224740  0.651540  0.127300  1.0  0.7096
  C  C369  1  0.052070  0.544570  0.174100  1.0  0.7574
  C  C370  1  0.077280  0.419990  0.751900  1.0  -0.1315
  C  C371  1  0.091100  0.411870  0.817100  1.0  0.0417
  C  C372  1  0.113300  0.385200  0.822300  1.0  -0.1362
  C  C373  1  0.125960  0.370820  0.761400  1.0  0.0379
  C  C374  1  0.114400  0.380900  0.695900  1.0  -0.1255
  C  C375  1  0.088200  0.403840  0.692030  1.0  0.0309
  C  C376  1  0.050870  0.446620  0.748340  1.0  0.7531
  C  C377  1  0.124880  0.373870  0.892530  1.0  0.6781
  C  C378  1  0.132700  0.371080  0.630200  1.0  0.6879
  C  C379  1  0.787420  0.921380  0.337830  1.0  -0.1197
  C  C380  1  0.750660  0.897660  0.384730  1.0  -0.004
  C  C381  1  0.758570  0.904240  0.456630  1.0  -0.126
  C  C382  1  0.803960  0.933960  0.481430  1.0  0.1028
  C  C383  1  0.841620  0.956540  0.435230  1.0  -0.1371
  C  C384  1  0.832970  0.950630  0.363630  1.0  -0.0153
  C  C385  1  0.779810  0.914470  0.259930  1.0  0.7337
  C  C386  1  0.891410  0.984870  0.460630  1.0  0.7095
  C  C387  1  0.718740  0.877900  0.507430  1.0  0.7574
  C  C388  1  0.743950  0.753320  0.085230  1.0  -0.1315
  C  C389  1  0.757770  0.745200  0.150430  1.0  0.0417
  C  C390  1  0.779970  0.718530  0.155630  1.0  -0.1362
  C  C391  1  0.792630  0.704150  0.094730  1.0  0.0379
  C  C392  1  0.781070  0.714230  0.029230  1.0  -0.1256
  C  C393  1  0.754870  0.737170  0.025360  1.0  0.0308
  C  C394  1  0.717540  0.779950  0.081670  1.0  0.7529
  C  C395  1  0.791550  0.707200  0.225860  1.0  0.6781
  C  C396  1  0.799370  0.704410  0.963530  1.0  0.6879
  C  C397  1  0.454080  0.254720  0.671170  1.0  -0.1197
  C  C398  1  0.417320  0.231000  0.718070  1.0  -0.004
  C  C399  1  0.425230  0.237580  0.789970  1.0  -0.126
  C  C400  1  0.470620  0.267300  0.814770  1.0  0.1028
  C  C401  1  0.508280  0.289880  0.768570  1.0  -0.137
  C  C402  1  0.499630  0.283970  0.696970  1.0  -0.0153
  C  C403  1  0.446470  0.247810  0.593270  1.0  0.7336
  C  C404  1  0.558070  0.318210  0.793970  1.0  0.7096
  C  C405  1  0.385400  0.211240  0.840770  1.0  0.7574
  C  C406  1  0.410610  0.086660  0.418570  1.0  -0.1315
  C  C407  1  0.424430  0.078540  0.483770  1.0  0.0417
  C  C408  1  0.446630  0.051870  0.488970  1.0  -0.1362
  C  C409  1  0.459290  0.037490  0.428070  1.0  0.0379
  C  C410  1  0.447730  0.047570  0.362570  1.0  -0.1255
  C  C411  1  0.421530  0.070510  0.358700  1.0  0.0309
  C  C412  1  0.384200  0.113290  0.415010  1.0  0.7531
  C  C413  1  0.458210  0.040540  0.559200  1.0  0.6781
  C  C414  1  0.466030  0.037750  0.296870  1.0  0.6879
  C  C415  1  0.411950  0.532700  0.004500  1.0  -0.1205
  C  C416  1  0.435670  0.519660  0.051400  1.0  -0.0019
  C  C417  1  0.429090  0.520990  0.123300  1.0  -0.1256
  C  C418  1  0.399370  0.536660  0.148100  1.0  0.1016
  C  C419  1  0.376790  0.551740  0.101900  1.0  -0.137
  C  C420  1  0.382700  0.549000  0.030300  1.0  -0.0141
  C  C421  1  0.418860  0.532000  0.926600  1.0  0.734
  C  C422  1  0.348460  0.573200  0.127300  1.0  0.7093
  C  C423  1  0.455430  0.507500  0.174100  1.0  0.7578
  C  C424  1  0.580010  0.657290  0.751900  1.0  -0.1306
  C  C425  1  0.588130  0.679230  0.817100  1.0  0.0432
  C  C426  1  0.614800  0.728100  0.822300  1.0  -0.1361
  C  C427  1  0.629180  0.755140  0.761400  1.0  0.0384
  C  C428  1  0.619100  0.733500  0.695900  1.0  -0.1254
  C  C429  1  0.596160  0.684360  0.692030  1.0  0.0321
  C  C430  1  0.553380  0.604250  0.748340  1.0  0.7531
  C  C431  1  0.626130  0.751010  0.892530  1.0  0.6783
  C  C432  1  0.628920  0.761620  0.630200  1.0  0.6886
  C  C433  1  0.078620  0.866030  0.337830  1.0  -0.1207
  C  C434  1  0.102340  0.852990  0.384730  1.0  -0.0019
  C  C435  1  0.095760  0.854320  0.456630  1.0  -0.1255
  C  C436  1  0.066040  0.869990  0.481430  1.0  0.1015
  C  C437  1  0.043460  0.885070  0.435230  1.0  -0.137
  C  C438  1  0.049370  0.882330  0.363630  1.0  -0.014
  C  C439  1  0.085530  0.865330  0.259930  1.0  0.734
  C  C440  1  0.015130  0.906530  0.460630  1.0  0.7093
  C  C441  1  0.122100  0.840830  0.507430  1.0  0.7579
  C  C442  1  0.246680  0.990620  0.085230  1.0  -0.1306
  C  C443  1  0.254800  0.012560  0.150430  1.0  0.0432
  C  C444  1  0.281470  0.061430  0.155630  1.0  -0.1361
  C  C445  1  0.295850  0.088470  0.094730  1.0  0.0384
  C  C446  1  0.285770  0.066830  0.029230  1.0  -0.1254
  C  C447  1  0.262830  0.017690  0.025360  1.0  0.032
  C  C448  1  0.220050  0.937580  0.081670  1.0  0.7532
  C  C449  1  0.292800  0.084340  0.225860  1.0  0.6783
  C  C450  1  0.295590  0.094950  0.963530  1.0  0.6886
  C  C451  1  0.745280  0.199370  0.671170  1.0  -0.1205
  C  C452  1  0.769000  0.186330  0.718070  1.0  -0.0019
  C  C453  1  0.762420  0.187660  0.789970  1.0  -0.1255
  C  C454  1  0.732700  0.203330  0.814770  1.0  0.1016
  C  C455  1  0.710120  0.218410  0.768570  1.0  -0.137
  C  C456  1  0.716030  0.215670  0.696970  1.0  -0.0141
  C  C457  1  0.752190  0.198670  0.593270  1.0  0.734
  C  C458  1  0.681790  0.239870  0.793970  1.0  0.7093
  C  C459  1  0.788760  0.174170  0.840770  1.0  0.7577
  C  C460  1  0.913340  0.323960  0.418570  1.0  -0.1306
  C  C461  1  0.921460  0.345900  0.483770  1.0  0.0432
  C  C462  1  0.948130  0.394770  0.488970  1.0  -0.1361
  C  C463  1  0.962510  0.421810  0.428070  1.0  0.0384
  C  C464  1  0.952430  0.400170  0.362570  1.0  -0.1254
  C  C465  1  0.929490  0.351030  0.358700  1.0  0.0321
  C  C466  1  0.886710  0.270920  0.415010  1.0  0.7539
  C  C467  1  0.959460  0.417680  0.559200  1.0  0.6783
  C  C468  1  0.962250  0.428290  0.296870  1.0  0.6886
  O  O469  1  0.519890  0.072420  0.093910  1.0  -0.5701
  O  O470  1  0.544100  0.147820  0.111300  1.0  -0.4507
  O  O471  1  0.511870  0.018090  0.847060  1.0  -0.5781
  O  O472  1  0.493250  0.056200  0.766600  1.0  -0.6105
  O  O473  1  0.592500  0.256510  0.916600  1.0  -0.4497
  O  O474  1  0.570500  0.230370  0.809100  1.0  -0.4723
  O  O475  1  0.582910  0.053660  0.198720  1.0  -0.5843
  O  O476  1  0.586500  0.027920  0.306290  1.0  -0.5556
  O  O477  1  0.794290  0.138760  0.102840  1.0  -0.5518
  O  O478  1  0.727300  0.120470  0.053090  1.0  -0.5559
  O  O479  1  0.742640  0.119650  0.428030  1.0  -0.5669
  O  O480  1  0.804360  0.165590  0.365520  1.0  -0.7213
  O  O481  1  0.186560  0.405750  0.427240  1.0  -0.5701
  O  O482  1  0.210770  0.481150  0.444630  1.0  -0.4507
  O  O483  1  0.178540  0.351420  0.180390  1.0  -0.5781
  O  O484  1  0.159920  0.389530  0.099930  1.0  -0.6104
  O  O485  1  0.259170  0.589840  0.249930  1.0  -0.4497
  O  O486  1  0.237170  0.563700  0.142430  1.0  -0.4723
  O  O487  1  0.249580  0.386990  0.532050  1.0  -0.5843
  O  O488  1  0.253170  0.361250  0.639620  1.0  -0.5556
  O  O489  1  0.460960  0.472090  0.436170  1.0  -0.5518
  O  O490  1  0.393970  0.453800  0.386420  1.0  -0.5559
  O  O491  1  0.409310  0.452980  0.761360  1.0  -0.5673
  O  O492  1  0.471030  0.498920  0.698850  1.0  -0.7213
  O  O493  1  0.853220  0.739090  0.760580  1.0  -0.5701
  O  O494  1  0.877430  0.814490  0.777970  1.0  -0.4507
  O  O495  1  0.845200  0.684760  0.513730  1.0  -0.5781
  O  O496  1  0.826580  0.722870  0.433270  1.0  -0.6105
  O  O497  1  0.925830  0.923180  0.583270  1.0  -0.4497
  O  O498  1  0.903830  0.897040  0.475770  1.0  -0.4726
  O  O499  1  0.916240  0.720330  0.865390  1.0  -0.5843
  O  O500  1  0.919830  0.694590  0.972960  1.0  -0.5558
  O  O501  1  0.127620  0.805430  0.769510  1.0  -0.5519
  O  O502  1  0.060630  0.787140  0.719760  1.0  -0.5577
  O  O503  1  0.075970  0.786320  0.094700  1.0  -0.5673
  O  O504  1  0.137690  0.832260  0.032190  1.0  -0.7213
  O  O505  1  0.927580  0.447470  0.093910  1.0  -0.5675
  O  O506  1  0.852180  0.396280  0.111300  1.0  -0.4527
  O  O507  1  0.981910  0.493780  0.847060  1.0  -0.579
  O  O508  1  0.943800  0.437050  0.766600  1.0  -0.6109
  O  O509  1  0.743490  0.335990  0.916600  1.0  -0.4539
  O  O510  1  0.769630  0.340130  0.809100  1.0  -0.4731
  O  O511  1  0.946340  0.529250  0.198720  1.0  -0.5871
  O  O512  1  0.972080  0.558580  0.306290  1.0  -0.5545
  O  O513  1  0.861240  0.655530  0.102840  1.0  -0.5521
  O  O514  1  0.879530  0.606830  0.053090  1.0  -0.5571
  O  O515  1  0.880350  0.622990  0.428030  1.0  -0.5687
  O  O516  1  0.834410  0.638770  0.365520  1.0  -0.7189
  O  O517  1  0.594250  0.780800  0.427240  1.0  -0.5675
  O  O518  1  0.518850  0.729610  0.444630  1.0  -0.4527
  O  O519  1  0.648580  0.827110  0.180390  1.0  -0.5789
  O  O520  1  0.610470  0.770380  0.099930  1.0  -0.6109
  O  O521  1  0.410160  0.669320  0.249930  1.0  -0.4539
  O  O522  1  0.436300  0.673460  0.142430  1.0  -0.4731
  O  O523  1  0.613010  0.862580  0.532050  1.0  -0.5871
  O  O524  1  0.638750  0.891910  0.639620  1.0  -0.5545
  O  O525  1  0.527910  0.988860  0.436170  1.0  -0.5522
  O  O526  1  0.546200  0.940160  0.386420  1.0  -0.5571
  O  O527  1  0.547020  0.956320  0.761360  1.0  -0.5687
  O  O528  1  0.501080  0.972100  0.698850  1.0  -0.7189
  O  O529  1  0.260910  0.114140  0.760580  1.0  -0.5675
  O  O530  1  0.185510  0.062950  0.777970  1.0  -0.4527
  O  O531  1  0.315240  0.160450  0.513730  1.0  -0.5788
  O  O532  1  0.277130  0.103720  0.433270  1.0  -0.6108
  O  O533  1  0.076820  0.002660  0.583270  1.0  -0.4411
  O  O534  1  0.102960  0.006800  0.475770  1.0  -0.4728
  O  O535  1  0.279670  0.195920  0.865390  1.0  -0.5871
  O  O536  1  0.305410  0.225250  0.972960  1.0  -0.5545
  O  O537  1  0.194570  0.322200  0.769510  1.0  -0.5521
  O  O538  1  0.212860  0.273500  0.719760  1.0  -0.5553
  O  O539  1  0.213680  0.289660  0.094700  1.0  -0.5687
  O  O540  1  0.167740  0.305440  0.032190  1.0  -0.7189
  O  O541  1  0.552530  0.480110  0.093910  1.0  -0.5672
  O  O542  1  0.603720  0.455900  0.111300  1.0  -0.4501
  O  O543  1  0.506220  0.488130  0.847060  1.0  -0.5782
  O  O544  1  0.562950  0.506750  0.766600  1.0  -0.611
  O  O545  1  0.664010  0.407500  0.916600  1.0  -0.4415
  O  O546  1  0.659870  0.429500  0.809100  1.0  -0.4706
  O  O547  1  0.470750  0.417090  0.198720  1.0  -0.5855
  O  O548  1  0.441420  0.413500  0.306290  1.0  -0.5553
  O  O549  1  0.344470  0.205710  0.102840  1.0  -0.5528
  O  O550  1  0.393170  0.272700  0.053090  1.0  -0.5546
  O  O551  1  0.377010  0.257360  0.428030  1.0  -0.5679
  O  O552  1  0.361230  0.195640  0.365520  1.0  -0.719
  O  O553  1  0.219200  0.813440  0.427240  1.0  -0.5674
  O  O554  1  0.270390  0.789230  0.444630  1.0  -0.4501
  O  O555  1  0.172890  0.821460  0.180390  1.0  -0.5782
  O  O556  1  0.229620  0.840080  0.099930  1.0  -0.611
  O  O557  1  0.330680  0.740830  0.249930  1.0  -0.4415
  O  O558  1  0.326540  0.762830  0.142430  1.0  -0.4706
  O  O559  1  0.137420  0.750420  0.532050  1.0  -0.586
  O  O560  1  0.108090  0.746830  0.639620  1.0  -0.5553
  O  O561  1  0.011140  0.539040  0.436170  1.0  -0.5527
  O  O562  1  0.059840  0.606030  0.386420  1.0  -0.5546
  O  O563  1  0.043680  0.590690  0.761360  1.0  -0.5679
  O  O564  1  0.027900  0.528970  0.698850  1.0  -0.719
  O  O565  1  0.885860  0.146780  0.760580  1.0  -0.5672
  O  O566  1  0.937050  0.122570  0.777970  1.0  -0.4536
  O  O567  1  0.839550  0.154800  0.513730  1.0  -0.5785
  O  O568  1  0.896280  0.173420  0.433270  1.0  -0.611
  O  O569  1  0.997340  0.074170  0.583270  1.0  -0.4552
  O  O570  1  0.993200  0.096170  0.475770  1.0  -0.4705
  O  O571  1  0.804080  0.083760  0.865390  1.0  -0.5855
  O  O572  1  0.774750  0.080170  0.972960  1.0  -0.5553
  O  O573  1  0.677800  0.872380  0.769510  1.0  -0.5529
  O  O574  1  0.726500  0.939370  0.719760  1.0  -0.5547
  O  O575  1  0.710340  0.924030  0.094700  1.0  -0.5679
  O  O576  1  0.694560  0.862310  0.032190  1.0  -0.719
  O  O577  1  0.480110  0.927580  0.906090  1.0  -0.5723
  O  O578  1  0.455900  0.852180  0.888700  1.0  -0.4484
  O  O579  1  0.488130  0.981910  0.152940  1.0  -0.5782
  O  O580  1  0.506750  0.943800  0.233400  1.0  -0.6111
  O  O581  1  0.407500  0.743490  0.083400  1.0  -0.4526
  O  O582  1  0.429500  0.769630  0.190900  1.0  -0.4753
  O  O583  1  0.417090  0.946340  0.801280  1.0  -0.5854
  O  O584  1  0.413500  0.972080  0.693710  1.0  -0.5553
  O  O585  1  0.205710  0.861240  0.897160  1.0  -0.5509
  O  O586  1  0.272700  0.879530  0.946910  1.0  -0.5535
  O  O587  1  0.257360  0.880350  0.571970  1.0  -0.5696
  O  O588  1  0.195640  0.834410  0.634480  1.0  -0.7196
  O  O589  1  0.146780  0.260910  0.239420  1.0  -0.5723
  O  O590  1  0.122570  0.185510  0.222030  1.0  -0.4484
  O  O591  1  0.154800  0.315240  0.486270  1.0  -0.5781
  O  O592  1  0.173420  0.277130  0.566730  1.0  -0.6111
  O  O593  1  0.074170  0.076820  0.416730  1.0  -0.4526
  O  O594  1  0.096170  0.102960  0.524230  1.0  -0.4756
  O  O595  1  0.083760  0.279670  0.134610  1.0  -0.5854
  O  O596  1  0.080170  0.305410  0.027040  1.0  -0.5554
  O  O597  1  0.872380  0.194570  0.230490  1.0  -0.5509
  O  O598  1  0.939370  0.212860  0.280240  1.0  -0.5553
  O  O599  1  0.924030  0.213680  0.905300  1.0  -0.57
  O  O600  1  0.862310  0.167740  0.967810  1.0  -0.7196
  O  O601  1  0.813440  0.594250  0.572760  1.0  -0.5723
  O  O602  1  0.789230  0.518850  0.555370  1.0  -0.4484
  O  O603  1  0.821460  0.648580  0.819610  1.0  -0.5782
  O  O604  1  0.840080  0.610470  0.900070  1.0  -0.6111
  O  O605  1  0.740830  0.410160  0.750070  1.0  -0.4526
  O  O606  1  0.762830  0.436300  0.857570  1.0  -0.4753
  O  O607  1  0.750420  0.613010  0.467950  1.0  -0.5854
  O  O608  1  0.746830  0.638750  0.360380  1.0  -0.5553
  O  O609  1  0.539040  0.527910  0.563830  1.0  -0.5509
  O  O610  1  0.606030  0.546200  0.613580  1.0  -0.5535
  O  O611  1  0.590690  0.547020  0.238640  1.0  -0.57
  O  O612  1  0.528970  0.501080  0.301150  1.0  -0.7196
  O  O613  1  0.072420  0.552530  0.906090  1.0  -0.5686
  O  O614  1  0.147820  0.603720  0.888700  1.0  -0.451
  O  O615  1  0.018090  0.506220  0.152940  1.0  -0.5784
  O  O616  1  0.056200  0.562950  0.233400  1.0  -0.6129
  O  O617  1  0.256510  0.664010  0.083400  1.0  -0.4564
  O  O618  1  0.230370  0.659870  0.190900  1.0  -0.4755
  O  O619  1  0.053660  0.470750  0.801280  1.0  -0.5867
  O  O620  1  0.027920  0.441420  0.693710  1.0  -0.5546
  O  O621  1  0.138760  0.344470  0.897160  1.0  -0.552
  O  O622  1  0.120470  0.393170  0.946910  1.0  -0.5528
  O  O623  1  0.119650  0.377010  0.571970  1.0  -0.5695
  O  O624  1  0.165590  0.361230  0.634480  1.0  -0.7209
  O  O625  1  0.739090  0.885860  0.239420  1.0  -0.5686
  O  O626  1  0.814490  0.937050  0.222030  1.0  -0.4511
  O  O627  1  0.684760  0.839550  0.486270  1.0  -0.5784
  O  O628  1  0.722870  0.896280  0.566730  1.0  -0.6128
  O  O629  1  0.923180  0.997340  0.416730  1.0  -0.4423
  O  O630  1  0.897040  0.993200  0.524230  1.0  -0.4752
  O  O631  1  0.720330  0.804080  0.134610  1.0  -0.5868
  O  O632  1  0.694590  0.774750  0.027040  1.0  -0.5546
  O  O633  1  0.805430  0.677800  0.230490  1.0  -0.5521
  O  O634  1  0.787140  0.726500  0.280240  1.0  -0.5509
  O  O635  1  0.786320  0.710340  0.905300  1.0  -0.5695
  O  O636  1  0.832260  0.694560  0.967810  1.0  -0.7209
  O  O637  1  0.405750  0.219200  0.572760  1.0  -0.5686
  O  O638  1  0.481150  0.270390  0.555370  1.0  -0.451
  O  O639  1  0.351420  0.172890  0.819610  1.0  -0.5783
  O  O640  1  0.389530  0.229620  0.900070  1.0  -0.6128
  O  O641  1  0.589840  0.330680  0.750070  1.0  -0.4564
  O  O642  1  0.563700  0.326540  0.857570  1.0  -0.4755
  O  O643  1  0.386990  0.137420  0.467950  1.0  -0.5867
  O  O644  1  0.361250  0.108090  0.360380  1.0  -0.5546
  O  O645  1  0.472090  0.011140  0.563830  1.0  -0.5522
  O  O646  1  0.453800  0.059840  0.613580  1.0  -0.5528
  O  O647  1  0.452980  0.043680  0.238640  1.0  -0.5695
  O  O648  1  0.498920  0.027900  0.301150  1.0  -0.7209
  O  O649  1  0.447470  0.519890  0.906090  1.0  -0.5676
  O  O650  1  0.396280  0.544100  0.888700  1.0  -0.4498
  O  O651  1  0.493780  0.511870  0.152940  1.0  -0.5772
  O  O652  1  0.437050  0.493250  0.233400  1.0  -0.6121
  O  O653  1  0.335990  0.592500  0.083400  1.0  -0.4436
  O  O654  1  0.340130  0.570500  0.190900  1.0  -0.4746
  O  O655  1  0.529250  0.582910  0.801280  1.0  -0.5872
  O  O656  1  0.558580  0.586500  0.693710  1.0  -0.5549
  O  O657  1  0.655530  0.794290  0.897160  1.0  -0.5533
  O  O658  1  0.606830  0.727300  0.946910  1.0  -0.5531
  O  O659  1  0.622990  0.742640  0.571970  1.0  -0.5699
  O  O660  1  0.638770  0.804360  0.634480  1.0  -0.7199
  O  O661  1  0.114140  0.853220  0.239420  1.0  -0.5676
  O  O662  1  0.062950  0.877430  0.222030  1.0  -0.4532
  O  O663  1  0.160450  0.845200  0.486270  1.0  -0.5775
  O  O664  1  0.103720  0.826580  0.566730  1.0  -0.6121
  O  O665  1  0.002660  0.925830  0.416730  1.0  -0.4576
  O  O666  1  0.006800  0.903830  0.524230  1.0  -0.4744
  O  O667  1  0.195920  0.916240  0.134610  1.0  -0.5872
  O  O668  1  0.225250  0.919830  0.027040  1.0  -0.5549
  O  O669  1  0.322200  0.127620  0.230490  1.0  -0.5534
  O  O670  1  0.273500  0.060630  0.280240  1.0  -0.5532
  O  O671  1  0.289660  0.075970  0.905300  1.0  -0.5699
  O  O672  1  0.305440  0.137690  0.967810  1.0  -0.7199
  O  O673  1  0.780800  0.186560  0.572760  1.0  -0.5678
  O  O674  1  0.729610  0.210770  0.555370  1.0  -0.4498
  O  O675  1  0.827110  0.178540  0.819610  1.0  -0.5772
  O  O676  1  0.770380  0.159920  0.900070  1.0  -0.6121
  O  O677  1  0.669320  0.259170  0.750070  1.0  -0.4436
  O  O678  1  0.673460  0.237170  0.857570  1.0  -0.4746
  O  O679  1  0.862580  0.249580  0.467950  1.0  -0.5877
  O  O680  1  0.891910  0.253170  0.360380  1.0  -0.5549
  O  O681  1  0.988860  0.460960  0.563830  1.0  -0.5532
  O  O682  1  0.940160  0.393970  0.613580  1.0  -0.5531
  O  O683  1  0.956320  0.409310  0.238640  1.0  -0.5699
  O  O684  1  0.972100  0.471030  0.301150  1.0  -0.7199
