# generated using pymatgen
data_CuH20(C5N3)4
_symmetry_space_group_name_H-M   'P 1'
_cell_length_a   13.20120000
_cell_length_b   16.76400000
_cell_length_c   23.03550000
_cell_angle_alpha   105.55800000
_cell_angle_beta   90.00000000
_cell_angle_gamma   90.00000000
_symmetry_Int_Tables_number   1
_chemical_formula_structural   CuH20(C5N3)4
_chemical_formula_sum   'Cu6 H120 C120 N72'
_cell_volume   4911.08060323
_cell_formula_units_Z   6
loop_
 _symmetry_equiv_pos_site_id
 _symmetry_equiv_pos_as_xyz
  1  'x, y, z'
loop_
 _atom_site_type_symbol
 _atom_site_label
 _atom_site_symmetry_multiplicity
 _atom_site_fract_x
 _atom_site_fract_y
 _atom_site_fract_z
 _atom_site_occupancy
 _atom_site_charge
  Cu  Cu1  1  0.289240  0.161590  0.751560  1.0  0.3299
  Cu  Cu2  1  0.789240  0.338410  0.748440  1.0  0.3293
  Cu  Cu3  1  0.710760  0.838410  0.248440  1.0  0.3281
  Cu  Cu4  1  0.210760  0.661590  0.251560  1.0  0.3287
  Cu  Cu5  1  0.000000  0.000000  0.000000  1.0  0.3344
  Cu  Cu6  1  0.500000  0.500000  0.500000  1.0  0.3344
  H  H7  1  0.347000  0.969000  0.690100  1.0  0.0488
  H  H8  1  0.087400  0.074300  0.702300  1.0  0.091
  H  H9  1  0.975800  0.940100  0.664600  1.0  0.1148
  H  H10  1  0.034100  0.856200  0.654400  1.0  0.1006
  H  H11  1  0.236900  0.779800  0.383200  1.0  0.0665
  H  H12  1  0.085900  0.828200  0.251800  1.0  0.0498
  H  H13  1  0.135000  0.984900  0.442800  1.0  0.0928
  H  H14  1  0.214800  0.926000  0.460100  1.0  0.0563
  H  H15  1  0.714200  0.872900  0.390500  1.0  0.0632
  H  H16  1  0.844200  0.687700  0.278600  1.0  0.0568
  H  H17  1  0.800300  0.748500  0.480000  1.0  0.1037
  H  H18  1  0.754700  0.836900  0.487100  1.0  0.1014
  H  H19  1  0.880600  0.839600  0.576900  1.0  0.0961
  H  H20  1  0.148300  0.940700  0.557300  1.0  0.0941
  H  H21  1  0.969900  0.854300  0.415600  1.0  0.0873
  H  H22  1  0.221500  0.038700  0.828600  1.0  0.0689
  H  H23  1  0.478300  0.155500  0.837800  1.0  0.0924
  H  H24  1  0.523700  0.005100  0.916000  1.0  0.1127
  H  H25  1  0.576500  0.083300  0.905000  1.0  0.108
  H  H26  1  0.358000  0.133800  0.988900  1.0  0.0899
  H  H27  1  0.492500  0.209400  0.150800  1.0  0.1079
  H  H28  1  0.655300  0.100300  0.004800  1.0  0.0905
  H  H29  1  0.282900  0.247200  0.089000  1.0  0.0988
  H  H30  1  0.316900  0.224400  0.147900  1.0  0.0997
  H  H31  1  0.132700  0.161800  0.037600  1.0  0.0794
  H  H32  1  0.163400  0.969000  0.094700  1.0  0.0504
  H  H33  1  0.679500  0.132900  0.149700  1.0  0.1227
  H  H34  1  0.682200  0.225600  0.147900  1.0  0.1034
  H  H35  1  0.942800  0.199000  0.016000  1.0  0.0228
  H  H36  1  0.810000  0.035400  0.083500  1.0  0.0948
  H  H37  1  0.847000  0.531000  0.809900  1.0  0.0492
  H  H38  1  0.587400  0.425700  0.797700  1.0  0.09
  H  H39  1  0.475800  0.559900  0.835400  1.0  0.1159
  H  H40  1  0.534100  0.643800  0.845600  1.0  0.1004
  H  H41  1  0.736900  0.720200  0.116800  1.0  0.0673
  H  H42  1  0.585900  0.671800  0.248200  1.0  0.0478
  H  H43  1  0.635000  0.515100  0.057200  1.0  0.0936
  H  H44  1  0.714800  0.574000  0.039900  1.0  0.0571
  H  H45  1  0.214200  0.627100  0.109500  1.0  0.0631
  H  H46  1  0.344200  0.812300  0.221400  1.0  0.0572
  H  H47  1  0.300300  0.751500  0.020000  1.0  0.1031
  H  H48  1  0.254700  0.663100  0.012900  1.0  0.0997
  H  H49  1  0.380600  0.660400  0.923100  1.0  0.0963
  H  H50  1  0.648300  0.559300  0.942700  1.0  0.0944
  H  H51  1  0.469900  0.645700  0.084400  1.0  0.0871
  H  H52  1  0.721500  0.461300  0.671400  1.0  0.0691
  H  H53  1  0.978300  0.344500  0.662200  1.0  0.0923
  H  H54  1  0.023700  0.494900  0.584000  1.0  0.1109
  H  H55  1  0.076500  0.416700  0.595000  1.0  0.1079
  H  H56  1  0.858000  0.366200  0.511100  1.0  0.0895
  H  H57  1  0.992500  0.290600  0.349200  1.0  0.1082
  H  H58  1  0.155300  0.399700  0.495200  1.0  0.0903
  H  H59  1  0.782900  0.252800  0.411000  1.0  0.0993
  H  H60  1  0.816900  0.275600  0.352100  1.0  0.0989
  H  H61  1  0.632700  0.338200  0.462400  1.0  0.0807
  H  H62  1  0.663400  0.531000  0.405300  1.0  0.0501
  H  H63  1  0.179500  0.367100  0.350300  1.0  0.1141
  H  H64  1  0.182200  0.274400  0.352100  1.0  0.1019
  H  H65  1  0.442800  0.301000  0.484000  1.0  0.0235
  H  H66  1  0.310000  0.464600  0.416500  1.0  0.0952
  H  H67  1  0.653000  0.031000  0.309900  1.0  0.0511
  H  H68  1  0.912600  0.925700  0.297700  1.0  0.0895
  H  H69  1  0.024200  0.059900  0.335400  1.0  0.1131
  H  H70  1  0.965900  0.143800  0.345600  1.0  0.0993
  H  H71  1  0.763100  0.220200  0.616800  1.0  0.0677
  H  H72  1  0.914100  0.171800  0.748200  1.0  0.0468
  H  H73  1  0.865000  0.015100  0.557200  1.0  0.0934
  H  H74  1  0.785200  0.074000  0.539900  1.0  0.0572
  H  H75  1  0.285800  0.127100  0.609500  1.0  0.0633
  H  H76  1  0.155800  0.312300  0.721400  1.0  0.0571
  H  H77  1  0.199700  0.251500  0.520000  1.0  0.1019
  H  H78  1  0.245300  0.163100  0.512900  1.0  0.0976
  H  H79  1  0.119400  0.160400  0.423100  1.0  0.0957
  H  H80  1  0.851700  0.059300  0.442700  1.0  0.0937
  H  H81  1  0.030100  0.145700  0.584400  1.0  0.0869
  H  H82  1  0.778500  0.961300  0.171400  1.0  0.0699
  H  H83  1  0.521700  0.844500  0.162200  1.0  0.0925
  H  H84  1  0.476300  0.994900  0.084000  1.0  0.1111
  H  H85  1  0.423500  0.916700  0.095000  1.0  0.1089
  H  H86  1  0.642000  0.866200  0.011100  1.0  0.089
  H  H87  1  0.507500  0.790600  0.849200  1.0  0.1079
  H  H88  1  0.344700  0.899700  0.995200  1.0  0.0901
  H  H89  1  0.717100  0.752800  0.911000  1.0  0.0998
  H  H90  1  0.683100  0.775600  0.852100  1.0  0.0995
  H  H91  1  0.867300  0.838200  0.962400  1.0  0.0798
  H  H92  1  0.836600  0.031000  0.905300  1.0  0.0503
  H  H93  1  0.320500  0.867100  0.850300  1.0  0.1135
  H  H94  1  0.317800  0.774400  0.852100  1.0  0.1021
  H  H95  1  0.057200  0.801000  0.984000  1.0  0.0246
  H  H96  1  0.190000  0.964600  0.916500  1.0  0.0957
  H  H97  1  0.153000  0.469000  0.190100  1.0  0.0501
  H  H98  1  0.412600  0.574300  0.202300  1.0  0.0902
  H  H99  1  0.524200  0.440100  0.164600  1.0  0.1111
  H  H100  1  0.465900  0.356200  0.154400  1.0  0.0993
  H  H101  1  0.263100  0.279800  0.883200  1.0  0.0672
  H  H102  1  0.414100  0.328200  0.751800  1.0  0.0486
  H  H103  1  0.365000  0.484900  0.942800  1.0  0.0928
  H  H104  1  0.285200  0.426000  0.960100  1.0  0.0566
  H  H105  1  0.785800  0.372900  0.890500  1.0  0.0635
  H  H106  1  0.655800  0.187700  0.778600  1.0  0.0568
  H  H107  1  0.699700  0.248500  0.980000  1.0  0.1033
  H  H108  1  0.745300  0.336900  0.987100  1.0  0.099
  H  H109  1  0.619400  0.339600  0.076900  1.0  0.0954
  H  H110  1  0.351700  0.440700  0.057300  1.0  0.0936
  H  H111  1  0.530100  0.354300  0.915600  1.0  0.0868
  H  H112  1  0.278500  0.538700  0.328600  1.0  0.0694
  H  H113  1  0.021700  0.655500  0.337800  1.0  0.0927
  H  H114  1  0.976300  0.505100  0.416000  1.0  0.1128
  H  H115  1  0.923500  0.583300  0.405000  1.0  0.1073
  H  H116  1  0.142000  0.633800  0.488900  1.0  0.0892
  H  H117  1  0.007500  0.709400  0.650800  1.0  0.108
  H  H118  1  0.844700  0.600300  0.504800  1.0  0.09
  H  H119  1  0.217100  0.747200  0.589000  1.0  0.0989
  H  H120  1  0.183100  0.724400  0.647900  1.0  0.0986
  H  H121  1  0.367300  0.661800  0.537600  1.0  0.079
  H  H122  1  0.336600  0.469000  0.594700  1.0  0.0501
  H  H123  1  0.820500  0.632900  0.649700  1.0  0.1232
  H  H124  1  0.817800  0.725600  0.647900  1.0  0.1044
  H  H125  1  0.557200  0.699000  0.516000  1.0  0.0233
  H  H126  1  0.690000  0.535400  0.583500  1.0  0.0959
  C  C127  1  0.277600  0.976400  0.686600  1.0  0.2542
  C  C128  1  0.138900  0.035100  0.694500  1.0  0.0874
  C  C129  1  0.033400  0.908800  0.644300  1.0  -0.0905
  C  C130  1  0.196400  0.805500  0.360500  1.0  0.083
  C  C131  1  0.113100  0.833200  0.289800  1.0  0.2598
  C  C132  1  0.148400  0.927900  0.442500  1.0  -0.055
  C  C133  1  0.751700  0.825300  0.373700  1.0  0.0948
  C  C134  1  0.822700  0.725100  0.314100  1.0  0.2511
  C  C135  1  0.808800  0.799600  0.468400  1.0  -0.1001
  C  C136  1  0.909300  0.838100  0.492300  1.0  0.0808
  C  C137  1  0.928800  0.854400  0.552300  1.0  -0.222
  C  C138  1  0.018500  0.892400  0.578700  1.0  0.0747
  C  C139  1  0.088400  0.915200  0.541000  1.0  -0.2165
  C  C140  1  0.071600  0.901000  0.480200  1.0  0.0796
  C  C141  1  0.982200  0.863300  0.456600  1.0  -0.223
  C  C142  1  0.286500  0.057600  0.840600  1.0  0.2104
  C  C143  1  0.426500  0.121500  0.844700  1.0  0.1099
  C  C144  1  0.515400  0.063900  0.920100  1.0  -0.1053
  C  C145  1  0.505200  0.107600  0.985800  1.0  0.0949
  C  C146  1  0.416000  0.137300  0.012400  1.0  -0.2134
  C  C147  1  0.410300  0.173500  0.075800  1.0  0.0652
  C  C148  1  0.496000  0.183400  0.109800  1.0  -0.2228
  C  C149  1  0.588900  0.154700  0.083600  1.0  0.0734
  C  C150  1  0.593100  0.118300  0.022500  1.0  -0.2273
  C  C151  1  0.308500  0.202900  0.104700  1.0  -0.1001
  C  C152  1  0.156800  0.124200  0.057600  1.0  0.1182
  C  C153  1  0.175200  0.020800  0.088500  1.0  0.2678
  C  C154  1  0.682700  0.168800  0.123000  1.0  -0.1113
  C  C155  1  0.897600  0.174200  0.036800  1.0  0.2731
  C  C156  1  0.826800  0.084200  0.073800  1.0  0.0933
  C  C157  1  0.777600  0.523600  0.813400  1.0  0.2546
  C  C158  1  0.638900  0.464900  0.805500  1.0  0.0879
  C  C159  1  0.533400  0.591200  0.855700  1.0  -0.0898
  C  C160  1  0.696400  0.694500  0.139500  1.0  0.0829
  C  C161  1  0.613100  0.666800  0.210200  1.0  0.26
  C  C162  1  0.648400  0.572100  0.057500  1.0  -0.0553
  C  C163  1  0.251700  0.674700  0.126300  1.0  0.0951
  C  C164  1  0.322700  0.774900  0.185900  1.0  0.2524
  C  C165  1  0.308800  0.700400  0.031600  1.0  -0.0987
  C  C166  1  0.409300  0.661900  0.007700  1.0  0.081
  C  C167  1  0.428800  0.645600  0.947700  1.0  -0.2209
  C  C168  1  0.518500  0.607600  0.921300  1.0  0.0737
  C  C169  1  0.588400  0.584800  0.959000  1.0  -0.2171
  C  C170  1  0.571600  0.599000  0.019800  1.0  0.0789
  C  C171  1  0.482200  0.636700  0.043400  1.0  -0.2333
  C  C172  1  0.786500  0.442400  0.659400  1.0  0.21
  C  C173  1  0.926500  0.378500  0.655300  1.0  0.1085
  C  C174  1  0.015400  0.436100  0.579900  1.0  -0.1064
  C  C175  1  0.005200  0.392400  0.514200  1.0  0.0944
  C  C176  1  0.916000  0.362700  0.487600  1.0  -0.2156
  C  C177  1  0.910300  0.326500  0.424200  1.0  0.0659
  C  C178  1  0.996000  0.316600  0.390200  1.0  -0.2216
  C  C179  1  0.088900  0.345300  0.416400  1.0  0.074
  C  C180  1  0.093100  0.381700  0.477500  1.0  -0.2268
  C  C181  1  0.808500  0.297100  0.395300  1.0  -0.1025
  C  C182  1  0.656800  0.375800  0.442400  1.0  0.1187
  C  C183  1  0.675200  0.479200  0.411500  1.0  0.2674
  C  C184  1  0.182700  0.331200  0.377000  1.0  -0.1108
  C  C185  1  0.397600  0.325800  0.463200  1.0  0.2725
  C  C186  1  0.326800  0.415800  0.426200  1.0  0.0919
  C  C187  1  0.722400  0.023600  0.313400  1.0  0.2533
  C  C188  1  0.861100  0.964900  0.305500  1.0  0.0882
  C  C189  1  0.966600  0.091200  0.355700  1.0  -0.09
  C  C190  1  0.803600  0.194500  0.639500  1.0  0.0824
  C  C191  1  0.886900  0.166800  0.710200  1.0  0.2593
  C  C192  1  0.851600  0.072100  0.557500  1.0  -0.0545
  C  C193  1  0.248300  0.174700  0.626300  1.0  0.097
  C  C194  1  0.177300  0.274900  0.685900  1.0  0.2506
  C  C195  1  0.191200  0.200400  0.531600  1.0  -0.0983
  C  C196  1  0.090700  0.161900  0.507700  1.0  0.0805
  C  C197  1  0.071200  0.145600  0.447700  1.0  -0.2201
  C  C198  1  0.981500  0.107600  0.421300  1.0  0.0736
  C  C199  1  0.911600  0.084800  0.459000  1.0  -0.213
  C  C200  1  0.928400  0.099000  0.519800  1.0  0.0782
  C  C201  1  0.017800  0.136700  0.543400  1.0  -0.233
  C  C202  1  0.713500  0.942400  0.159400  1.0  0.2111
  C  C203  1  0.573500  0.878500  0.155300  1.0  0.1085
  C  C204  1  0.484600  0.936100  0.079900  1.0  -0.1066
  C  C205  1  0.494800  0.892400  0.014200  1.0  0.0944
  C  C206  1  0.584000  0.862700  0.987600  1.0  -0.2107
  C  C207  1  0.589700  0.826500  0.924200  1.0  0.0655
  C  C208  1  0.504000  0.816600  0.890200  1.0  -0.2223
  C  C209  1  0.411100  0.845300  0.916400  1.0  0.0748
  C  C210  1  0.406900  0.881700  0.977500  1.0  -0.2261
  C  C211  1  0.691500  0.797100  0.895300  1.0  -0.1032
  C  C212  1  0.843200  0.875800  0.942400  1.0  0.1194
  C  C213  1  0.824800  0.979200  0.911500  1.0  0.2682
  C  C214  1  0.317300  0.831200  0.877000  1.0  -0.1104
  C  C215  1  0.102400  0.825800  0.963200  1.0  0.2731
  C  C216  1  0.173200  0.915800  0.926200  1.0  0.0918
  C  C217  1  0.222400  0.476400  0.186600  1.0  0.253
  C  C218  1  0.361100  0.535100  0.194500  1.0  0.0882
  C  C219  1  0.466600  0.408800  0.144300  1.0  -0.0898
  C  C220  1  0.303600  0.305500  0.860500  1.0  0.0822
  C  C221  1  0.386900  0.333200  0.789800  1.0  0.2591
  C  C222  1  0.351600  0.427900  0.942500  1.0  -0.0546
  C  C223  1  0.748300  0.325300  0.873700  1.0  0.0974
  C  C224  1  0.677300  0.225100  0.814100  1.0  0.2501
  C  C225  1  0.691200  0.299600  0.968400  1.0  -0.0989
  C  C226  1  0.590700  0.338100  0.992300  1.0  0.0801
  C  C227  1  0.571200  0.354400  0.052300  1.0  -0.2208
  C  C228  1  0.481500  0.392400  0.078700  1.0  0.0746
  C  C229  1  0.411600  0.415200  0.041000  1.0  -0.2121
  C  C230  1  0.428400  0.401000  0.980200  1.0  0.0781
  C  C231  1  0.517800  0.363300  0.956600  1.0  -0.223
  C  C232  1  0.213500  0.557600  0.340600  1.0  0.2111
  C  C233  1  0.073500  0.621500  0.344700  1.0  0.1103
  C  C234  1  0.984600  0.563900  0.420100  1.0  -0.1049
  C  C235  1  0.994800  0.607600  0.485800  1.0  0.0947
  C  C236  1  0.084000  0.637300  0.512400  1.0  -0.2071
  C  C237  1  0.089700  0.673500  0.575800  1.0  0.0648
  C  C238  1  0.004000  0.683400  0.609800  1.0  -0.2223
  C  C239  1  0.911100  0.654700  0.583600  1.0  0.0738
  C  C240  1  0.906900  0.618300  0.522500  1.0  -0.226
  C  C241  1  0.191500  0.702900  0.604700  1.0  -0.1024
  C  C242  1  0.343200  0.624200  0.557600  1.0  0.1189
  C  C243  1  0.324800  0.520800  0.588500  1.0  0.2686
  C  C244  1  0.817300  0.668800  0.623000  1.0  -0.1119
  C  C245  1  0.602400  0.674200  0.536800  1.0  0.2732
  C  C246  1  0.673200  0.584200  0.573800  1.0  0.0925
  N  N247  1  0.233900  0.050000  0.707800  1.0  -0.3594
  N  N248  1  0.219000  0.916300  0.661100  1.0  -0.4163
  N  N249  1  0.126900  0.954400  0.667800  1.0  0.1519
  N  N250  1  0.175600  0.775800  0.302300  1.0  -0.3894
  N  N251  1  0.150000  0.877900  0.381200  1.0  0.1687
  N  N252  1  0.094500  0.896400  0.336000  1.0  -0.4144
  N  N253  1  0.763800  0.792100  0.314800  1.0  -0.3948
  N  N254  1  0.799400  0.782300  0.404600  1.0  0.1943
  N  N255  1  0.845900  0.717900  0.366800  1.0  -0.3986
  N  N256  1  0.338100  0.112700  0.818000  1.0  -0.3732
  N  N257  1  0.340600  0.033600  0.882100  1.0  -0.411
  N  N258  1  0.431500  0.074800  0.882900  1.0  0.1713
  N  N259  1  0.906200  0.094600  0.040400  1.0  -0.4037
  N  N260  1  0.818200  0.211900  0.066000  1.0  -0.4445
  N  N261  1  0.776600  0.153900  0.090300  1.0  0.1885
  N  N262  1  0.115800  0.053900  0.054800  1.0  -0.3868
  N  N263  1  0.251100  0.067200  0.112000  1.0  -0.4164
  N  N264  1  0.237300  0.135800  0.092200  1.0  0.1857
  N  N265  1  0.733900  0.450000  0.792200  1.0  -0.3596
  N  N266  1  0.719000  0.583700  0.838900  1.0  -0.4125
  N  N267  1  0.626900  0.545600  0.832200  1.0  0.1505
  N  N268  1  0.675600  0.724200  0.197700  1.0  -0.3886
  N  N269  1  0.650000  0.622100  0.118800  1.0  0.1693
  N  N270  1  0.594500  0.603600  0.164000  1.0  -0.4167
  N  N271  1  0.263800  0.707900  0.185200  1.0  -0.3951
  N  N272  1  0.299400  0.717700  0.095400  1.0  0.1941
  N  N273  1  0.345900  0.782100  0.133200  1.0  -0.3978
  N  N274  1  0.838100  0.387300  0.682000  1.0  -0.3741
  N  N275  1  0.840600  0.466400  0.617900  1.0  -0.4104
  N  N276  1  0.931500  0.425200  0.617100  1.0  0.1685
  N  N277  1  0.406200  0.405400  0.459600  1.0  -0.4033
  N  N278  1  0.318200  0.288100  0.434000  1.0  -0.4451
  N  N279  1  0.276600  0.346100  0.409700  1.0  0.1897
  N  N280  1  0.615800  0.446100  0.445200  1.0  -0.3864
  N  N281  1  0.751100  0.432800  0.388000  1.0  -0.3958
  N  N282  1  0.737300  0.364200  0.407800  1.0  0.1869
  N  N283  1  0.766100  0.950000  0.292200  1.0  -0.3602
  N  N284  1  0.781000  0.083700  0.338900  1.0  -0.409
  N  N285  1  0.873100  0.045600  0.332200  1.0  0.1514
  N  N286  1  0.824400  0.224200  0.697700  1.0  -0.3902
  N  N287  1  0.850000  0.122100  0.618800  1.0  0.1693
  N  N288  1  0.905500  0.103600  0.664000  1.0  -0.4158
  N  N289  1  0.236200  0.207900  0.685200  1.0  -0.3952
  N  N290  1  0.200600  0.217700  0.595400  1.0  0.1913
  N  N291  1  0.154100  0.282100  0.633200  1.0  -0.3981
  N  N292  1  0.661900  0.887300  0.182000  1.0  -0.373
  N  N293  1  0.659400  0.966400  0.117900  1.0  -0.4097
  N  N294  1  0.568500  0.925200  0.117100  1.0  0.1689
  N  N295  1  0.093800  0.905400  0.959600  1.0  -0.4035
  N  N296  1  0.181800  0.788100  0.934000  1.0  -0.4437
  N  N297  1  0.223400  0.846100  0.909700  1.0  0.1904
  N  N298  1  0.884200  0.946100  0.945200  1.0  -0.386
  N  N299  1  0.748900  0.932800  0.888000  1.0  -0.3938
  N  N300  1  0.762700  0.864200  0.907800  1.0  0.1863
  N  N301  1  0.266100  0.550000  0.207800  1.0  -0.3598
  N  N302  1  0.281000  0.416300  0.161100  1.0  -0.4128
  N  N303  1  0.373100  0.454400  0.167800  1.0  0.1516
  N  N304  1  0.324400  0.275800  0.802300  1.0  -0.3908
  N  N305  1  0.350000  0.377900  0.881200  1.0  0.169
  N  N306  1  0.405500  0.396400  0.836000  1.0  -0.4165
  N  N307  1  0.736200  0.292100  0.814800  1.0  -0.3951
  N  N308  1  0.700600  0.282300  0.904600  1.0  0.1919
  N  N309  1  0.654100  0.217900  0.866800  1.0  -0.3996
  N  N310  1  0.161900  0.612700  0.318000  1.0  -0.3727
  N  N311  1  0.159400  0.533600  0.382100  1.0  -0.4105
  N  N312  1  0.068500  0.574800  0.382900  1.0  0.1715
  N  N313  1  0.593800  0.594600  0.540400  1.0  -0.4046
  N  N314  1  0.681800  0.711900  0.566000  1.0  -0.4453
  N  N315  1  0.723400  0.653900  0.590300  1.0  0.1902
  N  N316  1  0.384200  0.553900  0.554800  1.0  -0.3854
  N  N317  1  0.248900  0.567200  0.612000  1.0  -0.4157
  N  N318  1  0.262700  0.635800  0.592200  1.0  0.1855
