# generated using pymatgen
data_PrH4C7SO7
_symmetry_space_group_name_H-M   'P 1'
_cell_length_a   8.61900000
_cell_length_b   17.95900000
_cell_length_c   8.13500000
_cell_angle_alpha   90.00000000
_cell_angle_beta   110.82800000
_cell_angle_gamma   90.00000000
_symmetry_Int_Tables_number   1
_chemical_formula_structural   PrH4C7SO7
_chemical_formula_sum   'Pr4 H16 C28 S4 O28'
_cell_volume   1176.91890899
_cell_formula_units_Z   4
loop_
 _symmetry_equiv_pos_site_id
 _symmetry_equiv_pos_as_xyz
  1  'x, y, z'
loop_
 _atom_site_type_symbol
 _atom_site_label
 _atom_site_symmetry_multiplicity
 _atom_site_fract_x
 _atom_site_fract_y
 _atom_site_fract_z
 _atom_site_occupancy
 _atom_site_charge
  Pr  Pr1  1  0.213460  0.522310  0.748880  1.0  2.2318
  Pr  Pr2  1  0.786540  0.022310  0.751120  1.0  2.2304
  Pr  Pr3  1  0.786540  0.477690  0.251120  1.0  2.2301
  Pr  Pr4  1  0.213460  0.977690  0.248880  1.0  2.2311
  H  H5  1  0.582300  0.499400  0.768400  1.0  0.416
  H  H6  1  0.473200  0.553700  0.677800  1.0  0.4041
  H  H7  1  0.565300  0.623400  0.369500  1.0  0.1158
  H  H8  1  0.405900  0.738200  0.326700  1.0  0.1162
  H  H9  1  0.417700  0.999400  0.731600  1.0  0.4152
  H  H10  1  0.526800  0.053700  0.822200  1.0  0.4043
  H  H11  1  0.434700  0.123400  0.130500  1.0  0.1156
  H  H12  1  0.594100  0.238200  0.173300  1.0  0.1145
  H  H13  1  0.417700  0.500600  0.231600  1.0  0.4154
  H  H14  1  0.526800  0.446300  0.322200  1.0  0.4036
  H  H15  1  0.434700  0.376600  0.630500  1.0  0.1153
  H  H16  1  0.594100  0.261800  0.673300  1.0  0.1149
  H  H17  1  0.582300  0.000600  0.268400  1.0  0.4162
  H  H18  1  0.473200  0.946300  0.177800  1.0  0.4032
  H  H19  1  0.565300  0.876600  0.869500  1.0  0.1155
  H  H20  1  0.405900  0.761800  0.826700  1.0  0.1165
  C  C21  1  0.767100  0.675100  0.544800  1.0  -0.1936
  C  C22  1  0.608000  0.667800  0.426600  1.0  -0.0711
  C  C23  1  0.516100  0.734100  0.400900  1.0  -0.0636
  C  C24  1  0.606400  0.791800  0.496600  1.0  -0.1845
  C  C25  1  0.898100  0.618500  0.598600  1.0  0.7108
  C  C26  1  0.547100  0.869300  0.496700  1.0  0.7278
  C  C27  1  0.066000  0.521500  0.074800  1.0  0.5655
  C  C28  1  0.232900  0.175100  0.955200  1.0  -0.1921
  C  C29  1  0.392000  0.167800  0.073400  1.0  -0.0705
  C  C30  1  0.483900  0.234100  0.099100  1.0  -0.0642
  C  C31  1  0.393600  0.291800  0.003400  1.0  -0.1838
  C  C32  1  0.101900  0.118500  0.901400  1.0  0.7101
  C  C33  1  0.452900  0.369300  0.003300  1.0  0.7283
  C  C34  1  0.934000  0.021500  0.425200  1.0  0.5663
  C  C35  1  0.232900  0.324900  0.455200  1.0  -0.1923
  C  C36  1  0.392000  0.332200  0.573400  1.0  -0.0699
  C  C37  1  0.483900  0.265900  0.599100  1.0  -0.0638
  C  C38  1  0.393600  0.208200  0.503400  1.0  -0.1838
  C  C39  1  0.101900  0.381500  0.401400  1.0  0.7087
  C  C40  1  0.452900  0.130700  0.503300  1.0  0.7275
  C  C41  1  0.934000  0.478500  0.925200  1.0  0.5664
  C  C42  1  0.767100  0.824900  0.044800  1.0  -0.1928
  C  C43  1  0.608000  0.832200  0.926600  1.0  -0.0703
  C  C44  1  0.516100  0.765900  0.900900  1.0  -0.0632
  C  C45  1  0.606400  0.708200  0.996600  1.0  -0.1845
  C  C46  1  0.898100  0.881500  0.098600  1.0  0.7088
  C  C47  1  0.547100  0.630700  0.996700  1.0  0.7272
  C  C48  1  0.066000  0.978500  0.574800  1.0  0.566
  S  S49  1  0.804180  0.764850  0.625100  1.0  0.142
  S  S50  1  0.195820  0.264850  0.874900  1.0  0.1442
  S  S51  1  0.195820  0.235150  0.374900  1.0  0.1438
  S  S52  1  0.804180  0.735150  0.125100  1.0  0.1437
  O  O53  1  0.885500  0.561300  0.504900  1.0  -0.7865
  O  O54  1  0.023700  0.628800  0.738600  1.0  -0.6462
  O  O55  1  0.398900  0.881800  0.406200  1.0  -0.7176
  O  O56  1  0.647500  0.917100  0.589100  1.0  -0.7263
  O  O57  1  0.200700  0.535200  0.054000  1.0  -0.607
  O  O58  1  0.027700  0.540100  0.203700  1.0  -0.6304
  O  O59  1  0.489600  0.507000  0.686400  1.0  -0.8064
  O  O60  1  0.114500  0.061300  0.995100  1.0  -0.7853
  O  O61  1  0.976300  0.128800  0.761400  1.0  -0.647
  O  O62  1  0.601100  0.381800  0.093800  1.0  -0.716
  O  O63  1  0.352500  0.417100  0.910900  1.0  -0.7274
  O  O64  1  0.799300  0.035200  0.446000  1.0  -0.606
  O  O65  1  0.972300  0.040100  0.296300  1.0  -0.631
  O  O66  1  0.510400  0.007000  0.813600  1.0  -0.803
  O  O67  1  0.114500  0.438700  0.495100  1.0  -0.7864
  O  O68  1  0.976300  0.371200  0.261400  1.0  -0.6464
  O  O69  1  0.601100  0.118200  0.593800  1.0  -0.7158
  O  O70  1  0.352500  0.082900  0.410900  1.0  -0.7278
  O  O71  1  0.799300  0.464800  0.946000  1.0  -0.6064
  O  O72  1  0.972300  0.459900  0.796300  1.0  -0.6315
  O  O73  1  0.510400  0.493000  0.313600  1.0  -0.8023
  O  O74  1  0.885500  0.938700  0.004900  1.0  -0.7858
  O  O75  1  0.023700  0.871200  0.238600  1.0  -0.6449
  O  O76  1  0.398900  0.618200  0.906200  1.0  -0.7175
  O  O77  1  0.647500  0.582900  0.089100  1.0  -0.7268
  O  O78  1  0.200700  0.964800  0.554000  1.0  -0.6068
  O  O79  1  0.027700  0.959900  0.703700  1.0  -0.6291
  O  O80  1  0.489600  0.993000  0.186400  1.0  -0.8047
