# generated using pymatgen
data_ZrP3H20C9(NO3)3
_symmetry_space_group_name_H-M   'P 1'
_cell_length_a   11.94640000
_cell_length_b   11.94640000
_cell_length_c   11.94640000
_cell_angle_alpha   113.14020000
_cell_angle_beta   113.14020000
_cell_angle_gamma   113.14020000
_symmetry_Int_Tables_number   1
_chemical_formula_structural   ZrP3H20C9(NO3)3
_chemical_formula_sum   'Zr2 P6 H40 C18 N6 O18'
_cell_volume   1098.75131721
_cell_formula_units_Z   2
loop_
 _symmetry_equiv_pos_site_id
 _symmetry_equiv_pos_as_xyz
  1  'x, y, z'
loop_
 _atom_site_type_symbol
 _atom_site_label
 _atom_site_symmetry_multiplicity
 _atom_site_fract_x
 _atom_site_fract_y
 _atom_site_fract_z
 _atom_site_occupancy
 _atom_site_charge
  Zr  Zr1  1  0.000000  0.000000  0.000000  1.0  1.9711
  Zr  Zr2  1  0.500000  0.500000  0.500000  1.0  2.1193
  P  P3  1  0.225800  0.134700  0.382900  1.0  1.3097
  P  P4  1  0.382900  0.225800  0.134700  1.0  1.2694
  P  P5  1  0.134700  0.382900  0.225800  1.0  1.2662
  P  P6  1  0.774200  0.865300  0.617100  1.0  1.3108
  P  P7  1  0.617100  0.774200  0.865300  1.0  1.2676
  P  P8  1  0.865300  0.617100  0.774200  1.0  1.2669
  H  H9  1  0.311920  0.025620  0.250060  1.0  0.1195
  H  H10  1  0.239170  0.772260  0.366970  1.0  0.1204
  H  H11  1  0.556510  0.239100  0.560750  1.0  0.103
  H  H12  1  0.751210  0.245800  0.791440  1.0  0.0922
  H  H13  1  0.500030  0.832140  0.345500  1.0  0.1113
  H  H14  1  0.849240  0.126610  0.779580  1.0  0.142
  H  H15  1  0.871500  0.409970  0.769130  1.0  0.3124
  H  H16  1  0.250060  0.311920  0.025620  1.0  0.1226
  H  H17  1  0.366970  0.239170  0.772260  1.0  0.0976
  H  H18  1  0.560750  0.556510  0.239100  1.0  0.1015
  H  H19  1  0.791440  0.751210  0.245800  1.0  0.1043
  H  H20  1  0.345500  0.500030  0.832140  1.0  0.1003
  H  H21  1  0.779580  0.849240  0.126610  1.0  0.1417
  H  H22  1  0.025620  0.250060  0.311920  1.0  0.1226
  H  H23  1  0.772260  0.366970  0.239170  1.0  0.1222
  H  H24  1  0.239100  0.560750  0.556510  1.0  0.1044
  H  H25  1  0.245800  0.791440  0.751210  1.0  0.0947
  H  H26  1  0.832140  0.345500  0.500030  1.0  0.1013
  H  H27  1  0.126610  0.779580  0.849240  1.0  0.1415
  H  H28  1  0.409970  0.769130  0.871500  1.0  0.3102
  H  H29  1  0.688080  0.974380  0.749940  1.0  0.1209
  H  H30  1  0.760830  0.227740  0.633030  1.0  0.1219
  H  H31  1  0.443490  0.760900  0.439250  1.0  0.1022
  H  H32  1  0.248790  0.754200  0.208560  1.0  0.0936
  H  H33  1  0.499970  0.167860  0.654500  1.0  0.1111
  H  H34  1  0.150760  0.873390  0.220420  1.0  0.1407
  H  H35  1  0.128500  0.590030  0.230870  1.0  0.3128
  H  H36  1  0.749940  0.688080  0.974380  1.0  0.1222
  H  H37  1  0.633030  0.760830  0.227740  1.0  0.0978
  H  H38  1  0.439250  0.443490  0.760900  1.0  0.1025
  H  H39  1  0.208560  0.248790  0.754200  1.0  0.1031
  H  H40  1  0.654500  0.499970  0.167860  1.0  0.1025
  H  H41  1  0.220420  0.150760  0.873390  1.0  0.1408
  H  H42  1  0.974380  0.749940  0.688080  1.0  0.1236
  H  H43  1  0.227740  0.633030  0.760830  1.0  0.1226
  H  H44  1  0.760900  0.439250  0.443490  1.0  0.107
  H  H45  1  0.754200  0.208560  0.248790  1.0  0.0939
  H  H46  1  0.167860  0.654500  0.499970  1.0  0.1017
  H  H47  1  0.873390  0.220420  0.150760  1.0  0.1405
  H  H48  1  0.590030  0.230870  0.128500  1.0  0.3139
  C  C49  1  0.267900  0.001800  0.313500  1.0  -0.2127
  C  C50  1  0.316700  0.830800  0.342400  1.0  -0.0177
  C  C51  1  0.530200  0.144100  0.573100  1.0  -0.0535
  C  C52  1  0.313500  0.267900  0.001800  1.0  -0.2076
  C  C53  1  0.342400  0.316700  0.830800  1.0  -0.0465
  C  C54  1  0.573100  0.530200  0.144100  1.0  -0.048
  C  C55  1  0.001800  0.313500  0.267900  1.0  -0.2111
  C  C56  1  0.830800  0.342400  0.316700  1.0  -0.018
  C  C57  1  0.144100  0.573100  0.530200  1.0  -0.0597
  C  C58  1  0.732100  0.998200  0.686500  1.0  -0.2128
  C  C59  1  0.683300  0.169200  0.657600  1.0  -0.0179
  C  C60  1  0.469800  0.855900  0.426900  1.0  -0.0531
  C  C61  1  0.686500  0.732100  0.998200  1.0  -0.2082
  C  C62  1  0.657600  0.683300  0.169200  1.0  -0.0461
  C  C63  1  0.426900  0.469800  0.855900  1.0  -0.0481
  C  C64  1  0.998200  0.686500  0.732100  1.0  -0.2104
  C  C65  1  0.169200  0.657600  0.683300  1.0  -0.018
  C  C66  1  0.855900  0.426900  0.469800  1.0  -0.0589
  N  N67  1  0.379200  0.999200  0.418100  1.0  -0.1833
  N  N68  1  0.418100  0.379200  0.999200  1.0  -0.1926
  N  N69  1  0.999200  0.418100  0.379200  1.0  -0.1983
  N  N70  1  0.620800  0.000800  0.581900  1.0  -0.1843
  N  N71  1  0.581900  0.620800  0.000800  1.0  -0.1919
  N  N72  1  0.000800  0.581900  0.620800  1.0  -0.1979
  O  O73  1  0.365100  0.303400  0.455300  1.0  -0.868
  O  O74  1  0.195100  0.128500  0.499000  1.0  -0.6395
  O  O75  1  0.086800  0.070500  0.213200  1.0  -0.8594
  O  O76  1  0.455300  0.365100  0.303400  1.0  -0.8693
  O  O77  1  0.499000  0.195100  0.128500  1.0  -0.6442
  O  O78  1  0.213200  0.086800  0.070500  1.0  -0.8619
  O  O79  1  0.303400  0.455300  0.365100  1.0  -0.8682
  O  O80  1  0.128500  0.499000  0.195100  1.0  -0.6363
  O  O81  1  0.070500  0.213200  0.086800  1.0  -0.8651
  O  O82  1  0.634900  0.696600  0.544700  1.0  -0.8682
  O  O83  1  0.804900  0.871500  0.501000  1.0  -0.6412
  O  O84  1  0.913200  0.929500  0.786800  1.0  -0.8585
  O  O85  1  0.544700  0.634900  0.696600  1.0  -0.8705
  O  O86  1  0.501000  0.804900  0.871500  1.0  -0.6416
  O  O87  1  0.786800  0.913200  0.929500  1.0  -0.8628
  O  O88  1  0.696600  0.544700  0.634900  1.0  -0.8673
  O  O89  1  0.871500  0.501000  0.804900  1.0  -0.6402
  O  O90  1  0.929500  0.786800  0.913200  1.0  -0.8634
