# generated using pymatgen
data_CdH21C27N7
_symmetry_space_group_name_H-M   'P 1'
_cell_length_a   9.26630000
_cell_length_b   14.91270000
_cell_length_c   27.24810000
_cell_angle_alpha   98.25300000
_cell_angle_beta   90.00000000
_cell_angle_gamma   90.00000000
_symmetry_Int_Tables_number   1
_chemical_formula_structural   CdH21C27N7
_chemical_formula_sum   'Cd4 H84 C108 N28'
_cell_volume   3726.29987658
_cell_formula_units_Z   4
loop_
 _symmetry_equiv_pos_site_id
 _symmetry_equiv_pos_as_xyz
  1  'x, y, z'
loop_
 _atom_site_type_symbol
 _atom_site_label
 _atom_site_symmetry_multiplicity
 _atom_site_fract_x
 _atom_site_fract_y
 _atom_site_fract_z
 _atom_site_occupancy
 _atom_site_charge
  Cd  Cd1  1  0.791200  0.506850  0.226090  1.0  0.1189
  Cd  Cd2  1  0.208800  0.006850  0.726090  1.0  0.1126
  Cd  Cd3  1  0.791200  0.993150  0.273910  1.0  0.1008
  Cd  Cd4  1  0.208800  0.493150  0.773910  1.0  0.0984
  H  H5  1  0.239800  0.091100  0.018600  1.0  0.1075
  H  H6  1  0.209200  0.069600  0.933400  1.0  0.11
  H  H7  1  0.183700  0.801700  0.934000  1.0  0.1028
  H  H8  1  0.237500  0.821700  0.016900  1.0  0.1104
  H  H9  1  0.086800  0.790600  0.855000  1.0  0.117
  H  H10  1  0.075800  0.823100  0.770500  1.0  0.0897
  H  H11  1  0.222400  0.042400  0.853000  1.0  0.0986
  H  H12  1  0.491500  0.075000  0.061400  1.0  0.0982
  H  H13  1  0.550400  0.218700  0.101600  1.0  0.1044
  H  H14  1  0.238500  0.198900  0.200600  1.0  0.1074
  H  H15  1  0.168700  0.061800  0.156800  1.0  0.0977
  H  H16  1  0.255300  0.378000  0.200900  1.0  0.1182
  H  H17  1  0.415400  0.499600  0.239300  1.0  0.0936
  H  H18  1  0.662400  0.302800  0.180000  1.0  0.0733
  H  H19  1  0.033600  0.887500  0.082900  1.0  0.0879
  H  H20  1  0.968900  0.770400  0.126800  1.0  0.1201
  H  H21  1  0.361000  0.783700  0.189000  1.0  0.0957
  H  H22  1  0.429500  0.895800  0.142100  1.0  0.117
  H  H23  1  0.311700  0.633700  0.205400  1.0  0.1157
  H  H24  1  0.157200  0.532400  0.245200  1.0  0.1048
  H  H25  1  0.902800  0.704000  0.192500  1.0  0.0781
  H  H26  1  0.760200  0.591100  0.518600  1.0  0.1077
  H  H27  1  0.790800  0.569600  0.433400  1.0  0.1102
  H  H28  1  0.816300  0.301700  0.434000  1.0  0.1026
  H  H29  1  0.762500  0.321700  0.516900  1.0  0.1103
  H  H30  1  0.913200  0.290600  0.355000  1.0  0.1167
  H  H31  1  0.924200  0.323100  0.270500  1.0  0.0896
  H  H32  1  0.777600  0.542400  0.353000  1.0  0.0988
  H  H33  1  0.508500  0.575000  0.561400  1.0  0.0981
  H  H34  1  0.449600  0.718700  0.601600  1.0  0.1046
  H  H35  1  0.761500  0.698900  0.700600  1.0  0.1077
  H  H36  1  0.831300  0.561800  0.656800  1.0  0.0979
  H  H37  1  0.744700  0.878000  0.700900  1.0  0.1188
  H  H38  1  0.584600  0.999600  0.739300  1.0  0.0937
  H  H39  1  0.337600  0.802800  0.680000  1.0  0.0728
  H  H40  1  0.966400  0.387500  0.582900  1.0  0.088
  H  H41  1  0.031100  0.270400  0.626800  1.0  0.1206
  H  H42  1  0.639000  0.283700  0.689000  1.0  0.0947
  H  H43  1  0.570500  0.395800  0.642100  1.0  0.1156
  H  H44  1  0.688300  0.133700  0.705400  1.0  0.115
  H  H45  1  0.842800  0.032400  0.745200  1.0  0.1047
  H  H46  1  0.097200  0.204000  0.692500  1.0  0.0799
  H  H47  1  0.239800  0.408900  0.481400  1.0  0.1084
  H  H48  1  0.209200  0.430400  0.566600  1.0  0.1096
  H  H49  1  0.183700  0.698300  0.566000  1.0  0.1037
  H  H50  1  0.237500  0.678300  0.483100  1.0  0.1095
  H  H51  1  0.086800  0.709400  0.645000  1.0  0.1171
  H  H52  1  0.075800  0.676900  0.729500  1.0  0.0903
  H  H53  1  0.222400  0.457600  0.647000  1.0  0.0977
  H  H54  1  0.491500  0.425000  0.438600  1.0  0.098
  H  H55  1  0.550400  0.281300  0.398400  1.0  0.1046
  H  H56  1  0.238500  0.301100  0.299400  1.0  0.1074
  H  H57  1  0.168700  0.438200  0.343200  1.0  0.0976
  H  H58  1  0.255300  0.122000  0.299100  1.0  0.1186
  H  H59  1  0.415400  0.000400  0.260700  1.0  0.095
  H  H60  1  0.662400  0.197200  0.320000  1.0  0.0752
  H  H61  1  0.033600  0.612500  0.417100  1.0  0.0881
  H  H62  1  0.968900  0.729600  0.373200  1.0  0.1202
  H  H63  1  0.361000  0.716300  0.311000  1.0  0.0963
  H  H64  1  0.429500  0.604200  0.357900  1.0  0.1166
  H  H65  1  0.311700  0.866300  0.294600  1.0  0.1155
  H  H66  1  0.157200  0.967600  0.254800  1.0  0.1061
  H  H67  1  0.902800  0.796000  0.307500  1.0  0.0722
  H  H68  1  0.760200  0.908900  0.981400  1.0  0.1087
  H  H69  1  0.790800  0.930400  0.066600  1.0  0.1099
  H  H70  1  0.816300  0.198300  0.066000  1.0  0.1032
  H  H71  1  0.762500  0.178300  0.983100  1.0  0.1096
  H  H72  1  0.913200  0.209400  0.145000  1.0  0.1171
  H  H73  1  0.924200  0.176900  0.229500  1.0  0.0903
  H  H74  1  0.777600  0.957600  0.147000  1.0  0.0979
  H  H75  1  0.508500  0.925000  0.938600  1.0  0.098
  H  H76  1  0.449600  0.781300  0.898400  1.0  0.1042
  H  H77  1  0.761500  0.801100  0.799400  1.0  0.1072
  H  H78  1  0.831300  0.938200  0.843200  1.0  0.0977
  H  H79  1  0.744700  0.622000  0.799100  1.0  0.118
  H  H80  1  0.584600  0.500400  0.760700  1.0  0.095
  H  H81  1  0.337600  0.697200  0.820000  1.0  0.0739
  H  H82  1  0.966400  0.112500  0.917100  1.0  0.0882
  H  H83  1  0.031100  0.229600  0.873200  1.0  0.1204
  H  H84  1  0.639000  0.216300  0.811000  1.0  0.095
  H  H85  1  0.570500  0.104200  0.857900  1.0  0.1153
  H  H86  1  0.688300  0.366300  0.794600  1.0  0.1159
  H  H87  1  0.842800  0.467600  0.754800  1.0  0.1061
  H  H88  1  0.097200  0.296000  0.807500  1.0  0.0761
  C  C89  1  0.249100  0.958800  0.027400  1.0  0.1516
  C  C90  1  0.233900  0.032600  0.001500  1.0  -0.1793
  C  C91  1  0.209800  0.019900  0.950500  1.0  -0.1661
  C  C92  1  0.187100  0.934000  0.925110  1.0  0.0748
  C  C93  1  0.197800  0.859900  0.950800  1.0  -0.1446
  C  C94  1  0.229200  0.872100  0.000600  1.0  -0.1787
  C  C95  1  0.112500  0.844900  0.844300  1.0  -0.1362
  C  C96  1  0.107700  0.863000  0.797700  1.0  0.0027
  C  C97  1  0.188100  0.984000  0.842780  1.0  0.0835
  C  C98  1  0.322700  0.054700  0.104500  1.0  0.1501
  C  C99  1  0.438200  0.100700  0.088800  1.0  -0.1738
  C  C100  1  0.476100  0.186000  0.113700  1.0  -0.1577
  C  C101  1  0.403700  0.221400  0.155900  1.0  0.0972
  C  C102  1  0.288500  0.174800  0.172200  1.0  -0.1565
  C  C103  1  0.247600  0.092300  0.146100  1.0  -0.1567
  C  C104  1  0.355700  0.377100  0.201600  1.0  -0.1603
  C  C105  1  0.446100  0.444200  0.222400  1.0  0.0209
  C  C106  1  0.581200  0.336900  0.190400  1.0  0.1235
  C  C107  1  0.235400  0.901300  0.107200  1.0  0.1386
  C  C108  1  0.100700  0.865400  0.103600  1.0  -0.1585
  C  C109  1  0.060500  0.795900  0.130100  1.0  -0.178
  C  C110  1  0.161400  0.766300  0.161520  1.0  0.1026
  C  C111  1  0.296100  0.803600  0.166800  1.0  -0.1491
  C  C112  1  0.337100  0.871300  0.139300  1.0  -0.1781
  C  C113  1  0.211600  0.635600  0.207400  1.0  -0.1496
  C  C114  1  0.124700  0.579900  0.229400  1.0  0.0125
  C  C115  1  0.984900  0.673400  0.200600  1.0  0.0952
  C  C116  1  0.750900  0.458800  0.527400  1.0  0.1512
  C  C117  1  0.766100  0.532600  0.501500  1.0  -0.1797
  C  C118  1  0.790200  0.519900  0.450500  1.0  -0.1667
  C  C119  1  0.812900  0.434000  0.425110  1.0  0.0756
  C  C120  1  0.802200  0.359900  0.450800  1.0  -0.1444
  C  C121  1  0.770800  0.372100  0.500600  1.0  -0.1781
  C  C122  1  0.887500  0.344900  0.344300  1.0  -0.1361
  C  C123  1  0.892300  0.363000  0.297700  1.0  0.003
  C  C124  1  0.811900  0.484000  0.342780  1.0  0.084
  C  C125  1  0.677300  0.554700  0.604500  1.0  0.1497
  C  C126  1  0.561800  0.600700  0.588800  1.0  -0.173
  C  C127  1  0.523900  0.686000  0.613700  1.0  -0.1582
  C  C128  1  0.596300  0.721400  0.655900  1.0  0.0979
  C  C129  1  0.711500  0.674800  0.672200  1.0  -0.1561
  C  C130  1  0.752400  0.592300  0.646100  1.0  -0.1577
  C  C131  1  0.644300  0.877100  0.701600  1.0  -0.1613
  C  C132  1  0.553900  0.944200  0.722400  1.0  0.0211
  C  C133  1  0.418800  0.836900  0.690400  1.0  0.1217
  C  C134  1  0.764600  0.401300  0.607200  1.0  0.1371
  C  C135  1  0.899300  0.365400  0.603600  1.0  -0.1583
  C  C136  1  0.939500  0.295900  0.630100  1.0  -0.1769
  C  C137  1  0.838600  0.266300  0.661520  1.0  0.1031
  C  C138  1  0.703900  0.303600  0.666800  1.0  -0.1486
  C  C139  1  0.662900  0.371300  0.639300  1.0  -0.1754
  C  C140  1  0.788400  0.135600  0.707400  1.0  -0.1505
  C  C141  1  0.875300  0.079900  0.729400  1.0  0.0133
  C  C142  1  0.015100  0.173400  0.700600  1.0  0.0956
  C  C143  1  0.249100  0.541200  0.472600  1.0  0.1513
  C  C144  1  0.233900  0.467400  0.498500  1.0  -0.1779
  C  C145  1  0.209800  0.480100  0.549500  1.0  -0.1648
  C  C146  1  0.187100  0.566000  0.574890  1.0  0.0756
  C  C147  1  0.197800  0.640100  0.549200  1.0  -0.1482
  C  C148  1  0.229200  0.627900  0.499400  1.0  -0.1789
  C  C149  1  0.112500  0.655100  0.655700  1.0  -0.1371
  C  C150  1  0.107700  0.637000  0.702300  1.0  0.0022
  C  C151  1  0.188100  0.516000  0.657220  1.0  0.0875
  C  C152  1  0.322700  0.445300  0.395500  1.0  0.1499
  C  C153  1  0.438200  0.399300  0.411200  1.0  -0.1728
  C  C154  1  0.476100  0.314000  0.386300  1.0  -0.1592
  C  C155  1  0.403700  0.278600  0.344100  1.0  0.0978
  C  C156  1  0.288500  0.325200  0.327800  1.0  -0.1567
  C  C157  1  0.247600  0.407700  0.353900  1.0  -0.1561
  C  C158  1  0.355700  0.122900  0.298400  1.0  -0.16
  C  C159  1  0.446100  0.055800  0.277600  1.0  0.0214
  C  C160  1  0.581200  0.163100  0.309600  1.0  0.1173
  C  C161  1  0.235400  0.598700  0.392800  1.0  0.1383
  C  C162  1  0.100700  0.634600  0.396400  1.0  -0.1592
  C  C163  1  0.060500  0.704100  0.369900  1.0  -0.1753
  C  C164  1  0.161400  0.733700  0.338480  1.0  0.1019
  C  C165  1  0.296100  0.696400  0.333200  1.0  -0.1501
  C  C166  1  0.337100  0.628700  0.360700  1.0  -0.1776
  C  C167  1  0.211600  0.864400  0.292600  1.0  -0.1479
  C  C168  1  0.124700  0.920100  0.270600  1.0  0.0123
  C  C169  1  0.984900  0.826600  0.299400  1.0  0.0964
  C  C170  1  0.750900  0.041200  0.972600  1.0  0.1509
  C  C171  1  0.766100  0.967400  0.998500  1.0  -0.1779
  C  C172  1  0.790200  0.980100  0.049500  1.0  -0.1652
  C  C173  1  0.812900  0.066000  0.074890  1.0  0.0763
  C  C174  1  0.802200  0.140100  0.049200  1.0  -0.1473
  C  C175  1  0.770800  0.127900  0.999400  1.0  -0.1785
  C  C176  1  0.887500  0.155100  0.155700  1.0  -0.1366
  C  C177  1  0.892300  0.137000  0.202300  1.0  0.0027
  C  C178  1  0.811900  0.016000  0.157220  1.0  0.0881
  C  C179  1  0.677300  0.945300  0.895500  1.0  0.1496
  C  C180  1  0.561800  0.899300  0.911200  1.0  -0.1719
  C  C181  1  0.523900  0.814000  0.886300  1.0  -0.1589
  C  C182  1  0.596300  0.778600  0.844100  1.0  0.0986
  C  C183  1  0.711500  0.825200  0.827800  1.0  -0.1565
  C  C184  1  0.752400  0.907700  0.853900  1.0  -0.1572
  C  C185  1  0.644300  0.622900  0.798400  1.0  -0.16
  C  C186  1  0.553900  0.555800  0.777600  1.0  0.0212
  C  C187  1  0.418800  0.663100  0.809600  1.0  0.1157
  C  C188  1  0.764600  0.098700  0.892800  1.0  0.1369
  C  C189  1  0.899300  0.134600  0.896400  1.0  -0.1591
  C  C190  1  0.939500  0.204100  0.869900  1.0  -0.1749
  C  C191  1  0.838600  0.233700  0.838480  1.0  0.1025
  C  C192  1  0.703900  0.196400  0.833200  1.0  -0.1503
  C  C193  1  0.662900  0.128700  0.860700  1.0  -0.1757
  C  C194  1  0.788400  0.364400  0.792600  1.0  -0.1498
  C  C195  1  0.875300  0.420100  0.770600  1.0  0.0124
  C  C196  1  0.015100  0.326600  0.799400  1.0  0.0965
  N  N197  1  0.585400  0.419900  0.215500  1.0  -0.3032
  N  N198  1  0.444800  0.308200  0.182110  1.0  0.0609
  N  N199  1  0.278000  0.970600  0.078240  1.0  -0.1546
  N  N200  1  0.162600  0.921500  0.873520  1.0  0.0527
  N  N201  1  0.157300  0.950200  0.796210  1.0  -0.2612
  N  N202  1  0.121600  0.694800  0.188940  1.0  0.0492
  N  N203  1  0.984100  0.602900  0.225340  1.0  -0.3358
  N  N204  1  0.414600  0.919900  0.715500  1.0  -0.3031
  N  N205  1  0.555200  0.808200  0.682110  1.0  0.0612
  N  N206  1  0.722000  0.470600  0.578240  1.0  -0.155
  N  N207  1  0.837400  0.421500  0.373520  1.0  0.0523
  N  N208  1  0.842700  0.450200  0.296210  1.0  -0.2604
  N  N209  1  0.878400  0.194800  0.688940  1.0  0.0492
  N  N210  1  0.015900  0.102900  0.725340  1.0  -0.3276
  N  N211  1  0.585400  0.080100  0.284500  1.0  -0.3017
  N  N212  1  0.444800  0.191800  0.317890  1.0  0.061
  N  N213  1  0.278000  0.529400  0.421760  1.0  -0.1549
  N  N214  1  0.162600  0.578500  0.626480  1.0  0.0529
  N  N215  1  0.157300  0.549800  0.703790  1.0  -0.2626
  N  N216  1  0.121600  0.805200  0.311060  1.0  0.0473
  N  N217  1  0.984100  0.897100  0.274660  1.0  -0.3293
  N  N218  1  0.414600  0.580100  0.784500  1.0  -0.3037
  N  N219  1  0.555200  0.691800  0.817890  1.0  0.0612
  N  N220  1  0.722000  0.029400  0.921760  1.0  -0.1548
  N  N221  1  0.837400  0.078500  0.126480  1.0  0.0526
  N  N222  1  0.842700  0.049800  0.203790  1.0  -0.2633
  N  N223  1  0.878400  0.305200  0.811060  1.0  0.049
  N  N224  1  0.015900  0.397100  0.774660  1.0  -0.3254
