# generated using pymatgen
data_NiH23C31N7O2
_symmetry_space_group_name_H-M   'P 1'
_cell_length_a   22.46600000
_cell_length_b   22.46600000
_cell_length_c   13.38700000
_cell_angle_alpha   90.00000000
_cell_angle_beta   90.00000000
_cell_angle_gamma   90.00000000
_symmetry_Int_Tables_number   1
_chemical_formula_structural   NiH23C31N7O2
_chemical_formula_sum   'Ni8 H184 C248 N56 O16'
_cell_volume   6756.70211537
_cell_formula_units_Z   8
loop_
 _symmetry_equiv_pos_site_id
 _symmetry_equiv_pos_as_xyz
  1  'x, y, z'
loop_
 _atom_site_type_symbol
 _atom_site_label
 _atom_site_symmetry_multiplicity
 _atom_site_fract_x
 _atom_site_fract_y
 _atom_site_fract_z
 _atom_site_occupancy
 _atom_site_charge
  Ni  Ni1  1  0.182730  0.065800  0.724060  1.0  0.7679
  Ni  Ni2  1  0.317270  0.434200  0.724060  1.0  0.7622
  Ni  Ni3  1  0.817270  0.934200  0.275940  1.0  0.7627
  Ni  Ni4  1  0.682730  0.565800  0.275940  1.0  0.7679
  Ni  Ni5  1  0.434200  0.182730  0.724060  1.0  0.7715
  Ni  Ni6  1  0.065800  0.317270  0.724060  1.0  0.7668
  Ni  Ni7  1  0.565800  0.817270  0.275940  1.0  0.7671
  Ni  Ni8  1  0.934200  0.682730  0.275940  1.0  0.7715
  H  H9  1  0.075400  0.451400  0.219000  1.0  0.103
  H  H10  1  0.146900  0.492600  0.322700  1.0  0.1113
  H  H11  1  0.184300  0.330300  0.428700  1.0  0.1094
  H  H12  1  0.111400  0.290300  0.329500  1.0  0.0918
  H  H13  1  0.217000  0.381300  0.569100  1.0  0.0897
  H  H14  1  0.304400  0.529900  0.540600  1.0  0.0982
  H  H15  1  0.242000  0.519400  0.392200  1.0  0.1292
  H  H16  1  0.979000  0.400900  0.337100  1.0  0.1061
  H  H17  1  0.887400  0.446500  0.322900  1.0  0.0955
  H  H18  1  0.876300  0.394700  0.037100  1.0  0.1113
  H  H19  1  0.970200  0.353100  0.050100  1.0  0.0859
  H  H20  1  0.765600  0.392300  0.087800  1.0  0.1199
  H  H21  1  0.682000  0.457500  0.123200  1.0  0.0994
  H  H22  1  0.821000  0.527500  0.252400  1.0  0.0933
  H  H23  1  0.970900  0.251100  0.162800  1.0  0.1105
  H  H24  1  0.990800  0.167800  0.065400  1.0  0.1059
  H  H25  1  0.156900  0.226000  0.023900  1.0  0.1073
  H  H26  1  0.136000  0.310500  0.116000  1.0  0.0876
  H  H27  1  0.155400  0.169900  0.883400  1.0  0.0914
  H  H28  1  0.028900  0.073800  0.008800  1.0  0.1271
  H  H29  1  0.077200  0.015100  0.876100  1.0  0.1049
  H  H30  1  0.062000  0.931000  0.576100  1.0  0.1005
  H  H31  1  0.012600  0.100600  0.530600  1.0  0.0897
  H  H32  1  0.424600  0.048600  0.219000  1.0  0.1027
  H  H33  1  0.353100  0.007400  0.322700  1.0  0.1112
  H  H34  1  0.315700  0.169700  0.428700  1.0  0.1093
  H  H35  1  0.388600  0.209700  0.329500  1.0  0.0923
  H  H36  1  0.283000  0.118700  0.569100  1.0  0.0897
  H  H37  1  0.195600  0.970100  0.540600  1.0  0.0981
  H  H38  1  0.258000  0.980600  0.392200  1.0  0.1284
  H  H39  1  0.521000  0.099100  0.337100  1.0  0.1054
  H  H40  1  0.612600  0.053500  0.322900  1.0  0.0954
  H  H41  1  0.623700  0.105300  0.037100  1.0  0.1113
  H  H42  1  0.529800  0.146900  0.050100  1.0  0.0865
  H  H43  1  0.734400  0.107700  0.087800  1.0  0.1198
  H  H44  1  0.818000  0.042500  0.123200  1.0  0.0993
  H  H45  1  0.679000  0.972500  0.252400  1.0  0.0932
  H  H46  1  0.529100  0.248900  0.162800  1.0  0.1099
  H  H47  1  0.509200  0.332200  0.065400  1.0  0.1061
  H  H48  1  0.343100  0.274000  0.023900  1.0  0.1069
  H  H49  1  0.364000  0.189500  0.116000  1.0  0.088
  H  H50  1  0.344600  0.330100  0.883400  1.0  0.0914
  H  H51  1  0.471100  0.426200  0.008800  1.0  0.1271
  H  H52  1  0.422800  0.484900  0.876100  1.0  0.1051
  H  H53  1  0.438000  0.569000  0.576100  1.0  0.1002
  H  H54  1  0.487400  0.399400  0.530600  1.0  0.09
  H  H55  1  0.924600  0.548600  0.781000  1.0  0.1031
  H  H56  1  0.853100  0.507400  0.677300  1.0  0.1112
  H  H57  1  0.815700  0.669700  0.571300  1.0  0.1091
  H  H58  1  0.888600  0.709700  0.670500  1.0  0.0924
  H  H59  1  0.783000  0.618700  0.430900  1.0  0.09
  H  H60  1  0.695600  0.470100  0.459400  1.0  0.0983
  H  H61  1  0.758000  0.480600  0.607800  1.0  0.1285
  H  H62  1  0.021000  0.599100  0.662900  1.0  0.1059
  H  H63  1  0.112600  0.553500  0.677100  1.0  0.0953
  H  H64  1  0.123700  0.605300  0.962900  1.0  0.1108
  H  H65  1  0.029800  0.646900  0.949900  1.0  0.0858
  H  H66  1  0.234400  0.607700  0.912200  1.0  0.1197
  H  H67  1  0.318000  0.542500  0.876800  1.0  0.0995
  H  H68  1  0.179000  0.472500  0.747600  1.0  0.0928
  H  H69  1  0.029100  0.748900  0.837200  1.0  0.1101
  H  H70  1  0.009200  0.832200  0.934600  1.0  0.1067
  H  H71  1  0.843100  0.774000  0.976100  1.0  0.1065
  H  H72  1  0.864000  0.689500  0.884000  1.0  0.0879
  H  H73  1  0.844600  0.830100  0.116600  1.0  0.0925
  H  H74  1  0.971100  0.926200  0.991200  1.0  0.1273
  H  H75  1  0.922800  0.984900  0.123900  1.0  0.1052
  H  H76  1  0.938000  0.069000  0.423900  1.0  0.0997
  H  H77  1  0.987400  0.899400  0.469400  1.0  0.0898
  H  H78  1  0.575400  0.951400  0.781000  1.0  0.1026
  H  H79  1  0.646900  0.992600  0.677300  1.0  0.1108
  H  H80  1  0.684300  0.830300  0.571300  1.0  0.1091
  H  H81  1  0.611400  0.790300  0.670500  1.0  0.0919
  H  H82  1  0.717000  0.881300  0.430900  1.0  0.0897
  H  H83  1  0.804400  0.029900  0.459400  1.0  0.0985
  H  H84  1  0.742000  0.019400  0.607800  1.0  0.1285
  H  H85  1  0.479000  0.900900  0.662900  1.0  0.1064
  H  H86  1  0.387400  0.946500  0.677100  1.0  0.0953
  H  H87  1  0.376300  0.894700  0.962900  1.0  0.1114
  H  H88  1  0.470200  0.853100  0.949900  1.0  0.0856
  H  H89  1  0.265600  0.892300  0.912200  1.0  0.12
  H  H90  1  0.182000  0.957500  0.876800  1.0  0.0991
  H  H91  1  0.321000  0.027500  0.747600  1.0  0.0933
  H  H92  1  0.470900  0.751100  0.837200  1.0  0.1104
  H  H93  1  0.490800  0.667800  0.934600  1.0  0.106
  H  H94  1  0.656900  0.726000  0.976100  1.0  0.1065
  H  H95  1  0.636000  0.810500  0.884000  1.0  0.0878
  H  H96  1  0.655400  0.669900  0.116600  1.0  0.0917
  H  H97  1  0.528900  0.573800  0.991200  1.0  0.1269
  H  H98  1  0.577200  0.515100  0.123900  1.0  0.1053
  H  H99  1  0.562000  0.431000  0.423900  1.0  0.1001
  H  H100  1  0.512600  0.600600  0.469400  1.0  0.0898
  H  H101  1  0.048600  0.075400  0.219000  1.0  0.1029
  H  H102  1  0.007400  0.146900  0.322700  1.0  0.111
  H  H103  1  0.169700  0.184300  0.428700  1.0  0.1096
  H  H104  1  0.209700  0.111400  0.329500  1.0  0.0926
  H  H105  1  0.118700  0.217000  0.569100  1.0  0.0891
  H  H106  1  0.970100  0.304400  0.540600  1.0  0.0965
  H  H107  1  0.980600  0.242000  0.392200  1.0  0.1277
  H  H108  1  0.099100  0.979000  0.337100  1.0  0.1052
  H  H109  1  0.053500  0.887400  0.322900  1.0  0.0959
  H  H110  1  0.105300  0.876300  0.037100  1.0  0.1104
  H  H111  1  0.146900  0.970200  0.050100  1.0  0.0848
  H  H112  1  0.107700  0.765600  0.087800  1.0  0.1201
  H  H113  1  0.042500  0.682000  0.123200  1.0  0.0988
  H  H114  1  0.972500  0.821000  0.252400  1.0  0.0934
  H  H115  1  0.248900  0.970900  0.162800  1.0  0.1087
  H  H116  1  0.332200  0.990800  0.065400  1.0  0.1047
  H  H117  1  0.274000  0.156900  0.023900  1.0  0.1064
  H  H118  1  0.189500  0.136000  0.116000  1.0  0.0881
  H  H119  1  0.330100  0.155400  0.883400  1.0  0.0918
  H  H120  1  0.426200  0.028900  0.008800  1.0  0.1276
  H  H121  1  0.484900  0.077200  0.876100  1.0  0.1054
  H  H122  1  0.569000  0.062000  0.576100  1.0  0.1002
  H  H123  1  0.399400  0.012600  0.530600  1.0  0.0909
  H  H124  1  0.451400  0.424600  0.219000  1.0  0.1038
  H  H125  1  0.492600  0.353100  0.322700  1.0  0.1115
  H  H126  1  0.330300  0.315700  0.428700  1.0  0.1094
  H  H127  1  0.290300  0.388600  0.329500  1.0  0.0929
  H  H128  1  0.381300  0.283000  0.569100  1.0  0.089
  H  H129  1  0.529900  0.195600  0.540600  1.0  0.0968
  H  H130  1  0.519400  0.258000  0.392200  1.0  0.1275
  H  H131  1  0.400900  0.521000  0.337100  1.0  0.1053
  H  H132  1  0.446500  0.612600  0.322900  1.0  0.0956
  H  H133  1  0.394700  0.623700  0.037100  1.0  0.1102
  H  H134  1  0.353100  0.529800  0.050100  1.0  0.0843
  H  H135  1  0.392300  0.734400  0.087800  1.0  0.1195
  H  H136  1  0.457500  0.818000  0.123200  1.0  0.0995
  H  H137  1  0.527500  0.679000  0.252400  1.0  0.0933
  H  H138  1  0.251100  0.529100  0.162800  1.0  0.1079
  H  H139  1  0.167800  0.509200  0.065400  1.0  0.1052
  H  H140  1  0.226000  0.343100  0.023900  1.0  0.1056
  H  H141  1  0.310500  0.364000  0.116000  1.0  0.0884
  H  H142  1  0.169900  0.344600  0.883400  1.0  0.0915
  H  H143  1  0.073800  0.471100  0.008800  1.0  0.1276
  H  H144  1  0.015100  0.422800  0.876100  1.0  0.1055
  H  H145  1  0.931000  0.438000  0.576100  1.0  0.1
  H  H146  1  0.100600  0.487400  0.530600  1.0  0.0905
  H  H147  1  0.951400  0.924600  0.781000  1.0  0.1034
  H  H148  1  0.992600  0.853100  0.677300  1.0  0.1114
  H  H149  1  0.830300  0.815700  0.571300  1.0  0.109
  H  H150  1  0.790300  0.888600  0.670500  1.0  0.0929
  H  H151  1  0.881300  0.783000  0.430900  1.0  0.0893
  H  H152  1  0.029900  0.695600  0.459400  1.0  0.0972
  H  H153  1  0.019400  0.758000  0.607800  1.0  0.1273
  H  H154  1  0.900900  0.021000  0.662900  1.0  0.1058
  H  H155  1  0.946500  0.112600  0.677100  1.0  0.0957
  H  H156  1  0.894700  0.123700  0.962900  1.0  0.1104
  H  H157  1  0.853100  0.029800  0.949900  1.0  0.0843
  H  H158  1  0.892300  0.234400  0.912200  1.0  0.119
  H  H159  1  0.957500  0.318000  0.876800  1.0  0.0994
  H  H160  1  0.027500  0.179000  0.747600  1.0  0.0929
  H  H161  1  0.751100  0.029100  0.837200  1.0  0.108
  H  H162  1  0.667800  0.009200  0.934600  1.0  0.1057
  H  H163  1  0.726000  0.843100  0.976100  1.0  0.1052
  H  H164  1  0.810500  0.864000  0.884000  1.0  0.0885
  H  H165  1  0.669900  0.844600  0.116600  1.0  0.0923
  H  H166  1  0.573800  0.971100  0.991200  1.0  0.1282
  H  H167  1  0.515100  0.922800  0.123900  1.0  0.1055
  H  H168  1  0.431000  0.938000  0.423900  1.0  0.0994
  H  H169  1  0.600600  0.987400  0.469400  1.0  0.0905
  H  H170  1  0.548600  0.575400  0.781000  1.0  0.1033
  H  H171  1  0.507400  0.646900  0.677300  1.0  0.1104
  H  H172  1  0.669700  0.684300  0.571300  1.0  0.1096
  H  H173  1  0.709700  0.611400  0.670500  1.0  0.0929
  H  H174  1  0.618700  0.717000  0.430900  1.0  0.0898
  H  H175  1  0.470100  0.804400  0.459400  1.0  0.0968
  H  H176  1  0.480600  0.742000  0.607800  1.0  0.1275
  H  H177  1  0.599100  0.479000  0.662900  1.0  0.1052
  H  H178  1  0.553500  0.387400  0.677100  1.0  0.0963
  H  H179  1  0.605300  0.376300  0.962900  1.0  0.1098
  H  H180  1  0.646900  0.470200  0.949900  1.0  0.0846
  H  H181  1  0.607700  0.265600  0.912200  1.0  0.1201
  H  H182  1  0.542500  0.182000  0.876800  1.0  0.0989
  H  H183  1  0.472500  0.321000  0.747600  1.0  0.0931
  H  H184  1  0.748900  0.470900  0.837200  1.0  0.1085
  H  H185  1  0.832200  0.490800  0.934600  1.0  0.1051
  H  H186  1  0.774000  0.656900  0.976100  1.0  0.1059
  H  H187  1  0.689500  0.636000  0.884000  1.0  0.0882
  H  H188  1  0.830100  0.655400  0.116600  1.0  0.0924
  H  H189  1  0.926200  0.528900  0.991200  1.0  0.1273
  H  H190  1  0.984900  0.577200  0.123900  1.0  0.1057
  H  H191  1  0.069000  0.562000  0.423900  1.0  0.1001
  H  H192  1  0.899400  0.512600  0.469400  1.0  0.0908
  C  C193  1  0.084440  0.366970  0.265800  1.0  0.1536
  C  C194  1  0.096410  0.427150  0.262800  1.0  -0.1673
  C  C195  1  0.139380  0.451920  0.324500  1.0  -0.1859
  C  C196  1  0.170940  0.415350  0.388900  1.0  0.1537
  C  C197  1  0.161360  0.354970  0.388300  1.0  -0.1758
  C  C198  1  0.118230  0.331080  0.328400  1.0  -0.1312
  C  C199  1  0.231180  0.417190  0.543900  1.0  0.1499
  C  C200  1  0.278900  0.498270  0.527700  1.0  0.0182
  C  C201  1  0.244200  0.492920  0.445500  1.0  -0.1634
  C  C202  1  0.958660  0.399800  0.276600  1.0  -0.1802
  C  C203  1  0.903680  0.427000  0.268100  1.0  -0.1563
  C  C204  1  0.872850  0.425560  0.179200  1.0  0.133
  C  C205  1  0.897140  0.396700  0.097000  1.0  -0.2107
  C  C206  1  0.952900  0.370910  0.105700  1.0  -0.184
  C  C207  1  0.983370  0.371130  0.195800  1.0  0.1645
  C  C208  1  0.766540  0.427130  0.125400  1.0  -0.1454
  C  C209  1  0.720920  0.463530  0.144600  1.0  0.0117
  C  C210  1  0.796470  0.502150  0.215900  1.0  0.171
  C  C211  1  0.008240  0.246650  0.133700  1.0  -0.1503
  C  C212  1  0.020000  0.196520  0.075400  1.0  -0.1588
  C  C213  1  0.075540  0.190020  0.032800  1.0  0.1058
  C  C214  1  0.118930  0.231550  0.050100  1.0  -0.1645
  C  C215  1  0.106760  0.281790  0.106500  1.0  -0.1947
  C  C216  1  0.050720  0.289350  0.148900  1.0  0.1442
  C  C217  1  0.130070  0.138330  0.897800  1.0  0.148
  C  C218  1  0.060100  0.086110  0.968100  1.0  -0.1538
  C  C219  1  0.087110  0.053840  0.894000  1.0  0.0365
  C  C220  1  0.093120  0.039830  0.630700  1.0  0.6194
  C  C221  1  0.044760  0.019260  0.564500  1.0  -0.1454
  C  C222  1  0.037160  0.958740  0.545700  1.0  -0.0463
  C  C223  1  0.007520  0.060130  0.518400  1.0  -0.0922
  C  C224  1  0.415560  0.133030  0.265800  1.0  0.1538
  C  C225  1  0.403590  0.072850  0.262800  1.0  -0.1669
  C  C226  1  0.360620  0.048080  0.324500  1.0  -0.187
  C  C227  1  0.329060  0.084650  0.388900  1.0  0.1536
  C  C228  1  0.338640  0.145030  0.388300  1.0  -0.1764
  C  C229  1  0.381770  0.168920  0.328400  1.0  -0.1332
  C  C230  1  0.268820  0.082810  0.543900  1.0  0.1493
  C  C231  1  0.221100  0.001730  0.527700  1.0  0.0183
  C  C232  1  0.255800  0.007080  0.445500  1.0  -0.162
  C  C233  1  0.541340  0.100200  0.276600  1.0  -0.1799
  C  C234  1  0.596320  0.073000  0.268100  1.0  -0.1573
  C  C235  1  0.627150  0.074440  0.179200  1.0  0.1346
  C  C236  1  0.602860  0.103300  0.097000  1.0  -0.2106
  C  C237  1  0.547100  0.129090  0.105700  1.0  -0.1817
  C  C238  1  0.516630  0.128870  0.195800  1.0  0.1647
  C  C239  1  0.733460  0.072870  0.125400  1.0  -0.1457
  C  C240  1  0.779080  0.036470  0.144600  1.0  0.0113
  C  C241  1  0.703530  0.997850  0.215900  1.0  0.1716
  C  C242  1  0.491760  0.253350  0.133700  1.0  -0.149
  C  C243  1  0.480000  0.303480  0.075400  1.0  -0.1601
  C  C244  1  0.424460  0.309980  0.032800  1.0  0.106
  C  C245  1  0.381070  0.268450  0.050100  1.0  -0.1651
  C  C246  1  0.393240  0.218210  0.106500  1.0  -0.1946
  C  C247  1  0.449280  0.210650  0.148900  1.0  0.1443
  C  C248  1  0.369930  0.361670  0.897800  1.0  0.149
  C  C249  1  0.439900  0.413890  0.968100  1.0  -0.1548
  C  C250  1  0.412890  0.446160  0.894000  1.0  0.0366
  C  C251  1  0.406880  0.460170  0.630700  1.0  0.6171
  C  C252  1  0.455240  0.480740  0.564500  1.0  -0.1457
  C  C253  1  0.462840  0.541260  0.545700  1.0  -0.0453
  C  C254  1  0.492480  0.439870  0.518400  1.0  -0.0922
  C  C255  1  0.915560  0.633030  0.734200  1.0  0.154
  C  C256  1  0.903590  0.572850  0.737200  1.0  -0.1667
  C  C257  1  0.860620  0.548080  0.675500  1.0  -0.1864
  C  C258  1  0.829060  0.584650  0.611100  1.0  0.1532
  C  C259  1  0.838640  0.645030  0.611700  1.0  -0.1765
  C  C260  1  0.881770  0.668920  0.671600  1.0  -0.1333
  C  C261  1  0.768820  0.582810  0.456100  1.0  0.1495
  C  C262  1  0.721100  0.501730  0.472300  1.0  0.0187
  C  C263  1  0.755800  0.507080  0.554500  1.0  -0.1617
  C  C264  1  0.041340  0.600200  0.723400  1.0  -0.1777
  C  C265  1  0.096320  0.573000  0.731900  1.0  -0.1574
  C  C266  1  0.127150  0.574440  0.820800  1.0  0.1346
  C  C267  1  0.102860  0.603300  0.903000  1.0  -0.2105
  C  C268  1  0.047100  0.629090  0.894300  1.0  -0.1805
  C  C269  1  0.016630  0.628870  0.804200  1.0  0.1652
  C  C270  1  0.233460  0.572870  0.874600  1.0  -0.1453
  C  C271  1  0.279080  0.536470  0.855400  1.0  0.0113
  C  C272  1  0.203530  0.497850  0.784100  1.0  0.1712
  C  C273  1  0.991760  0.753350  0.866300  1.0  -0.1491
  C  C274  1  0.980000  0.803480  0.924600  1.0  -0.1596
  C  C275  1  0.924460  0.809980  0.967200  1.0  0.1056
  C  C276  1  0.881070  0.768450  0.949900  1.0  -0.1647
  C  C277  1  0.893240  0.718210  0.893500  1.0  -0.1947
  C  C278  1  0.949280  0.710650  0.851100  1.0  0.1442
  C  C279  1  0.869930  0.861670  0.102200  1.0  0.1488
  C  C280  1  0.939900  0.913890  0.031900  1.0  -0.1547
  C  C281  1  0.912890  0.946160  0.106000  1.0  0.038
  C  C282  1  0.906880  0.960170  0.369300  1.0  0.617
  C  C283  1  0.955240  0.980740  0.435500  1.0  -0.1461
  C  C284  1  0.962840  0.041260  0.454300  1.0  -0.0445
  C  C285  1  0.992480  0.939870  0.481600  1.0  -0.0919
  C  C286  1  0.584440  0.866970  0.734200  1.0  0.1537
  C  C287  1  0.596410  0.927150  0.737200  1.0  -0.1682
  C  C288  1  0.639380  0.951920  0.675500  1.0  -0.1858
  C  C289  1  0.670940  0.915350  0.611100  1.0  0.1531
  C  C290  1  0.661360  0.854970  0.611700  1.0  -0.1768
  C  C291  1  0.618230  0.831080  0.671600  1.0  -0.1314
  C  C292  1  0.731180  0.917190  0.456100  1.0  0.1497
  C  C293  1  0.778900  0.998270  0.472300  1.0  0.0184
  C  C294  1  0.744200  0.992920  0.554500  1.0  -0.1631
  C  C295  1  0.458660  0.899800  0.723400  1.0  -0.1782
  C  C296  1  0.403680  0.927000  0.731900  1.0  -0.1564
  C  C297  1  0.372850  0.925560  0.820800  1.0  0.1329
  C  C298  1  0.397140  0.896700  0.903000  1.0  -0.2112
  C  C299  1  0.452900  0.870910  0.894300  1.0  -0.1825
  C  C300  1  0.483370  0.871130  0.804200  1.0  0.1649
  C  C301  1  0.266540  0.927130  0.874600  1.0  -0.1453
  C  C302  1  0.220920  0.963530  0.855400  1.0  0.0115
  C  C303  1  0.296470  0.002150  0.784100  1.0  0.1704
  C  C304  1  0.508240  0.746650  0.866300  1.0  -0.1504
  C  C305  1  0.520000  0.696520  0.924600  1.0  -0.1589
  C  C306  1  0.575540  0.690020  0.967200  1.0  0.1056
  C  C307  1  0.618930  0.731550  0.949900  1.0  -0.1647
  C  C308  1  0.606760  0.781790  0.893500  1.0  -0.1947
  C  C309  1  0.550720  0.789350  0.851100  1.0  0.1441
  C  C310  1  0.630070  0.638330  0.102200  1.0  0.1488
  C  C311  1  0.560100  0.586110  0.031900  1.0  -0.1541
  C  C312  1  0.587110  0.553840  0.106000  1.0  0.038
  C  C313  1  0.593120  0.539830  0.369300  1.0  0.6189
  C  C314  1  0.544760  0.519260  0.435500  1.0  -0.1453
  C  C315  1  0.537160  0.458740  0.454300  1.0  -0.0455
  C  C316  1  0.507520  0.560130  0.481600  1.0  -0.0922
  C  C317  1  0.133030  0.084440  0.265800  1.0  0.1543
  C  C318  1  0.072850  0.096410  0.262800  1.0  -0.1667
  C  C319  1  0.048080  0.139380  0.324500  1.0  -0.1847
  C  C320  1  0.084650  0.170940  0.388900  1.0  0.154
  C  C321  1  0.145030  0.161360  0.388300  1.0  -0.1739
  C  C322  1  0.168920  0.118230  0.328400  1.0  -0.1339
  C  C323  1  0.082810  0.231180  0.543900  1.0  0.1495
  C  C324  1  0.001730  0.278900  0.527700  1.0  0.0183
  C  C325  1  0.007080  0.244200  0.445500  1.0  -0.1655
  C  C326  1  0.100200  0.958660  0.276600  1.0  -0.1794
  C  C327  1  0.073000  0.903680  0.268100  1.0  -0.1544
  C  C328  1  0.074440  0.872850  0.179200  1.0  0.1363
  C  C329  1  0.103300  0.897140  0.097000  1.0  -0.2102
  C  C330  1  0.129090  0.952900  0.105700  1.0  -0.1853
  C  C331  1  0.128870  0.983370  0.195800  1.0  0.1656
  C  C332  1  0.072870  0.766540  0.125400  1.0  -0.1454
  C  C333  1  0.036470  0.720920  0.144600  1.0  0.0086
  C  C334  1  0.997850  0.796470  0.215900  1.0  0.172
  C  C335  1  0.253350  0.008240  0.133700  1.0  -0.155
  C  C336  1  0.303480  0.020000  0.075400  1.0  -0.1616
  C  C337  1  0.309980  0.075540  0.032800  1.0  0.1056
  C  C338  1  0.268450  0.118930  0.050100  1.0  -0.1677
  C  C339  1  0.218210  0.106760  0.106500  1.0  -0.1948
  C  C340  1  0.210650  0.050720  0.148900  1.0  0.1441
  C  C341  1  0.361670  0.130070  0.897800  1.0  0.149
  C  C342  1  0.413890  0.060100  0.968100  1.0  -0.1546
  C  C343  1  0.446160  0.087110  0.894000  1.0  0.0386
  C  C344  1  0.460170  0.093120  0.630700  1.0  0.6204
  C  C345  1  0.480740  0.044760  0.564500  1.0  -0.1452
  C  C346  1  0.541260  0.037160  0.545700  1.0  -0.046
  C  C347  1  0.439870  0.007520  0.518400  1.0  -0.0926
  C  C348  1  0.366970  0.415560  0.265800  1.0  0.1541
  C  C349  1  0.427150  0.403590  0.262800  1.0  -0.1652
  C  C350  1  0.451920  0.360620  0.324500  1.0  -0.1844
  C  C351  1  0.415350  0.329060  0.388900  1.0  0.1541
  C  C352  1  0.354970  0.338640  0.388300  1.0  -0.1751
  C  C353  1  0.331080  0.381770  0.328400  1.0  -0.1334
  C  C354  1  0.417190  0.268820  0.543900  1.0  0.1482
  C  C355  1  0.498270  0.221100  0.527700  1.0  0.0193
  C  C356  1  0.492920  0.255800  0.445500  1.0  -0.163
  C  C357  1  0.399800  0.541340  0.276600  1.0  -0.1804
  C  C358  1  0.427000  0.596320  0.268100  1.0  -0.1559
  C  C359  1  0.425560  0.627150  0.179200  1.0  0.1356
  C  C360  1  0.396700  0.602860  0.097000  1.0  -0.2086
  C  C361  1  0.370910  0.547100  0.105700  1.0  -0.1854
  C  C362  1  0.371130  0.516630  0.195800  1.0  0.166
  C  C363  1  0.427130  0.733460  0.125400  1.0  -0.1478
  C  C364  1  0.463530  0.779080  0.144600  1.0  0.009
  C  C365  1  0.502150  0.703530  0.215900  1.0  0.1716
  C  C366  1  0.246650  0.491760  0.133700  1.0  -0.1552
  C  C367  1  0.196520  0.480000  0.075400  1.0  -0.1633
  C  C368  1  0.190020  0.424460  0.032800  1.0  0.1056
  C  C369  1  0.231550  0.381070  0.050100  1.0  -0.1667
  C  C370  1  0.281790  0.393240  0.106500  1.0  -0.1942
  C  C371  1  0.289350  0.449280  0.148900  1.0  0.1442
  C  C372  1  0.138330  0.369930  0.897800  1.0  0.1472
  C  C373  1  0.086110  0.439900  0.968100  1.0  -0.1554
  C  C374  1  0.053840  0.412890  0.894000  1.0  0.0386
  C  C375  1  0.039830  0.406880  0.630700  1.0  0.6211
  C  C376  1  0.019260  0.455240  0.564500  1.0  -0.1455
  C  C377  1  0.958740  0.462840  0.545700  1.0  -0.0449
  C  C378  1  0.060130  0.492480  0.518400  1.0  -0.0935
  C  C379  1  0.866970  0.915560  0.734200  1.0  0.1542
  C  C380  1  0.927150  0.903590  0.737200  1.0  -0.1658
  C  C381  1  0.951920  0.860620  0.675500  1.0  -0.1845
  C  C382  1  0.915350  0.829060  0.611100  1.0  0.1537
  C  C383  1  0.854970  0.838640  0.611700  1.0  -0.1755
  C  C384  1  0.831080  0.881770  0.671600  1.0  -0.1333
  C  C385  1  0.917190  0.768820  0.456100  1.0  0.1486
  C  C386  1  0.998270  0.721100  0.472300  1.0  0.0198
  C  C387  1  0.992920  0.755800  0.554500  1.0  -0.163
  C  C388  1  0.899800  0.041340  0.723400  1.0  -0.178
  C  C389  1  0.927000  0.096320  0.731900  1.0  -0.1562
  C  C390  1  0.925560  0.127150  0.820800  1.0  0.1353
  C  C391  1  0.896700  0.102860  0.903000  1.0  -0.2093
  C  C392  1  0.870910  0.047100  0.894300  1.0  -0.1845
  C  C393  1  0.871130  0.016630  0.804200  1.0  0.1665
  C  C394  1  0.927130  0.233460  0.874600  1.0  -0.1481
  C  C395  1  0.963530  0.279080  0.855400  1.0  0.0086
  C  C396  1  0.002150  0.203530  0.784100  1.0  0.1712
  C  C397  1  0.746650  0.991760  0.866300  1.0  -0.1556
  C  C398  1  0.696520  0.980000  0.924600  1.0  -0.1635
  C  C399  1  0.690020  0.924460  0.967200  1.0  0.1053
  C  C400  1  0.731550  0.881070  0.949900  1.0  -0.1665
  C  C401  1  0.781790  0.893240  0.893500  1.0  -0.1944
  C  C402  1  0.789350  0.949280  0.851100  1.0  0.1441
  C  C403  1  0.638330  0.869930  0.102200  1.0  0.148
  C  C404  1  0.586110  0.939900  0.031900  1.0  -0.1554
  C  C405  1  0.553840  0.912890  0.106000  1.0  0.0394
  C  C406  1  0.539830  0.906880  0.369300  1.0  0.6204
  C  C407  1  0.519260  0.955240  0.435500  1.0  -0.1466
  C  C408  1  0.458740  0.962840  0.454300  1.0  -0.0443
  C  C409  1  0.560130  0.992480  0.481600  1.0  -0.0936
  C  C410  1  0.633030  0.584440  0.734200  1.0  0.1544
  C  C411  1  0.572850  0.596410  0.737200  1.0  -0.1668
  C  C412  1  0.548080  0.639380  0.675500  1.0  -0.1842
  C  C413  1  0.584650  0.670940  0.611100  1.0  0.1536
  C  C414  1  0.645030  0.661360  0.611700  1.0  -0.1747
  C  C415  1  0.668920  0.618230  0.671600  1.0  -0.1337
  C  C416  1  0.582810  0.731180  0.456100  1.0  0.1492
  C  C417  1  0.501730  0.778900  0.472300  1.0  0.0185
  C  C418  1  0.507080  0.744200  0.554500  1.0  -0.1657
  C  C419  1  0.600200  0.458660  0.723400  1.0  -0.1779
  C  C420  1  0.573000  0.403680  0.731900  1.0  -0.1544
  C  C421  1  0.574440  0.372850  0.820800  1.0  0.1362
  C  C422  1  0.603300  0.397140  0.903000  1.0  -0.2097
  C  C423  1  0.629090  0.452900  0.894300  1.0  -0.1836
  C  C424  1  0.628870  0.483370  0.804200  1.0  0.166
  C  C425  1  0.572870  0.266540  0.874600  1.0  -0.145
  C  C426  1  0.536470  0.220920  0.855400  1.0  0.0086
  C  C427  1  0.497850  0.296470  0.784100  1.0  0.1713
  C  C428  1  0.753350  0.508240  0.866300  1.0  -0.1549
  C  C429  1  0.803480  0.520000  0.924600  1.0  -0.1619
  C  C430  1  0.809980  0.575540  0.967200  1.0  0.1054
  C  C431  1  0.768450  0.618930  0.949900  1.0  -0.1674
  C  C432  1  0.718210  0.606760  0.893500  1.0  -0.1948
  C  C433  1  0.710650  0.550720  0.851100  1.0  0.1441
  C  C434  1  0.861670  0.630070  0.102200  1.0  0.1486
  C  C435  1  0.913890  0.560100  0.031900  1.0  -0.155
  C  C436  1  0.946160  0.587110  0.106000  1.0  0.0396
  C  C437  1  0.960170  0.593120  0.369300  1.0  0.6201
  C  C438  1  0.980740  0.544760  0.435500  1.0  -0.1454
  C  C439  1  0.041260  0.537160  0.454300  1.0  -0.0453
  C  C440  1  0.939870  0.507520  0.481600  1.0  -0.0927
  N  N441  1  0.038970  0.341480  0.205000  1.0  -0.1695
  N  N442  1  0.213060  0.440930  0.456400  1.0  0.0392
  N  N443  1  0.270740  0.449920  0.589400  1.0  -0.3724
  N  N444  1  0.814980  0.451380  0.172000  1.0  0.0385
  N  N445  1  0.739850  0.511260  0.200800  1.0  -0.3825
  N  N446  1  0.088120  0.139770  0.969980  1.0  0.0381
  N  N447  1  0.130870  0.087220  0.850300  1.0  -0.3991
  N  N448  1  0.461030  0.158520  0.205000  1.0  -0.169
  N  N449  1  0.286940  0.059070  0.456400  1.0  0.0396
  N  N450  1  0.229260  0.050080  0.589400  1.0  -0.3729
  N  N451  1  0.685020  0.048620  0.172000  1.0  0.0373
  N  N452  1  0.760150  0.988740  0.200800  1.0  -0.3805
  N  N453  1  0.411880  0.360230  0.969980  1.0  0.0383
  N  N454  1  0.369130  0.412780  0.850300  1.0  -0.3988
  N  N455  1  0.961030  0.658520  0.795000  1.0  -0.169
  N  N456  1  0.786940  0.559070  0.543600  1.0  0.0399
  N  N457  1  0.729260  0.550080  0.410600  1.0  -0.374
  N  N458  1  0.185020  0.548620  0.828000  1.0  0.0378
  N  N459  1  0.260150  0.488740  0.799200  1.0  -0.3814
  N  N460  1  0.911880  0.860230  0.030020  1.0  0.0385
  N  N461  1  0.869130  0.912780  0.149700  1.0  -0.3984
  N  N462  1  0.538970  0.841480  0.795000  1.0  -0.1695
  N  N463  1  0.713060  0.940930  0.543600  1.0  0.0393
  N  N464  1  0.770740  0.949920  0.410600  1.0  -0.3747
  N  N465  1  0.314980  0.951380  0.828000  1.0  0.0385
  N  N466  1  0.239850  0.011260  0.799200  1.0  -0.3824
  N  N467  1  0.588120  0.639770  0.030020  1.0  0.0382
  N  N468  1  0.630870  0.587220  0.149700  1.0  -0.3963
  N  N469  1  0.158520  0.038970  0.205000  1.0  -0.1686
  N  N470  1  0.059070  0.213060  0.456400  1.0  0.0383
  N  N471  1  0.050080  0.270740  0.589400  1.0  -0.3728
  N  N472  1  0.048620  0.814980  0.172000  1.0  0.038
  N  N473  1  0.988740  0.739850  0.200800  1.0  -0.3824
  N  N474  1  0.360230  0.088120  0.969980  1.0  0.0381
  N  N475  1  0.412780  0.130870  0.850300  1.0  -0.3982
  N  N476  1  0.341480  0.461030  0.205000  1.0  -0.1687
  N  N477  1  0.440930  0.286940  0.456400  1.0  0.0383
  N  N478  1  0.449920  0.229260  0.589400  1.0  -0.3723
  N  N479  1  0.451380  0.685020  0.172000  1.0  0.0388
  N  N480  1  0.511260  0.760150  0.200800  1.0  -0.3827
  N  N481  1  0.139770  0.411880  0.969980  1.0  0.0379
  N  N482  1  0.087220  0.369130  0.850300  1.0  -0.3978
  N  N483  1  0.841480  0.961030  0.795000  1.0  -0.1687
  N  N484  1  0.940930  0.786940  0.543600  1.0  0.0385
  N  N485  1  0.949920  0.729260  0.410600  1.0  -0.3742
  N  N486  1  0.951380  0.185020  0.828000  1.0  0.0388
  N  N487  1  0.011260  0.260150  0.799200  1.0  -0.3829
  N  N488  1  0.639770  0.911880  0.030020  1.0  0.0379
  N  N489  1  0.587220  0.869130  0.149700  1.0  -0.3957
  N  N490  1  0.658520  0.538970  0.795000  1.0  -0.1686
  N  N491  1  0.559070  0.713060  0.543600  1.0  0.0385
  N  N492  1  0.550080  0.770740  0.410600  1.0  -0.3735
  N  N493  1  0.548620  0.314980  0.828000  1.0  0.0385
  N  N494  1  0.488740  0.239850  0.799200  1.0  -0.3828
  N  N495  1  0.860230  0.588120  0.030020  1.0  0.0384
  N  N496  1  0.912780  0.630870  0.149700  1.0  -0.3974
  O  O497  1  0.107320  0.093840  0.634100  1.0  -0.5653
  O  O498  1  0.121310  0.001580  0.682790  1.0  -0.5617
  O  O499  1  0.392680  0.406160  0.634100  1.0  -0.5657
  O  O500  1  0.378690  0.498420  0.682790  1.0  -0.5621
  O  O501  1  0.892680  0.906160  0.365900  1.0  -0.5657
  O  O502  1  0.878690  0.998420  0.317210  1.0  -0.5605
  O  O503  1  0.607320  0.593840  0.365900  1.0  -0.5649
  O  O504  1  0.621310  0.501580  0.317210  1.0  -0.5605
  O  O505  1  0.406160  0.107320  0.634100  1.0  -0.5666
  O  O506  1  0.498420  0.121310  0.682790  1.0  -0.5617
  O  O507  1  0.093840  0.392680  0.634100  1.0  -0.5653
  O  O508  1  0.001580  0.378690  0.682790  1.0  -0.5626
  O  O509  1  0.593840  0.892680  0.365900  1.0  -0.5653
  O  O510  1  0.501580  0.878690  0.317210  1.0  -0.5623
  O  O511  1  0.906160  0.607320  0.365900  1.0  -0.5663
  O  O512  1  0.998420  0.621310  0.317210  1.0  -0.5599
