# generated using pymatgen
data_U8Mn3P4H8(C2O7)4
_symmetry_space_group_name_H-M   'P 1'
_cell_length_a   22.86420000
_cell_length_b   22.86420000
_cell_length_c   22.86420000
_cell_angle_alpha   109.47100000
_cell_angle_beta   109.47100000
_cell_angle_gamma   109.47100000
_symmetry_Int_Tables_number   1
_chemical_formula_structural   U8Mn3P4H8(C2O7)4
_chemical_formula_sum   'U48 Mn18 P24 H48 C48 O168'
_cell_volume   9201.31053504
_cell_formula_units_Z   6
loop_
 _symmetry_equiv_pos_site_id
 _symmetry_equiv_pos_as_xyz
  1  'x, y, z'
loop_
 _atom_site_type_symbol
 _atom_site_label
 _atom_site_symmetry_multiplicity
 _atom_site_fract_x
 _atom_site_fract_y
 _atom_site_fract_z
 _atom_site_occupancy
 _atom_site_charge
  U  U1  1  0.333370  0.915500  0.725610  1.0  1.945
  U  U2  1  0.189880  0.607750  0.274380  1.0  1.945
  U  U3  1  0.810120  0.084510  0.417880  1.0  1.9488
  U  U4  1  0.666667  0.392240  0.582130  1.0  1.9464
  U  U5  1  0.417870  0.810110  0.084500  1.0  1.9444
  U  U6  1  0.582130  0.666667  0.392250  1.0  1.942
  U  U7  1  0.725610  0.333370  0.915490  1.0  1.9468
  U  U8  1  0.274390  0.189890  0.607760  1.0  1.9438
  U  U9  1  0.607760  0.274390  0.189890  1.0  1.9426
  U  U10  1  0.915500  0.725620  0.333370  1.0  1.9466
  U  U11  1  0.392240  0.582120  0.666667  1.0  1.9456
  U  U12  1  0.084500  0.417870  0.810110  1.0  1.9416
  U  U13  1  0.666667  0.084500  0.274390  1.0  1.9438
  U  U14  1  0.810120  0.392250  0.725620  1.0  1.9459
  U  U15  1  0.189880  0.915490  0.582120  1.0  1.9459
  U  U16  1  0.333370  0.607760  0.417870  1.0  1.9482
  U  U17  1  0.582130  0.189890  0.915500  1.0  1.9406
  U  U18  1  0.417870  0.333370  0.607750  1.0  1.9437
  U  U19  1  0.274390  0.666667  0.084510  1.0  1.947
  U  U20  1  0.725610  0.810110  0.392240  1.0  1.9456
  U  U21  1  0.392240  0.725610  0.810110  1.0  1.946
  U  U22  1  0.084500  0.274380  0.666667  1.0  1.9441
  U  U23  1  0.607760  0.417880  0.333370  1.0  1.9437
  U  U24  1  0.915500  0.582130  0.189890  1.0  1.944
  U  U25  1  0.651090  0.131780  0.782870  1.0  1.9141
  U  U26  1  0.348910  0.868220  0.217130  1.0  1.9075
  U  U27  1  0.651090  0.868230  0.519310  1.0  1.912
  U  U28  1  0.348910  0.131770  0.480690  1.0  1.9079
  U  U29  1  0.519310  0.651090  0.868220  1.0  1.903
  U  U30  1  0.480690  0.348910  0.131780  1.0  1.9114
  U  U31  1  0.782860  0.651080  0.131770  1.0  1.9023
  U  U32  1  0.217140  0.348920  0.868230  1.0  1.9097
  U  U33  1  0.868220  0.217130  0.348910  1.0  1.9066
  U  U34  1  0.131780  0.782870  0.651090  1.0  1.9065
  U  U35  1  0.131780  0.480690  0.348920  1.0  1.9027
  U  U36  1  0.868220  0.519310  0.651080  1.0  1.8998
  U  U37  1  0.567060  0.930610  0.636450  1.0  1.6922
  U  U38  1  0.294160  0.930610  0.363550  1.0  1.6934
  U  U39  1  0.705840  0.069390  0.636450  1.0  1.6912
  U  U40  1  0.432940  0.069390  0.363550  1.0  1.6915
  U  U41  1  0.636450  0.705840  0.069390  1.0  1.6964
  U  U42  1  0.363550  0.432940  0.069390  1.0  1.6938
  U  U43  1  0.636450  0.567060  0.930610  1.0  1.6885
  U  U44  1  0.363550  0.294160  0.930610  1.0  1.6872
  U  U45  1  0.930610  0.363550  0.294160  1.0  1.6996
  U  U46  1  0.930610  0.636450  0.567060  1.0  1.6874
  U  U47  1  0.069390  0.363550  0.432940  1.0  1.693
  U  U48  1  0.069390  0.636450  0.705840  1.0  1.6987
  Mn  Mn49  1  0.634240  0.000000  0.000000  1.0  0.8831
  Mn  Mn50  1  0.000000  0.634240  0.000000  1.0  0.8811
  Mn  Mn51  1  0.000000  0.000000  0.634240  1.0  0.8728
  Mn  Mn52  1  0.365760  0.365760  0.365760  1.0  0.883
  Mn  Mn53  1  0.365760  0.000000  0.000000  1.0  0.8738
  Mn  Mn54  1  0.000000  0.365760  0.000000  1.0  0.8706
  Mn  Mn55  1  0.000000  0.000000  0.365760  1.0  0.8708
  Mn  Mn56  1  0.634240  0.634240  0.634240  1.0  0.8842
  Mn  Mn57  1  0.500000  0.000000  0.000000  1.0  0.716
  Mn  Mn58  1  0.000000  0.500000  0.000000  1.0  0.7155
  Mn  Mn59  1  0.000000  0.000000  0.500000  1.0  0.7152
  Mn  Mn60  1  0.500000  0.500000  0.500000  1.0  0.716
  Mn  Mn61  1  0.500000  0.141800  0.641800  1.0  0.9865
  Mn  Mn62  1  0.500000  0.858200  0.358200  1.0  0.9865
  Mn  Mn63  1  0.358200  0.500000  0.858200  1.0  0.9864
  Mn  Mn64  1  0.641800  0.500000  0.141800  1.0  0.9866
  Mn  Mn65  1  0.858200  0.358200  0.500000  1.0  0.9863
  Mn  Mn66  1  0.141800  0.641800  0.500000  1.0  0.9867
  P  P67  1  0.519120  0.008120  0.775720  1.0  1.5839
  P  P68  1  0.232400  0.743400  0.224280  1.0  1.5804
  P  P69  1  0.767600  0.991880  0.511000  1.0  1.5777
  P  P70  1  0.480880  0.256600  0.489000  1.0  1.5848
  P  P71  1  0.511000  0.767600  0.991880  1.0  1.5841
  P  P72  1  0.489000  0.480880  0.256600  1.0  1.5838
  P  P73  1  0.775720  0.519120  0.008120  1.0  1.5818
  P  P74  1  0.224280  0.232400  0.743400  1.0  1.583
  P  P75  1  0.743400  0.224280  0.232400  1.0  1.5849
  P  P76  1  0.008120  0.775720  0.519120  1.0  1.5805
  P  P77  1  0.256600  0.489000  0.480880  1.0  1.5766
  P  P78  1  0.991880  0.511000  0.767600  1.0  1.5844
  P  P79  1  0.480880  0.991880  0.224280  1.0  1.5843
  P  P80  1  0.767600  0.256600  0.775720  1.0  1.5801
  P  P81  1  0.232400  0.008120  0.489000  1.0  1.5786
  P  P82  1  0.519120  0.743400  0.511000  1.0  1.5862
  P  P83  1  0.489000  0.232400  0.008120  1.0  1.583
  P  P84  1  0.511000  0.519120  0.743400  1.0  1.5846
  P  P85  1  0.224280  0.480880  0.991880  1.0  1.5849
  P  P86  1  0.775720  0.767600  0.256600  1.0  1.5841
  P  P87  1  0.256600  0.775720  0.767600  1.0  1.5863
  P  P88  1  0.991880  0.224280  0.480880  1.0  1.5796
  P  P89  1  0.743400  0.511000  0.519120  1.0  1.5778
  P  P90  1  0.008120  0.489000  0.232400  1.0  1.5836
  H  H91  1  0.496800  0.897000  0.763200  1.0  0.0841
  H  H92  1  0.571400  0.956700  0.831500  1.0  0.0668
  H  H93  1  0.133800  0.733600  0.236800  1.0  0.0847
  H  H94  1  0.125200  0.739900  0.168500  1.0  0.0699
  H  H95  1  0.866200  0.103000  0.599800  1.0  0.0828
  H  H96  1  0.874800  0.043300  0.614700  1.0  0.0725
  H  H97  1  0.503200  0.266400  0.400200  1.0  0.0838
  H  H98  1  0.428600  0.260100  0.385300  1.0  0.074
  H  H99  1  0.599800  0.866200  0.103000  1.0  0.0832
  H  H100  1  0.614700  0.874800  0.043300  1.0  0.0702
  H  H101  1  0.400200  0.503200  0.266400  1.0  0.082
  H  H102  1  0.385300  0.428600  0.260100  1.0  0.0711
  H  H103  1  0.763200  0.496800  0.897000  1.0  0.0835
  H  H104  1  0.831500  0.571400  0.956700  1.0  0.0707
  H  H105  1  0.236800  0.133800  0.733600  1.0  0.0833
  H  H106  1  0.168500  0.125200  0.739900  1.0  0.0706
  H  H107  1  0.733600  0.236800  0.133800  1.0  0.0851
  H  H108  1  0.739900  0.168500  0.125200  1.0  0.0704
  H  H109  1  0.897000  0.763200  0.496800  1.0  0.0835
  H  H110  1  0.956700  0.831500  0.571400  1.0  0.0728
  H  H111  1  0.266400  0.400200  0.503200  1.0  0.0845
  H  H112  1  0.260100  0.385300  0.428600  1.0  0.0735
  H  H113  1  0.103000  0.599800  0.866200  1.0  0.0834
  H  H114  1  0.043300  0.614700  0.874800  1.0  0.07
  H  H115  1  0.503200  0.103000  0.236800  1.0  0.083
  H  H116  1  0.428600  0.043300  0.168500  1.0  0.0646
  H  H117  1  0.866200  0.266400  0.763200  1.0  0.0844
  H  H118  1  0.874800  0.260100  0.831500  1.0  0.0706
  H  H119  1  0.133800  0.897000  0.400200  1.0  0.0855
  H  H120  1  0.125200  0.956700  0.385300  1.0  0.0709
  H  H121  1  0.496800  0.733600  0.599800  1.0  0.0833
  H  H122  1  0.571400  0.739900  0.614700  1.0  0.0744
  H  H123  1  0.400200  0.133800  0.897000  1.0  0.0825
  H  H124  1  0.385300  0.125200  0.956700  1.0  0.071
  H  H125  1  0.599800  0.496800  0.733600  1.0  0.0844
  H  H126  1  0.614700  0.571400  0.739900  1.0  0.0721
  H  H127  1  0.236800  0.503200  0.103000  1.0  0.085
  H  H128  1  0.168500  0.428600  0.043300  1.0  0.0705
  H  H129  1  0.763200  0.866200  0.266400  1.0  0.0811
  H  H130  1  0.831500  0.874800  0.260100  1.0  0.0697
  H  H131  1  0.266400  0.763200  0.866200  1.0  0.0855
  H  H132  1  0.260100  0.831500  0.874800  1.0  0.0688
  H  H133  1  0.103000  0.236800  0.503200  1.0  0.0853
  H  H134  1  0.043300  0.168500  0.428600  1.0  0.0715
  H  H135  1  0.733600  0.599800  0.496800  1.0  0.0838
  H  H136  1  0.739900  0.614700  0.571400  1.0  0.0743
  H  H137  1  0.897000  0.400200  0.133800  1.0  0.084
  H  H138  1  0.956700  0.385300  0.125200  1.0  0.0705
  C  C139  1  0.522000  0.944330  0.804690  1.0  -0.6216
  C  C140  1  0.487960  0.943370  0.851510  1.0  0.7389
  C  C141  1  0.139640  0.717310  0.195310  1.0  -0.6226
  C  C142  1  0.091860  0.636450  0.148490  1.0  0.731
  C  C143  1  0.860360  0.055670  0.577670  1.0  -0.6357
  C  C144  1  0.908140  0.056630  0.544590  1.0  0.7354
  C  C145  1  0.478000  0.282690  0.422330  1.0  -0.6362
  C  C146  1  0.512040  0.363550  0.455410  1.0  0.732
  C  C147  1  0.577670  0.860360  0.055670  1.0  -0.6227
  C  C148  1  0.544590  0.908140  0.056630  1.0  0.7323
  C  C149  1  0.422330  0.478000  0.282690  1.0  -0.6202
  C  C150  1  0.455410  0.512040  0.363550  1.0  0.7414
  C  C151  1  0.804690  0.522000  0.944330  1.0  -0.6317
  C  C152  1  0.851510  0.487960  0.943370  1.0  0.7347
  C  C153  1  0.195310  0.139640  0.717310  1.0  -0.6342
  C  C154  1  0.148490  0.091860  0.636450  1.0  0.7353
  C  C155  1  0.717310  0.195310  0.139640  1.0  -0.6338
  C  C156  1  0.636450  0.148490  0.091860  1.0  0.732
  C  C157  1  0.944330  0.804690  0.522000  1.0  -0.6348
  C  C158  1  0.943370  0.851510  0.487960  1.0  0.7355
  C  C159  1  0.282690  0.422330  0.478000  1.0  -0.6209
  C  C160  1  0.363550  0.455410  0.512040  1.0  0.731
  C  C161  1  0.055670  0.577670  0.860360  1.0  -0.6221
  C  C162  1  0.056630  0.544590  0.908140  1.0  0.7381
  C  C163  1  0.478000  0.055670  0.195310  1.0  -0.6199
  C  C164  1  0.512040  0.056630  0.148490  1.0  0.7385
  C  C165  1  0.860360  0.282690  0.804690  1.0  -0.6234
  C  C166  1  0.908140  0.363550  0.851510  1.0  0.7304
  C  C167  1  0.139640  0.944330  0.422330  1.0  -0.6341
  C  C168  1  0.091860  0.943370  0.455410  1.0  0.7379
  C  C169  1  0.522000  0.717310  0.577670  1.0  -0.6391
  C  C170  1  0.487960  0.636450  0.544590  1.0  0.7304
  C  C171  1  0.422330  0.139640  0.944330  1.0  -0.6204
  C  C172  1  0.455410  0.091860  0.943370  1.0  0.7331
  C  C173  1  0.577670  0.522000  0.717310  1.0  -0.6217
  C  C174  1  0.544590  0.487960  0.636450  1.0  0.7384
  C  C175  1  0.195310  0.478000  0.055670  1.0  -0.6349
  C  C176  1  0.148490  0.512040  0.056630  1.0  0.7348
  C  C177  1  0.804690  0.860360  0.282690  1.0  -0.6324
  C  C178  1  0.851510  0.908140  0.363550  1.0  0.7382
  C  C179  1  0.282690  0.804690  0.860360  1.0  -0.6362
  C  C180  1  0.363550  0.851510  0.908140  1.0  0.7325
  C  C181  1  0.055670  0.195310  0.478000  1.0  -0.6337
  C  C182  1  0.056630  0.148490  0.512040  1.0  0.7362
  C  C183  1  0.717310  0.577670  0.522000  1.0  -0.6198
  C  C184  1  0.636450  0.544590  0.487960  1.0  0.7307
  C  C185  1  0.944330  0.422330  0.139640  1.0  -0.6218
  C  C186  1  0.943370  0.455410  0.091860  1.0  0.7371
  O  O187  1  0.444310  0.995800  0.747050  1.0  -0.9635
  O  O188  1  0.545580  0.000430  0.721770  1.0  -0.9805
  O  O189  1  0.262970  0.838830  0.754520  1.0  -1.0336
  O  O190  1  0.422610  0.923680  0.824930  1.0  -0.7486
  O  O191  1  0.527300  0.964160  0.916180  1.0  -0.7447
  O  O192  1  0.248750  0.697260  0.252950  1.0  -0.9651
  O  O193  1  0.278660  0.823810  0.278230  1.0  -0.9835
  O  O194  1  0.084310  0.508450  0.245480  1.0  -1.0304
  O  O195  1  0.098750  0.597680  0.175070  1.0  -0.7478
  O  O196  1  0.047980  0.611120  0.083820  1.0  -0.7432
  O  O197  1  0.751250  0.004200  0.448510  1.0  -0.9659
  O  O198  1  0.721340  0.999570  0.545150  1.0  -0.9809
  O  O199  1  0.915690  0.161170  0.424140  1.0  -1.0311
  O  O200  1  0.901250  0.076320  0.498930  1.0  -0.7479
  O  O201  1  0.952020  0.035840  0.563140  1.0  -0.741
  O  O202  1  0.555690  0.302740  0.551490  1.0  -0.9679
  O  O203  1  0.454420  0.176190  0.454850  1.0  -0.9796
  O  O204  1  0.737030  0.491550  0.575860  1.0  -1.0349
  O  O205  1  0.577390  0.402320  0.501070  1.0  -0.7485
  O  O206  1  0.472700  0.388880  0.436860  1.0  -0.741
  O  O207  1  0.448510  0.751250  0.004200  1.0  -0.9676
  O  O208  1  0.545150  0.721340  0.999570  1.0  -0.9815
  O  O209  1  0.424140  0.915690  0.161170  1.0  -1.0304
  O  O210  1  0.498930  0.901250  0.076320  1.0  -0.7459
  O  O211  1  0.563140  0.952020  0.035840  1.0  -0.7453
  O  O212  1  0.551490  0.555690  0.302740  1.0  -0.9679
  O  O213  1  0.454850  0.454420  0.176190  1.0  -0.9808
  O  O214  1  0.575860  0.737030  0.491550  1.0  -1.0293
  O  O215  1  0.501070  0.577390  0.402320  1.0  -0.7493
  O  O216  1  0.436860  0.472700  0.388880  1.0  -0.7426
  O  O217  1  0.747050  0.444310  0.995800  1.0  -0.971
  O  O218  1  0.721770  0.545580  0.000430  1.0  -0.9801
  O  O219  1  0.754520  0.262970  0.838830  1.0  -1.0341
  O  O220  1  0.824930  0.422610  0.923680  1.0  -0.7499
  O  O221  1  0.916180  0.527300  0.964160  1.0  -0.7413
  O  O222  1  0.252950  0.248750  0.697260  1.0  -0.9666
  O  O223  1  0.278230  0.278660  0.823810  1.0  -0.9824
  O  O224  1  0.245480  0.084310  0.508450  1.0  -1.034
  O  O225  1  0.175070  0.098750  0.597680  1.0  -0.7468
  O  O226  1  0.083820  0.047980  0.611120  1.0  -0.744
  O  O227  1  0.697260  0.252950  0.248750  1.0  -0.969
  O  O228  1  0.823810  0.278230  0.278660  1.0  -0.98
  O  O229  1  0.508450  0.245480  0.084310  1.0  -1.0352
  O  O230  1  0.597680  0.175070  0.098750  1.0  -0.7479
  O  O231  1  0.611120  0.083820  0.047980  1.0  -0.7479
  O  O232  1  0.995800  0.747050  0.444310  1.0  -0.9688
  O  O233  1  0.000430  0.721770  0.545580  1.0  -0.9842
  O  O234  1  0.838830  0.754520  0.262970  1.0  -1.0298
  O  O235  1  0.923680  0.824930  0.422610  1.0  -0.7467
  O  O236  1  0.964160  0.916180  0.527300  1.0  -0.748
  O  O237  1  0.302740  0.551490  0.555690  1.0  -0.9664
  O  O238  1  0.176190  0.454850  0.454420  1.0  -0.9806
  O  O239  1  0.491550  0.575860  0.737030  1.0  -1.032
  O  O240  1  0.402320  0.501070  0.577390  1.0  -0.752
  O  O241  1  0.388880  0.436860  0.472700  1.0  -0.7431
  O  O242  1  0.004200  0.448510  0.751250  1.0  -0.9665
  O  O243  1  0.999570  0.545150  0.721340  1.0  -0.9803
  O  O244  1  0.161170  0.424140  0.915690  1.0  -1.0312
  O  O245  1  0.076320  0.498930  0.901250  1.0  -0.7478
  O  O246  1  0.035840  0.563140  0.952020  1.0  -0.7459
  O  O247  1  0.555690  0.004200  0.252950  1.0  -0.9639
  O  O248  1  0.454420  0.999570  0.278230  1.0  -0.9819
  O  O249  1  0.737030  0.161170  0.245480  1.0  -1.0308
  O  O250  1  0.577390  0.076320  0.175070  1.0  -0.7478
  O  O251  1  0.472700  0.035840  0.083820  1.0  -0.7432
  O  O252  1  0.751250  0.302740  0.747050  1.0  -0.9649
  O  O253  1  0.721340  0.176190  0.721770  1.0  -0.9831
  O  O254  1  0.915690  0.491550  0.754520  1.0  -1.0304
  O  O255  1  0.901250  0.402320  0.824930  1.0  -0.7491
  O  O256  1  0.952020  0.388880  0.916180  1.0  -0.742
  O  O257  1  0.248750  0.995800  0.551490  1.0  -0.9689
  O  O258  1  0.278660  0.000430  0.454850  1.0  -0.9796
  O  O259  1  0.084310  0.838830  0.575860  1.0  -1.0324
  O  O260  1  0.098750  0.923680  0.501070  1.0  -0.7472
  O  O261  1  0.047980  0.964160  0.436860  1.0  -0.7424
  O  O262  1  0.444310  0.697260  0.448510  1.0  -0.9671
  O  O263  1  0.545580  0.823810  0.545150  1.0  -0.9816
  O  O264  1  0.262970  0.508450  0.424140  1.0  -1.0337
  O  O265  1  0.422610  0.597680  0.498930  1.0  -0.7492
  O  O266  1  0.527300  0.611120  0.563140  1.0  -0.7418
  O  O267  1  0.551490  0.248750  0.995800  1.0  -0.9677
  O  O268  1  0.454850  0.278660  0.000430  1.0  -0.9814
  O  O269  1  0.575860  0.084310  0.838830  1.0  -1.0326
  O  O270  1  0.501070  0.098750  0.923680  1.0  -0.745
  O  O271  1  0.436860  0.047980  0.964160  1.0  -0.7415
  O  O272  1  0.448510  0.444310  0.697260  1.0  -0.9687
  O  O273  1  0.545150  0.545580  0.823810  1.0  -0.9807
  O  O274  1  0.424140  0.262970  0.508450  1.0  -1.0304
  O  O275  1  0.498930  0.422610  0.597680  1.0  -0.7484
  O  O276  1  0.563140  0.527300  0.611120  1.0  -0.7449
  O  O277  1  0.252950  0.555690  0.004200  1.0  -0.9695
  O  O278  1  0.278230  0.454420  0.999570  1.0  -0.9798
  O  O279  1  0.245480  0.737030  0.161170  1.0  -1.0315
  O  O280  1  0.175070  0.577390  0.076320  1.0  -0.7492
  O  O281  1  0.083820  0.472700  0.035840  1.0  -0.7418
  O  O282  1  0.747050  0.751250  0.302740  1.0  -0.9719
  O  O283  1  0.721770  0.721340  0.176190  1.0  -0.9817
  O  O284  1  0.754520  0.915690  0.491550  1.0  -1.031
  O  O285  1  0.824930  0.901250  0.402320  1.0  -0.7465
  O  O286  1  0.916180  0.952020  0.388880  1.0  -0.7446
  O  O287  1  0.302740  0.747050  0.751250  1.0  -0.9697
  O  O288  1  0.176190  0.721770  0.721340  1.0  -0.9814
  O  O289  1  0.491550  0.754520  0.915690  1.0  -1.0335
  O  O290  1  0.402320  0.824930  0.901250  1.0  -0.7471
  O  O291  1  0.388880  0.916180  0.952020  1.0  -0.7471
  O  O292  1  0.004200  0.252950  0.555690  1.0  -0.9704
  O  O293  1  0.999570  0.278230  0.454420  1.0  -0.9841
  O  O294  1  0.161170  0.245480  0.737030  1.0  -1.0291
  O  O295  1  0.076320  0.175070  0.577390  1.0  -0.7462
  O  O296  1  0.035840  0.083820  0.472700  1.0  -0.7467
  O  O297  1  0.697260  0.448510  0.444310  1.0  -0.9682
  O  O298  1  0.823810  0.545150  0.545580  1.0  -0.9807
  O  O299  1  0.508450  0.424140  0.262970  1.0  -1.0299
  O  O300  1  0.597680  0.498930  0.422610  1.0  -0.7501
  O  O301  1  0.611120  0.563140  0.527300  1.0  -0.7473
  O  O302  1  0.995800  0.551490  0.248750  1.0  -0.9662
  O  O303  1  0.000430  0.454850  0.278660  1.0  -0.9822
  O  O304  1  0.838830  0.575860  0.084310  1.0  -1.0343
  O  O305  1  0.923680  0.501070  0.098750  1.0  -0.7503
  O  O306  1  0.964160  0.436860  0.047980  1.0  -0.7427
  O  O307  1  0.582040  0.136800  0.718840  1.0  -0.9017
  O  O308  1  0.650320  0.048770  0.699090  1.0  -0.9147
  O  O309  1  0.417960  0.863200  0.281160  1.0  -0.9001
  O  O310  1  0.349680  0.951230  0.300910  1.0  -0.915
  O  O311  1  0.582040  0.863200  0.445240  1.0  -0.9002
  O  O312  1  0.650320  0.951230  0.601550  1.0  -0.9133
  O  O313  1  0.417960  0.136800  0.554760  1.0  -0.8997
  O  O314  1  0.349680  0.048770  0.398450  1.0  -0.9136
  O  O315  1  0.445240  0.582040  0.863200  1.0  -0.9003
  O  O316  1  0.601550  0.650320  0.951230  1.0  -0.9123
  O  O317  1  0.554760  0.417960  0.136800  1.0  -0.9019
  O  O318  1  0.398450  0.349680  0.048770  1.0  -0.9124
  O  O319  1  0.718840  0.582040  0.136800  1.0  -0.9004
  O  O320  1  0.699090  0.650320  0.048770  1.0  -0.9168
  O  O321  1  0.281160  0.417960  0.863200  1.0  -0.9012
  O  O322  1  0.300910  0.349680  0.951230  1.0  -0.9158
  O  O323  1  0.863200  0.281160  0.417960  1.0  -0.9011
  O  O324  1  0.951230  0.300910  0.349680  1.0  -0.9156
  O  O325  1  0.136800  0.718840  0.582040  1.0  -0.8997
  O  O326  1  0.048770  0.699090  0.650320  1.0  -0.9147
  O  O327  1  0.136800  0.554760  0.417960  1.0  -0.9014
  O  O328  1  0.048770  0.398450  0.349680  1.0  -0.9134
  O  O329  1  0.863200  0.445240  0.582040  1.0  -0.9006
  O  O330  1  0.951230  0.601550  0.650320  1.0  -0.9123
  O  O331  1  0.214600  0.867480  0.652880  1.0  -0.9355
  O  O332  1  0.312100  0.953700  0.641600  1.0  -0.7897
  O  O333  1  0.214600  0.561720  0.347120  1.0  -0.9359
  O  O334  1  0.312100  0.670500  0.358400  1.0  -0.7873
  O  O335  1  0.785400  0.132520  0.347120  1.0  -0.9558
  O  O336  1  0.687900  0.046300  0.358400  1.0  -0.7893
  O  O337  1  0.785400  0.438280  0.652880  1.0  -0.9533
  O  O338  1  0.687900  0.329500  0.641600  1.0  -0.7887
  O  O339  1  0.347120  0.785400  0.132520  1.0  -0.9548
  O  O340  1  0.358400  0.687900  0.046300  1.0  -0.7899
  O  O341  1  0.652880  0.785400  0.438280  1.0  -0.9536
  O  O342  1  0.641600  0.687900  0.329500  1.0  -0.7892
  O  O343  1  0.652880  0.214600  0.867480  1.0  -0.9358
  O  O344  1  0.641600  0.312100  0.953700  1.0  -0.7887
  O  O345  1  0.347120  0.214600  0.561720  1.0  -0.9353
  O  O346  1  0.358400  0.312100  0.670500  1.0  -0.7878
  O  O347  1  0.561720  0.347120  0.214600  1.0  -0.9361
  O  O348  1  0.670500  0.358400  0.312100  1.0  -0.7894
  O  O349  1  0.867480  0.652880  0.214600  1.0  -0.9355
  O  O350  1  0.953700  0.641600  0.312100  1.0  -0.7876
  O  O351  1  0.438280  0.652880  0.785400  1.0  -0.951
  O  O352  1  0.329500  0.641600  0.687900  1.0  -0.7881
  O  O353  1  0.132520  0.347120  0.785400  1.0  -0.9534
  O  O354  1  0.046300  0.358400  0.687900  1.0  -0.7885
