# generated using pymatgen
data_U5Mn2P6H12(C2O5)6
_symmetry_space_group_name_H-M   'P 1'
_cell_length_a   12.77080000
_cell_length_b   14.52980000
_cell_length_c   18.85870000
_cell_angle_alpha   82.78400000
_cell_angle_beta   72.17900000
_cell_angle_gamma   79.38500000
_symmetry_Int_Tables_number   1
_chemical_formula_structural   U5Mn2P6H12(C2O5)6
_chemical_formula_sum   'U10 Mn4 P12 H24 C24 O60'
_cell_volume   3265.47185862
_cell_formula_units_Z   2
loop_
 _symmetry_equiv_pos_site_id
 _symmetry_equiv_pos_as_xyz
  1  'x, y, z'
loop_
 _atom_site_type_symbol
 _atom_site_label
 _atom_site_symmetry_multiplicity
 _atom_site_fract_x
 _atom_site_fract_y
 _atom_site_fract_z
 _atom_site_occupancy
 _atom_site_charge
  U  U1  1  0.447470  0.422540  0.102540  1.0  1.9227
  U  U2  1  0.538630  0.835370  0.102760  1.0  1.9547
  U  U3  1  0.286380  0.051320  0.263460  1.0  1.8216
  U  U4  1  0.181490  0.834310  0.464000  1.0  1.8486
  U  U5  1  0.130280  0.416500  0.427570  1.0  1.8552
  U  U6  1  0.552530  0.577460  0.897460  1.0  1.9223
  U  U7  1  0.461370  0.164630  0.897240  1.0  1.9563
  U  U8  1  0.713620  0.948680  0.736540  1.0  1.8226
  U  U9  1  0.818510  0.165690  0.536000  1.0  1.848
  U  U10  1  0.869720  0.583510  0.572430  1.0  1.853
  Mn  Mn11  1  0.618780  0.470250  0.248180  1.0  1.0487
  Mn  Mn12  1  0.437150  0.481590  0.430870  1.0  1.1149
  Mn  Mn13  1  0.381220  0.529750  0.751820  1.0  1.0522
  Mn  Mn14  1  0.562850  0.518410  0.569130  1.0  1.1145
  P  P15  1  0.602510  0.574850  0.084950  1.0  1.594
  P  P16  1  0.413530  0.359790  0.304460  1.0  1.6525
  P  P17  1  0.356420  0.200320  0.094220  1.0  1.511
  P  P18  1  0.410460  0.824340  0.298300  1.0  1.6716
  P  P19  1  0.069040  0.198130  0.386490  1.0  1.5706
  P  P20  1  0.820620  0.425570  0.493030  1.0  1.6424
  P  P21  1  0.397490  0.425150  0.915050  1.0  1.5929
  P  P22  1  0.586470  0.640210  0.695540  1.0  1.6514
  P  P23  1  0.643580  0.799680  0.905780  1.0  1.5102
  P  P24  1  0.589540  0.175660  0.701700  1.0  1.6716
  P  P25  1  0.930960  0.801870  0.613510  1.0  1.5731
  P  P26  1  0.179380  0.574430  0.506970  1.0  1.6417
  H  H27  1  0.782200  0.579400  0.008500  1.0  0.1715
  H  H28  1  0.767600  0.474200  0.042400  1.0  0.1607
  H  H29  1  0.478400  0.201600  0.321500  1.0  0.1798
  H  H30  1  0.535500  0.262200  0.360000  1.0  0.1714
  H  H31  1  0.503100  0.162500  0.148100  1.0  0.1482
  H  H32  1  0.551300  0.170300  0.058800  1.0  0.1375
  H  H33  1  0.516600  0.784700  0.380500  1.0  0.1707
  H  H34  1  0.594600  0.779100  0.296100  1.0  0.1597
  H  H35  1  0.113500  0.166800  0.499900  1.0  0.1585
  H  H36  1  0.225200  0.161500  0.431400  1.0  0.1491
  H  H37  1  0.860500  0.422300  0.365500  1.0  0.1703
  H  H38  1  0.810400  0.526600  0.390000  1.0  0.1649
  H  H39  1  0.217800  0.420600  0.991500  1.0  0.1711
  H  H40  1  0.232400  0.525800  0.957600  1.0  0.1577
  H  H41  1  0.521600  0.798400  0.678500  1.0  0.1816
  H  H42  1  0.464500  0.737800  0.640000  1.0  0.1699
  H  H43  1  0.496900  0.837500  0.851900  1.0  0.1496
  H  H44  1  0.448700  0.829700  0.941200  1.0  0.1361
  H  H45  1  0.483400  0.215300  0.619500  1.0  0.171
  H  H46  1  0.405400  0.220900  0.703900  1.0  0.158
  H  H47  1  0.886500  0.833200  0.500100  1.0  0.157
  H  H48  1  0.774800  0.838500  0.568600  1.0  0.1506
  H  H49  1  0.139500  0.577700  0.634500  1.0  0.1707
  H  H50  1  0.189600  0.473400  0.610000  1.0  0.1625
  C  C51  1  0.750300  0.540700  0.054500  1.0  -0.5531
  C  C52  1  0.804200  0.552600  0.115000  1.0  0.6753
  C  C53  1  0.513600  0.258700  0.314600  1.0  -0.602
  C  C54  1  0.617500  0.249700  0.247800  1.0  0.6833
  C  C55  1  0.493200  0.146000  0.101400  1.0  -0.5375
  C  C56  1  0.506500  0.042000  0.101400  1.0  0.6667
  C  C57  1  0.523700  0.763400  0.331100  1.0  -0.6069
  C  C58  1  0.526800  0.657100  0.338100  1.0  0.7105
  C  C59  1  0.149800  0.143500  0.449700  1.0  -0.5435
  C  C60  1  0.159400  0.038900  0.455100  1.0  0.6489
  C  C61  1  0.801500  0.459700  0.402900  1.0  -0.6197
  C  C62  1  0.689500  0.447100  0.397600  1.0  0.7598
  C  C63  1  0.249700  0.459300  0.945500  1.0  -0.5529
  C  C64  1  0.195800  0.447400  0.885000  1.0  0.6787
  C  C65  1  0.486400  0.741300  0.685400  1.0  -0.6042
  C  C66  1  0.382500  0.750300  0.752200  1.0  0.6864
  C  C67  1  0.506800  0.854000  0.898600  1.0  -0.5359
  C  C68  1  0.493500  0.958000  0.898600  1.0  0.667
  C  C69  1  0.476300  0.236600  0.668900  1.0  -0.6055
  C  C70  1  0.473200  0.342900  0.661900  1.0  0.7109
  C  C71  1  0.850200  0.856500  0.550300  1.0  -0.542
  C  C72  1  0.840600  0.961100  0.544900  1.0  0.6482
  C  C73  1  0.198500  0.540300  0.597100  1.0  -0.6176
  C  C74  1  0.310500  0.552900  0.602400  1.0  0.7605
  O  O75  1  0.578900  0.675900  0.099900  1.0  -0.9816
  O  O76  1  0.553500  0.551100  0.025600  1.0  -0.9932
  O  O77  1  0.552700  0.510000  0.153700  1.0  -0.8779
  O  O78  1  0.777200  0.504700  0.175900  1.0  -0.6163
  O  O79  1  0.874900  0.608700  0.100000  1.0  -0.4634
  O  O80  1  0.408600  0.367800  0.224200  1.0  -0.9471
  O  O81  1  0.302000  0.347500  0.361800  1.0  -0.8945
  O  O82  1  0.456500  0.445200  0.319900  1.0  -0.8927
  O  O83  1  0.653800  0.171300  0.221700  1.0  -0.4955
  O  O84  1  0.661400  0.324300  0.218700  1.0  -0.5937
  O  O85  1  0.345200  0.305300  0.100900  1.0  -0.9212
  O  O86  1  0.272600  0.153400  0.158600  1.0  -0.8432
  O  O87  1  0.344500  0.177600  0.017500  1.0  -0.8358
  O  O88  1  0.577900  0.997400  0.050100  1.0  -0.6731
  O  O89  1  0.441900  0.995900  0.154500  1.0  -0.7533
  O  O90  1  0.301900  0.798300  0.350300  1.0  -0.8876
  O  O91  1  0.427700  0.797300  0.219900  1.0  -0.8795
  O  O92  1  0.413600  0.929300  0.298800  1.0  -0.8219
  O  O93  1  0.461600  0.622600  0.395400  1.0  -0.6163
  O  O94  1  0.593800  0.610600  0.285200  1.0  -0.6366
  O  O95  1  0.074600  0.303100  0.378200  1.0  -0.9039
  O  O96  1  0.124000  0.152400  0.312500  1.0  -0.8784
  O  O97  1  0.948100  0.178200  0.419000  1.0  -0.8875
  O  O98  1  0.118300  0.992800  0.513700  1.0  -0.6336
  O  O99  1  0.211500  0.994700  0.395300  1.0  -0.7431
  O  O100  1  0.805700  0.324800  0.513400  1.0  -0.9885
  O  O101  1  0.934700  0.448000  0.489300  1.0  -0.9784
  O  O102  1  0.739800  0.494000  0.549000  1.0  -0.8739
  O  O103  1  0.603400  0.470800  0.450200  1.0  -0.6735
  O  O104  1  0.687300  0.413100  0.339600  1.0  -0.6547
  O  O105  1  0.421100  0.324100  0.900100  1.0  -0.9803
  O  O106  1  0.446500  0.448900  0.974400  1.0  -0.9952
  O  O107  1  0.447300  0.490000  0.846300  1.0  -0.8778
  O  O108  1  0.222800  0.495300  0.824100  1.0  -0.6144
  O  O109  1  0.125100  0.391300  0.900000  1.0  -0.4645
  O  O110  1  0.591400  0.632200  0.775800  1.0  -0.9492
  O  O111  1  0.698000  0.652500  0.638200  1.0  -0.8922
  O  O112  1  0.543500  0.554800  0.680100  1.0  -0.8909
  O  O113  1  0.346200  0.828700  0.778300  1.0  -0.4937
  O  O114  1  0.338600  0.675700  0.781300  1.0  -0.5945
  O  O115  1  0.654800  0.694700  0.899100  1.0  -0.9215
  O  O116  1  0.727400  0.846600  0.841400  1.0  -0.8412
  O  O117  1  0.655500  0.822400  0.982500  1.0  -0.8344
  O  O118  1  0.422100  0.002600  0.949900  1.0  -0.6709
  O  O119  1  0.558100  0.004100  0.845500  1.0  -0.7533
  O  O120  1  0.698100  0.201700  0.649700  1.0  -0.8871
  O  O121  1  0.572300  0.202700  0.780100  1.0  -0.8792
  O  O122  1  0.586400  0.070700  0.701200  1.0  -0.8238
  O  O123  1  0.538400  0.377400  0.604600  1.0  -0.617
  O  O124  1  0.406200  0.389400  0.714800  1.0  -0.6373
  O  O125  1  0.925400  0.696900  0.621800  1.0  -0.904
  O  O126  1  0.876000  0.847600  0.687500  1.0  -0.8747
  O  O127  1  0.051900  0.821800  0.581000  1.0  -0.8886
  O  O128  1  0.881700  0.007200  0.486300  1.0  -0.635
  O  O129  1  0.788500  0.005300  0.604700  1.0  -0.7434
  O  O130  1  0.194300  0.675200  0.486600  1.0  -0.9889
  O  O131  1  0.065300  0.552000  0.510700  1.0  -0.9771
  O  O132  1  0.260200  0.506000  0.451000  1.0  -0.8745
  O  O133  1  0.396600  0.529200  0.549800  1.0  -0.671
  O  O134  1  0.312700  0.586900  0.660400  1.0  -0.6561
