# generated using pymatgen
data_Zn2H36C41(N2O3)4
_symmetry_space_group_name_H-M   'P 1'
_cell_length_a   9.14220000
_cell_length_b   25.93800000
_cell_length_c   20.30100000
_cell_angle_alpha   90.00000000
_cell_angle_beta   101.89000000
_cell_angle_gamma   90.00000000
_symmetry_Int_Tables_number   1
_chemical_formula_structural   Zn2H36C41(N2O3)4
_chemical_formula_sum   'Zn8 H144 C164 N32 O48'
_cell_volume   4710.69969811
_cell_formula_units_Z   4
loop_
 _symmetry_equiv_pos_site_id
 _symmetry_equiv_pos_as_xyz
  1  'x, y, z'
loop_
 _atom_site_type_symbol
 _atom_site_label
 _atom_site_symmetry_multiplicity
 _atom_site_fract_x
 _atom_site_fract_y
 _atom_site_fract_z
 _atom_site_occupancy
 _atom_site_charge
  Zn  Zn1  1  0.271520  0.622150  0.514870  1.0  0.8929
  Zn  Zn2  1  0.771520  0.122150  0.514870  1.0  0.8929
  Zn  Zn3  1  0.728480  0.622150  0.985130  1.0  0.8923
  Zn  Zn4  1  0.228480  0.122150  0.985130  1.0  0.8923
  Zn  Zn5  1  0.728480  0.377850  0.485130  1.0  0.8917
  Zn  Zn6  1  0.228480  0.877850  0.485130  1.0  0.8917
  Zn  Zn7  1  0.271520  0.377850  0.014870  1.0  0.8925
  Zn  Zn8  1  0.771520  0.877850  0.014870  1.0  0.8925
  H  H9  1  0.375900  0.344500  0.823100  1.0  0.0567
  H  H10  1  0.320100  0.310500  0.758500  1.0  0.0779
  H  H11  1  0.548400  0.748200  0.552200  1.0  0.1002
  H  H12  1  0.045300  0.663800  0.307200  1.0  0.1108
  H  H13  1  0.271600  0.290100  0.877700  1.0  0.1227
  H  H14  1  0.494700  0.131000  0.909000  1.0  0.0798
  H  H15  1  0.589700  0.191300  0.847000  1.0  0.1465
  H  H16  1  0.630100  0.494200  0.630000  1.0  0.1069
  H  H17  1  0.544600  0.566800  0.570600  1.0  0.0839
  H  H18  1  0.203600  0.457200  0.632400  1.0  0.1189
  H  H19  1  0.130800  0.530900  0.571800  1.0  0.0792
  H  H20  1  0.333333  0.370400  0.664600  1.0  0.1017
  H  H21  1  0.324100  0.409000  0.723800  1.0  0.0477
  H  H22  1  0.187200  0.227400  0.940000  1.0  0.0746
  H  H23  1  0.770700  0.639400  0.430300  1.0  0.2542
  H  H24  1  0.859900  0.672200  0.400000  1.0  0.3254
  H  H25  1  0.129600  0.490300  0.341600  1.0  0.3192
  H  H26  1  0.976100  0.479300  0.323100  1.0  0.3397
  H  H27  1  0.875900  0.844500  0.823100  1.0  0.0567
  H  H28  1  0.820100  0.810500  0.758500  1.0  0.0779
  H  H29  1  0.048400  0.248200  0.552200  1.0  0.1002
  H  H30  1  0.545300  0.163800  0.307200  1.0  0.1108
  H  H31  1  0.771600  0.790100  0.877700  1.0  0.1227
  H  H32  1  0.994700  0.631000  0.909000  1.0  0.0798
  H  H33  1  0.089700  0.691300  0.847000  1.0  0.1465
  H  H34  1  0.130100  0.994200  0.630000  1.0  0.1069
  H  H35  1  0.044600  0.066800  0.570600  1.0  0.0839
  H  H36  1  0.703600  0.957200  0.632400  1.0  0.1189
  H  H37  1  0.630800  0.030900  0.571800  1.0  0.0792
  H  H38  1  0.833300  0.870400  0.664600  1.0  0.102
  H  H39  1  0.824100  0.909000  0.723800  1.0  0.0477
  H  H40  1  0.687200  0.727400  0.940000  1.0  0.0746
  H  H41  1  0.270700  0.139400  0.430300  1.0  0.2542
  H  H42  1  0.359900  0.172200  0.400000  1.0  0.3254
  H  H43  1  0.629600  0.990300  0.341600  1.0  0.3192
  H  H44  1  0.476100  0.979300  0.323100  1.0  0.3397
  H  H45  1  0.624100  0.344500  0.676900  1.0  0.0568
  H  H46  1  0.679900  0.310500  0.741500  1.0  0.0775
  H  H47  1  0.451600  0.748200  0.947800  1.0  0.1
  H  H48  1  0.954700  0.663800  0.192800  1.0  0.1108
  H  H49  1  0.728400  0.290100  0.622300  1.0  0.1233
  H  H50  1  0.505300  0.131000  0.591000  1.0  0.0802
  H  H51  1  0.410300  0.191300  0.653000  1.0  0.1465
  H  H52  1  0.369900  0.494200  0.870000  1.0  0.1066
  H  H53  1  0.455400  0.566800  0.929400  1.0  0.0841
  H  H54  1  0.796400  0.457200  0.867600  1.0  0.1198
  H  H55  1  0.869200  0.530900  0.928200  1.0  0.079
  H  H56  1  0.666667  0.370400  0.835400  1.0  0.1022
  H  H57  1  0.675900  0.409000  0.776200  1.0  0.0476
  H  H58  1  0.812800  0.227400  0.560000  1.0  0.0747
  H  H59  1  0.229300  0.639400  0.069700  1.0  0.2552
  H  H60  1  0.140100  0.672200  0.100000  1.0  0.3262
  H  H61  1  0.870400  0.490300  0.158400  1.0  0.316
  H  H62  1  0.023900  0.479300  0.176900  1.0  0.3385
  H  H63  1  0.124100  0.844500  0.676900  1.0  0.0568
  H  H64  1  0.179900  0.810500  0.741500  1.0  0.0775
  H  H65  1  0.951600  0.248200  0.947800  1.0  0.1
  H  H66  1  0.454700  0.163800  0.192800  1.0  0.1108
  H  H67  1  0.228400  0.790100  0.622300  1.0  0.1233
  H  H68  1  0.005300  0.631000  0.591000  1.0  0.0802
  H  H69  1  0.910300  0.691300  0.653000  1.0  0.1465
  H  H70  1  0.869900  0.994200  0.870000  1.0  0.1066
  H  H71  1  0.955400  0.066800  0.929400  1.0  0.0841
  H  H72  1  0.296400  0.957200  0.867600  1.0  0.1198
  H  H73  1  0.369200  0.030900  0.928200  1.0  0.079
  H  H74  1  0.166700  0.870400  0.835400  1.0  0.1025
  H  H75  1  0.175900  0.909000  0.776200  1.0  0.0476
  H  H76  1  0.312800  0.727400  0.560000  1.0  0.0747
  H  H77  1  0.729300  0.139400  0.069700  1.0  0.2552
  H  H78  1  0.640100  0.172200  0.100000  1.0  0.3262
  H  H79  1  0.370400  0.990300  0.158400  1.0  0.316
  H  H80  1  0.523900  0.979300  0.176900  1.0  0.3385
  H  H81  1  0.624100  0.655500  0.176900  1.0  0.0575
  H  H82  1  0.679900  0.689500  0.241500  1.0  0.0772
  H  H83  1  0.451600  0.251800  0.447800  1.0  0.1003
  H  H84  1  0.954700  0.336200  0.692800  1.0  0.111
  H  H85  1  0.728400  0.709900  0.122300  1.0  0.1236
  H  H86  1  0.505300  0.869000  0.091000  1.0  0.08
  H  H87  1  0.410300  0.808700  0.153000  1.0  0.1466
  H  H88  1  0.369900  0.505800  0.370000  1.0  0.1077
  H  H89  1  0.455400  0.433200  0.429400  1.0  0.0836
  H  H90  1  0.796400  0.542800  0.367600  1.0  0.1177
  H  H91  1  0.869200  0.469100  0.428200  1.0  0.0792
  H  H92  1  0.666667  0.629600  0.335400  1.0  0.1021
  H  H93  1  0.675900  0.591000  0.276200  1.0  0.0476
  H  H94  1  0.812800  0.772600  0.060000  1.0  0.0747
  H  H95  1  0.229300  0.360600  0.569700  1.0  0.2553
  H  H96  1  0.140100  0.327800  0.600000  1.0  0.3266
  H  H97  1  0.870400  0.509700  0.658400  1.0  0.3173
  H  H98  1  0.023900  0.520700  0.676900  1.0  0.3375
  H  H99  1  0.124100  0.155500  0.176900  1.0  0.0575
  H  H100  1  0.179900  0.189500  0.241500  1.0  0.0772
  H  H101  1  0.951600  0.751800  0.447800  1.0  0.1003
  H  H102  1  0.454700  0.836200  0.692800  1.0  0.111
  H  H103  1  0.228400  0.209900  0.122300  1.0  0.1236
  H  H104  1  0.005300  0.369000  0.091000  1.0  0.08
  H  H105  1  0.910300  0.308700  0.153000  1.0  0.1466
  H  H106  1  0.869900  0.005800  0.370000  1.0  0.1077
  H  H107  1  0.955400  0.933200  0.429400  1.0  0.0836
  H  H108  1  0.296400  0.042800  0.367600  1.0  0.1177
  H  H109  1  0.369200  0.969100  0.428200  1.0  0.0792
  H  H110  1  0.166700  0.129600  0.335400  1.0  0.1023
  H  H111  1  0.175900  0.091000  0.276200  1.0  0.0476
  H  H112  1  0.312800  0.272600  0.060000  1.0  0.0747
  H  H113  1  0.729300  0.860600  0.569700  1.0  0.2553
  H  H114  1  0.640100  0.827800  0.600000  1.0  0.3266
  H  H115  1  0.370400  0.009700  0.658400  1.0  0.3173
  H  H116  1  0.523900  0.020700  0.676900  1.0  0.3375
  H  H117  1  0.375900  0.655500  0.323100  1.0  0.0573
  H  H118  1  0.320100  0.689500  0.258500  1.0  0.0772
  H  H119  1  0.548400  0.251800  0.052200  1.0  0.1001
  H  H120  1  0.045300  0.336200  0.807200  1.0  0.1104
  H  H121  1  0.271600  0.709900  0.377700  1.0  0.1228
  H  H122  1  0.494700  0.869000  0.409000  1.0  0.0796
  H  H123  1  0.589700  0.808700  0.347000  1.0  0.1465
  H  H124  1  0.630100  0.505800  0.130000  1.0  0.1081
  H  H125  1  0.544600  0.433200  0.070600  1.0  0.0837
  H  H126  1  0.203600  0.542800  0.132400  1.0  0.1164
  H  H127  1  0.130800  0.469100  0.071800  1.0  0.0794
  H  H128  1  0.333333  0.629600  0.164600  1.0  0.1019
  H  H129  1  0.324100  0.591000  0.223800  1.0  0.0482
  H  H130  1  0.187200  0.772600  0.440000  1.0  0.0742
  H  H131  1  0.770700  0.360600  0.930300  1.0  0.2542
  H  H132  1  0.859900  0.327800  0.900000  1.0  0.3251
  H  H133  1  0.129600  0.509700  0.841600  1.0  0.3208
  H  H134  1  0.976100  0.520700  0.823100  1.0  0.3387
  H  H135  1  0.875900  0.155500  0.323100  1.0  0.0573
  H  H136  1  0.820100  0.189500  0.258500  1.0  0.0772
  H  H137  1  0.048400  0.751800  0.052200  1.0  0.1001
  H  H138  1  0.545300  0.836200  0.807200  1.0  0.1104
  H  H139  1  0.771600  0.209900  0.377700  1.0  0.1228
  H  H140  1  0.994700  0.369000  0.409000  1.0  0.0796
  H  H141  1  0.089700  0.308700  0.347000  1.0  0.1465
  H  H142  1  0.130100  0.005800  0.130000  1.0  0.1081
  H  H143  1  0.044600  0.933200  0.070600  1.0  0.0837
  H  H144  1  0.703600  0.042800  0.132400  1.0  0.1164
  H  H145  1  0.630800  0.969100  0.071800  1.0  0.0794
  H  H146  1  0.833300  0.129600  0.164600  1.0  0.1021
  H  H147  1  0.824100  0.091000  0.223800  1.0  0.0482
  H  H148  1  0.687200  0.272600  0.440000  1.0  0.0742
  H  H149  1  0.270700  0.860600  0.930300  1.0  0.2542
  H  H150  1  0.359900  0.827800  0.900000  1.0  0.3252
  H  H151  1  0.629600  0.009700  0.841600  1.0  0.3208
  H  H152  1  0.476100  0.020700  0.823100  1.0  0.3387
  C  C153  1  0.440300  0.247440  0.855590  1.0  0.3193
  C  C154  1  0.408100  0.323920  0.788730  1.0  0.0677
  C  C155  1  0.629300  0.749030  0.531000  1.0  -0.1439
  C  C156  1  0.570200  0.657410  0.497440  1.0  0.6851
  C  C157  1  0.027100  0.632630  0.284200  1.0  -0.0752
  C  C158  1  0.318400  0.258090  0.883500  1.0  -0.3189
  C  C159  1  0.449000  0.163180  0.902400  1.0  0.1713
  C  C160  1  0.116100  0.585700  0.394500  1.0  0.6599
  C  C161  1  0.426100  0.467590  0.638980  1.0  0.2932
  C  C162  1  0.665200  0.704650  0.498980  1.0  -0.2659
  C  C163  1  0.789100  0.705290  0.467800  1.0  0.2157
  C  C164  1  0.055400  0.585780  0.319880  1.0  -0.1511
  C  C165  1  0.507100  0.199090  0.865300  1.0  -0.2644
  C  C166  1  0.528200  0.501150  0.619200  1.0  -0.2799
  C  C167  1  0.475800  0.544530  0.583500  1.0  0.1705
  C  C168  1  0.274700  0.478990  0.620600  1.0  -0.2598
  C  C169  1  0.232300  0.523540  0.584300  1.0  0.1701
  C  C170  1  0.391700  0.390880  0.700680  1.0  0.044
  C  C171  1  0.268100  0.219880  0.920300  1.0  0.1869
  C  C172  1  0.027700  0.538840  0.285000  1.0  0.2397
  C  C173  1  0.940300  0.747440  0.855590  1.0  0.3193
  C  C174  1  0.908100  0.823920  0.788730  1.0  0.0677
  C  C175  1  0.129300  0.249030  0.531000  1.0  -0.1439
  C  C176  1  0.070200  0.157410  0.497440  1.0  0.6854
  C  C177  1  0.527100  0.132630  0.284200  1.0  -0.0753
  C  C178  1  0.818400  0.758090  0.883500  1.0  -0.3189
  C  C179  1  0.949000  0.663180  0.902400  1.0  0.1713
  C  C180  1  0.616100  0.085700  0.394500  1.0  0.6599
  C  C181  1  0.926100  0.967590  0.638980  1.0  0.2932
  C  C182  1  0.165200  0.204650  0.498980  1.0  -0.2659
  C  C183  1  0.289100  0.205290  0.467800  1.0  0.2157
  C  C184  1  0.555400  0.085780  0.319880  1.0  -0.1511
  C  C185  1  0.007100  0.699090  0.865300  1.0  -0.2644
  C  C186  1  0.028200  0.001150  0.619200  1.0  -0.2799
  C  C187  1  0.975800  0.044530  0.583500  1.0  0.1705
  C  C188  1  0.774700  0.978990  0.620600  1.0  -0.2598
  C  C189  1  0.732300  0.023540  0.584300  1.0  0.1701
  C  C190  1  0.891700  0.890880  0.700680  1.0  0.044
  C  C191  1  0.768100  0.719880  0.920300  1.0  0.1869
  C  C192  1  0.527700  0.038840  0.285000  1.0  0.2397
  C  C193  1  0.559700  0.247440  0.644410  1.0  0.3189
  C  C194  1  0.591900  0.323920  0.711270  1.0  0.0662
  C  C195  1  0.370700  0.749030  0.969000  1.0  -0.1439
  C  C196  1  0.429800  0.657410  0.002560  1.0  0.6837
  C  C197  1  0.972900  0.632630  0.215800  1.0  -0.0751
  C  C198  1  0.681600  0.258090  0.616500  1.0  -0.3187
  C  C199  1  0.551000  0.163180  0.597600  1.0  0.1736
  C  C200  1  0.883900  0.585700  0.105500  1.0  0.6609
  C  C201  1  0.573900  0.467590  0.861020  1.0  0.2931
  C  C202  1  0.334800  0.704650  0.001020  1.0  -0.2659
  C  C203  1  0.210900  0.705290  0.032200  1.0  0.2177
  C  C204  1  0.944600  0.585780  0.180120  1.0  -0.1488
  C  C205  1  0.492900  0.199090  0.634700  1.0  -0.2613
  C  C206  1  0.471800  0.501150  0.880800  1.0  -0.2828
  C  C207  1  0.524200  0.544530  0.916500  1.0  0.1703
  C  C208  1  0.725300  0.478990  0.879400  1.0  -0.2578
  C  C209  1  0.767700  0.523540  0.915700  1.0  0.1709
  C  C210  1  0.608300  0.390880  0.799320  1.0  0.0452
  C  C211  1  0.731900  0.219880  0.579700  1.0  0.1856
  C  C212  1  0.972300  0.538840  0.215000  1.0  0.2398
  C  C213  1  0.059700  0.747440  0.644410  1.0  0.3189
  C  C214  1  0.091900  0.823920  0.711270  1.0  0.0662
  C  C215  1  0.870700  0.249030  0.969000  1.0  -0.1439
  C  C216  1  0.929800  0.157410  0.002560  1.0  0.684
  C  C217  1  0.472900  0.132630  0.215800  1.0  -0.0752
  C  C218  1  0.181600  0.758090  0.616500  1.0  -0.3187
  C  C219  1  0.051000  0.663180  0.597600  1.0  0.1736
  C  C220  1  0.383900  0.085700  0.105500  1.0  0.6609
  C  C221  1  0.073900  0.967590  0.861020  1.0  0.2931
  C  C222  1  0.834800  0.204650  0.001020  1.0  -0.2659
  C  C223  1  0.710900  0.205290  0.032200  1.0  0.2177
  C  C224  1  0.444600  0.085780  0.180120  1.0  -0.1488
  C  C225  1  0.992900  0.699090  0.634700  1.0  -0.2613
  C  C226  1  0.971800  0.001150  0.880800  1.0  -0.2828
  C  C227  1  0.024200  0.044530  0.916500  1.0  0.1703
  C  C228  1  0.225300  0.978990  0.879400  1.0  -0.2578
  C  C229  1  0.267700  0.023540  0.915700  1.0  0.1709
  C  C230  1  0.108300  0.890880  0.799320  1.0  0.0454
  C  C231  1  0.231900  0.719880  0.579700  1.0  0.1856
  C  C232  1  0.472300  0.038840  0.215000  1.0  0.2398
  C  C233  1  0.559700  0.752560  0.144410  1.0  0.3189
  C  C234  1  0.591900  0.676080  0.211270  1.0  0.068
  C  C235  1  0.370700  0.250970  0.469000  1.0  -0.1426
  C  C236  1  0.429800  0.342590  0.502560  1.0  0.6835
  C  C237  1  0.972900  0.367370  0.715800  1.0  -0.0736
  C  C238  1  0.681600  0.741910  0.116500  1.0  -0.319
  C  C239  1  0.551000  0.836820  0.097600  1.0  0.1729
  C  C240  1  0.883900  0.414300  0.605500  1.0  0.6605
  C  C241  1  0.573900  0.532410  0.361020  1.0  0.2943
  C  C242  1  0.334800  0.295350  0.501020  1.0  -0.2654
  C  C243  1  0.210900  0.294710  0.532200  1.0  0.2177
  C  C244  1  0.944600  0.414220  0.680120  1.0  -0.1517
  C  C245  1  0.492900  0.800910  0.134700  1.0  -0.262
  C  C246  1  0.471800  0.498850  0.380800  1.0  -0.2812
  C  C247  1  0.524200  0.455470  0.416500  1.0  0.1699
  C  C248  1  0.725300  0.521010  0.379400  1.0  -0.2575
  C  C249  1  0.767700  0.476460  0.415700  1.0  0.1702
  C  C250  1  0.608300  0.609120  0.299320  1.0  0.0443
  C  C251  1  0.731900  0.780120  0.079700  1.0  0.1857
  C  C252  1  0.972300  0.461160  0.715000  1.0  0.2404
  C  C253  1  0.059700  0.252560  0.144410  1.0  0.3189
  C  C254  1  0.091900  0.176080  0.211270  1.0  0.068
  C  C255  1  0.870700  0.750970  0.469000  1.0  -0.1426
  C  C256  1  0.929800  0.842590  0.502560  1.0  0.6837
  C  C257  1  0.472900  0.867370  0.715800  1.0  -0.0737
  C  C258  1  0.181600  0.241910  0.116500  1.0  -0.319
  C  C259  1  0.051000  0.336820  0.097600  1.0  0.1729
  C  C260  1  0.383900  0.914300  0.605500  1.0  0.6605
  C  C261  1  0.073900  0.032410  0.361020  1.0  0.2942
  C  C262  1  0.834800  0.795350  0.501020  1.0  -0.2654
  C  C263  1  0.710900  0.794710  0.532200  1.0  0.2177
  C  C264  1  0.444600  0.914220  0.680120  1.0  -0.1517
  C  C265  1  0.992900  0.300910  0.134700  1.0  -0.262
  C  C266  1  0.971800  0.998850  0.380800  1.0  -0.2812
  C  C267  1  0.024200  0.955470  0.416500  1.0  0.1699
  C  C268  1  0.225300  0.021010  0.379400  1.0  -0.2575
  C  C269  1  0.267700  0.976460  0.415700  1.0  0.1702
  C  C270  1  0.108300  0.109120  0.299320  1.0  0.0445
  C  C271  1  0.231900  0.280120  0.079700  1.0  0.1857
  C  C272  1  0.472300  0.961160  0.715000  1.0  0.2404
  C  C273  1  0.440300  0.752560  0.355590  1.0  0.3198
  C  C274  1  0.408100  0.676080  0.288730  1.0  0.0673
  C  C275  1  0.629300  0.250970  0.031000  1.0  -0.1439
  C  C276  1  0.570200  0.342590  0.997440  1.0  0.6848
  C  C277  1  0.027100  0.367370  0.784200  1.0  -0.0735
  C  C278  1  0.318400  0.741910  0.383500  1.0  -0.3187
  C  C279  1  0.449000  0.836820  0.402400  1.0  0.1734
  C  C280  1  0.116100  0.414300  0.894500  1.0  0.6593
  C  C281  1  0.426100  0.532410  0.138980  1.0  0.2939
  C  C282  1  0.665200  0.295350  0.998980  1.0  -0.266
  C  C283  1  0.789100  0.294710  0.967800  1.0  0.2163
  C  C284  1  0.055400  0.414220  0.819880  1.0  -0.1493
  C  C285  1  0.507100  0.800910  0.365300  1.0  -0.2642
  C  C286  1  0.528200  0.498850  0.119200  1.0  -0.2785
  C  C287  1  0.475800  0.455470  0.083500  1.0  0.1698
  C  C288  1  0.274700  0.521010  0.120600  1.0  -0.2589
  C  C289  1  0.232300  0.476460  0.084300  1.0  0.1704
  C  C290  1  0.391700  0.609120  0.200680  1.0  0.0438
  C  C291  1  0.268100  0.780120  0.420300  1.0  0.1871
  C  C292  1  0.027700  0.461160  0.785000  1.0  0.2399
  C  C293  1  0.940300  0.252560  0.355590  1.0  0.3198
  C  C294  1  0.908100  0.176080  0.288730  1.0  0.0673
  C  C295  1  0.129300  0.750970  0.031000  1.0  -0.1439
  C  C296  1  0.070200  0.842590  0.997440  1.0  0.6851
  C  C297  1  0.527100  0.867370  0.784200  1.0  -0.0736
  C  C298  1  0.818400  0.241910  0.383500  1.0  -0.3187
  C  C299  1  0.949000  0.336820  0.402400  1.0  0.1734
  C  C300  1  0.616100  0.914300  0.894500  1.0  0.6593
  C  C301  1  0.926100  0.032410  0.138980  1.0  0.2939
  C  C302  1  0.165200  0.795350  0.998980  1.0  -0.266
  C  C303  1  0.289100  0.794710  0.967800  1.0  0.2163
  C  C304  1  0.555400  0.914220  0.819880  1.0  -0.1493
  C  C305  1  0.007100  0.300910  0.365300  1.0  -0.2642
  C  C306  1  0.028200  0.998850  0.119200  1.0  -0.2785
  C  C307  1  0.975800  0.955470  0.083500  1.0  0.1698
  C  C308  1  0.774700  0.021010  0.120600  1.0  -0.2589
  C  C309  1  0.732300  0.976460  0.084300  1.0  0.1704
  C  C310  1  0.891700  0.109120  0.200680  1.0  0.0439
  C  C311  1  0.768100  0.280120  0.420300  1.0  0.1871
  C  C312  1  0.527700  0.961160  0.785000  1.0  0.2399
  C  C313  1  0.500000  0.356500  0.750000  1.0  -0.0338
  C  C314  1  0.000000  0.856500  0.750000  1.0  -0.0338
  C  C315  1  0.500000  0.643500  0.250000  1.0  -0.0339
  C  C316  1  0.000000  0.143500  0.250000  1.0  -0.0339
  N  N317  1  0.328600  0.172100  0.929950  1.0  -0.3763
  N  N318  1  0.328800  0.556630  0.566170  1.0  -0.3519
  N  N319  1  0.839100  0.662900  0.437900  1.0  -0.6576
  N  N320  1  0.052800  0.490400  0.308700  1.0  -0.6003
  N  N321  1  0.828600  0.672100  0.929950  1.0  -0.3763
  N  N322  1  0.828800  0.056630  0.566170  1.0  -0.3519
  N  N323  1  0.339100  0.162900  0.437900  1.0  -0.6605
  N  N324  1  0.552800  0.990400  0.308700  1.0  -0.6003
  N  N325  1  0.671400  0.172100  0.570050  1.0  -0.3756
  N  N326  1  0.671200  0.556630  0.933830  1.0  -0.3538
  N  N327  1  0.160900  0.662900  0.062100  1.0  -0.6601
  N  N328  1  0.947200  0.490400  0.191300  1.0  -0.5983
  N  N329  1  0.171400  0.672100  0.570050  1.0  -0.3756
  N  N330  1  0.171200  0.056630  0.933830  1.0  -0.3538
  N  N331  1  0.660900  0.162900  0.062100  1.0  -0.6629
  N  N332  1  0.447200  0.990400  0.191300  1.0  -0.5983
  N  N333  1  0.671400  0.827900  0.070050  1.0  -0.375
  N  N334  1  0.671200  0.443370  0.433830  1.0  -0.3526
  N  N335  1  0.160900  0.337100  0.562100  1.0  -0.6592
  N  N336  1  0.947200  0.509600  0.691300  1.0  -0.5972
  N  N337  1  0.171400  0.327900  0.070050  1.0  -0.375
  N  N338  1  0.171200  0.943370  0.433830  1.0  -0.3526
  N  N339  1  0.660900  0.837100  0.562100  1.0  -0.6619
  N  N340  1  0.447200  0.009600  0.691300  1.0  -0.5972
  N  N341  1  0.328600  0.827900  0.429950  1.0  -0.3751
  N  N342  1  0.328800  0.443370  0.066170  1.0  -0.3514
  N  N343  1  0.839100  0.337100  0.937900  1.0  -0.6579
  N  N344  1  0.052800  0.509600  0.808700  1.0  -0.6014
  N  N345  1  0.828600  0.327900  0.429950  1.0  -0.3751
  N  N346  1  0.828800  0.943370  0.066170  1.0  -0.3514
  N  N347  1  0.339100  0.837100  0.937900  1.0  -0.6607
  N  N348  1  0.552800  0.009600  0.808700  1.0  -0.6014
  O  O349  1  0.453900  0.662970  0.522070  1.0  -0.6105
  O  O350  1  0.606600  0.616200  0.473880  1.0  -0.5987
  O  O351  1  0.502300  0.282150  0.819300  1.0  -0.2753
  O  O352  1  0.167700  0.628610  0.420800  1.0  -0.6147
  O  O353  1  0.486100  0.426540  0.674830  1.0  -0.2624
  O  O354  1  0.114900  0.545870  0.427510  1.0  -0.546
  O  O355  1  0.953900  0.162970  0.522070  1.0  -0.6105
  O  O356  1  0.106600  0.116200  0.473880  1.0  -0.5987
  O  O357  1  0.002300  0.782150  0.819300  1.0  -0.2753
  O  O358  1  0.667700  0.128610  0.420800  1.0  -0.6147
  O  O359  1  0.986100  0.926540  0.674830  1.0  -0.2624
  O  O360  1  0.614900  0.045870  0.427510  1.0  -0.546
  O  O361  1  0.546100  0.662970  0.977930  1.0  -0.6083
  O  O362  1  0.393400  0.616200  0.026120  1.0  -0.5985
  O  O363  1  0.497700  0.282150  0.680700  1.0  -0.2735
  O  O364  1  0.832300  0.628610  0.079200  1.0  -0.6146
  O  O365  1  0.513900  0.426540  0.825170  1.0  -0.2602
  O  O366  1  0.885100  0.545870  0.072490  1.0  -0.5444
  O  O367  1  0.046100  0.162970  0.977930  1.0  -0.6083
  O  O368  1  0.893400  0.116200  0.026120  1.0  -0.5985
  O  O369  1  0.997700  0.782150  0.680700  1.0  -0.2735
  O  O370  1  0.332300  0.128610  0.079200  1.0  -0.6146
  O  O371  1  0.013900  0.926540  0.825170  1.0  -0.2602
  O  O372  1  0.385100  0.045870  0.072490  1.0  -0.5444
  O  O373  1  0.546100  0.337030  0.477930  1.0  -0.6085
  O  O374  1  0.393400  0.383800  0.526120  1.0  -0.5985
  O  O375  1  0.497700  0.717850  0.180700  1.0  -0.2744
  O  O376  1  0.832300  0.371390  0.579200  1.0  -0.6147
  O  O377  1  0.513900  0.573460  0.325170  1.0  -0.261
  O  O378  1  0.885100  0.454130  0.572490  1.0  -0.5444
  O  O379  1  0.046100  0.837030  0.477930  1.0  -0.6085
  O  O380  1  0.893400  0.883800  0.526120  1.0  -0.5985
  O  O381  1  0.997700  0.217850  0.180700  1.0  -0.2744
  O  O382  1  0.332300  0.871390  0.579200  1.0  -0.6147
  O  O383  1  0.013900  0.073460  0.325170  1.0  -0.2609
  O  O384  1  0.385100  0.954130  0.572490  1.0  -0.5444
  O  O385  1  0.453900  0.337030  0.022070  1.0  -0.6108
  O  O386  1  0.606600  0.383800  0.973880  1.0  -0.5987
  O  O387  1  0.502300  0.717850  0.319300  1.0  -0.2762
  O  O388  1  0.167700  0.371390  0.920800  1.0  -0.6147
  O  O389  1  0.486100  0.573460  0.174830  1.0  -0.2618
  O  O390  1  0.114900  0.454130  0.927510  1.0  -0.5464
  O  O391  1  0.953900  0.837030  0.022070  1.0  -0.6108
  O  O392  1  0.106600  0.883800  0.973880  1.0  -0.5987
  O  O393  1  0.002300  0.217850  0.319300  1.0  -0.2763
  O  O394  1  0.667700  0.871390  0.920800  1.0  -0.6147
  O  O395  1  0.986100  0.073460  0.174830  1.0  -0.2618
  O  O396  1  0.614900  0.954130  0.927510  1.0  -0.5464
