# generated using pymatgen
data_CdH29C36N5O4
_symmetry_space_group_name_H-M   'P 1'
_cell_length_a   10.10800000
_cell_length_b   13.66950000
_cell_length_c   28.86260000
_cell_angle_alpha   90.00000000
_cell_angle_beta   99.50200000
_cell_angle_gamma   90.00000000
_symmetry_Int_Tables_number   1
_chemical_formula_structural   CdH29C36N5O4
_chemical_formula_sum   'Cd4 H116 C144 N20 O16'
_cell_volume   3933.26736860
_cell_formula_units_Z   4
loop_
 _symmetry_equiv_pos_site_id
 _symmetry_equiv_pos_as_xyz
  1  'x, y, z'
loop_
 _atom_site_type_symbol
 _atom_site_label
 _atom_site_symmetry_multiplicity
 _atom_site_fract_x
 _atom_site_fract_y
 _atom_site_fract_z
 _atom_site_occupancy
 _atom_site_charge
  Cd  Cd1  1  0.556590  0.081750  0.817740  1.0  0.9658
  Cd  Cd2  1  0.556590  0.418250  0.317740  1.0  0.9649
  Cd  Cd3  1  0.443410  0.581750  0.682260  1.0  0.9662
  Cd  Cd4  1  0.443410  0.918250  0.182260  1.0  0.9658
  H  H5  1  0.567100  0.210100  0.980300  1.0  0.0926
  H  H6  1  0.267000  0.300700  0.883000  1.0  0.0876
  H  H7  1  0.191300  0.401100  0.936400  1.0  0.0937
  H  H8  1  0.499800  0.316000  0.034000  1.0  0.0892
  H  H9  1  0.120200  0.533400  0.058900  1.0  0.0897
  H  H10  1  0.316700  0.554700  0.949800  1.0  0.0886
  H  H11  1  0.200600  0.695900  0.926400  1.0  0.085
  H  H12  1  0.012200  0.679600  0.036600  1.0  0.0916
  H  H13  1  0.049300  0.759900  0.969100  1.0  0.1176
  H  H14  1  0.297400  0.296200  0.081100  1.0  0.1111
  H  H15  1  0.433200  0.570600  0.078000  1.0  0.0891
  H  H16  1  0.376000  0.289600  0.160700  1.0  0.0947
  H  H17  1  0.509400  0.564600  0.158300  1.0  0.0913
  H  H18  1  0.567100  0.289900  0.480300  1.0  0.0922
  H  H19  1  0.267000  0.199300  0.383000  1.0  0.088
  H  H20  1  0.191300  0.098900  0.436400  1.0  0.0937
  H  H21  1  0.499800  0.184000  0.534000  1.0  0.0892
  H  H22  1  0.120200  0.966600  0.558900  1.0  0.0894
  H  H23  1  0.316700  0.945300  0.449800  1.0  0.0887
  H  H24  1  0.200600  0.804100  0.426400  1.0  0.0847
  H  H25  1  0.012200  0.820400  0.536600  1.0  0.0923
  H  H26  1  0.049300  0.740100  0.469100  1.0  0.1168
  H  H27  1  0.297400  0.203800  0.581100  1.0  0.1115
  H  H28  1  0.433200  0.929400  0.578000  1.0  0.0892
  H  H29  1  0.376000  0.210400  0.660700  1.0  0.0945
  H  H30  1  0.509400  0.935400  0.658300  1.0  0.0916
  H  H31  1  0.432900  0.710100  0.519700  1.0  0.0924
  H  H32  1  0.733000  0.800700  0.617000  1.0  0.0887
  H  H33  1  0.808700  0.901100  0.563600  1.0  0.0934
  H  H34  1  0.500200  0.816000  0.466000  1.0  0.0894
  H  H35  1  0.879800  0.033400  0.441100  1.0  0.0899
  H  H36  1  0.683300  0.054700  0.550200  1.0  0.0881
  H  H37  1  0.799400  0.195900  0.573600  1.0  0.0845
  H  H38  1  0.987800  0.179600  0.463400  1.0  0.0924
  H  H39  1  0.950700  0.259900  0.530900  1.0  0.1173
  H  H40  1  0.702600  0.796200  0.418900  1.0  0.1109
  H  H41  1  0.566800  0.070600  0.422000  1.0  0.0895
  H  H42  1  0.624000  0.789600  0.339300  1.0  0.0944
  H  H43  1  0.490600  0.064600  0.341700  1.0  0.0915
  H  H44  1  0.432900  0.789900  0.019700  1.0  0.0933
  H  H45  1  0.733000  0.699300  0.117000  1.0  0.0888
  H  H46  1  0.808700  0.598900  0.063600  1.0  0.0934
  H  H47  1  0.500200  0.684000  0.966000  1.0  0.0891
  H  H48  1  0.879800  0.466600  0.941100  1.0  0.0893
  H  H49  1  0.683300  0.445300  0.050200  1.0  0.0884
  H  H50  1  0.799400  0.304100  0.073600  1.0  0.0846
  H  H51  1  0.987800  0.320400  0.963400  1.0  0.0926
  H  H52  1  0.950700  0.240100  0.030900  1.0  0.1172
  H  H53  1  0.702600  0.703800  0.918900  1.0  0.1114
  H  H54  1  0.566800  0.429400  0.922000  1.0  0.0896
  H  H55  1  0.624000  0.710400  0.839300  1.0  0.0945
  H  H56  1  0.490600  0.435400  0.841700  1.0  0.0914
  H  H57  1  0.296600  0.763700  0.855100  1.0  0.0918
  H  H58  1  0.054600  0.983300  0.807300  1.0  0.11
  H  H59  1  0.238200  0.077500  0.803400  1.0  0.0717
  H  H60  1  0.476400  0.862600  0.850500  1.0  0.0673
  H  H61  1  0.880500  0.109200  0.848400  1.0  0.0691
  H  H62  1  0.618700  0.294800  0.786400  1.0  0.0683
  H  H63  1  0.049900  0.218400  0.845800  1.0  0.1099
  H  H64  1  0.780400  0.409000  0.781800  1.0  0.1072
  H  H65  1  0.081700  0.377000  0.777400  1.0  0.1038
  H  H66  1  0.122800  0.383800  0.832100  1.0  0.0959
  H  H67  1  0.985200  0.495600  0.876200  1.0  0.1417
  H  H68  1  0.200200  0.530800  0.783700  1.0  0.1601
  H  H69  1  0.868300  0.665400  0.853200  1.0  0.1331
  H  H70  1  0.074900  0.701700  0.761700  1.0  0.1276
  H  H71  1  0.962100  0.816900  0.809600  1.0  0.0871
  H  H72  1  0.999900  0.816400  0.864500  1.0  0.1118
  H  H73  1  0.296600  0.736300  0.355100  1.0  0.0914
  H  H74  1  0.054600  0.516700  0.307300  1.0  0.1103
  H  H75  1  0.238200  0.422500  0.303400  1.0  0.0723
  H  H76  1  0.476400  0.637400  0.350500  1.0  0.0675
  H  H77  1  0.880500  0.390800  0.348400  1.0  0.0693
  H  H78  1  0.618700  0.205200  0.286400  1.0  0.0684
  H  H79  1  0.049900  0.281600  0.345800  1.0  0.11
  H  H80  1  0.780400  0.091000  0.281800  1.0  0.1073
  H  H81  1  0.081700  0.123000  0.277400  1.0  0.1037
  H  H82  1  0.122800  0.116200  0.332100  1.0  0.096
  H  H83  1  0.985200  0.004400  0.376200  1.0  0.1414
  H  H84  1  0.200200  0.969200  0.283700  1.0  0.1597
  H  H85  1  0.868300  0.834600  0.353200  1.0  0.133
  H  H86  1  0.074900  0.798300  0.261700  1.0  0.128
  H  H87  1  0.962100  0.683100  0.309600  1.0  0.0873
  H  H88  1  0.999900  0.683600  0.364500  1.0  0.1121
  H  H89  1  0.703400  0.263700  0.644900  1.0  0.0921
  H  H90  1  0.945400  0.483300  0.692700  1.0  0.1108
  H  H91  1  0.761800  0.577500  0.696600  1.0  0.0716
  H  H92  1  0.523600  0.362600  0.649500  1.0  0.0682
  H  H93  1  0.119500  0.609200  0.651600  1.0  0.0684
  H  H94  1  0.381300  0.794800  0.713600  1.0  0.0681
  H  H95  1  0.950100  0.718400  0.654200  1.0  0.1103
  H  H96  1  0.219600  0.909000  0.718200  1.0  0.1072
  H  H97  1  0.918300  0.877000  0.722600  1.0  0.1049
  H  H98  1  0.877200  0.883800  0.667900  1.0  0.0971
  H  H99  1  0.014800  0.995600  0.623800  1.0  0.1414
  H  H100  1  0.799800  0.030800  0.716300  1.0  0.1591
  H  H101  1  0.131700  0.165400  0.646800  1.0  0.1325
  H  H102  1  0.925100  0.201700  0.738300  1.0  0.1267
  H  H103  1  0.037900  0.316900  0.690400  1.0  0.0871
  H  H104  1  0.000100  0.316400  0.635500  1.0  0.1125
  H  H105  1  0.703400  0.236300  0.144900  1.0  0.0924
  H  H106  1  0.945400  0.016700  0.192700  1.0  0.1106
  H  H107  1  0.761800  0.922500  0.196600  1.0  0.072
  H  H108  1  0.523600  0.137400  0.149500  1.0  0.0678
  H  H109  1  0.119500  0.890800  0.151600  1.0  0.0681
  H  H110  1  0.381300  0.705200  0.213600  1.0  0.068
  H  H111  1  0.950100  0.781600  0.154200  1.0  0.1105
  H  H112  1  0.219600  0.591000  0.218200  1.0  0.1073
  H  H113  1  0.918300  0.623000  0.222600  1.0  0.1049
  H  H114  1  0.877200  0.616200  0.167900  1.0  0.0976
  H  H115  1  0.014800  0.504400  0.123800  1.0  0.1413
  H  H116  1  0.799800  0.469200  0.216300  1.0  0.1586
  H  H117  1  0.131700  0.334600  0.146800  1.0  0.1324
  H  H118  1  0.925100  0.298300  0.238300  1.0  0.1273
  H  H119  1  0.037900  0.183100  0.190400  1.0  0.0872
  H  H120  1  0.000100  0.183600  0.135500  1.0  0.1126
  C  C121  1  0.478500  0.186000  0.888740  1.0  0.7155
  C  C122  1  0.427600  0.246800  0.925490  1.0  -0.1187
  C  C123  1  0.493600  0.250600  0.971070  1.0  -0.0353
  C  C124  1  0.314200  0.303800  0.913480  1.0  -0.0682
  C  C125  1  0.269400  0.365000  0.945260  1.0  -0.2585
  C  C126  1  0.452400  0.313700  0.003570  1.0  -0.2039
  C  C127  1  0.341000  0.373300  0.991010  1.0  0.1308
  C  C128  1  0.232200  0.529300  0.006850  1.0  0.1688
  C  C129  1  0.138500  0.566600  0.032500  1.0  -0.1734
  C  C130  1  0.254500  0.578800  0.967320  1.0  -0.2132
  C  C131  1  0.185200  0.664100  0.953490  1.0  -0.0849
  C  C132  1  0.072400  0.653700  0.018700  1.0  -0.0818
  C  C133  1  0.094900  0.702300  0.978600  1.0  -0.1383
  C  C134  1  0.354100  0.435400  0.071960  1.0  0.1577
  C  C135  1  0.339100  0.350500  0.096570  1.0  -0.1815
  C  C136  1  0.419900  0.514500  0.094850  1.0  -0.1481
  C  C137  1  0.386400  0.346800  0.144290  1.0  -0.0625
  C  C138  1  0.466400  0.510600  0.142920  1.0  -0.0119
  C  C139  1  0.448800  0.426300  0.168020  1.0  -0.1613
  C  C140  1  0.490600  0.423700  0.220640  1.0  0.645
  C  C141  1  0.478500  0.314000  0.388740  1.0  0.7179
  C  C142  1  0.427600  0.253200  0.425490  1.0  -0.117
  C  C143  1  0.493600  0.249400  0.471070  1.0  -0.0335
  C  C144  1  0.314200  0.196200  0.413480  1.0  -0.0682
  C  C145  1  0.269400  0.135000  0.445260  1.0  -0.2594
  C  C146  1  0.452400  0.186300  0.503570  1.0  -0.2056
  C  C147  1  0.341000  0.126700  0.491010  1.0  0.1309
  C  C148  1  0.232200  0.970700  0.506850  1.0  0.1691
  C  C149  1  0.138500  0.933400  0.532500  1.0  -0.173
  C  C150  1  0.254500  0.921200  0.467320  1.0  -0.2131
  C  C151  1  0.185200  0.835900  0.453490  1.0  -0.0858
  C  C152  1  0.072400  0.846300  0.518700  1.0  -0.0828
  C  C153  1  0.094900  0.797700  0.478600  1.0  -0.1391
  C  C154  1  0.354100  0.064600  0.571960  1.0  0.1577
  C  C155  1  0.339100  0.149500  0.596570  1.0  -0.183
  C  C156  1  0.419900  0.985500  0.594850  1.0  -0.1484
  C  C157  1  0.386400  0.153200  0.644290  1.0  -0.0636
  C  C158  1  0.466400  0.989400  0.642920  1.0  -0.0124
  C  C159  1  0.448800  0.073700  0.668020  1.0  -0.1616
  C  C160  1  0.490600  0.076300  0.720640  1.0  0.645
  C  C161  1  0.521500  0.686000  0.611260  1.0  0.716
  C  C162  1  0.572400  0.746800  0.574510  1.0  -0.1199
  C  C163  1  0.506400  0.750600  0.528930  1.0  -0.0336
  C  C164  1  0.685800  0.803800  0.586520  1.0  -0.069
  C  C165  1  0.730600  0.865000  0.554740  1.0  -0.2597
  C  C166  1  0.547600  0.813700  0.496430  1.0  -0.2039
  C  C167  1  0.659000  0.873300  0.508990  1.0  0.1309
  C  C168  1  0.767800  0.029300  0.493150  1.0  0.17
  C  C169  1  0.861500  0.066600  0.467500  1.0  -0.173
  C  C170  1  0.745500  0.078800  0.532680  1.0  -0.213
  C  C171  1  0.814800  0.164100  0.546510  1.0  -0.0842
  C  C172  1  0.927600  0.153700  0.481300  1.0  -0.0799
  C  C173  1  0.905100  0.202300  0.521400  1.0  -0.1373
  C  C174  1  0.645900  0.935400  0.428040  1.0  0.1575
  C  C175  1  0.660900  0.850500  0.403430  1.0  -0.1829
  C  C176  1  0.580100  0.014500  0.405150  1.0  -0.1482
  C  C177  1  0.613600  0.846800  0.355710  1.0  -0.0615
  C  C178  1  0.533600  0.010600  0.357080  1.0  -0.0101
  C  C179  1  0.551200  0.926300  0.331980  1.0  -0.163
  C  C180  1  0.509400  0.923700  0.279360  1.0  0.6454
  C  C181  1  0.521500  0.814000  0.111260  1.0  0.7175
  C  C182  1  0.572400  0.753200  0.074510  1.0  -0.1176
  C  C183  1  0.506400  0.749400  0.028930  1.0  -0.0338
  C  C184  1  0.685800  0.696200  0.086520  1.0  -0.0687
  C  C185  1  0.730600  0.635000  0.054740  1.0  -0.2596
  C  C186  1  0.547600  0.686300  0.996430  1.0  -0.2068
  C  C187  1  0.659000  0.626700  0.008990  1.0  0.1311
  C  C188  1  0.767800  0.470700  0.993150  1.0  0.1699
  C  C189  1  0.861500  0.433400  0.967500  1.0  -0.1732
  C  C190  1  0.745500  0.421200  0.032680  1.0  -0.2129
  C  C191  1  0.814800  0.335900  0.046510  1.0  -0.0848
  C  C192  1  0.927600  0.346300  0.981300  1.0  -0.0826
  C  C193  1  0.905100  0.297700  0.021400  1.0  -0.1406
  C  C194  1  0.645900  0.564600  0.928040  1.0  0.1575
  C  C195  1  0.660900  0.649500  0.903430  1.0  -0.1842
  C  C196  1  0.580100  0.485500  0.905150  1.0  -0.1481
  C  C197  1  0.613600  0.653200  0.855710  1.0  -0.0618
  C  C198  1  0.533600  0.489400  0.857080  1.0  -0.0104
  C  C199  1  0.551200  0.573700  0.831980  1.0  -0.1624
  C  C200  1  0.509400  0.576300  0.779360  1.0  0.6454
  C  C201  1  0.153400  0.862200  0.832360  1.0  0.0814
  C  C202  1  0.282300  0.827700  0.844530  1.0  -0.1833
  C  C203  1  0.139800  0.957000  0.816360  1.0  -0.2242
  C  C204  1  0.250700  0.013200  0.813640  1.0  0.1735
  C  C205  1  0.390300  0.887200  0.841240  1.0  0.1537
  C  C206  1  0.860000  0.170000  0.834560  1.0  0.1429
  C  C207  1  0.707400  0.279000  0.798250  1.0  0.1699
  C  C208  1  0.962400  0.235400  0.832920  1.0  -0.212
  C  C209  1  0.803800  0.348200  0.795180  1.0  -0.2378
  C  C210  1  0.936500  0.326200  0.812320  1.0  0.1114
  C  C211  1  0.049500  0.393900  0.806280  1.0  -0.1265
  C  C212  1  0.982800  0.534000  0.849470  1.0  0.0774
  C  C213  1  0.120000  0.555800  0.790490  1.0  0.0741
  C  C214  1  0.948800  0.639200  0.847310  1.0  0.1111
  C  C215  1  0.082400  0.662800  0.788420  1.0  0.0655
  C  C216  1  0.032400  0.800700  0.835590  1.0  -0.0989
  C  C217  1  0.153400  0.637800  0.332360  1.0  0.0816
  C  C218  1  0.282300  0.672300  0.344530  1.0  -0.1835
  C  C219  1  0.139800  0.543000  0.316360  1.0  -0.2228
  C  C220  1  0.250700  0.486800  0.313640  1.0  0.1728
  C  C221  1  0.390300  0.612800  0.341240  1.0  0.1537
  C  C222  1  0.860000  0.330000  0.334560  1.0  0.1421
  C  C223  1  0.707400  0.221000  0.298250  1.0  0.1699
  C  C224  1  0.962400  0.264600  0.332920  1.0  -0.2121
  C  C225  1  0.803800  0.151800  0.295180  1.0  -0.2377
  C  C226  1  0.936500  0.173800  0.312320  1.0  0.1113
  C  C227  1  0.049500  0.106100  0.306280  1.0  -0.1257
  C  C228  1  0.982800  0.966000  0.349470  1.0  0.0775
  C  C229  1  0.120000  0.944200  0.290490  1.0  0.0737
  C  C230  1  0.948800  0.860800  0.347310  1.0  0.1111
  C  C231  1  0.082400  0.837200  0.288420  1.0  0.0657
  C  C232  1  0.032400  0.699300  0.335590  1.0  -0.0975
  C  C233  1  0.846600  0.362200  0.667640  1.0  0.081
  C  C234  1  0.717700  0.327700  0.655470  1.0  -0.1828
  C  C235  1  0.860200  0.457000  0.683640  1.0  -0.2234
  C  C236  1  0.749300  0.513200  0.686360  1.0  0.1734
  C  C237  1  0.609700  0.387200  0.658760  1.0  0.1524
  C  C238  1  0.140000  0.670000  0.665440  1.0  0.1421
  C  C239  1  0.292600  0.779000  0.701750  1.0  0.1712
  C  C240  1  0.037600  0.735400  0.667080  1.0  -0.2106
  C  C241  1  0.196200  0.848200  0.704820  1.0  -0.2385
  C  C242  1  0.063500  0.826200  0.687680  1.0  0.1121
  C  C243  1  0.950500  0.893900  0.693720  1.0  -0.125
  C  C244  1  0.017200  0.034000  0.650530  1.0  0.0764
  C  C245  1  0.880000  0.055800  0.709510  1.0  0.0715
  C  C246  1  0.051200  0.139200  0.652690  1.0  0.1126
  C  C247  1  0.917600  0.162800  0.711580  1.0  0.0661
  C  C248  1  0.967600  0.300700  0.664410  1.0  -0.0969
  C  C249  1  0.846600  0.137800  0.167640  1.0  0.0809
  C  C250  1  0.717700  0.172300  0.155470  1.0  -0.1828
  C  C251  1  0.860200  0.043000  0.183640  1.0  -0.2247
  C  C252  1  0.749300  0.986800  0.186360  1.0  0.1723
  C  C253  1  0.609700  0.112800  0.158760  1.0  0.1529
  C  C254  1  0.140000  0.830000  0.165440  1.0  0.1431
  C  C255  1  0.292600  0.721000  0.201750  1.0  0.1715
  C  C256  1  0.037600  0.764600  0.167080  1.0  -0.2109
  C  C257  1  0.196200  0.651800  0.204820  1.0  -0.2384
  C  C258  1  0.063500  0.673800  0.187680  1.0  0.112
  C  C259  1  0.950500  0.606100  0.193720  1.0  -0.1243
  C  C260  1  0.017200  0.466000  0.150530  1.0  0.0764
  C  C261  1  0.880000  0.444200  0.209510  1.0  0.0715
  C  C262  1  0.051200  0.360800  0.152690  1.0  0.1123
  C  C263  1  0.917600  0.337200  0.211580  1.0  0.0653
  C  C264  1  0.967600  0.199300  0.164410  1.0  -0.0985
  N  N265  1  0.302900  0.442000  0.022920  1.0  -0.2161
  N  N266  1  0.302900  0.058000  0.522920  1.0  -0.2164
  N  N267  1  0.697100  0.942000  0.477080  1.0  -0.215
  N  N268  1  0.697100  0.558000  0.977080  1.0  -0.2153
  N  N269  1  0.732900  0.190200  0.817170  1.0  -0.3361
  N  N270  1  0.375600  0.979400  0.825150  1.0  -0.3503
  N  N271  1  0.012200  0.497000  0.804640  1.0  -0.243
  N  N272  1  0.059700  0.696200  0.834610  1.0  -0.2127
  N  N273  1  0.732900  0.309800  0.317170  1.0  -0.334
  N  N274  1  0.375600  0.520600  0.325150  1.0  -0.3501
  N  N275  1  0.012200  0.003000  0.304640  1.0  -0.2431
  N  N276  1  0.059700  0.803800  0.334610  1.0  -0.212
  N  N277  1  0.267100  0.690200  0.682830  1.0  -0.335
  N  N278  1  0.624400  0.479400  0.674850  1.0  -0.3508
  N  N279  1  0.987800  0.997000  0.695360  1.0  -0.2423
  N  N280  1  0.940300  0.196200  0.665390  1.0  -0.2142
  N  N281  1  0.267100  0.809800  0.182830  1.0  -0.3331
  N  N282  1  0.624400  0.020600  0.174850  1.0  -0.3514
  N  N283  1  0.987800  0.503000  0.195360  1.0  -0.2419
  N  N284  1  0.940300  0.303800  0.165390  1.0  -0.2129
  O  O285  1  0.430600  0.203700  0.846730  1.0  -0.5975
  O  O286  1  0.563900  0.121200  0.900830  1.0  -0.628
  O  O287  1  0.455000  0.352300  0.242980  1.0  -0.6259
  O  O288  1  0.557500  0.492400  0.241120  1.0  -0.5925
  O  O289  1  0.430600  0.296300  0.346730  1.0  -0.5978
  O  O290  1  0.563900  0.378800  0.400830  1.0  -0.6267
  O  O291  1  0.455000  0.147700  0.742980  1.0  -0.628
  O  O292  1  0.557500  0.007600  0.741120  1.0  -0.5926
  O  O293  1  0.569400  0.703700  0.653270  1.0  -0.5986
  O  O294  1  0.436100  0.621200  0.599170  1.0  -0.6277
  O  O295  1  0.545000  0.852300  0.257020  1.0  -0.6267
  O  O296  1  0.442500  0.992400  0.258880  1.0  -0.5923
  O  O297  1  0.569400  0.796300  0.153270  1.0  -0.5994
  O  O298  1  0.436100  0.878800  0.099170  1.0  -0.6271
  O  O299  1  0.545000  0.647700  0.757020  1.0  -0.6263
  O  O300  1  0.442500  0.507600  0.758880  1.0  -0.5929
