# generated using pymatgen
data_ZnH6C2N5F
_symmetry_space_group_name_H-M   'P 1'
_cell_length_a   18.50590000
_cell_length_b   18.50590000
_cell_length_c   9.91680000
_cell_angle_alpha   90.00000000
_cell_angle_beta   90.00000000
_cell_angle_gamma   120.00000000
_symmetry_Int_Tables_number   1
_chemical_formula_structural   ZnH6C2N5F
_chemical_formula_sum   'Zn18 H108 C36 N90 F18'
_cell_volume   2941.18680105
_cell_formula_units_Z   18
loop_
 _symmetry_equiv_pos_site_id
 _symmetry_equiv_pos_as_xyz
  1  'x, y, z'
loop_
 _atom_site_type_symbol
 _atom_site_label
 _atom_site_symmetry_multiplicity
 _atom_site_fract_x
 _atom_site_fract_y
 _atom_site_fract_z
 _atom_site_occupancy
 _atom_site_charge
  Zn  Zn1  1  0.375540  0.375540  0.250000  1.0  0.8021
  Zn  Zn2  1  0.042200  0.708870  0.583330  1.0  0.8027
  Zn  Zn3  1  0.708870  0.042200  0.916670  1.0  0.8026
  Zn  Zn4  1  0.624460  0.000000  0.250000  1.0  0.8019
  Zn  Zn5  1  0.291130  0.333333  0.583330  1.0  0.8019
  Zn  Zn6  1  0.957800  0.666667  0.916670  1.0  0.8032
  Zn  Zn7  1  0.000000  0.624460  0.250000  1.0  0.8017
  Zn  Zn8  1  0.666667  0.957800  0.583330  1.0  0.8031
  Zn  Zn9  1  0.333333  0.291130  0.916670  1.0  0.8017
  Zn  Zn10  1  0.624460  0.624460  0.750000  1.0  0.8021
  Zn  Zn11  1  0.291130  0.957800  0.083330  1.0  0.8027
  Zn  Zn12  1  0.957800  0.291130  0.416670  1.0  0.8026
  Zn  Zn13  1  0.375540  0.000000  0.750000  1.0  0.8005
  Zn  Zn14  1  0.042200  0.333333  0.083330  1.0  0.8019
  Zn  Zn15  1  0.708870  0.666667  0.416670  1.0  0.8006
  Zn  Zn16  1  0.000000  0.375540  0.750000  1.0  0.8025
  Zn  Zn17  1  0.666667  0.708870  0.083330  1.0  0.8025
  Zn  Zn18  1  0.333333  0.042200  0.416670  1.0  0.8037
  H  H19  1  0.405000  0.215700  0.258700  1.0  0.1782
  H  H20  1  0.459300  0.263900  0.189800  1.0  0.1816
  H  H21  1  0.435200  0.175800  0.220600  1.0  0.1492
  H  H22  1  0.071670  0.549030  0.592030  1.0  0.1782
  H  H23  1  0.125970  0.597230  0.523130  1.0  0.1816
  H  H24  1  0.101870  0.509130  0.553930  1.0  0.1492
  H  H25  1  0.738330  0.882370  0.925370  1.0  0.1782
  H  H26  1  0.792630  0.930570  0.856470  1.0  0.189
  H  H27  1  0.768530  0.842470  0.887270  1.0  0.1493
  H  H28  1  0.784300  0.189300  0.258700  1.0  0.1784
  H  H29  1  0.736100  0.195400  0.189800  1.0  0.1863
  H  H30  1  0.824200  0.259400  0.220600  1.0  0.1464
  H  H31  1  0.450970  0.522630  0.592030  1.0  0.1783
  H  H32  1  0.402770  0.528730  0.523130  1.0  0.1863
  H  H33  1  0.490870  0.592730  0.553930  1.0  0.1463
  H  H34  1  0.117630  0.855970  0.925370  1.0  0.1783
  H  H35  1  0.069430  0.862070  0.856470  1.0  0.1831
  H  H36  1  0.157530  0.926070  0.887270  1.0  0.146
  H  H37  1  0.810700  0.595000  0.258700  1.0  0.1784
  H  H38  1  0.804600  0.540700  0.189800  1.0  0.1789
  H  H39  1  0.740600  0.564800  0.220600  1.0  0.141
  H  H40  1  0.477370  0.928330  0.592030  1.0  0.1784
  H  H41  1  0.471270  0.874030  0.523130  1.0  0.1789
  H  H42  1  0.407270  0.898130  0.553930  1.0  0.1411
  H  H43  1  0.144030  0.261670  0.925370  1.0  0.1784
  H  H44  1  0.137930  0.207370  0.856470  1.0  0.1845
  H  H45  1  0.073930  0.231470  0.887270  1.0  0.1413
  H  H46  1  0.215700  0.405000  0.241300  1.0  0.1785
  H  H47  1  0.263900  0.459300  0.310200  1.0  0.179
  H  H48  1  0.175800  0.435200  0.279400  1.0  0.1409
  H  H49  1  0.882370  0.738330  0.574630  1.0  0.1785
  H  H50  1  0.930570  0.792630  0.643530  1.0  0.1862
  H  H51  1  0.842470  0.768530  0.612730  1.0  0.141
  H  H52  1  0.549030  0.071670  0.907970  1.0  0.1785
  H  H53  1  0.597230  0.125970  0.976870  1.0  0.179
  H  H54  1  0.509130  0.101870  0.946070  1.0  0.1409
  H  H55  1  0.189300  0.784300  0.241300  1.0  0.1777
  H  H56  1  0.195400  0.736100  0.310200  1.0  0.1815
  H  H57  1  0.259400  0.824200  0.279400  1.0  0.1503
  H  H58  1  0.855970  0.117630  0.574630  1.0  0.1777
  H  H59  1  0.862070  0.069430  0.643530  1.0  0.1805
  H  H60  1  0.926070  0.157530  0.612730  1.0  0.1499
  H  H61  1  0.522630  0.450970  0.907970  1.0  0.1778
  H  H62  1  0.528730  0.402770  0.976870  1.0  0.1815
  H  H63  1  0.592730  0.490870  0.946070  1.0  0.1502
  H  H64  1  0.595000  0.810700  0.241300  1.0  0.1774
  H  H65  1  0.540700  0.804600  0.310200  1.0  0.1815
  H  H66  1  0.564800  0.740600  0.279400  1.0  0.1444
  H  H67  1  0.261670  0.144030  0.574630  1.0  0.1774
  H  H68  1  0.207370  0.137930  0.643530  1.0  0.1889
  H  H69  1  0.231470  0.073930  0.612730  1.0  0.1446
  H  H70  1  0.928330  0.477370  0.907970  1.0  0.1774
  H  H71  1  0.874030  0.471270  0.976870  1.0  0.1815
  H  H72  1  0.898130  0.407270  0.946070  1.0  0.1444
  H  H73  1  0.595000  0.784300  0.741300  1.0  0.1775
  H  H74  1  0.540700  0.736100  0.810200  1.0  0.1783
  H  H75  1  0.564800  0.824200  0.779400  1.0  0.1495
  H  H76  1  0.261670  0.117630  0.074630  1.0  0.1775
  H  H77  1  0.207370  0.069430  0.143530  1.0  0.1852
  H  H78  1  0.231470  0.157530  0.112730  1.0  0.1496
  H  H79  1  0.928330  0.450970  0.407970  1.0  0.1775
  H  H80  1  0.874030  0.402770  0.476870  1.0  0.1783
  H  H81  1  0.898130  0.490870  0.446070  1.0  0.1495
  H  H82  1  0.215700  0.810700  0.741300  1.0  0.1769
  H  H83  1  0.263900  0.804600  0.810200  1.0  0.1871
  H  H84  1  0.175800  0.740600  0.779400  1.0  0.1443
  H  H85  1  0.882370  0.144030  0.074630  1.0  0.1768
  H  H86  1  0.930570  0.137930  0.143530  1.0  0.1815
  H  H87  1  0.842470  0.073930  0.112730  1.0  0.1438
  H  H88  1  0.549030  0.477370  0.407970  1.0  0.1769
  H  H89  1  0.597230  0.471270  0.476870  1.0  0.1871
  H  H90  1  0.509130  0.407270  0.446070  1.0  0.1442
  H  H91  1  0.189300  0.405000  0.741300  1.0  0.1773
  H  H92  1  0.195400  0.459300  0.810200  1.0  0.1817
  H  H93  1  0.259400  0.435200  0.779400  1.0  0.1402
  H  H94  1  0.855970  0.738330  0.074630  1.0  0.1773
  H  H95  1  0.862070  0.792630  0.143530  1.0  0.188
  H  H96  1  0.926070  0.768530  0.112730  1.0  0.1404
  H  H97  1  0.522630  0.071670  0.407970  1.0  0.1773
  H  H98  1  0.528730  0.125970  0.476870  1.0  0.1817
  H  H99  1  0.592730  0.101870  0.446070  1.0  0.1402
  H  H100  1  0.784300  0.595000  0.758700  1.0  0.1779
  H  H101  1  0.736100  0.540700  0.689800  1.0  0.1815
  H  H102  1  0.824200  0.564800  0.720600  1.0  0.1403
  H  H103  1  0.450970  0.928330  0.092030  1.0  0.1779
  H  H104  1  0.402770  0.874030  0.023130  1.0  0.1815
  H  H105  1  0.490870  0.898130  0.053930  1.0  0.1403
  H  H106  1  0.117630  0.261670  0.425370  1.0  0.1779
  H  H107  1  0.069430  0.207370  0.356470  1.0  0.1882
  H  H108  1  0.157530  0.231470  0.387270  1.0  0.1403
  H  H109  1  0.810700  0.215700  0.758700  1.0  0.1791
  H  H110  1  0.804600  0.263900  0.689800  1.0  0.1861
  H  H111  1  0.740600  0.175800  0.720600  1.0  0.1496
  H  H112  1  0.477370  0.549030  0.092030  1.0  0.179
  H  H113  1  0.471270  0.597230  0.023130  1.0  0.1861
  H  H114  1  0.407270  0.509130  0.053930  1.0  0.1495
  H  H115  1  0.144030  0.882370  0.425370  1.0  0.179
  H  H116  1  0.137930  0.930570  0.356470  1.0  0.1836
  H  H117  1  0.073930  0.842470  0.387270  1.0  0.1492
  H  H118  1  0.405000  0.189300  0.758700  1.0  0.177
  H  H119  1  0.459300  0.195400  0.689800  1.0  0.1807
  H  H120  1  0.435200  0.259400  0.720600  1.0  0.1467
  H  H121  1  0.071670  0.522630  0.092030  1.0  0.177
  H  H122  1  0.125970  0.528730  0.023130  1.0  0.1807
  H  H123  1  0.101870  0.592730  0.053930  1.0  0.1468
  H  H124  1  0.738330  0.855970  0.425370  1.0  0.177
  H  H125  1  0.792630  0.862070  0.356470  1.0  0.1883
  H  H126  1  0.768530  0.926070  0.387270  1.0  0.1469
  C  C127  1  0.372510  0.214930  0.330850  1.0  0.1141
  C  C128  1  0.039180  0.548260  0.664180  1.0  0.1133
  C  C129  1  0.705840  0.881600  0.997520  1.0  0.1158
  C  C130  1  0.785070  0.157580  0.330850  1.0  0.1114
  C  C131  1  0.451740  0.490910  0.664180  1.0  0.1117
  C  C132  1  0.118400  0.824250  0.997520  1.0  0.1114
  C  C133  1  0.842420  0.627490  0.330850  1.0  0.1153
  C  C134  1  0.509090  0.960820  0.664180  1.0  0.1159
  C  C135  1  0.175750  0.294160  0.997520  1.0  0.1135
  C  C136  1  0.214930  0.372510  0.169150  1.0  0.1178
  C  C137  1  0.881600  0.705840  0.502480  1.0  0.1197
  C  C138  1  0.548260  0.039180  0.835820  1.0  0.1171
  C  C139  1  0.157580  0.785070  0.169150  1.0  0.1183
  C  C140  1  0.824250  0.118400  0.502480  1.0  0.1183
  C  C141  1  0.490910  0.451740  0.835820  1.0  0.1187
  C  C142  1  0.627490  0.842420  0.169150  1.0  0.1186
  C  C143  1  0.294160  0.175750  0.502480  1.0  0.1166
  C  C144  1  0.960820  0.509090  0.835820  1.0  0.1194
  C  C145  1  0.627490  0.785070  0.669150  1.0  0.1162
  C  C146  1  0.294160  0.118400  0.002480  1.0  0.1186
  C  C147  1  0.960820  0.451740  0.335820  1.0  0.1155
  C  C148  1  0.214930  0.842420  0.669150  1.0  0.1211
  C  C149  1  0.881600  0.175750  0.002480  1.0  0.1211
  C  C150  1  0.548260  0.509090  0.335820  1.0  0.1216
  C  C151  1  0.157580  0.372510  0.669150  1.0  0.122
  C  C152  1  0.824250  0.705840  0.002480  1.0  0.1201
  C  C153  1  0.490910  0.039180  0.335820  1.0  0.1229
  C  C154  1  0.785070  0.627490  0.830850  1.0  0.1143
  C  C155  1  0.451740  0.960820  0.164180  1.0  0.1137
  C  C156  1  0.118400  0.294160  0.497520  1.0  0.1161
  C  C157  1  0.842420  0.214930  0.830850  1.0  0.1096
  C  C158  1  0.509090  0.548260  0.164180  1.0  0.1099
  C  C159  1  0.175750  0.881600  0.497520  1.0  0.1096
  C  C160  1  0.372510  0.157580  0.830850  1.0  0.1157
  C  C161  1  0.039180  0.490910  0.164180  1.0  0.1166
  C  C162  1  0.705840  0.824250  0.497520  1.0  0.1139
  N  N163  1  0.429700  0.218700  0.234800  1.0  -0.2598
  N  N164  1  0.359050  0.276680  0.359960  1.0  -0.3362
  N  N165  1  0.096370  0.552030  0.568130  1.0  -0.2598
  N  N166  1  0.025720  0.610010  0.693290  1.0  -0.336
  N  N167  1  0.763030  0.885370  0.901470  1.0  -0.2598
  N  N168  1  0.692380  0.943350  0.026630  1.0  -0.3362
  N  N169  1  0.781300  0.211000  0.234800  1.0  -0.2656
  N  N170  1  0.723320  0.082370  0.359960  1.0  -0.3375
  N  N171  1  0.447970  0.544330  0.568130  1.0  -0.2656
  N  N172  1  0.389990  0.415700  0.693290  1.0  -0.3375
  N  N173  1  0.114630  0.877670  0.901470  1.0  -0.2656
  N  N174  1  0.056650  0.749040  0.026630  1.0  -0.3375
  N  N175  1  0.789000  0.570300  0.234800  1.0  -0.2618
  N  N176  1  0.917630  0.640950  0.359960  1.0  -0.3351
  N  N177  1  0.455670  0.903630  0.568130  1.0  -0.2618
  N  N178  1  0.584300  0.974280  0.693290  1.0  -0.335
  N  N179  1  0.122330  0.236970  0.901470  1.0  -0.2618
  N  N180  1  0.250960  0.307620  0.026630  1.0  -0.3351
  N  N181  1  0.218700  0.429700  0.265200  1.0  -0.2612
  N  N182  1  0.276680  0.359050  0.140040  1.0  -0.3356
  N  N183  1  0.885370  0.763030  0.598530  1.0  -0.2612
  N  N184  1  0.943350  0.692380  0.473370  1.0  -0.3356
  N  N185  1  0.552030  0.096370  0.931870  1.0  -0.2612
  N  N186  1  0.610010  0.025720  0.806710  1.0  -0.3353
  N  N187  1  0.211000  0.781300  0.265200  1.0  -0.2615
  N  N188  1  0.082370  0.723320  0.140040  1.0  -0.3354
  N  N189  1  0.877670  0.114630  0.598530  1.0  -0.2615
  N  N190  1  0.749040  0.056650  0.473370  1.0  -0.3354
  N  N191  1  0.544330  0.447970  0.931870  1.0  -0.2615
  N  N192  1  0.415700  0.389990  0.806710  1.0  -0.3353
  N  N193  1  0.570300  0.789000  0.265200  1.0  -0.2668
  N  N194  1  0.640950  0.917630  0.140040  1.0  -0.3367
  N  N195  1  0.236970  0.122330  0.598530  1.0  -0.2668
  N  N196  1  0.307620  0.250960  0.473370  1.0  -0.3367
  N  N197  1  0.903630  0.455670  0.931870  1.0  -0.2668
  N  N198  1  0.974280  0.584300  0.806710  1.0  -0.3366
  N  N199  1  0.570300  0.781300  0.765200  1.0  -0.2665
  N  N200  1  0.640950  0.723320  0.640040  1.0  -0.336
  N  N201  1  0.236970  0.114630  0.098530  1.0  -0.2665
  N  N202  1  0.307620  0.056650  0.973370  1.0  -0.336
  N  N203  1  0.903630  0.447970  0.431870  1.0  -0.2665
  N  N204  1  0.974280  0.389990  0.306710  1.0  -0.3357
  N  N205  1  0.218700  0.789000  0.765200  1.0  -0.2646
  N  N206  1  0.276680  0.917630  0.640040  1.0  -0.3358
  N  N207  1  0.885370  0.122330  0.098530  1.0  -0.2646
  N  N208  1  0.943350  0.250960  0.973370  1.0  -0.3358
  N  N209  1  0.552030  0.455670  0.431870  1.0  -0.2646
  N  N210  1  0.610010  0.584300  0.306710  1.0  -0.3357
  N  N211  1  0.211000  0.429700  0.765200  1.0  -0.2611
  N  N212  1  0.082370  0.359050  0.640040  1.0  -0.3348
  N  N213  1  0.877670  0.763030  0.098530  1.0  -0.261
  N  N214  1  0.749040  0.692380  0.973370  1.0  -0.3349
  N  N215  1  0.544330  0.096370  0.431870  1.0  -0.2611
  N  N216  1  0.415700  0.025720  0.306710  1.0  -0.3347
  N  N217  1  0.781300  0.570300  0.734800  1.0  -0.2621
  N  N218  1  0.723320  0.640950  0.859960  1.0  -0.3348
  N  N219  1  0.447970  0.903630  0.068130  1.0  -0.2621
  N  N220  1  0.389990  0.974280  0.193290  1.0  -0.3346
  N  N221  1  0.114630  0.236970  0.401470  1.0  -0.2621
  N  N222  1  0.056650  0.307620  0.526630  1.0  -0.3348
  N  N223  1  0.789000  0.218700  0.734800  1.0  -0.2648
  N  N224  1  0.917630  0.276680  0.859960  1.0  -0.3372
  N  N225  1  0.455670  0.552030  0.068130  1.0  -0.2648
  N  N226  1  0.584300  0.610010  0.193290  1.0  -0.3371
  N  N227  1  0.122330  0.885370  0.401470  1.0  -0.2648
  N  N228  1  0.250960  0.943350  0.526630  1.0  -0.3372
  N  N229  1  0.429700  0.211000  0.734800  1.0  -0.2604
  N  N230  1  0.359050  0.082370  0.859960  1.0  -0.3358
  N  N231  1  0.096370  0.544330  0.068130  1.0  -0.2604
  N  N232  1  0.025720  0.415700  0.193290  1.0  -0.3357
  N  N233  1  0.763030  0.877670  0.401470  1.0  -0.2604
  N  N234  1  0.692380  0.749040  0.526630  1.0  -0.3358
  N  N235  1  0.333333  0.150200  0.416670  1.0  -0.3383
  N  N236  1  0.000000  0.483530  0.750000  1.0  -0.3385
  N  N237  1  0.849800  0.183140  0.416670  1.0  -0.3383
  N  N238  1  0.516470  0.516470  0.750000  1.0  -0.3383
  N  N239  1  0.816860  0.666667  0.416670  1.0  -0.3426
  N  N240  1  0.483530  0.000000  0.750000  1.0  -0.3423
  N  N241  1  0.150200  0.333333  0.083330  1.0  -0.342
  N  N242  1  0.183140  0.849800  0.083330  1.0  -0.3384
  N  N243  1  0.666667  0.816860  0.083330  1.0  -0.3388
  N  N244  1  0.666667  0.849800  0.583330  1.0  -0.3379
  N  N245  1  0.150200  0.816860  0.583330  1.0  -0.3391
  N  N246  1  0.183140  0.333333  0.583330  1.0  -0.342
  N  N247  1  0.849800  0.666667  0.916670  1.0  -0.3414
  N  N248  1  0.516470  0.000000  0.250000  1.0  -0.3417
  N  N249  1  0.816860  0.150200  0.916670  1.0  -0.3391
  N  N250  1  0.483530  0.483530  0.250000  1.0  -0.3391
  N  N251  1  0.333333  0.183140  0.916670  1.0  -0.3384
  N  N252  1  0.000000  0.516470  0.250000  1.0  -0.3381
  F  F253  1  0.412230  0.333333  0.083330  1.0  -0.5088
  F  F254  1  0.666667  0.078890  0.083330  1.0  -0.5109
  F  F255  1  0.333333  0.412230  0.416670  1.0  -0.5105
  F  F256  1  0.921110  0.587770  0.083330  1.0  -0.5097
  F  F257  1  0.254440  0.254440  0.750000  1.0  -0.5094
  F  F258  1  0.000000  0.745560  0.750000  1.0  -0.5108
  F  F259  1  0.078890  0.666667  0.416670  1.0  -0.5085
  F  F260  1  0.745560  0.000000  0.750000  1.0  -0.5085
  F  F261  1  0.587770  0.921110  0.416670  1.0  -0.5094
  F  F262  1  0.587770  0.666667  0.916670  1.0  -0.5093
  F  F263  1  0.254440  0.000000  0.250000  1.0  -0.5096
  F  F264  1  0.921110  0.333333  0.583330  1.0  -0.5097
  F  F265  1  0.333333  0.921110  0.916670  1.0  -0.5098
  F  F266  1  0.000000  0.254440  0.250000  1.0  -0.5099
  F  F267  1  0.078890  0.412230  0.916670  1.0  -0.5108
  F  F268  1  0.745560  0.745560  0.250000  1.0  -0.5108
  F  F269  1  0.666667  0.587770  0.583330  1.0  -0.5101
  F  F270  1  0.412230  0.078890  0.583330  1.0  -0.5111
