# generated using pymatgen
data_ZnH6C2N5F
_symmetry_space_group_name_H-M   'P 1'
_cell_length_a   18.54860000
_cell_length_b   18.54860000
_cell_length_c   9.85380000
_cell_angle_alpha   90.00000000
_cell_angle_beta   90.00000000
_cell_angle_gamma   120.00000000
_symmetry_Int_Tables_number   1
_chemical_formula_structural   ZnH6C2N5F
_chemical_formula_sum   'Zn18 H108 C36 N90 F18'
_cell_volume   2936.00402421
_cell_formula_units_Z   18
loop_
 _symmetry_equiv_pos_site_id
 _symmetry_equiv_pos_as_xyz
  1  'x, y, z'
loop_
 _atom_site_type_symbol
 _atom_site_label
 _atom_site_symmetry_multiplicity
 _atom_site_fract_x
 _atom_site_fract_y
 _atom_site_fract_z
 _atom_site_occupancy
 _atom_site_charge
  Zn  Zn1  1  0.376410  0.376410  0.250000  1.0  0.8349
  Zn  Zn2  1  0.043080  0.709750  0.583330  1.0  0.8348
  Zn  Zn3  1  0.709750  0.043080  0.916670  1.0  0.8348
  Zn  Zn4  1  0.623590  0.000000  0.250000  1.0  0.8341
  Zn  Zn5  1  0.290250  0.333333  0.583330  1.0  0.834
  Zn  Zn6  1  0.956920  0.666667  0.916670  1.0  0.834
  Zn  Zn7  1  0.000000  0.623590  0.250000  1.0  0.8342
  Zn  Zn8  1  0.666667  0.956920  0.583330  1.0  0.8342
  Zn  Zn9  1  0.333333  0.290250  0.916670  1.0  0.8342
  Zn  Zn10  1  0.623590  0.623590  0.750000  1.0  0.8341
  Zn  Zn11  1  0.290250  0.956920  0.083330  1.0  0.8341
  Zn  Zn12  1  0.956920  0.290250  0.416670  1.0  0.834
  Zn  Zn13  1  0.376410  0.000000  0.750000  1.0  0.8336
  Zn  Zn14  1  0.043080  0.333333  0.083330  1.0  0.8336
  Zn  Zn15  1  0.709750  0.666667  0.416670  1.0  0.8336
  Zn  Zn16  1  0.000000  0.376410  0.750000  1.0  0.8347
  Zn  Zn17  1  0.666667  0.709750  0.083330  1.0  0.8347
  Zn  Zn18  1  0.333333  0.043080  0.416670  1.0  0.8347
  H  H19  1  0.405500  0.216500  0.258900  1.0  0.1689
  H  H20  1  0.459600  0.264600  0.190000  1.0  0.1773
  H  H21  1  0.435600  0.176500  0.220800  1.0  0.151
  H  H22  1  0.072170  0.549830  0.592230  1.0  0.1689
  H  H23  1  0.126270  0.597930  0.523330  1.0  0.1773
  H  H24  1  0.102270  0.509830  0.554130  1.0  0.151
  H  H25  1  0.738830  0.883170  0.925570  1.0  0.1689
  H  H26  1  0.792930  0.931270  0.856670  1.0  0.1835
  H  H27  1  0.768930  0.843170  0.887470  1.0  0.151
  H  H28  1  0.783500  0.189000  0.258900  1.0  0.1681
  H  H29  1  0.735400  0.195000  0.190000  1.0  0.1798
  H  H30  1  0.823500  0.259100  0.220800  1.0  0.1483
  H  H31  1  0.450170  0.522330  0.592230  1.0  0.1687
  H  H32  1  0.402070  0.528330  0.523330  1.0  0.1799
  H  H33  1  0.490170  0.592430  0.554130  1.0  0.1483
  H  H34  1  0.116830  0.855670  0.925570  1.0  0.1682
  H  H35  1  0.068730  0.861670  0.856670  1.0  0.1781
  H  H36  1  0.156830  0.925770  0.887470  1.0  0.1483
  H  H37  1  0.811000  0.594500  0.258900  1.0  0.1676
  H  H38  1  0.805000  0.540400  0.190000  1.0  0.1735
  H  H39  1  0.740900  0.564400  0.220800  1.0  0.1434
  H  H40  1  0.477670  0.927830  0.592230  1.0  0.1675
  H  H41  1  0.471670  0.873730  0.523330  1.0  0.1735
  H  H42  1  0.407570  0.897730  0.554130  1.0  0.1434
  H  H43  1  0.144330  0.261170  0.925570  1.0  0.1679
  H  H44  1  0.138330  0.207070  0.856670  1.0  0.1785
  H  H45  1  0.074230  0.231070  0.887470  1.0  0.1434
  H  H46  1  0.216500  0.405500  0.241100  1.0  0.1694
  H  H47  1  0.264600  0.459600  0.310000  1.0  0.175
  H  H48  1  0.176500  0.435600  0.279200  1.0  0.1432
  H  H49  1  0.883170  0.738830  0.574430  1.0  0.1689
  H  H50  1  0.931270  0.792930  0.643330  1.0  0.1809
  H  H51  1  0.843170  0.768930  0.612530  1.0  0.1432
  H  H52  1  0.549830  0.072170  0.907770  1.0  0.1694
  H  H53  1  0.597930  0.126270  0.976670  1.0  0.175
  H  H54  1  0.509830  0.102270  0.945870  1.0  0.1432
  H  H55  1  0.189000  0.783500  0.241100  1.0  0.1687
  H  H56  1  0.195000  0.735400  0.310000  1.0  0.1753
  H  H57  1  0.259100  0.823500  0.279200  1.0  0.1512
  H  H58  1  0.855670  0.116830  0.574430  1.0  0.1687
  H  H59  1  0.861670  0.068730  0.643330  1.0  0.1766
  H  H60  1  0.925770  0.156830  0.612530  1.0  0.1511
  H  H61  1  0.522330  0.450170  0.907770  1.0  0.1693
  H  H62  1  0.528330  0.402070  0.976670  1.0  0.1753
  H  H63  1  0.592430  0.490170  0.945870  1.0  0.1512
  H  H64  1  0.594500  0.811000  0.241100  1.0  0.1676
  H  H65  1  0.540400  0.805000  0.310000  1.0  0.1761
  H  H66  1  0.564400  0.740900  0.279200  1.0  0.146
  H  H67  1  0.261170  0.144330  0.574430  1.0  0.1676
  H  H68  1  0.207070  0.138330  0.643330  1.0  0.1823
  H  H69  1  0.231070  0.074230  0.612530  1.0  0.146
  H  H70  1  0.927830  0.477670  0.907770  1.0  0.1676
  H  H71  1  0.873730  0.471670  0.976670  1.0  0.1761
  H  H72  1  0.897730  0.407570  0.945870  1.0  0.146
  H  H73  1  0.594500  0.783500  0.741100  1.0  0.1694
  H  H74  1  0.540400  0.735400  0.810000  1.0  0.1732
  H  H75  1  0.564400  0.823500  0.779200  1.0  0.1505
  H  H76  1  0.261170  0.116830  0.074430  1.0  0.1694
  H  H77  1  0.207070  0.068730  0.143330  1.0  0.1791
  H  H78  1  0.231070  0.156830  0.112530  1.0  0.1505
  H  H79  1  0.927830  0.450170  0.407770  1.0  0.1694
  H  H80  1  0.873730  0.402070  0.476670  1.0  0.1732
  H  H81  1  0.897730  0.490170  0.445870  1.0  0.1505
  H  H82  1  0.216500  0.811000  0.741100  1.0  0.1676
  H  H83  1  0.264600  0.805000  0.810000  1.0  0.181
  H  H84  1  0.176500  0.740900  0.779200  1.0  0.1472
  H  H85  1  0.883170  0.144330  0.074430  1.0  0.1677
  H  H86  1  0.931270  0.138330  0.143330  1.0  0.1777
  H  H87  1  0.843170  0.074230  0.112530  1.0  0.1472
  H  H88  1  0.549830  0.477670  0.407770  1.0  0.1682
  H  H89  1  0.597930  0.471670  0.476670  1.0  0.181
  H  H90  1  0.509830  0.407570  0.445870  1.0  0.1472
  H  H91  1  0.189000  0.405500  0.741100  1.0  0.1684
  H  H92  1  0.195000  0.459600  0.810000  1.0  0.1774
  H  H93  1  0.259100  0.435600  0.779200  1.0  0.1419
  H  H94  1  0.855670  0.738830  0.074430  1.0  0.1684
  H  H95  1  0.861670  0.792930  0.143330  1.0  0.1823
  H  H96  1  0.925770  0.768930  0.112530  1.0  0.1419
  H  H97  1  0.522330  0.072170  0.407770  1.0  0.1684
  H  H98  1  0.528330  0.126270  0.476670  1.0  0.1774
  H  H99  1  0.592430  0.102270  0.445870  1.0  0.1419
  H  H100  1  0.783500  0.594500  0.758900  1.0  0.1676
  H  H101  1  0.735400  0.540400  0.690000  1.0  0.1762
  H  H102  1  0.823500  0.564400  0.720800  1.0  0.142
  H  H103  1  0.450170  0.927830  0.092230  1.0  0.1676
  H  H104  1  0.402070  0.873730  0.023330  1.0  0.1762
  H  H105  1  0.490170  0.897730  0.054130  1.0  0.1419
  H  H106  1  0.116830  0.261170  0.425570  1.0  0.1676
  H  H107  1  0.068730  0.207070  0.356670  1.0  0.182
  H  H108  1  0.156830  0.231070  0.387470  1.0  0.142
  H  H109  1  0.811000  0.216500  0.758900  1.0  0.17
  H  H110  1  0.805000  0.264600  0.690000  1.0  0.1793
  H  H111  1  0.740900  0.176500  0.720800  1.0  0.1517
  H  H112  1  0.477670  0.549830  0.092230  1.0  0.1706
  H  H113  1  0.471670  0.597930  0.023330  1.0  0.1794
  H  H114  1  0.407570  0.509830  0.054130  1.0  0.1517
  H  H115  1  0.144330  0.883170  0.425570  1.0  0.17
  H  H116  1  0.138330  0.931270  0.356670  1.0  0.1785
  H  H117  1  0.074230  0.843170  0.387470  1.0  0.1516
  H  H118  1  0.405500  0.189000  0.758900  1.0  0.1668
  H  H119  1  0.459600  0.195000  0.690000  1.0  0.1766
  H  H120  1  0.435600  0.259100  0.720800  1.0  0.1495
  H  H121  1  0.072170  0.522330  0.092230  1.0  0.1667
  H  H122  1  0.126270  0.528330  0.023330  1.0  0.1766
  H  H123  1  0.102270  0.592430  0.054130  1.0  0.1495
  H  H124  1  0.738830  0.855670  0.425570  1.0  0.1668
  H  H125  1  0.792930  0.861670  0.356670  1.0  0.1829
  H  H126  1  0.768930  0.925770  0.387470  1.0  0.1495
  C  C127  1  0.372990  0.215780  0.331070  1.0  0.1222
  C  C128  1  0.039660  0.549110  0.664400  1.0  0.12
  C  C129  1  0.706320  0.882450  0.997740  1.0  0.1225
  C  C130  1  0.784220  0.157210  0.331070  1.0  0.1195
  C  C131  1  0.450890  0.490540  0.664400  1.0  0.1212
  C  C132  1  0.117550  0.823880  0.997740  1.0  0.1195
  C  C133  1  0.842790  0.627010  0.331070  1.0  0.1208
  C  C134  1  0.509460  0.960340  0.664400  1.0  0.1225
  C  C135  1  0.176120  0.293680  0.997740  1.0  0.1205
  C  C136  1  0.215780  0.372990  0.168930  1.0  0.1227
  C  C137  1  0.882450  0.706320  0.502260  1.0  0.123
  C  C138  1  0.549110  0.039660  0.835600  1.0  0.1206
  C  C139  1  0.157210  0.784220  0.168930  1.0  0.1253
  C  C140  1  0.823880  0.117550  0.502260  1.0  0.1253
  C  C141  1  0.490540  0.450890  0.835600  1.0  0.1269
  C  C142  1  0.627010  0.842790  0.168930  1.0  0.1241
  C  C143  1  0.293680  0.176120  0.502260  1.0  0.1238
  C  C144  1  0.960340  0.509460  0.835600  1.0  0.126
  C  C145  1  0.627010  0.784220  0.668930  1.0  0.1238
  C  C146  1  0.293680  0.117550  0.002260  1.0  0.1241
  C  C147  1  0.960340  0.450890  0.335600  1.0  0.1218
  C  C148  1  0.215780  0.842790  0.668930  1.0  0.1285
  C  C149  1  0.882450  0.176120  0.002260  1.0  0.1285
  C  C150  1  0.549110  0.509460  0.335600  1.0  0.1302
  C  C151  1  0.157210  0.372990  0.668930  1.0  0.1248
  C  C152  1  0.823880  0.706320  0.002260  1.0  0.1245
  C  C153  1  0.490540  0.039660  0.335600  1.0  0.1266
  C  C154  1  0.784220  0.627010  0.831070  1.0  0.123
  C  C155  1  0.450890  0.960340  0.164400  1.0  0.1205
  C  C156  1  0.117550  0.293680  0.497740  1.0  0.1233
  C  C157  1  0.842790  0.215780  0.831070  1.0  0.1186
  C  C158  1  0.509460  0.549110  0.164400  1.0  0.1203
  C  C159  1  0.176120  0.882450  0.497740  1.0  0.1186
  C  C160  1  0.372990  0.157210  0.831070  1.0  0.1217
  C  C161  1  0.039660  0.490540  0.164400  1.0  0.1235
  C  C162  1  0.706320  0.823880  0.497740  1.0  0.1214
  N  N163  1  0.430100  0.219400  0.235100  1.0  -0.2567
  N  N164  1  0.359470  0.277410  0.360230  1.0  -0.3455
  N  N165  1  0.096770  0.552730  0.568430  1.0  -0.2567
  N  N166  1  0.026140  0.610740  0.693560  1.0  -0.3459
  N  N167  1  0.763430  0.886070  0.901770  1.0  -0.2567
  N  N168  1  0.692800  0.944080  0.026900  1.0  -0.3441
  N  N169  1  0.780600  0.210700  0.235100  1.0  -0.2626
  N  N170  1  0.722590  0.082060  0.360230  1.0  -0.3474
  N  N171  1  0.447270  0.544030  0.568430  1.0  -0.2626
  N  N172  1  0.389260  0.415390  0.693560  1.0  -0.3468
  N  N173  1  0.113930  0.877370  0.901770  1.0  -0.2626
  N  N174  1  0.055920  0.748730  0.026900  1.0  -0.3489
  N  N175  1  0.789300  0.569900  0.235100  1.0  -0.2587
  N  N176  1  0.917940  0.640530  0.360230  1.0  -0.3451
  N  N177  1  0.455970  0.903230  0.568430  1.0  -0.2587
  N  N178  1  0.584610  0.973860  0.693560  1.0  -0.3434
  N  N179  1  0.122630  0.236570  0.901770  1.0  -0.2587
  N  N180  1  0.251270  0.307200  0.026900  1.0  -0.346
  N  N181  1  0.219400  0.430100  0.264900  1.0  -0.2587
  N  N182  1  0.277410  0.359470  0.139770  1.0  -0.3459
  N  N183  1  0.886070  0.763430  0.598230  1.0  -0.2587
  N  N184  1  0.944080  0.692800  0.473100  1.0  -0.3442
  N  N185  1  0.552730  0.096770  0.931570  1.0  -0.2587
  N  N186  1  0.610740  0.026140  0.806440  1.0  -0.3464
  N  N187  1  0.210700  0.780600  0.264900  1.0  -0.2581
  N  N188  1  0.082060  0.722590  0.139770  1.0  -0.3445
  N  N189  1  0.877370  0.113930  0.598230  1.0  -0.2581
  N  N190  1  0.748730  0.055920  0.473100  1.0  -0.3465
  N  N191  1  0.544030  0.447270  0.931570  1.0  -0.2581
  N  N192  1  0.415390  0.389260  0.806440  1.0  -0.3438
  N  N193  1  0.569900  0.789300  0.264900  1.0  -0.2643
  N  N194  1  0.640530  0.917940  0.139770  1.0  -0.3472
  N  N195  1  0.236570  0.122630  0.598230  1.0  -0.2643
  N  N196  1  0.307200  0.251270  0.473100  1.0  -0.3476
  N  N197  1  0.903230  0.455970  0.931570  1.0  -0.2643
  N  N198  1  0.973860  0.584610  0.806440  1.0  -0.3457
  N  N199  1  0.569900  0.780600  0.764900  1.0  -0.2634
  N  N200  1  0.640530  0.722590  0.639770  1.0  -0.3452
  N  N201  1  0.236570  0.113930  0.098230  1.0  -0.2634
  N  N202  1  0.307200  0.055920  0.973100  1.0  -0.3431
  N  N203  1  0.903230  0.447270  0.431570  1.0  -0.2634
  N  N204  1  0.973860  0.389260  0.306440  1.0  -0.3458
  N  N205  1  0.219400  0.789300  0.764900  1.0  -0.2618
  N  N206  1  0.277410  0.917940  0.639770  1.0  -0.3461
  N  N207  1  0.886070  0.122630  0.098230  1.0  -0.2618
  N  N208  1  0.944080  0.251270  0.973100  1.0  -0.3466
  N  N209  1  0.552730  0.455970  0.431570  1.0  -0.2618
  N  N210  1  0.610740  0.584610  0.306440  1.0  -0.3455
  N  N211  1  0.210700  0.430100  0.764900  1.0  -0.2587
  N  N212  1  0.082060  0.359470  0.639770  1.0  -0.3461
  N  N213  1  0.877370  0.763430  0.098230  1.0  -0.2587
  N  N214  1  0.748730  0.692800  0.973100  1.0  -0.3479
  N  N215  1  0.544030  0.096770  0.431570  1.0  -0.2587
  N  N216  1  0.415390  0.026140  0.306440  1.0  -0.3447
  N  N217  1  0.780600  0.569900  0.735100  1.0  -0.259
  N  N218  1  0.722590  0.640530  0.860230  1.0  -0.3464
  N  N219  1  0.447270  0.903230  0.068430  1.0  -0.259
  N  N220  1  0.389260  0.973860  0.193560  1.0  -0.3469
  N  N221  1  0.113930  0.236570  0.401770  1.0  -0.259
  N  N222  1  0.055920  0.307200  0.526900  1.0  -0.344
  N  N223  1  0.789300  0.219400  0.735100  1.0  -0.2612
  N  N224  1  0.917940  0.277410  0.860230  1.0  -0.3457
  N  N225  1  0.455970  0.552730  0.068430  1.0  -0.2612
  N  N226  1  0.584610  0.610740  0.193560  1.0  -0.3452
  N  N227  1  0.122630  0.886070  0.401770  1.0  -0.2612
  N  N228  1  0.251270  0.944080  0.526900  1.0  -0.3473
  N  N229  1  0.430100  0.210700  0.735100  1.0  -0.2578
  N  N230  1  0.359470  0.082060  0.860230  1.0  -0.3461
  N  N231  1  0.096770  0.544030  0.068430  1.0  -0.2578
  N  N232  1  0.026140  0.415390  0.193560  1.0  -0.3445
  N  N233  1  0.763430  0.877370  0.401770  1.0  -0.2578
  N  N234  1  0.692800  0.748730  0.526900  1.0  -0.3462
  N  N235  1  0.333333  0.150710  0.416670  1.0  -0.3411
  N  N236  1  0.000000  0.484040  0.750000  1.0  -0.341
  N  N237  1  0.849290  0.182630  0.416670  1.0  -0.3404
  N  N238  1  0.515960  0.515960  0.750000  1.0  -0.3404
  N  N239  1  0.817370  0.666667  0.416670  1.0  -0.3443
  N  N240  1  0.484040  0.000000  0.750000  1.0  -0.3444
  N  N241  1  0.150710  0.333333  0.083330  1.0  -0.3443
  N  N242  1  0.182630  0.849290  0.083330  1.0  -0.3405
  N  N243  1  0.666667  0.817370  0.083330  1.0  -0.341
  N  N244  1  0.666667  0.849290  0.583330  1.0  -0.3404
  N  N245  1  0.150710  0.817370  0.583330  1.0  -0.3411
  N  N246  1  0.182630  0.333333  0.583330  1.0  -0.3443
  N  N247  1  0.849290  0.666667  0.916670  1.0  -0.3443
  N  N248  1  0.515960  0.000000  0.250000  1.0  -0.3443
  N  N249  1  0.817370  0.150710  0.916670  1.0  -0.341
  N  N250  1  0.484040  0.484040  0.250000  1.0  -0.341
  N  N251  1  0.333333  0.182630  0.916670  1.0  -0.3404
  N  N252  1  0.000000  0.515960  0.250000  1.0  -0.3404
  F  F253  1  0.412140  0.333333  0.083330  1.0  -0.5129
  F  F254  1  0.666667  0.078800  0.083330  1.0  -0.5145
  F  F255  1  0.333333  0.412140  0.416670  1.0  -0.5142
  F  F256  1  0.921200  0.587860  0.083330  1.0  -0.5134
  F  F257  1  0.254530  0.254530  0.750000  1.0  -0.5131
  F  F258  1  0.000000  0.745470  0.750000  1.0  -0.5143
  F  F259  1  0.078800  0.666667  0.416670  1.0  -0.5126
  F  F260  1  0.745470  0.000000  0.750000  1.0  -0.5126
  F  F261  1  0.587860  0.921200  0.416670  1.0  -0.5132
  F  F262  1  0.587860  0.666667  0.916670  1.0  -0.5133
  F  F263  1  0.254530  0.000000  0.250000  1.0  -0.5133
  F  F264  1  0.921200  0.333333  0.583330  1.0  -0.5135
  F  F265  1  0.333333  0.921200  0.916670  1.0  -0.5135
  F  F266  1  0.000000  0.254530  0.250000  1.0  -0.5135
  F  F267  1  0.078800  0.412140  0.916670  1.0  -0.5143
  F  F268  1  0.745470  0.745470  0.250000  1.0  -0.5142
  F  F269  1  0.666667  0.587860  0.583330  1.0  -0.5137
  F  F270  1  0.412140  0.078800  0.583330  1.0  -0.5145
