# generated using pymatgen
data_PrCu4H12C18I4(NO2)3
_symmetry_space_group_name_H-M   'P 1'
_cell_length_a   15.09500000
_cell_length_b   25.05320000
_cell_length_c   29.75880000
_cell_angle_alpha   90.00000000
_cell_angle_beta   107.93600000
_cell_angle_gamma   90.00000000
_symmetry_Int_Tables_number   1
_chemical_formula_structural   PrCu4H12C18I4(NO2)3
_chemical_formula_sum   'Pr12 Cu48 H144 C216 I48 N36 O72'
_cell_volume   10707.18695405
_cell_formula_units_Z   12
loop_
 _symmetry_equiv_pos_site_id
 _symmetry_equiv_pos_as_xyz
  1  'x, y, z'
loop_
 _atom_site_type_symbol
 _atom_site_label
 _atom_site_symmetry_multiplicity
 _atom_site_fract_x
 _atom_site_fract_y
 _atom_site_fract_z
 _atom_site_occupancy
 _atom_site_charge
  Pr  Pr1  1  0.041510  0.599970  0.464730  1.0  2.2259
  Pr  Pr2  1  0.956730  0.759100  0.503880  1.0  2.2653
  Pr  Pr3  1  0.033580  0.923620  0.485090  1.0  2.2226
  Pr  Pr4  1  0.958490  0.099970  0.035270  1.0  2.2269
  Pr  Pr5  1  0.043270  0.259100  0.996120  1.0  2.2629
  Pr  Pr6  1  0.966420  0.423620  0.014910  1.0  2.224
  Pr  Pr7  1  0.958490  0.400030  0.535270  1.0  2.227
  Pr  Pr8  1  0.043270  0.240900  0.496120  1.0  2.2627
  Pr  Pr9  1  0.966420  0.076380  0.514910  1.0  2.2246
  Pr  Pr10  1  0.041510  0.900030  0.964730  1.0  2.2261
  Pr  Pr11  1  0.956730  0.740900  0.003880  1.0  2.2648
  Pr  Pr12  1  0.033580  0.576380  0.985090  1.0  2.2229
  Cu  Cu13  1  0.348930  0.622820  0.742300  1.0  0.1669
  Cu  Cu14  1  0.482800  0.623180  0.819730  1.0  0.1555
  Cu  Cu15  1  0.322870  0.670560  0.814340  1.0  0.2076
  Cu  Cu16  1  0.436040  0.718750  0.779160  1.0  0.2092
  Cu  Cu17  1  0.531220  0.795790  0.676440  1.0  0.1694
  Cu  Cu18  1  0.669250  0.701770  0.252790  1.0  0.1553
  Cu  Cu19  1  0.676490  0.853540  0.678350  1.0  0.1404
  Cu  Cu20  1  0.563900  0.894280  0.720180  1.0  0.264
  Cu  Cu21  1  0.318340  0.961060  0.757180  1.0  0.1423
  Cu  Cu22  1  0.459860  0.539510  0.334060  1.0  0.1346
  Cu  Cu23  1  0.702550  0.516290  0.665760  1.0  0.1186
  Cu  Cu24  1  0.592860  0.556440  0.711730  1.0  0.1963
  Cu  Cu25  1  0.651070  0.122820  0.757700  1.0  0.1676
  Cu  Cu26  1  0.517200  0.123180  0.680270  1.0  0.1556
  Cu  Cu27  1  0.677130  0.170560  0.685660  1.0  0.2079
  Cu  Cu28  1  0.563960  0.218750  0.720840  1.0  0.2089
  Cu  Cu29  1  0.468780  0.295790  0.823560  1.0  0.1694
  Cu  Cu30  1  0.330750  0.201770  0.247210  1.0  0.1545
  Cu  Cu31  1  0.323510  0.353540  0.821650  1.0  0.1399
  Cu  Cu32  1  0.436100  0.394280  0.779820  1.0  0.2642
  Cu  Cu33  1  0.681660  0.461060  0.742820  1.0  0.145
  Cu  Cu34  1  0.540140  0.039510  0.165940  1.0  0.1364
  Cu  Cu35  1  0.297450  0.016290  0.834240  1.0  0.1186
  Cu  Cu36  1  0.407140  0.056440  0.788270  1.0  0.2001
  Cu  Cu37  1  0.651070  0.377180  0.257700  1.0  0.1672
  Cu  Cu38  1  0.517200  0.376820  0.180270  1.0  0.1557
  Cu  Cu39  1  0.677130  0.329440  0.185660  1.0  0.2085
  Cu  Cu40  1  0.563960  0.281250  0.220840  1.0  0.2084
  Cu  Cu41  1  0.468780  0.204210  0.323560  1.0  0.1695
  Cu  Cu42  1  0.330750  0.298230  0.747210  1.0  0.1548
  Cu  Cu43  1  0.323510  0.146460  0.321650  1.0  0.1401
  Cu  Cu44  1  0.436100  0.105720  0.279820  1.0  0.2644
  Cu  Cu45  1  0.681660  0.038940  0.242820  1.0  0.1464
  Cu  Cu46  1  0.540140  0.460490  0.665940  1.0  0.1364
  Cu  Cu47  1  0.297450  0.483710  0.334240  1.0  0.1187
  Cu  Cu48  1  0.407140  0.443560  0.288270  1.0  0.1997
  Cu  Cu49  1  0.348930  0.877180  0.242300  1.0  0.1666
  Cu  Cu50  1  0.482800  0.876820  0.319730  1.0  0.1553
  Cu  Cu51  1  0.322870  0.829440  0.314340  1.0  0.2083
  Cu  Cu52  1  0.436040  0.781250  0.279160  1.0  0.2088
  Cu  Cu53  1  0.531220  0.704210  0.176440  1.0  0.1694
  Cu  Cu54  1  0.669250  0.798230  0.752790  1.0  0.1561
  Cu  Cu55  1  0.676490  0.646460  0.178350  1.0  0.1407
  Cu  Cu56  1  0.563900  0.605720  0.220180  1.0  0.2639
  Cu  Cu57  1  0.318340  0.538940  0.257180  1.0  0.1438
  Cu  Cu58  1  0.459860  0.960490  0.834060  1.0  0.1349
  Cu  Cu59  1  0.702550  0.983710  0.165760  1.0  0.1187
  Cu  Cu60  1  0.592860  0.943560  0.211730  1.0  0.1983
  H  H61  1  0.349400  0.613100  0.644900  1.0  0.0881
  H  H62  1  0.263300  0.575400  0.573800  1.0  0.1334
  H  H63  1  0.111800  0.496700  0.643500  1.0  0.1298
  H  H64  1  0.202300  0.535700  0.712800  1.0  0.0906
  H  H65  1  0.486900  0.701200  0.608100  1.0  0.0948
  H  H66  1  0.356200  0.663900  0.554400  1.0  0.1296
  H  H67  1  0.197100  0.761500  0.606000  1.0  0.1181
  H  H68  1  0.332000  0.796400  0.657600  1.0  0.0844
  H  H69  1  0.846000  0.489500  0.616500  1.0  0.0919
  H  H70  1  0.929700  0.531500  0.573100  1.0  0.1227
  H  H71  1  0.823600  0.672200  0.599300  1.0  0.1303
  H  H72  1  0.739500  0.625900  0.639800  1.0  0.0922
  H  H73  1  0.661900  0.534700  0.352700  1.0  0.0811
  H  H74  1  0.797500  0.580400  0.390700  1.0  0.1268
  H  H75  1  0.640800  0.692100  0.428700  1.0  0.1287
  H  H76  1  0.509800  0.643200  0.389800  1.0  0.085
  H  H77  1  0.274300  0.723300  0.341600  1.0  0.0966
  H  H78  1  0.180800  0.684600  0.381300  1.0  0.1244
  H  H79  1  0.066000  0.828600  0.386000  1.0  0.1221
  H  H80  1  0.164600  0.863900  0.347800  1.0  0.0884
  H  H81  1  0.163200  0.880300  0.732400  1.0  0.0871
  H  H82  1  0.069100  0.835800  0.667600  1.0  0.1329
  H  H83  1  0.230500  0.891900  0.592200  1.0  0.1285
  H  H84  1  0.319500  0.936700  0.659200  1.0  0.0856
  H  H85  1  0.664200  0.743500  0.346000  1.0  0.0804
  H  H86  1  0.750100  0.798100  0.406800  1.0  0.1229
  H  H87  1  0.911700  0.836800  0.326000  1.0  0.1358
  H  H88  1  0.824400  0.779600  0.268700  1.0  0.0935
  H  H89  1  0.479900  0.044600  0.601000  1.0  0.0932
  H  H90  1  0.355900  0.998400  0.550500  1.0  0.1326
  H  H91  1  0.191700  0.057700  0.623100  1.0  0.1242
  H  H92  1  0.321100  0.100800  0.672800  1.0  0.0809
  H  H93  1  0.172500  0.176800  0.361400  1.0  0.0937
  H  H94  1  0.083800  0.139500  0.403700  1.0  0.1131
  H  H95  1  0.202100  0.998200  0.395600  1.0  0.1197
  H  H96  1  0.296500  0.040400  0.358400  1.0  0.1001
  H  H97  1  0.650600  0.113100  0.855100  1.0  0.088
  H  H98  1  0.736700  0.075400  0.926200  1.0  0.133
  H  H99  1  0.888200  0.996700  0.856500  1.0  0.1303
  H  H100  1  0.797700  0.035700  0.787200  1.0  0.0908
  H  H101  1  0.513100  0.201200  0.891900  1.0  0.0946
  H  H102  1  0.643800  0.163900  0.945600  1.0  0.1306
  H  H103  1  0.802900  0.261500  0.894000  1.0  0.1179
  H  H104  1  0.668000  0.296400  0.842400  1.0  0.0846
  H  H105  1  0.154000  0.989500  0.883500  1.0  0.0918
  H  H106  1  0.070300  0.031500  0.926900  1.0  0.1225
  H  H107  1  0.176400  0.172200  0.900700  1.0  0.1301
  H  H108  1  0.260500  0.125900  0.860200  1.0  0.0919
  H  H109  1  0.338100  0.034700  0.147300  1.0  0.0808
  H  H110  1  0.202500  0.080400  0.109300  1.0  0.1268
  H  H111  1  0.359200  0.192100  0.071300  1.0  0.1287
  H  H112  1  0.490200  0.143200  0.110200  1.0  0.0857
  H  H113  1  0.725700  0.223300  0.158400  1.0  0.0964
  H  H114  1  0.819200  0.184600  0.118700  1.0  0.1244
  H  H115  1  0.934000  0.328600  0.114000  1.0  0.1226
  H  H116  1  0.835400  0.363900  0.152200  1.0  0.0878
  H  H117  1  0.836800  0.380300  0.767600  1.0  0.0875
  H  H118  1  0.930900  0.335800  0.832400  1.0  0.1325
  H  H119  1  0.769500  0.391900  0.907800  1.0  0.1281
  H  H120  1  0.680500  0.436700  0.840800  1.0  0.0856
  H  H121  1  0.335800  0.243500  0.154000  1.0  0.0806
  H  H122  1  0.249900  0.298100  0.093200  1.0  0.1244
  H  H123  1  0.088300  0.336800  0.174000  1.0  0.1357
  H  H124  1  0.175600  0.279600  0.231300  1.0  0.0944
  H  H125  1  0.520100  0.544600  0.899000  1.0  0.094
  H  H126  1  0.644100  0.498400  0.949500  1.0  0.1319
  H  H127  1  0.808300  0.557700  0.876900  1.0  0.125
  H  H128  1  0.678900  0.600800  0.827200  1.0  0.081
  H  H129  1  0.827500  0.676800  0.138600  1.0  0.0937
  H  H130  1  0.916200  0.639500  0.096300  1.0  0.1136
  H  H131  1  0.797900  0.498200  0.104400  1.0  0.1197
  H  H132  1  0.703500  0.540400  0.141600  1.0  0.1002
  H  H133  1  0.650600  0.386900  0.355100  1.0  0.0879
  H  H134  1  0.736700  0.424600  0.426200  1.0  0.1331
  H  H135  1  0.888200  0.503300  0.356500  1.0  0.1307
  H  H136  1  0.797700  0.464300  0.287200  1.0  0.0909
  H  H137  1  0.513100  0.298800  0.391900  1.0  0.0944
  H  H138  1  0.643800  0.336100  0.445600  1.0  0.1301
  H  H139  1  0.802900  0.238500  0.394000  1.0  0.1181
  H  H140  1  0.668000  0.203600  0.342400  1.0  0.0849
  H  H141  1  0.154000  0.510500  0.383500  1.0  0.0914
  H  H142  1  0.070300  0.468500  0.426900  1.0  0.1222
  H  H143  1  0.176400  0.327800  0.400700  1.0  0.1292
  H  H144  1  0.260500  0.374100  0.360200  1.0  0.0911
  H  H145  1  0.338100  0.465300  0.647300  1.0  0.0801
  H  H146  1  0.202500  0.419600  0.609300  1.0  0.1268
  H  H147  1  0.359200  0.307900  0.571300  1.0  0.1281
  H  H148  1  0.490200  0.356800  0.610200  1.0  0.0857
  H  H149  1  0.725700  0.276700  0.658400  1.0  0.0971
  H  H150  1  0.819200  0.315400  0.618700  1.0  0.1249
  H  H151  1  0.934000  0.171400  0.614000  1.0  0.1224
  H  H152  1  0.835400  0.136100  0.652200  1.0  0.0881
  H  H153  1  0.836800  0.119700  0.267600  1.0  0.0873
  H  H154  1  0.930900  0.164200  0.332400  1.0  0.1329
  H  H155  1  0.769500  0.108100  0.407800  1.0  0.1281
  H  H156  1  0.680500  0.063300  0.340800  1.0  0.0856
  H  H157  1  0.335800  0.256500  0.654000  1.0  0.0804
  H  H158  1  0.249900  0.201900  0.593200  1.0  0.1247
  H  H159  1  0.088300  0.163200  0.674000  1.0  0.1359
  H  H160  1  0.175600  0.220400  0.731300  1.0  0.0941
  H  H161  1  0.520100  0.955400  0.399000  1.0  0.0941
  H  H162  1  0.644100  0.001600  0.449500  1.0  0.1315
  H  H163  1  0.808300  0.942300  0.376900  1.0  0.1246
  H  H164  1  0.678900  0.899200  0.327200  1.0  0.0798
  H  H165  1  0.827500  0.823200  0.638600  1.0  0.094
  H  H166  1  0.916200  0.860500  0.596300  1.0  0.1134
  H  H167  1  0.797900  0.001800  0.604400  1.0  0.1196
  H  H168  1  0.703500  0.959600  0.641600  1.0  0.1002
  H  H169  1  0.349400  0.886900  0.144900  1.0  0.0885
  H  H170  1  0.263300  0.924600  0.073800  1.0  0.1333
  H  H171  1  0.111800  0.003300  0.143500  1.0  0.1299
  H  H172  1  0.202300  0.964300  0.212800  1.0  0.0905
  H  H173  1  0.486900  0.798800  0.108100  1.0  0.0948
  H  H174  1  0.356200  0.836100  0.054400  1.0  0.1297
  H  H175  1  0.197100  0.738500  0.106000  1.0  0.1183
  H  H176  1  0.332000  0.703600  0.157600  1.0  0.085
  H  H177  1  0.846000  0.010500  0.116500  1.0  0.091
  H  H178  1  0.929700  0.968500  0.073100  1.0  0.1228
  H  H179  1  0.823600  0.827800  0.099300  1.0  0.1297
  H  H180  1  0.739500  0.874100  0.139800  1.0  0.092
  H  H181  1  0.661900  0.965300  0.852700  1.0  0.0813
  H  H182  1  0.797500  0.919600  0.890700  1.0  0.1267
  H  H183  1  0.640800  0.807900  0.928700  1.0  0.1289
  H  H184  1  0.509800  0.856800  0.889800  1.0  0.0853
  H  H185  1  0.274300  0.776700  0.841600  1.0  0.0975
  H  H186  1  0.180800  0.815400  0.881300  1.0  0.1247
  H  H187  1  0.066000  0.671400  0.886000  1.0  0.1221
  H  H188  1  0.164600  0.636100  0.847800  1.0  0.0887
  H  H189  1  0.163200  0.619700  0.232400  1.0  0.087
  H  H190  1  0.069100  0.664200  0.167600  1.0  0.1332
  H  H191  1  0.230500  0.608100  0.092200  1.0  0.1284
  H  H192  1  0.319500  0.563300  0.159200  1.0  0.0859
  H  H193  1  0.664200  0.756500  0.846000  1.0  0.0803
  H  H194  1  0.750100  0.701900  0.906800  1.0  0.1234
  H  H195  1  0.911700  0.663200  0.826000  1.0  0.1357
  H  H196  1  0.824400  0.720400  0.768700  1.0  0.0932
  H  H197  1  0.479900  0.455400  0.101000  1.0  0.0933
  H  H198  1  0.355900  0.501600  0.050500  1.0  0.1328
  H  H199  1  0.191700  0.442300  0.123100  1.0  0.1241
  H  H200  1  0.321100  0.399200  0.172800  1.0  0.0795
  H  H201  1  0.172500  0.323200  0.861400  1.0  0.0945
  H  H202  1  0.083800  0.360500  0.903700  1.0  0.1133
  H  H203  1  0.202100  0.501800  0.895600  1.0  0.1194
  H  H204  1  0.296500  0.459600  0.858400  1.0  0.1007
  C  C205  1  0.299900  0.589500  0.644500  1.0  0.1718
  C  C206  1  0.248500  0.567500  0.601840  1.0  -0.1542
  C  C207  1  0.175100  0.533900  0.600700  1.0  -0.0968
  C  C208  1  0.159600  0.521200  0.642900  1.0  -0.1444
  C  C209  1  0.214000  0.544400  0.684000  1.0  0.147
  C  C210  1  0.115900  0.510200  0.554480  1.0  0.7276
  C  C211  1  0.427100  0.714200  0.606900  1.0  0.1518
  C  C212  1  0.349600  0.691600  0.575000  1.0  -0.1636
  C  C213  1  0.261900  0.709900  0.573490  1.0  -0.1379
  C  C214  1  0.256100  0.749000  0.605200  1.0  -0.1486
  C  C215  1  0.336900  0.769700  0.635800  1.0  0.1621
  C  C216  1  0.174500  0.688300  0.538460  1.0  0.7255
  C  C217  1  0.840200  0.527000  0.612200  1.0  0.1436
  C  C218  1  0.891000  0.551800  0.586500  1.0  -0.1403
  C  C219  1  0.884400  0.606700  0.580660  1.0  -0.082
  C  C220  1  0.828100  0.634500  0.601700  1.0  -0.1434
  C  C221  1  0.778700  0.606500  0.626100  1.0  0.1328
  C  C222  1  0.938000  0.635400  0.552470  1.0  0.7144
  C  C223  1  0.657600  0.566900  0.368800  1.0  0.1764
  C  C224  1  0.739000  0.594000  0.391100  1.0  -0.1474
  C  C225  1  0.734000  0.641300  0.414000  1.0  -0.138
  C  C226  1  0.646900  0.659600  0.413400  1.0  -0.147
  C  C227  1  0.569100  0.630000  0.390300  1.0  0.1476
  C  C228  1  0.821300  0.672800  0.439200  1.0  0.7248
  C  C229  1  0.233700  0.745300  0.352300  1.0  0.142
  C  C230  1  0.178100  0.722000  0.375700  1.0  -0.1393
  C  C231  1  0.118400  0.753600  0.391000  1.0  -0.0858
  C  C232  1  0.110900  0.806500  0.378750  1.0  -0.1432
  C  C233  1  0.169500  0.827100  0.355700  1.0  0.1512
  C  C234  1  0.064400  0.729400  0.421190  1.0  0.7261
  C  C235  1  0.176200  0.883500  0.703300  1.0  0.1397
  C  C236  1  0.119700  0.856700  0.664900  1.0  -0.1635
  C  C237  1  0.137700  0.860900  0.622000  1.0  -0.0497
  C  C238  1  0.214300  0.889900  0.620500  1.0  -0.1728
  C  C239  1  0.267600  0.916200  0.660900  1.0  0.1698
  C  C240  1  0.076300  0.832200  0.578900  1.0  0.6597
  C  C241  1  0.716700  0.761800  0.342300  1.0  0.1717
  C  C242  1  0.767500  0.794200  0.378890  1.0  -0.1712
  C  C243  1  0.844000  0.820900  0.373930  1.0  -0.0833
  C  C244  1  0.862700  0.816700  0.331500  1.0  -0.1849
  C  C245  1  0.809500  0.783100  0.297400  1.0  0.1378
  C  C246  1  0.906400  0.854100  0.413340  1.0  0.6771
  C  C247  1  0.420300  0.047600  0.605300  1.0  0.1384
  C  C248  1  0.346900  0.020200  0.574900  1.0  -0.1555
  C  C249  1  0.259500  0.025300  0.580800  1.0  -0.0774
  C  C250  1  0.250400  0.054800  0.617600  1.0  -0.123
  C  C251  1  0.327800  0.080600  0.647060  1.0  0.1665
  C  C252  1  0.178500  0.995900  0.547520  1.0  0.7107
  C  C253  1  0.179900  0.139900  0.369000  1.0  0.1395
  C  C254  1  0.125700  0.117700  0.393700  1.0  -0.1403
  C  C255  1  0.131800  0.064600  0.403900  1.0  -0.0723
  C  C256  1  0.195800  0.035500  0.389600  1.0  -0.1245
  C  C257  1  0.250500  0.060600  0.366700  1.0  0.1404
  C  C258  1  0.077000  0.039200  0.432700  1.0  0.706
  C  C259  1  0.700100  0.089500  0.855500  1.0  0.1702
  C  C260  1  0.751500  0.067500  0.898160  1.0  -0.1547
  C  C261  1  0.824900  0.033900  0.899300  1.0  -0.0954
  C  C262  1  0.840400  0.021200  0.857100  1.0  -0.1454
  C  C263  1  0.786000  0.044400  0.816000  1.0  0.1489
  C  C264  1  0.884100  0.010200  0.945520  1.0  0.7258
  C  C265  1  0.572900  0.214200  0.893100  1.0  0.1519
  C  C266  1  0.650400  0.191600  0.925000  1.0  -0.1624
  C  C267  1  0.738100  0.209900  0.926510  1.0  -0.1384
  C  C268  1  0.743900  0.249000  0.894800  1.0  -0.1485
  C  C269  1  0.663100  0.269700  0.864200  1.0  0.1624
  C  C270  1  0.825500  0.188300  0.961540  1.0  0.7242
  C  C271  1  0.159800  0.027000  0.887800  1.0  0.1447
  C  C272  1  0.109000  0.051800  0.913500  1.0  -0.1403
  C  C273  1  0.115600  0.106700  0.919340  1.0  -0.081
  C  C274  1  0.171900  0.134500  0.898300  1.0  -0.143
  C  C275  1  0.221300  0.106500  0.873900  1.0  0.1332
  C  C276  1  0.062000  0.135400  0.947530  1.0  0.7143
  C  C277  1  0.342400  0.066900  0.131200  1.0  0.1764
  C  C278  1  0.261000  0.094000  0.108900  1.0  -0.1471
  C  C279  1  0.266000  0.141300  0.086000  1.0  -0.1377
  C  C280  1  0.353100  0.159600  0.086600  1.0  -0.1452
  C  C281  1  0.430900  0.130000  0.109700  1.0  0.1473
  C  C282  1  0.178700  0.172800  0.060800  1.0  0.7249
  C  C283  1  0.766300  0.245300  0.147700  1.0  0.1426
  C  C284  1  0.821900  0.222000  0.124300  1.0  -0.1386
  C  C285  1  0.881600  0.253600  0.109000  1.0  -0.0854
  C  C286  1  0.889100  0.306500  0.121250  1.0  -0.1416
  C  C287  1  0.830500  0.327100  0.144300  1.0  0.1525
  C  C288  1  0.935600  0.229400  0.078810  1.0  0.7247
  C  C289  1  0.823800  0.383500  0.796700  1.0  0.1418
  C  C290  1  0.880300  0.356700  0.835100  1.0  -0.1625
  C  C291  1  0.862300  0.360900  0.878000  1.0  -0.049
  C  C292  1  0.785700  0.389900  0.879500  1.0  -0.1724
  C  C293  1  0.732400  0.416200  0.839100  1.0  0.1692
  C  C294  1  0.923700  0.332200  0.921100  1.0  0.661
  C  C295  1  0.283300  0.261800  0.157700  1.0  0.1714
  C  C296  1  0.232500  0.294200  0.121110  1.0  -0.1723
  C  C297  1  0.156000  0.320900  0.126070  1.0  -0.0832
  C  C298  1  0.137300  0.316700  0.168500  1.0  -0.1873
  C  C299  1  0.190500  0.283100  0.202600  1.0  0.1369
  C  C300  1  0.093600  0.354100  0.086660  1.0  0.6762
  C  C301  1  0.579700  0.547600  0.894700  1.0  0.1397
  C  C302  1  0.653100  0.520200  0.925100  1.0  -0.1545
  C  C303  1  0.740500  0.525300  0.919200  1.0  -0.0792
  C  C304  1  0.749600  0.554800  0.882400  1.0  -0.1231
  C  C305  1  0.672200  0.580600  0.852940  1.0  0.1661
  C  C306  1  0.821500  0.495900  0.952480  1.0  0.7107
  C  C307  1  0.820100  0.639900  0.131000  1.0  0.1396
  C  C308  1  0.874300  0.617700  0.106300  1.0  -0.1408
  C  C309  1  0.868200  0.564600  0.096100  1.0  -0.073
  C  C310  1  0.804200  0.535500  0.110400  1.0  -0.1231
  C  C311  1  0.749500  0.560600  0.133300  1.0  0.142
  C  C312  1  0.923000  0.539200  0.067300  1.0  0.7067
  C  C313  1  0.700100  0.410500  0.355500  1.0  0.17
  C  C314  1  0.751500  0.432500  0.398160  1.0  -0.1546
  C  C315  1  0.824900  0.466100  0.399300  1.0  -0.0955
  C  C316  1  0.840400  0.478800  0.357100  1.0  -0.1453
  C  C317  1  0.786000  0.455600  0.316000  1.0  0.1484
  C  C318  1  0.884100  0.489800  0.445520  1.0  0.7252
  C  C319  1  0.572900  0.285800  0.393100  1.0  0.152
  C  C320  1  0.650400  0.308400  0.425000  1.0  -0.1625
  C  C321  1  0.738100  0.290100  0.426510  1.0  -0.1384
  C  C322  1  0.743900  0.251000  0.394800  1.0  -0.1487
  C  C323  1  0.663100  0.230300  0.364200  1.0  0.1622
  C  C324  1  0.825500  0.311700  0.461540  1.0  0.7245
  C  C325  1  0.159800  0.473000  0.387800  1.0  0.1445
  C  C326  1  0.109000  0.448200  0.413500  1.0  -0.1402
  C  C327  1  0.115600  0.393300  0.419340  1.0  -0.0826
  C  C328  1  0.171900  0.365500  0.398300  1.0  -0.1422
  C  C329  1  0.221300  0.393500  0.373900  1.0  0.1327
  C  C330  1  0.062000  0.364600  0.447530  1.0  0.7146
  C  C331  1  0.342400  0.433100  0.631200  1.0  0.1763
  C  C332  1  0.261000  0.406000  0.608900  1.0  -0.1471
  C  C333  1  0.266000  0.358700  0.586000  1.0  -0.1376
  C  C334  1  0.353100  0.340400  0.586600  1.0  -0.1445
  C  C335  1  0.430900  0.370000  0.609700  1.0  0.1472
  C  C336  1  0.178700  0.327200  0.560800  1.0  0.7248
  C  C337  1  0.766300  0.254700  0.647700  1.0  0.1427
  C  C338  1  0.821900  0.278000  0.624300  1.0  -0.1398
  C  C339  1  0.881600  0.246400  0.609000  1.0  -0.0853
  C  C340  1  0.889100  0.193500  0.621250  1.0  -0.1419
  C  C341  1  0.830500  0.172900  0.644300  1.0  0.1533
  C  C342  1  0.935600  0.270600  0.578810  1.0  0.7255
  C  C343  1  0.823800  0.116500  0.296700  1.0  0.1415
  C  C344  1  0.880300  0.143300  0.335100  1.0  -0.1627
  C  C345  1  0.862300  0.139100  0.378000  1.0  -0.0492
  C  C346  1  0.785700  0.110100  0.379500  1.0  -0.1722
  C  C347  1  0.732400  0.083800  0.339100  1.0  0.169
  C  C348  1  0.923700  0.167800  0.421100  1.0  0.66
  C  C349  1  0.283300  0.238200  0.657700  1.0  0.1718
  C  C350  1  0.232500  0.205800  0.621110  1.0  -0.1723
  C  C351  1  0.156000  0.179100  0.626070  1.0  -0.0834
  C  C352  1  0.137300  0.183300  0.668500  1.0  -0.1871
  C  C353  1  0.190500  0.216900  0.702600  1.0  0.1363
  C  C354  1  0.093600  0.145900  0.586660  1.0  0.6759
  C  C355  1  0.579700  0.952400  0.394700  1.0  0.1404
  C  C356  1  0.653100  0.979800  0.425100  1.0  -0.1547
  C  C357  1  0.740500  0.974700  0.419200  1.0  -0.0793
  C  C358  1  0.749600  0.945200  0.382400  1.0  -0.1257
  C  C359  1  0.672200  0.919400  0.352940  1.0  0.1689
  C  C360  1  0.821500  0.004100  0.452480  1.0  0.7108
  C  C361  1  0.820100  0.860100  0.631000  1.0  0.1398
  C  C362  1  0.874300  0.882300  0.606300  1.0  -0.1408
  C  C363  1  0.868200  0.935400  0.596100  1.0  -0.0723
  C  C364  1  0.804200  0.964500  0.610400  1.0  -0.1263
  C  C365  1  0.749500  0.939400  0.633300  1.0  0.1419
  C  C366  1  0.923000  0.960800  0.567300  1.0  0.7065
  C  C367  1  0.299900  0.910500  0.144500  1.0  0.1723
  C  C368  1  0.248500  0.932500  0.101840  1.0  -0.1543
  C  C369  1  0.175100  0.966100  0.100700  1.0  -0.0967
  C  C370  1  0.159600  0.978800  0.142900  1.0  -0.1443
  C  C371  1  0.214000  0.955600  0.184000  1.0  0.1469
  C  C372  1  0.115900  0.989800  0.054480  1.0  0.7275
  C  C373  1  0.427100  0.785800  0.106900  1.0  0.1515
  C  C374  1  0.349600  0.808400  0.075000  1.0  -0.1631
  C  C375  1  0.261900  0.790100  0.073490  1.0  -0.138
  C  C376  1  0.256100  0.751000  0.105200  1.0  -0.1488
  C  C377  1  0.336900  0.730300  0.135800  1.0  0.1625
  C  C378  1  0.174500  0.811700  0.038460  1.0  0.7254
  C  C379  1  0.840200  0.973000  0.112200  1.0  0.1445
  C  C380  1  0.891000  0.948200  0.086500  1.0  -0.1405
  C  C381  1  0.884400  0.893300  0.080660  1.0  -0.0829
  C  C382  1  0.828100  0.865500  0.101700  1.0  -0.1418
  C  C383  1  0.778700  0.893500  0.126100  1.0  0.133
  C  C384  1  0.938000  0.864600  0.052470  1.0  0.7145
  C  C385  1  0.657600  0.933100  0.868800  1.0  0.1762
  C  C386  1  0.739000  0.906000  0.891100  1.0  -0.1476
  C  C387  1  0.734000  0.858700  0.914000  1.0  -0.138
  C  C388  1  0.646900  0.840400  0.913400  1.0  -0.145
  C  C389  1  0.569100  0.870000  0.890300  1.0  0.1476
  C  C390  1  0.821300  0.827200  0.939200  1.0  0.7243
  C  C391  1  0.233700  0.754700  0.852300  1.0  0.1426
  C  C392  1  0.178100  0.778000  0.875700  1.0  -0.1401
  C  C393  1  0.118400  0.746400  0.891000  1.0  -0.0856
  C  C394  1  0.110900  0.693500  0.878750  1.0  -0.143
  C  C395  1  0.169500  0.672900  0.855700  1.0  0.1522
  C  C396  1  0.064400  0.770600  0.921190  1.0  0.7265
  C  C397  1  0.176200  0.616500  0.203300  1.0  0.1402
  C  C398  1  0.119700  0.643300  0.164900  1.0  -0.1635
  C  C399  1  0.137700  0.639100  0.122000  1.0  -0.0497
  C  C400  1  0.214300  0.610100  0.120500  1.0  -0.1727
  C  C401  1  0.267600  0.583800  0.160900  1.0  0.1695
  C  C402  1  0.076300  0.667800  0.078900  1.0  0.6595
  C  C403  1  0.716700  0.738200  0.842300  1.0  0.1721
  C  C404  1  0.767500  0.705800  0.878890  1.0  -0.171
  C  C405  1  0.844000  0.679100  0.873930  1.0  -0.083
  C  C406  1  0.862700  0.683300  0.831500  1.0  -0.1851
  C  C407  1  0.809500  0.716900  0.797400  1.0  0.1376
  C  C408  1  0.906400  0.645900  0.913340  1.0  0.6771
  C  C409  1  0.420300  0.452400  0.105300  1.0  0.1386
  C  C410  1  0.346900  0.479800  0.074900  1.0  -0.1555
  C  C411  1  0.259500  0.474700  0.080800  1.0  -0.0774
  C  C412  1  0.250400  0.445200  0.117600  1.0  -0.1258
  C  C413  1  0.327800  0.419400  0.147060  1.0  0.1692
  C  C414  1  0.178500  0.504100  0.047520  1.0  0.7105
  C  C415  1  0.179900  0.360100  0.869000  1.0  0.1398
  C  C416  1  0.125700  0.382300  0.893700  1.0  -0.1403
  C  C417  1  0.131800  0.435400  0.903900  1.0  -0.0714
  C  C418  1  0.195800  0.464500  0.889600  1.0  -0.1275
  C  C419  1  0.250500  0.439400  0.866700  1.0  0.1405
  C  C420  1  0.077000  0.460800  0.932700  1.0  0.7053
  I  I421  1  0.327730  0.567180  0.816140  1.0  -0.2259
  I  I422  1  0.522210  0.644820  0.739360  1.0  -0.1823
  I  I423  1  0.487610  0.711800  0.873060  1.0  -0.2921
  I  I424  1  0.259370  0.718860  0.730340  1.0  -0.2862
  I  I425  1  0.497780  0.811610  0.759890  1.0  -0.1717
  I  I426  1  0.684200  0.749070  0.672050  1.0  -0.2405
  I  I427  1  0.742180  0.603360  0.264970  1.0  -0.3032
  I  I428  1  0.503520  0.891910  0.627950  1.0  -0.2929
  I  I429  1  0.487190  0.978900  0.749460  1.0  -0.1875
  I  I430  1  0.304040  0.911350  0.835790  1.0  -0.2119
  I  I431  1  0.471350  0.445140  0.380980  1.0  -0.3023
  I  I432  1  0.226550  0.055470  0.746780  1.0  -0.2509
  I  I433  1  0.672270  0.067180  0.683860  1.0  -0.2256
  I  I434  1  0.477790  0.144820  0.760640  1.0  -0.1826
  I  I435  1  0.512390  0.211800  0.626940  1.0  -0.295
  I  I436  1  0.740630  0.218860  0.769660  1.0  -0.288
  I  I437  1  0.502220  0.311610  0.740110  1.0  -0.1731
  I  I438  1  0.315800  0.249070  0.827950  1.0  -0.2409
  I  I439  1  0.257820  0.103360  0.235030  1.0  -0.3039
  I  I440  1  0.496480  0.391910  0.872040  1.0  -0.2933
  I  I441  1  0.512810  0.478900  0.750540  1.0  -0.1854
  I  I442  1  0.695960  0.411350  0.664210  1.0  -0.2126
  I  I443  1  0.528650  0.945140  0.119020  1.0  -0.3046
  I  I444  1  0.773450  0.555470  0.753220  1.0  -0.2508
  I  I445  1  0.672270  0.432820  0.183860  1.0  -0.2253
  I  I446  1  0.477790  0.355180  0.260640  1.0  -0.183
  I  I447  1  0.512390  0.288200  0.126940  1.0  -0.2949
  I  I448  1  0.740630  0.281140  0.269660  1.0  -0.2883
  I  I449  1  0.502220  0.188390  0.240110  1.0  -0.1737
  I  I450  1  0.315800  0.250930  0.327950  1.0  -0.2408
  I  I451  1  0.257820  0.396640  0.735030  1.0  -0.3035
  I  I452  1  0.496480  0.108090  0.372040  1.0  -0.2928
  I  I453  1  0.512810  0.021100  0.250540  1.0  -0.1854
  I  I454  1  0.695960  0.088650  0.164210  1.0  -0.2124
  I  I455  1  0.528650  0.554860  0.619020  1.0  -0.3041
  I  I456  1  0.773450  0.944520  0.253220  1.0  -0.2503
  I  I457  1  0.327730  0.932820  0.316140  1.0  -0.2256
  I  I458  1  0.522210  0.855180  0.239360  1.0  -0.1827
  I  I459  1  0.487610  0.788200  0.373060  1.0  -0.2918
  I  I460  1  0.259370  0.781140  0.230340  1.0  -0.2865
  I  I461  1  0.497780  0.688390  0.259890  1.0  -0.172
  I  I462  1  0.684200  0.750930  0.172050  1.0  -0.2402
  I  I463  1  0.742180  0.896640  0.764970  1.0  -0.3029
  I  I464  1  0.503520  0.608090  0.127950  1.0  -0.2927
  I  I465  1  0.487190  0.521100  0.249460  1.0  -0.1877
  I  I466  1  0.304040  0.588650  0.335790  1.0  -0.2119
  I  I467  1  0.471350  0.054860  0.880980  1.0  -0.3018
  I  I468  1  0.226550  0.444520  0.246780  1.0  -0.2514
  N  N469  1  0.283300  0.579020  0.685330  1.0  -0.3117
  N  N470  1  0.421700  0.754090  0.636310  1.0  -0.2891
  N  N471  1  0.783500  0.553420  0.631250  1.0  -0.301
  N  N472  1  0.572800  0.583520  0.368670  1.0  -0.3005
  N  N473  1  0.232500  0.798100  0.344100  1.0  -0.2807
  N  N474  1  0.249000  0.913900  0.702240  1.0  -0.2915
  N  N475  1  0.737300  0.754900  0.302410  1.0  -0.2813
  N  N476  1  0.411400  0.078250  0.640670  1.0  -0.2838
  N  N477  1  0.241300  0.112800  0.355400  1.0  -0.2864
  N  N478  1  0.716700  0.079020  0.814670  1.0  -0.3123
  N  N479  1  0.578300  0.254090  0.863690  1.0  -0.287
  N  N480  1  0.216500  0.053420  0.868750  1.0  -0.3017
  N  N481  1  0.427200  0.083520  0.131330  1.0  -0.2988
  N  N482  1  0.767500  0.298100  0.155900  1.0  -0.2799
  N  N483  1  0.751000  0.413900  0.797760  1.0  -0.2888
  N  N484  1  0.262700  0.254900  0.197590  1.0  -0.2777
  N  N485  1  0.588600  0.578250  0.859330  1.0  -0.2841
  N  N486  1  0.758700  0.612800  0.144600  1.0  -0.2863
  N  N487  1  0.716700  0.420980  0.314670  1.0  -0.3134
  N  N488  1  0.578300  0.245910  0.363690  1.0  -0.2881
  N  N489  1  0.216500  0.446580  0.368750  1.0  -0.3013
  N  N490  1  0.427200  0.416480  0.631330  1.0  -0.2984
  N  N491  1  0.767500  0.201900  0.655900  1.0  -0.2806
  N  N492  1  0.751000  0.086100  0.297760  1.0  -0.2916
  N  N493  1  0.262700  0.245100  0.697590  1.0  -0.2807
  N  N494  1  0.588600  0.921750  0.359330  1.0  -0.285
  N  N495  1  0.758700  0.887200  0.644600  1.0  -0.287
  N  N496  1  0.283300  0.920980  0.185330  1.0  -0.3106
  N  N497  1  0.421700  0.745910  0.136310  1.0  -0.2877
  N  N498  1  0.783500  0.946580  0.131250  1.0  -0.3011
  N  N499  1  0.572800  0.916480  0.868670  1.0  -0.2983
  N  N500  1  0.232500  0.701900  0.844100  1.0  -0.2818
  N  N501  1  0.249000  0.586100  0.202240  1.0  -0.2908
  N  N502  1  0.737300  0.745100  0.802410  1.0  -0.2801
  N  N503  1  0.411400  0.421750  0.140670  1.0  -0.2834
  N  N504  1  0.241300  0.387200  0.855400  1.0  -0.2872
  O  O505  1  0.123000  0.529790  0.517060  1.0  -0.7025
  O  O506  1  0.064600  0.471660  0.557180  1.0  -0.7217
  O  O507  1  0.179300  0.644840  0.519680  1.0  -0.6729
  O  O508  1  0.102200  0.716640  0.530800  1.0  -0.7498
  O  O509  1  0.988100  0.608020  0.535020  1.0  -0.6643
  O  O510  1  0.926700  0.685370  0.549000  1.0  -0.745
  O  O511  1  0.898700  0.653000  0.442640  1.0  -0.7422
  O  O512  1  0.810600  0.717160  0.455590  1.0  -0.6425
  O  O513  1  0.075600  0.681050  0.429420  1.0  -0.6995
  O  O514  1  0.014300  0.760390  0.436290  1.0  -0.6893
  O  O515  1  0.024100  0.796340  0.585200  1.0  -0.6417
  O  O516  1  0.080600  0.844370  0.538170  1.0  -0.7364
  O  O517  1  0.907300  0.844790  0.455800  1.0  -0.756
  O  O518  1  0.955300  0.889240  0.403570  1.0  -0.6302
  O  O519  1  0.195200  0.954300  0.529250  1.0  -0.6383
  O  O520  1  0.097300  0.014000  0.540190  1.0  -0.8071
  O  O521  1  0.035000  0.071140  0.451980  1.0  -0.7164
  O  O522  1  0.079100  0.989820  0.436610  1.0  -0.7075
  O  O523  1  0.877000  0.029790  0.982940  1.0  -0.7034
  O  O524  1  0.935400  0.971660  0.942820  1.0  -0.7208
  O  O525  1  0.820700  0.144840  0.980320  1.0  -0.6713
  O  O526  1  0.897800  0.216640  0.969200  1.0  -0.7493
  O  O527  1  0.011900  0.108020  0.964980  1.0  -0.6628
  O  O528  1  0.073300  0.185370  0.951000  1.0  -0.7434
  O  O529  1  0.101300  0.153000  0.057360  1.0  -0.7441
  O  O530  1  0.189400  0.217160  0.044410  1.0  -0.6402
  O  O531  1  0.924400  0.181050  0.070580  1.0  -0.7002
  O  O532  1  0.985700  0.260390  0.063710  1.0  -0.6902
  O  O533  1  0.975900  0.296340  0.914800  1.0  -0.6421
  O  O534  1  0.919400  0.344370  0.961830  1.0  -0.7402
  O  O535  1  0.092700  0.344790  0.044200  1.0  -0.7551
  O  O536  1  0.044700  0.389240  0.096430  1.0  -0.6324
  O  O537  1  0.804800  0.454300  0.970750  1.0  -0.6392
  O  O538  1  0.902700  0.514000  0.959810  1.0  -0.8067
  O  O539  1  0.965000  0.571140  0.048020  1.0  -0.7168
  O  O540  1  0.920900  0.489820  0.063390  1.0  -0.7072
  O  O541  1  0.877000  0.470210  0.482940  1.0  -0.7033
  O  O542  1  0.935400  0.528340  0.442820  1.0  -0.7224
  O  O543  1  0.820700  0.355160  0.480320  1.0  -0.672
  O  O544  1  0.897800  0.283360  0.469200  1.0  -0.7499
  O  O545  1  0.011900  0.391980  0.464980  1.0  -0.662
  O  O546  1  0.073300  0.314630  0.451000  1.0  -0.7431
  O  O547  1  0.101300  0.347000  0.557360  1.0  -0.744
  O  O548  1  0.189400  0.282840  0.544410  1.0  -0.6395
  O  O549  1  0.924400  0.318950  0.570580  1.0  -0.699
  O  O550  1  0.985700  0.239610  0.563710  1.0  -0.6901
  O  O551  1  0.975900  0.203660  0.414800  1.0  -0.6447
  O  O552  1  0.919400  0.155630  0.461830  1.0  -0.7398
  O  O553  1  0.092700  0.155210  0.544200  1.0  -0.755
  O  O554  1  0.044700  0.110760  0.596430  1.0  -0.6318
  O  O555  1  0.804800  0.045700  0.470750  1.0  -0.6402
  O  O556  1  0.902700  0.986000  0.459810  1.0  -0.8074
  O  O557  1  0.965000  0.928860  0.548020  1.0  -0.7172
  O  O558  1  0.920900  0.010180  0.563390  1.0  -0.7077
  O  O559  1  0.123000  0.970210  0.017060  1.0  -0.7024
  O  O560  1  0.064600  0.028340  0.057180  1.0  -0.7228
  O  O561  1  0.179300  0.855160  0.019680  1.0  -0.6722
  O  O562  1  0.102200  0.783360  0.030800  1.0  -0.7506
  O  O563  1  0.988100  0.891980  0.035020  1.0  -0.6635
  O  O564  1  0.926700  0.814630  0.049000  1.0  -0.7449
  O  O565  1  0.898700  0.847000  0.942640  1.0  -0.742
  O  O566  1  0.810600  0.782840  0.955590  1.0  -0.6405
  O  O567  1  0.075600  0.818950  0.929420  1.0  -0.6976
  O  O568  1  0.014300  0.739610  0.936290  1.0  -0.6896
  O  O569  1  0.024100  0.703660  0.085200  1.0  -0.6444
  O  O570  1  0.080600  0.655630  0.038170  1.0  -0.7364
  O  O571  1  0.907300  0.655210  0.955800  1.0  -0.7565
  O  O572  1  0.955300  0.610760  0.903570  1.0  -0.6317
  O  O573  1  0.195200  0.545700  0.029250  1.0  -0.6396
  O  O574  1  0.097300  0.486000  0.040190  1.0  -0.808
  O  O575  1  0.035000  0.428860  0.951980  1.0  -0.7169
  O  O576  1  0.079100  0.510180  0.936610  1.0  -0.7067
