# generated using pymatgen
data_PrCu4H12C18I4(NO2)3
_symmetry_space_group_name_H-M   'P 1'
_cell_length_a   15.28900000
_cell_length_b   8.16800000
_cell_length_c   28.99500000
_cell_angle_alpha   90.00000000
_cell_angle_beta   100.64600000
_cell_angle_gamma   90.00000000
_symmetry_Int_Tables_number   1
_chemical_formula_structural   PrCu4H12C18I4(NO2)3
_chemical_formula_sum   'Pr4 Cu16 H48 C72 I16 N12 O24'
_cell_volume   3558.58610940
_cell_formula_units_Z   4
loop_
 _symmetry_equiv_pos_site_id
 _symmetry_equiv_pos_as_xyz
  1  'x, y, z'
loop_
 _atom_site_type_symbol
 _atom_site_label
 _atom_site_symmetry_multiplicity
 _atom_site_fract_x
 _atom_site_fract_y
 _atom_site_fract_z
 _atom_site_occupancy
 _atom_site_charge
  Pr  Pr1  1  0.550170  0.250710  0.011810  1.0  2.2438
  Pr  Pr2  1  0.949830  0.750710  0.488190  1.0  2.2448
  Pr  Pr3  1  0.449830  0.749290  0.988190  1.0  2.243
  Pr  Pr4  1  0.050170  0.249290  0.511810  1.0  2.2425
  Cu  Cu5  1  0.998430  0.569980  0.170160  1.0  0.1489
  Cu  Cu6  1  0.145090  0.701790  0.214150  1.0  0.2064
  Cu  Cu7  1  0.425030  0.920630  0.250490  1.0  0.1432
  Cu  Cu8  1  0.352470  0.896530  0.324330  1.0  0.1304
  Cu  Cu9  1  0.501570  0.069980  0.329840  1.0  0.1474
  Cu  Cu10  1  0.354910  0.201790  0.285850  1.0  0.2053
  Cu  Cu11  1  0.074970  0.420630  0.249510  1.0  0.1443
  Cu  Cu12  1  0.147530  0.396530  0.175670  1.0  0.1306
  Cu  Cu13  1  0.001570  0.430020  0.829840  1.0  0.1477
  Cu  Cu14  1  0.854910  0.298210  0.785850  1.0  0.2052
  Cu  Cu15  1  0.574970  0.079370  0.749510  1.0  0.1439
  Cu  Cu16  1  0.647530  0.103470  0.675670  1.0  0.1304
  Cu  Cu17  1  0.498430  0.930020  0.670160  1.0  0.1491
  Cu  Cu18  1  0.645090  0.798210  0.714150  1.0  0.2064
  Cu  Cu19  1  0.925030  0.579370  0.750490  1.0  0.1427
  Cu  Cu20  1  0.852470  0.603470  0.824330  1.0  0.1302
  H  H21  1  0.068700  0.104800  0.865200  1.0  0.0931
  H  H22  1  0.196300  0.980800  0.904800  1.0  0.1236
  H  H23  1  0.321100  0.414800  0.905700  1.0  0.1242
  H  H24  1  0.188800  0.527100  0.867300  1.0  0.0903
  H  H25  1  0.571400  0.712800  0.228100  1.0  0.0998
  H  H26  1  0.604200  0.549900  0.167800  1.0  0.1276
  H  H27  1  0.359500  0.640300  0.095300  1.0  0.114
  H  H28  1  0.330800  0.797300  0.157600  1.0  0.0932
  H  H29  1  0.873600  0.884800  0.893500  1.0  0.0949
  H  H30  1  0.789300  0.023600  0.939300  1.0  0.132
  H  H31  1  0.575100  0.763200  0.877600  1.0  0.128
  H  H32  1  0.665800  0.630800  0.833500  1.0  0.0842
  H  H33  1  0.431300  0.604800  0.634800  1.0  0.093
  H  H34  1  0.303700  0.480800  0.595200  1.0  0.1238
  H  H35  1  0.178900  0.914800  0.594300  1.0  0.124
  H  H36  1  0.311200  0.027100  0.632700  1.0  0.0904
  H  H37  1  0.928600  0.212800  0.271900  1.0  0.0996
  H  H38  1  0.895800  0.049900  0.332200  1.0  0.1276
  H  H39  1  0.140500  0.140300  0.404700  1.0  0.1141
  H  H40  1  0.169200  0.297300  0.342400  1.0  0.0932
  H  H41  1  0.626400  0.384800  0.606500  1.0  0.0946
  H  H42  1  0.710700  0.523600  0.560700  1.0  0.1327
  H  H43  1  0.924900  0.263200  0.622400  1.0  0.128
  H  H44  1  0.834200  0.130800  0.666500  1.0  0.0843
  H  H45  1  0.931300  0.895200  0.134800  1.0  0.0932
  H  H46  1  0.803700  0.019200  0.095200  1.0  0.1239
  H  H47  1  0.678900  0.585200  0.094300  1.0  0.1236
  H  H48  1  0.811200  0.472900  0.132700  1.0  0.0909
  H  H49  1  0.428600  0.287200  0.771900  1.0  0.0998
  H  H50  1  0.395800  0.450100  0.832200  1.0  0.1274
  H  H51  1  0.640500  0.359700  0.904700  1.0  0.1138
  H  H52  1  0.669200  0.202700  0.842400  1.0  0.0936
  H  H53  1  0.126400  0.115200  0.106500  1.0  0.0946
  H  H54  1  0.210700  0.976400  0.060700  1.0  0.1325
  H  H55  1  0.424900  0.236800  0.122400  1.0  0.1279
  H  H56  1  0.334200  0.369200  0.166500  1.0  0.0836
  H  H57  1  0.568700  0.395200  0.365200  1.0  0.093
  H  H58  1  0.696300  0.519200  0.404800  1.0  0.1234
  H  H59  1  0.821100  0.085200  0.405700  1.0  0.1242
  H  H60  1  0.688800  0.972900  0.367300  1.0  0.0906
  H  H61  1  0.071400  0.787200  0.728100  1.0  0.1002
  H  H62  1  0.104200  0.950100  0.667800  1.0  0.1276
  H  H63  1  0.859500  0.859700  0.595300  1.0  0.1139
  H  H64  1  0.830800  0.702700  0.657600  1.0  0.0933
  H  H65  1  0.373600  0.615200  0.393500  1.0  0.095
  H  H66  1  0.289300  0.476400  0.439300  1.0  0.1324
  H  H67  1  0.075100  0.736800  0.377600  1.0  0.1278
  H  H68  1  0.165800  0.869200  0.333500  1.0  0.0841
  C  C69  1  0.120500  0.169900  0.874400  1.0  0.154
  C  C70  1  0.196800  0.094300  0.897600  1.0  -0.1416
  C  C71  1  0.273400  0.184000  0.910300  1.0  -0.0503
  C  C72  1  0.269500  0.348100  0.898300  1.0  -0.1468
  C  C73  1  0.190100  0.414300  0.875400  1.0  0.1625
  C  C74  1  0.357700  0.109200  0.936200  1.0  0.7591
  C  C75  1  0.527500  0.698300  0.200700  1.0  0.1241
  C  C76  1  0.547800  0.601800  0.164600  1.0  -0.1398
  C  C77  1  0.485000  0.582100  0.124300  1.0  -0.0175
  C  C78  1  0.404600  0.654100  0.122300  1.0  -0.1135
  C  C79  1  0.387800  0.748200  0.159700  1.0  0.1495
  C  C80  1  0.507300  0.480400  0.084600  1.0  0.7014
  C  C81  1  0.812400  0.858000  0.890800  1.0  0.1431
  C  C82  1  0.762800  0.940900  0.918300  1.0  -0.1615
  C  C83  1  0.674200  0.902500  0.914800  1.0  -0.0916
  C  C84  1  0.636800  0.788000  0.882100  1.0  -0.1718
  C  C85  1  0.691500  0.710300  0.855900  1.0  0.1701
  C  C86  1  0.618700  0.986200  0.945700  1.0  0.7305
  C  C87  1  0.379500  0.669900  0.625600  1.0  0.1529
  C  C88  1  0.303200  0.594300  0.602400  1.0  -0.1415
  C  C89  1  0.226600  0.684000  0.589700  1.0  -0.05
  C  C90  1  0.230500  0.848100  0.601700  1.0  -0.1456
  C  C91  1  0.309900  0.914300  0.624600  1.0  0.1615
  C  C92  1  0.142300  0.609200  0.563800  1.0  0.7575
  C  C93  1  0.972500  0.198300  0.299300  1.0  0.1256
  C  C94  1  0.952200  0.101800  0.335400  1.0  -0.1412
  C  C95  1  0.015000  0.082100  0.375700  1.0  -0.0178
  C  C96  1  0.095400  0.154100  0.377700  1.0  -0.1144
  C  C97  1  0.112200  0.248200  0.340300  1.0  0.149
  C  C98  1  0.992700  0.980400  0.415400  1.0  0.7022
  C  C99  1  0.687600  0.358000  0.609200  1.0  0.1457
  C  C100  1  0.737200  0.440900  0.581700  1.0  -0.1629
  C  C101  1  0.825800  0.402500  0.585200  1.0  -0.0908
  C  C102  1  0.863200  0.288000  0.617900  1.0  -0.1722
  C  C103  1  0.808500  0.210300  0.644100  1.0  0.1713
  C  C104  1  0.881300  0.486200  0.554300  1.0  0.7297
  C  C105  1  0.879500  0.830100  0.125600  1.0  0.1539
  C  C106  1  0.803200  0.905700  0.102400  1.0  -0.1428
  C  C107  1  0.726600  0.816000  0.089700  1.0  -0.049
  C  C108  1  0.730500  0.651900  0.101700  1.0  -0.1454
  C  C109  1  0.809900  0.585700  0.124600  1.0  0.1613
  C  C110  1  0.642300  0.890800  0.063800  1.0  0.7573
  C  C111  1  0.472500  0.301700  0.799300  1.0  0.1261
  C  C112  1  0.452200  0.398200  0.835400  1.0  -0.1414
  C  C113  1  0.515000  0.417900  0.875700  1.0  -0.0176
  C  C114  1  0.595400  0.345900  0.877700  1.0  -0.1146
  C  C115  1  0.612200  0.251800  0.840300  1.0  0.1486
  C  C116  1  0.492700  0.519600  0.915400  1.0  0.7012
  C  C117  1  0.187600  0.142000  0.109200  1.0  0.1457
  C  C118  1  0.237200  0.059100  0.081700  1.0  -0.1627
  C  C119  1  0.325800  0.097500  0.085200  1.0  -0.0911
  C  C120  1  0.363200  0.212000  0.117900  1.0  -0.1723
  C  C121  1  0.308500  0.289700  0.144100  1.0  0.1709
  C  C122  1  0.381300  0.013800  0.054300  1.0  0.7296
  C  C123  1  0.620500  0.330100  0.374400  1.0  0.1548
  C  C124  1  0.696800  0.405700  0.397600  1.0  -0.1429
  C  C125  1  0.773400  0.316000  0.410300  1.0  -0.0493
  C  C126  1  0.769500  0.151900  0.398300  1.0  -0.1465
  C  C127  1  0.690100  0.085700  0.375400  1.0  0.1624
  C  C128  1  0.857700  0.390800  0.436200  1.0  0.7588
  C  C129  1  0.027500  0.801700  0.700700  1.0  0.1247
  C  C130  1  0.047800  0.898200  0.664600  1.0  -0.1403
  C  C131  1  0.985000  0.917900  0.624300  1.0  -0.0172
  C  C132  1  0.904600  0.845900  0.622300  1.0  -0.1135
  C  C133  1  0.887800  0.751800  0.659700  1.0  0.1502
  C  C134  1  0.007300  0.019600  0.584600  1.0  0.7019
  C  C135  1  0.312400  0.642000  0.390800  1.0  0.1431
  C  C136  1  0.262800  0.559100  0.418300  1.0  -0.1618
  C  C137  1  0.174200  0.597500  0.414800  1.0  -0.0913
  C  C138  1  0.136800  0.712000  0.382100  1.0  -0.1717
  C  C139  1  0.191500  0.789700  0.355900  1.0  0.1703
  C  C140  1  0.118700  0.513800  0.445700  1.0  0.7305
  I  I141  1  0.123660  0.679540  0.122440  1.0  -0.3139
  I  I142  1  0.005160  0.719750  0.254320  1.0  -0.2689
  I  I143  1  0.247260  0.960870  0.240980  1.0  -0.2076
  I  I144  1  0.509120  0.749410  0.328530  1.0  -0.2445
  I  I145  1  0.376340  0.179540  0.377560  1.0  -0.3119
  I  I146  1  0.494840  0.219750  0.245680  1.0  -0.2675
  I  I147  1  0.252740  0.460870  0.259020  1.0  -0.2091
  I  I148  1  0.990880  0.249410  0.171470  1.0  -0.2459
  I  I149  1  0.876340  0.320460  0.877560  1.0  -0.3116
  I  I150  1  0.994840  0.280250  0.745680  1.0  -0.2679
  I  I151  1  0.752740  0.039130  0.759020  1.0  -0.2092
  I  I152  1  0.490880  0.250590  0.671470  1.0  -0.2452
  I  I153  1  0.623660  0.820460  0.622440  1.0  -0.3137
  I  I154  1  0.505160  0.780250  0.754320  1.0  -0.2694
  I  I155  1  0.747260  0.539130  0.740980  1.0  -0.2077
  I  I156  1  0.009120  0.750590  0.828530  1.0  -0.244
  N  N157  1  0.115500  0.328300  0.864100  1.0  -0.2864
  N  N158  1  0.448900  0.771600  0.198200  1.0  -0.2807
  N  N159  1  0.778100  0.740800  0.860300  1.0  -0.2768
  N  N160  1  0.384500  0.828300  0.635900  1.0  -0.2866
  N  N161  1  0.051100  0.271600  0.301800  1.0  -0.2784
  N  N162  1  0.721900  0.240800  0.639700  1.0  -0.2773
  N  N163  1  0.884500  0.671700  0.135900  1.0  -0.2858
  N  N164  1  0.551100  0.228400  0.801800  1.0  -0.2773
  N  N165  1  0.221900  0.259200  0.139700  1.0  -0.2766
  N  N166  1  0.615500  0.171700  0.364100  1.0  -0.2877
  N  N167  1  0.948900  0.728400  0.698200  1.0  -0.2793
  N  N168  1  0.278100  0.759200  0.360300  1.0  -0.2763
  O  O169  1  0.358900  0.957900  0.942460  1.0  -0.7545
  O  O170  1  0.421100  0.206800  0.950600  1.0  -0.7209
  O  O171  1  0.566600  0.374700  0.093080  1.0  -0.6713
  O  O172  1  0.464600  0.505900  0.043320  1.0  -0.7993
  O  O173  1  0.641300  0.125900  0.960500  1.0  -0.6679
  O  O174  1  0.552200  0.912300  0.954700  1.0  -0.7487
  O  O175  1  0.141100  0.457900  0.557540  1.0  -0.7524
  O  O176  1  0.078900  0.706800  0.549400  1.0  -0.7206
  O  O177  1  0.933400  0.874700  0.406920  1.0  -0.6704
  O  O178  1  0.035400  0.005900  0.456680  1.0  -0.7984
  O  O179  1  0.858700  0.625900  0.539500  1.0  -0.6675
  O  O180  1  0.947800  0.412300  0.545300  1.0  -0.7479
  O  O181  1  0.641100  0.042100  0.057540  1.0  -0.7516
  O  O182  1  0.578900  0.793200  0.049400  1.0  -0.7208
  O  O183  1  0.433400  0.625300  0.906920  1.0  -0.6717
  O  O184  1  0.535400  0.494100  0.956680  1.0  -0.7982
  O  O185  1  0.358700  0.874100  0.039500  1.0  -0.6657
  O  O186  1  0.447800  0.087700  0.045300  1.0  -0.7481
  O  O187  1  0.858900  0.542100  0.442460  1.0  -0.7538
  O  O188  1  0.921100  0.293200  0.450600  1.0  -0.7212
  O  O189  1  0.066600  0.125300  0.593080  1.0  -0.6729
  O  O190  1  0.964600  0.994100  0.543320  1.0  -0.7992
  O  O191  1  0.141300  0.374100  0.460500  1.0  -0.6659
  O  O192  1  0.052200  0.587700  0.454700  1.0  -0.7486
