# generated using pymatgen
data_KPr3Cu12H40C60I12(NO2)10
_symmetry_space_group_name_H-M   'P 1'
_cell_length_a   30.33200000
_cell_length_b   46.35400000
_cell_length_c   18.13000000
_cell_angle_alpha   90.00000000
_cell_angle_beta   116.72900000
_cell_angle_gamma   90.00000000
_symmetry_Int_Tables_number   1
_chemical_formula_structural   KPr3Cu12H40C60I12(NO2)10
_chemical_formula_sum   'K4 Pr12 Cu48 H160 C240 I48 N40 O80'
_cell_volume   22767.08775233
_cell_formula_units_Z   4
loop_
 _symmetry_equiv_pos_site_id
 _symmetry_equiv_pos_as_xyz
  1  'x, y, z'
loop_
 _atom_site_type_symbol
 _atom_site_label
 _atom_site_symmetry_multiplicity
 _atom_site_fract_x
 _atom_site_fract_y
 _atom_site_fract_z
 _atom_site_occupancy
 _atom_site_charge
  K  K1  1  0.000000  0.856100  0.000000  1.0  0.9298
  K  K2  1  0.500000  0.356100  0.000000  1.0  0.9298
  K  K3  1  0.000000  0.143900  0.000000  1.0  0.9309
  K  K4  1  0.500000  0.643900  0.000000  1.0  0.9309
  Pr  Pr5  1  0.927530  0.827880  0.767020  1.0  2.1641
  Pr  Pr6  1  0.427530  0.327880  0.767020  1.0  2.1641
  Pr  Pr7  1  0.072470  0.827880  0.232980  1.0  2.1629
  Pr  Pr8  1  0.572470  0.327880  0.232980  1.0  2.1629
  Pr  Pr9  1  0.072470  0.172120  0.232980  1.0  2.1625
  Pr  Pr10  1  0.572470  0.672120  0.232980  1.0  2.1625
  Pr  Pr11  1  0.927530  0.172120  0.767020  1.0  2.1637
  Pr  Pr12  1  0.427530  0.672120  0.767020  1.0  2.1637
  Pr  Pr13  1  0.480130  0.000000  0.861500  1.0  1.8648
  Pr  Pr14  1  0.980130  0.500000  0.861500  1.0  1.8648
  Pr  Pr15  1  0.519870  0.000000  0.138500  1.0  1.8619
  Pr  Pr16  1  0.019870  0.500000  0.138500  1.0  1.8619
  Cu  Cu17  1  0.693950  0.849070  0.086900  1.0  0.1464
  Cu  Cu18  1  0.766400  0.819570  0.088800  1.0  0.1581
  Cu  Cu19  1  0.745060  0.813310  0.209200  1.0  0.1574
  Cu  Cu20  1  0.682920  0.793280  0.069100  1.0  0.1543
  Cu  Cu21  1  0.144900  0.971920  0.805200  1.0  0.0946
  Cu  Cu22  1  0.193950  0.349070  0.086900  1.0  0.1464
  Cu  Cu23  1  0.266400  0.319570  0.088800  1.0  0.1581
  Cu  Cu24  1  0.245060  0.313310  0.209200  1.0  0.1574
  Cu  Cu25  1  0.182920  0.293280  0.069100  1.0  0.1543
  Cu  Cu26  1  0.644900  0.471920  0.805200  1.0  0.0946
  Cu  Cu27  1  0.306050  0.849070  0.913100  1.0  0.1469
  Cu  Cu28  1  0.233600  0.819570  0.911200  1.0  0.1581
  Cu  Cu29  1  0.254940  0.813310  0.790800  1.0  0.1582
  Cu  Cu30  1  0.317080  0.793280  0.930900  1.0  0.1544
  Cu  Cu31  1  0.855100  0.971920  0.194800  1.0  0.0949
  Cu  Cu32  1  0.806050  0.349070  0.913100  1.0  0.1469
  Cu  Cu33  1  0.733600  0.319570  0.911200  1.0  0.1581
  Cu  Cu34  1  0.754940  0.313310  0.790800  1.0  0.1582
  Cu  Cu35  1  0.817080  0.293280  0.930900  1.0  0.1544
  Cu  Cu36  1  0.355100  0.471920  0.194800  1.0  0.0949
  Cu  Cu37  1  0.306050  0.150930  0.913100  1.0  0.1476
  Cu  Cu38  1  0.233600  0.180430  0.911200  1.0  0.1577
  Cu  Cu39  1  0.254940  0.186690  0.790800  1.0  0.1581
  Cu  Cu40  1  0.317080  0.206720  0.930900  1.0  0.1536
  Cu  Cu41  1  0.855100  0.028080  0.194800  1.0  0.094
  Cu  Cu42  1  0.806050  0.650930  0.913100  1.0  0.1476
  Cu  Cu43  1  0.733600  0.680430  0.911200  1.0  0.1577
  Cu  Cu44  1  0.754940  0.686690  0.790800  1.0  0.1581
  Cu  Cu45  1  0.817080  0.706720  0.930900  1.0  0.1536
  Cu  Cu46  1  0.355100  0.528080  0.194800  1.0  0.094
  Cu  Cu47  1  0.693950  0.150930  0.086900  1.0  0.1471
  Cu  Cu48  1  0.766400  0.180430  0.088800  1.0  0.158
  Cu  Cu49  1  0.745060  0.186690  0.209200  1.0  0.1574
  Cu  Cu50  1  0.682920  0.206720  0.069100  1.0  0.1539
  Cu  Cu51  1  0.144900  0.028080  0.805200  1.0  0.0937
  Cu  Cu52  1  0.193950  0.650930  0.086900  1.0  0.1471
  Cu  Cu53  1  0.266400  0.680430  0.088800  1.0  0.158
  Cu  Cu54  1  0.245060  0.686690  0.209200  1.0  0.1574
  Cu  Cu55  1  0.182920  0.706720  0.069100  1.0  0.1539
  Cu  Cu56  1  0.644900  0.528080  0.805200  1.0  0.0937
  Cu  Cu57  1  0.226700  0.000000  0.858700  1.0  0.2475
  Cu  Cu58  1  0.173000  0.000000  0.702200  1.0  0.1938
  Cu  Cu59  1  0.726700  0.500000  0.858700  1.0  0.2475
  Cu  Cu60  1  0.673000  0.500000  0.702200  1.0  0.1963
  Cu  Cu61  1  0.773300  0.000000  0.141300  1.0  0.2454
  Cu  Cu62  1  0.827000  0.000000  0.297800  1.0  0.1943
  Cu  Cu63  1  0.273300  0.500000  0.141300  1.0  0.2454
  Cu  Cu64  1  0.327000  0.500000  0.297800  1.0  0.1969
  H  H65  1  0.852900  0.854700  0.090800  1.0  0.0969
  H  H66  1  0.890300  0.859400  0.003200  1.0  0.0944
  H  H67  1  0.809400  0.792100  0.866300  1.0  0.101
  H  H68  1  0.772000  0.787500  0.953900  1.0  0.0989
  H  H69  1  0.106000  0.742400  0.097100  1.0  0.0978
  H  H70  1  0.043500  0.775200  0.020400  1.0  0.093
  H  H71  1  0.086100  0.773300  0.838300  1.0  0.1016
  H  H72  1  0.148600  0.740500  0.915000  1.0  0.093
  H  H73  1  0.725900  0.825100  0.356900  1.0  0.1072
  H  H74  1  0.774400  0.828400  0.499900  1.0  0.0993
  H  H75  1  0.891800  0.797000  0.475100  1.0  0.1
  H  H76  1  0.843200  0.793700  0.332100  1.0  0.1051
  H  H77  1  0.109800  0.944000  0.924000  1.0  0.103
  H  H78  1  0.053100  0.908100  0.913500  1.0  0.1005
  H  H79  1  0.039000  0.886100  0.687600  1.0  0.1051
  H  H80  1  0.095700  0.922100  0.698000  1.0  0.1026
  H  H81  1  0.689700  0.898400  0.184400  1.0  0.0991
  H  H82  1  0.639100  0.938600  0.166000  1.0  0.102
  H  H83  1  0.566300  0.921500  0.920800  1.0  0.1042
  H  H84  1  0.616900  0.881300  0.939300  1.0  0.0985
  H  H85  1  0.352900  0.354700  0.090800  1.0  0.0969
  H  H86  1  0.390300  0.359400  0.003200  1.0  0.0944
  H  H87  1  0.309400  0.292100  0.866300  1.0  0.101
  H  H88  1  0.272000  0.287500  0.953900  1.0  0.0989
  H  H89  1  0.606000  0.242400  0.097100  1.0  0.0978
  H  H90  1  0.543500  0.275200  0.020400  1.0  0.093
  H  H91  1  0.586100  0.273300  0.838300  1.0  0.1016
  H  H92  1  0.648600  0.240500  0.915000  1.0  0.093
  H  H93  1  0.225900  0.325100  0.356900  1.0  0.1072
  H  H94  1  0.274400  0.328400  0.499900  1.0  0.0993
  H  H95  1  0.391800  0.297000  0.475100  1.0  0.1
  H  H96  1  0.343200  0.293700  0.332100  1.0  0.1051
  H  H97  1  0.609800  0.444000  0.924000  1.0  0.103
  H  H98  1  0.553100  0.408100  0.913500  1.0  0.1005
  H  H99  1  0.539000  0.386100  0.687600  1.0  0.1051
  H  H100  1  0.595700  0.422100  0.698000  1.0  0.1026
  H  H101  1  0.189700  0.398400  0.184400  1.0  0.0991
  H  H102  1  0.139100  0.438600  0.166000  1.0  0.102
  H  H103  1  0.066300  0.421500  0.920800  1.0  0.1042
  H  H104  1  0.116900  0.381300  0.939300  1.0  0.0985
  H  H105  1  0.147100  0.854700  0.909200  1.0  0.0965
  H  H106  1  0.109700  0.859400  0.996800  1.0  0.0951
  H  H107  1  0.190600  0.792100  0.133700  1.0  0.1017
  H  H108  1  0.228000  0.787500  0.046100  1.0  0.0994
  H  H109  1  0.894000  0.742400  0.902900  1.0  0.0978
  H  H110  1  0.956500  0.775200  0.979600  1.0  0.0931
  H  H111  1  0.913900  0.773300  0.161700  1.0  0.1022
  H  H112  1  0.851400  0.740500  0.085000  1.0  0.0934
  H  H113  1  0.274100  0.825100  0.643100  1.0  0.1071
  H  H114  1  0.225600  0.828400  0.500100  1.0  0.0991
  H  H115  1  0.108200  0.797000  0.524900  1.0  0.0997
  H  H116  1  0.156800  0.793700  0.667900  1.0  0.1044
  H  H117  1  0.890200  0.944000  0.076000  1.0  0.1035
  H  H118  1  0.946900  0.908100  0.086500  1.0  0.0999
  H  H119  1  0.961000  0.886100  0.312400  1.0  0.1057
  H  H120  1  0.904300  0.922100  0.302000  1.0  0.1031
  H  H121  1  0.310300  0.898400  0.815600  1.0  0.0981
  H  H122  1  0.360900  0.938600  0.834000  1.0  0.1007
  H  H123  1  0.433700  0.921500  0.079200  1.0  0.1055
  H  H124  1  0.383100  0.881300  0.060700  1.0  0.0998
  H  H125  1  0.647100  0.354700  0.909200  1.0  0.0965
  H  H126  1  0.609700  0.359400  0.996800  1.0  0.0951
  H  H127  1  0.690600  0.292100  0.133700  1.0  0.1017
  H  H128  1  0.728000  0.287500  0.046100  1.0  0.0994
  H  H129  1  0.394000  0.242400  0.902900  1.0  0.0978
  H  H130  1  0.456500  0.275200  0.979600  1.0  0.0931
  H  H131  1  0.413900  0.273300  0.161700  1.0  0.1022
  H  H132  1  0.351400  0.240500  0.085000  1.0  0.0934
  H  H133  1  0.774100  0.325100  0.643100  1.0  0.1071
  H  H134  1  0.725600  0.328400  0.500100  1.0  0.0991
  H  H135  1  0.608200  0.297000  0.524900  1.0  0.0997
  H  H136  1  0.656800  0.293700  0.667900  1.0  0.1044
  H  H137  1  0.390200  0.444000  0.076000  1.0  0.1035
  H  H138  1  0.446900  0.408100  0.086500  1.0  0.0999
  H  H139  1  0.461000  0.386100  0.312400  1.0  0.1057
  H  H140  1  0.404300  0.422100  0.302000  1.0  0.1031
  H  H141  1  0.810300  0.398400  0.815600  1.0  0.0981
  H  H142  1  0.860900  0.438600  0.834000  1.0  0.1007
  H  H143  1  0.933700  0.421500  0.079200  1.0  0.1055
  H  H144  1  0.883100  0.381300  0.060700  1.0  0.0998
  H  H145  1  0.147100  0.145300  0.909200  1.0  0.0967
  H  H146  1  0.109700  0.140600  0.996800  1.0  0.0944
  H  H147  1  0.190600  0.207900  0.133700  1.0  0.1016
  H  H148  1  0.228000  0.212500  0.046100  1.0  0.0983
  H  H149  1  0.894000  0.257600  0.902900  1.0  0.0978
  H  H150  1  0.956500  0.224800  0.979600  1.0  0.0926
  H  H151  1  0.913900  0.226700  0.161700  1.0  0.1017
  H  H152  1  0.851400  0.259500  0.085000  1.0  0.0936
  H  H153  1  0.274100  0.174900  0.643100  1.0  0.1072
  H  H154  1  0.225600  0.171600  0.500100  1.0  0.099
  H  H155  1  0.108200  0.203000  0.524900  1.0  0.0992
  H  H156  1  0.156800  0.206300  0.667900  1.0  0.1042
  H  H157  1  0.890200  0.056000  0.076000  1.0  0.1035
  H  H158  1  0.946900  0.091900  0.086500  1.0  0.1006
  H  H159  1  0.961000  0.113900  0.312400  1.0  0.1056
  H  H160  1  0.904300  0.077900  0.302000  1.0  0.1031
  H  H161  1  0.310300  0.101600  0.815600  1.0  0.0982
  H  H162  1  0.360900  0.061400  0.834000  1.0  0.101
  H  H163  1  0.433700  0.078500  0.079200  1.0  0.1056
  H  H164  1  0.383100  0.118700  0.060700  1.0  0.0999
  H  H165  1  0.647100  0.645300  0.909200  1.0  0.0967
  H  H166  1  0.609700  0.640600  0.996800  1.0  0.0944
  H  H167  1  0.690600  0.707900  0.133700  1.0  0.1016
  H  H168  1  0.728000  0.712500  0.046100  1.0  0.0983
  H  H169  1  0.394000  0.757600  0.902900  1.0  0.0978
  H  H170  1  0.456500  0.724800  0.979600  1.0  0.0926
  H  H171  1  0.413900  0.726700  0.161700  1.0  0.1017
  H  H172  1  0.351400  0.759500  0.085000  1.0  0.0936
  H  H173  1  0.774100  0.674900  0.643100  1.0  0.1072
  H  H174  1  0.725600  0.671600  0.500100  1.0  0.099
  H  H175  1  0.608200  0.703000  0.524900  1.0  0.0992
  H  H176  1  0.656800  0.706300  0.667900  1.0  0.1042
  H  H177  1  0.390200  0.556000  0.076000  1.0  0.1035
  H  H178  1  0.446900  0.591900  0.086500  1.0  0.1006
  H  H179  1  0.461000  0.613900  0.312400  1.0  0.1056
  H  H180  1  0.404300  0.577900  0.302000  1.0  0.1031
  H  H181  1  0.810300  0.601600  0.815600  1.0  0.0982
  H  H182  1  0.860900  0.561400  0.834000  1.0  0.101
  H  H183  1  0.933700  0.578500  0.079200  1.0  0.1056
  H  H184  1  0.883100  0.618700  0.060700  1.0  0.0999
  H  H185  1  0.852900  0.145300  0.090800  1.0  0.097
  H  H186  1  0.890300  0.140600  0.003200  1.0  0.0944
  H  H187  1  0.809400  0.207900  0.866300  1.0  0.1015
  H  H188  1  0.772000  0.212500  0.953900  1.0  0.0987
  H  H189  1  0.106000  0.257600  0.097100  1.0  0.0978
  H  H190  1  0.043500  0.224800  0.020400  1.0  0.0924
  H  H191  1  0.086100  0.226700  0.838300  1.0  0.1014
  H  H192  1  0.148600  0.259500  0.915000  1.0  0.0931
  H  H193  1  0.725900  0.174900  0.356900  1.0  0.1073
  H  H194  1  0.774400  0.171600  0.499900  1.0  0.0997
  H  H195  1  0.891800  0.203000  0.475100  1.0  0.1003
  H  H196  1  0.843200  0.206300  0.332100  1.0  0.1051
  H  H197  1  0.109800  0.056000  0.924000  1.0  0.1034
  H  H198  1  0.053100  0.091900  0.913500  1.0  0.1008
  H  H199  1  0.039000  0.113900  0.687600  1.0  0.1046
  H  H200  1  0.095700  0.077900  0.698000  1.0  0.1026
  H  H201  1  0.689700  0.101600  0.184400  1.0  0.0992
  H  H202  1  0.639100  0.061400  0.166000  1.0  0.102
  H  H203  1  0.566300  0.078500  0.920800  1.0  0.104
  H  H204  1  0.616900  0.118700  0.939300  1.0  0.0982
  H  H205  1  0.352900  0.645300  0.090800  1.0  0.097
  H  H206  1  0.390300  0.640600  0.003200  1.0  0.0944
  H  H207  1  0.309400  0.707900  0.866300  1.0  0.1015
  H  H208  1  0.272000  0.712500  0.953900  1.0  0.0987
  H  H209  1  0.606000  0.757600  0.097100  1.0  0.0978
  H  H210  1  0.543500  0.724800  0.020400  1.0  0.0924
  H  H211  1  0.586100  0.726700  0.838300  1.0  0.1014
  H  H212  1  0.648600  0.759500  0.915000  1.0  0.0931
  H  H213  1  0.225900  0.674900  0.356900  1.0  0.1073
  H  H214  1  0.274400  0.671600  0.499900  1.0  0.0997
  H  H215  1  0.391800  0.703000  0.475100  1.0  0.1003
  H  H216  1  0.343200  0.706300  0.332100  1.0  0.1051
  H  H217  1  0.609800  0.556000  0.924000  1.0  0.1034
  H  H218  1  0.553100  0.591900  0.913500  1.0  0.1008
  H  H219  1  0.539000  0.613900  0.687600  1.0  0.1046
  H  H220  1  0.595700  0.577900  0.698000  1.0  0.1026
  H  H221  1  0.189700  0.601600  0.184400  1.0  0.0992
  H  H222  1  0.139100  0.561400  0.166000  1.0  0.102
  H  H223  1  0.066300  0.578500  0.920800  1.0  0.104
  H  H224  1  0.116900  0.618700  0.939300  1.0  0.0982
  C  C225  1  0.844100  0.842000  0.045300  1.0  0.1286
  C  C226  1  0.866300  0.844800  0.993200  1.0  -0.0424
  C  C227  1  0.853400  0.826200  0.926500  1.0  -0.1687
  C  C228  1  0.818200  0.804800  0.911900  1.0  -0.0438
  C  C229  1  0.796000  0.802100  0.963900  1.0  0.1378
  C  C230  1  0.874900  0.828700  0.866100  1.0  0.7473
  C  C231  1  0.101900  0.748700  0.044600  1.0  0.1271
  C  C232  1  0.064800  0.768200  0.999000  1.0  -0.0562
  C  C233  1  0.058900  0.777400  0.922100  1.0  -0.1316
  C  C234  1  0.090200  0.767100  0.890800  1.0  -0.0583
  C  C235  1  0.127300  0.747500  0.936400  1.0  0.1249
  C  C236  1  0.015300  0.797800  0.868000  1.0  0.7262
  C  C237  1  0.759600  0.819400  0.380900  1.0  0.1201
  C  C238  1  0.788400  0.821300  0.465800  1.0  -0.0692
  C  C239  1  0.837700  0.813000  0.500900  1.0  -0.1481
  C  C240  1  0.858100  0.802700  0.451100  1.0  -0.0848
  C  C241  1  0.829300  0.800700  0.366100  1.0  0.095
  C  C242  1  0.867600  0.816200  0.589900  1.0  0.6513
  C  C243  1  0.095400  0.932300  0.876000  1.0  0.1079
  C  C244  1  0.061700  0.910900  0.869800  1.0  -0.0468
  C  C245  1  0.040700  0.893700  0.799600  1.0  -0.1349
  C  C246  1  0.053400  0.897900  0.735600  1.0  -0.0561
  C  C247  1  0.087100  0.919200  0.741800  1.0  0.099
  C  C248  1  0.000400  0.871400  0.788000  1.0  0.6727
  C  C249  1  0.664700  0.903100  0.130900  1.0  0.1134
  C  C250  1  0.634600  0.927000  0.119900  1.0  -0.1053
  C  C251  1  0.598000  0.933800  0.042000  1.0  -0.0522
  C  C252  1  0.591400  0.916800  0.974300  1.0  -0.0919
  C  C253  1  0.621400  0.892900  0.985300  1.0  0.1027
  C  C254  1  0.566300  0.957700  0.030000  1.0  0.5439
  C  C255  1  0.344100  0.342000  0.045300  1.0  0.1286
  C  C256  1  0.366300  0.344800  0.993200  1.0  -0.0424
  C  C257  1  0.353400  0.326200  0.926500  1.0  -0.1687
  C  C258  1  0.318200  0.304800  0.911900  1.0  -0.0438
  C  C259  1  0.296000  0.302100  0.963900  1.0  0.1378
  C  C260  1  0.374900  0.328700  0.866100  1.0  0.7473
  C  C261  1  0.601900  0.248700  0.044600  1.0  0.1271
  C  C262  1  0.564800  0.268200  0.999000  1.0  -0.0562
  C  C263  1  0.558900  0.277400  0.922100  1.0  -0.1316
  C  C264  1  0.590200  0.267100  0.890800  1.0  -0.0583
  C  C265  1  0.627300  0.247500  0.936400  1.0  0.1249
  C  C266  1  0.515300  0.297800  0.868000  1.0  0.7262
  C  C267  1  0.259600  0.319400  0.380900  1.0  0.1201
  C  C268  1  0.288400  0.321300  0.465800  1.0  -0.0692
  C  C269  1  0.337700  0.313000  0.500900  1.0  -0.1481
  C  C270  1  0.358100  0.302700  0.451100  1.0  -0.0848
  C  C271  1  0.329300  0.300700  0.366100  1.0  0.095
  C  C272  1  0.367600  0.316200  0.589900  1.0  0.6513
  C  C273  1  0.595400  0.432300  0.876000  1.0  0.1079
  C  C274  1  0.561700  0.410900  0.869800  1.0  -0.0468
  C  C275  1  0.540700  0.393700  0.799600  1.0  -0.1349
  C  C276  1  0.553400  0.397900  0.735600  1.0  -0.0561
  C  C277  1  0.587100  0.419200  0.741800  1.0  0.099
  C  C278  1  0.500400  0.371400  0.788000  1.0  0.6727
  C  C279  1  0.164700  0.403100  0.130900  1.0  0.1134
  C  C280  1  0.134600  0.427000  0.119900  1.0  -0.1053
  C  C281  1  0.098000  0.433800  0.042000  1.0  -0.0522
  C  C282  1  0.091400  0.416800  0.974300  1.0  -0.0919
  C  C283  1  0.121400  0.392900  0.985300  1.0  0.1027
  C  C284  1  0.066300  0.457700  0.030000  1.0  0.5439
  C  C285  1  0.155900  0.842000  0.954700  1.0  0.1276
  C  C286  1  0.133700  0.844800  0.006800  1.0  -0.0437
  C  C287  1  0.146600  0.826200  0.073500  1.0  -0.1695
  C  C288  1  0.181800  0.804800  0.088100  1.0  -0.0421
  C  C289  1  0.204000  0.802100  0.036100  1.0  0.1395
  C  C290  1  0.125100  0.828700  0.133900  1.0  0.7482
  C  C291  1  0.898100  0.748700  0.955400  1.0  0.1258
  C  C292  1  0.935200  0.768200  0.001000  1.0  -0.0546
  C  C293  1  0.941100  0.777400  0.077900  1.0  -0.1317
  C  C294  1  0.909800  0.767100  0.109200  1.0  -0.0604
  C  C295  1  0.872700  0.747500  0.063600  1.0  0.1258
  C  C296  1  0.984700  0.797800  0.132000  1.0  0.7265
  C  C297  1  0.240400  0.819400  0.619100  1.0  0.1211
  C  C298  1  0.211600  0.821300  0.534200  1.0  -0.0696
  C  C299  1  0.162300  0.813000  0.499100  1.0  -0.1483
  C  C300  1  0.141900  0.802700  0.548900  1.0  -0.086
  C  C301  1  0.170700  0.800700  0.633900  1.0  0.0955
  C  C302  1  0.132400  0.816200  0.410100  1.0  0.6522
  C  C303  1  0.904600  0.932300  0.124000  1.0  0.1075
  C  C304  1  0.938300  0.910900  0.130200  1.0  -0.049
  C  C305  1  0.959300  0.893700  0.200400  1.0  -0.134
  C  C306  1  0.946600  0.897900  0.264400  1.0  -0.0569
  C  C307  1  0.912900  0.919200  0.258200  1.0  0.0981
  C  C308  1  0.999600  0.871400  0.212000  1.0  0.6726
  C  C309  1  0.335300  0.903100  0.869100  1.0  0.1107
  C  C310  1  0.365400  0.927000  0.880100  1.0  -0.1053
  C  C311  1  0.402000  0.933800  0.958000  1.0  -0.0518
  C  C312  1  0.408600  0.916800  0.025700  1.0  -0.0929
  C  C313  1  0.378600  0.892900  0.014700  1.0  0.1035
  C  C314  1  0.433700  0.957700  0.970000  1.0  0.5433
  C  C315  1  0.655900  0.342000  0.954700  1.0  0.1276
  C  C316  1  0.633700  0.344800  0.006800  1.0  -0.0437
  C  C317  1  0.646600  0.326200  0.073500  1.0  -0.1695
  C  C318  1  0.681800  0.304800  0.088100  1.0  -0.0421
  C  C319  1  0.704000  0.302100  0.036100  1.0  0.1395
  C  C320  1  0.625100  0.328700  0.133900  1.0  0.7482
  C  C321  1  0.398100  0.248700  0.955400  1.0  0.1258
  C  C322  1  0.435200  0.268200  0.001000  1.0  -0.0546
  C  C323  1  0.441100  0.277400  0.077900  1.0  -0.1317
  C  C324  1  0.409800  0.267100  0.109200  1.0  -0.0604
  C  C325  1  0.372700  0.247500  0.063600  1.0  0.1258
  C  C326  1  0.484700  0.297800  0.132000  1.0  0.7265
  C  C327  1  0.740400  0.319400  0.619100  1.0  0.1211
  C  C328  1  0.711600  0.321300  0.534200  1.0  -0.0696
  C  C329  1  0.662300  0.313000  0.499100  1.0  -0.1483
  C  C330  1  0.641900  0.302700  0.548900  1.0  -0.086
  C  C331  1  0.670700  0.300700  0.633900  1.0  0.0955
  C  C332  1  0.632400  0.316200  0.410100  1.0  0.6522
  C  C333  1  0.404600  0.432300  0.124000  1.0  0.1075
  C  C334  1  0.438300  0.410900  0.130200  1.0  -0.049
  C  C335  1  0.459300  0.393700  0.200400  1.0  -0.134
  C  C336  1  0.446600  0.397900  0.264400  1.0  -0.0569
  C  C337  1  0.412900  0.419200  0.258200  1.0  0.0981
  C  C338  1  0.499600  0.371400  0.212000  1.0  0.6726
  C  C339  1  0.835300  0.403100  0.869100  1.0  0.1107
  C  C340  1  0.865400  0.427000  0.880100  1.0  -0.1053
  C  C341  1  0.902000  0.433800  0.958000  1.0  -0.0518
  C  C342  1  0.908600  0.416800  0.025700  1.0  -0.0929
  C  C343  1  0.878600  0.392900  0.014700  1.0  0.1035
  C  C344  1  0.933700  0.457700  0.970000  1.0  0.5433
  C  C345  1  0.155900  0.158000  0.954700  1.0  0.1286
  C  C346  1  0.133700  0.155200  0.006800  1.0  -0.0445
  C  C347  1  0.146600  0.173800  0.073500  1.0  -0.1704
  C  C348  1  0.181800  0.195200  0.088100  1.0  -0.0421
  C  C349  1  0.204000  0.197900  0.036100  1.0  0.1391
  C  C350  1  0.125100  0.171300  0.133900  1.0  0.7485
  C  C351  1  0.898100  0.251300  0.955400  1.0  0.1246
  C  C352  1  0.935200  0.231800  0.001000  1.0  -0.0543
  C  C353  1  0.941100  0.222600  0.077900  1.0  -0.1301
  C  C354  1  0.909800  0.232900  0.109200  1.0  -0.0595
  C  C355  1  0.872700  0.252500  0.063600  1.0  0.1254
  C  C356  1  0.984700  0.202200  0.132000  1.0  0.7257
  C  C357  1  0.240400  0.180600  0.619100  1.0  0.1214
  C  C358  1  0.211600  0.178700  0.534200  1.0  -0.0693
  C  C359  1  0.162300  0.187000  0.499100  1.0  -0.1481
  C  C360  1  0.141900  0.197300  0.548900  1.0  -0.0868
  C  C361  1  0.170700  0.199300  0.633900  1.0  0.0947
  C  C362  1  0.132400  0.183800  0.410100  1.0  0.6526
  C  C363  1  0.904600  0.067700  0.124000  1.0  0.1083
  C  C364  1  0.938300  0.089100  0.130200  1.0  -0.0497
  C  C365  1  0.959300  0.106300  0.200400  1.0  -0.135
  C  C366  1  0.946600  0.102100  0.264400  1.0  -0.0564
  C  C367  1  0.912900  0.080800  0.258200  1.0  0.097
  C  C368  1  0.999600  0.128600  0.212000  1.0  0.6725
  C  C369  1  0.335300  0.096900  0.869100  1.0  0.1111
  C  C370  1  0.365400  0.073000  0.880100  1.0  -0.1058
  C  C371  1  0.402000  0.066200  0.958000  1.0  -0.0518
  C  C372  1  0.408600  0.083200  0.025700  1.0  -0.0931
  C  C373  1  0.378600  0.107100  0.014700  1.0  0.1029
  C  C374  1  0.433700  0.042300  0.970000  1.0  0.5431
  C  C375  1  0.655900  0.658000  0.954700  1.0  0.1286
  C  C376  1  0.633700  0.655200  0.006800  1.0  -0.0445
  C  C377  1  0.646600  0.673800  0.073500  1.0  -0.1704
  C  C378  1  0.681800  0.695200  0.088100  1.0  -0.0421
  C  C379  1  0.704000  0.697900  0.036100  1.0  0.1391
  C  C380  1  0.625100  0.671300  0.133900  1.0  0.7485
  C  C381  1  0.398100  0.751300  0.955400  1.0  0.1246
  C  C382  1  0.435200  0.731800  0.001000  1.0  -0.0543
  C  C383  1  0.441100  0.722600  0.077900  1.0  -0.1301
  C  C384  1  0.409800  0.732900  0.109200  1.0  -0.0595
  C  C385  1  0.372700  0.752500  0.063600  1.0  0.1254
  C  C386  1  0.484700  0.702200  0.132000  1.0  0.7257
  C  C387  1  0.740400  0.680600  0.619100  1.0  0.1214
  C  C388  1  0.711600  0.678700  0.534200  1.0  -0.0693
  C  C389  1  0.662300  0.687000  0.499100  1.0  -0.1481
  C  C390  1  0.641900  0.697300  0.548900  1.0  -0.0868
  C  C391  1  0.670700  0.699300  0.633900  1.0  0.0947
  C  C392  1  0.632400  0.683800  0.410100  1.0  0.6526
  C  C393  1  0.404600  0.567700  0.124000  1.0  0.1083
  C  C394  1  0.438300  0.589100  0.130200  1.0  -0.0497
  C  C395  1  0.459300  0.606300  0.200400  1.0  -0.135
  C  C396  1  0.446600  0.602100  0.264400  1.0  -0.0564
  C  C397  1  0.412900  0.580800  0.258200  1.0  0.097
  C  C398  1  0.499600  0.628600  0.212000  1.0  0.6725
  C  C399  1  0.835300  0.596900  0.869100  1.0  0.1111
  C  C400  1  0.865400  0.573000  0.880100  1.0  -0.1058
  C  C401  1  0.902000  0.566200  0.958000  1.0  -0.0518
  C  C402  1  0.908600  0.583200  0.025700  1.0  -0.0931
  C  C403  1  0.878600  0.607100  0.014700  1.0  0.1029
  C  C404  1  0.933700  0.542300  0.970000  1.0  0.5431
  C  C405  1  0.844100  0.158000  0.045300  1.0  0.1302
  C  C406  1  0.866300  0.155200  0.993200  1.0  -0.0451
  C  C407  1  0.853400  0.173800  0.926500  1.0  -0.1694
  C  C408  1  0.818200  0.195200  0.911900  1.0  -0.0445
  C  C409  1  0.796000  0.197900  0.963900  1.0  0.1363
  C  C410  1  0.874900  0.171300  0.866100  1.0  0.7459
  C  C411  1  0.101900  0.251300  0.044600  1.0  0.1274
  C  C412  1  0.064800  0.231800  0.999000  1.0  -0.0566
  C  C413  1  0.058900  0.222600  0.922100  1.0  -0.1319
  C  C414  1  0.090200  0.232900  0.890800  1.0  -0.0576
  C  C415  1  0.127300  0.252500  0.936400  1.0  0.1254
  C  C416  1  0.015300  0.202200  0.868000  1.0  0.7263
  C  C417  1  0.759600  0.180600  0.380900  1.0  0.12
  C  C418  1  0.788400  0.178700  0.465800  1.0  -0.0689
  C  C419  1  0.837700  0.187000  0.500900  1.0  -0.148
  C  C420  1  0.858100  0.197300  0.451100  1.0  -0.0847
  C  C421  1  0.829300  0.199300  0.366100  1.0  0.0948
  C  C422  1  0.867600  0.183800  0.589900  1.0  0.6516
  C  C423  1  0.095400  0.067700  0.876000  1.0  0.1088
  C  C424  1  0.061700  0.089100  0.869800  1.0  -0.0473
  C  C425  1  0.040700  0.106300  0.799600  1.0  -0.135
  C  C426  1  0.053400  0.102100  0.735600  1.0  -0.0563
  C  C427  1  0.087100  0.080800  0.741800  1.0  0.0982
  C  C428  1  0.000400  0.128600  0.788000  1.0  0.6728
  C  C429  1  0.664700  0.096900  0.130900  1.0  0.1131
  C  C430  1  0.634600  0.073000  0.119900  1.0  -0.106
  C  C431  1  0.598000  0.066200  0.042000  1.0  -0.0522
  C  C432  1  0.591400  0.083200  0.974300  1.0  -0.0921
  C  C433  1  0.621400  0.107100  0.985300  1.0  0.1029
  C  C434  1  0.566300  0.042300  0.030000  1.0  0.5437
  C  C435  1  0.344100  0.658000  0.045300  1.0  0.1302
  C  C436  1  0.366300  0.655200  0.993200  1.0  -0.0451
  C  C437  1  0.353400  0.673800  0.926500  1.0  -0.1694
  C  C438  1  0.318200  0.695200  0.911900  1.0  -0.0445
  C  C439  1  0.296000  0.697900  0.963900  1.0  0.1363
  C  C440  1  0.374900  0.671300  0.866100  1.0  0.7459
  C  C441  1  0.601900  0.751300  0.044600  1.0  0.1274
  C  C442  1  0.564800  0.731800  0.999000  1.0  -0.0566
  C  C443  1  0.558900  0.722600  0.922100  1.0  -0.1319
  C  C444  1  0.590200  0.732900  0.890800  1.0  -0.0576
  C  C445  1  0.627300  0.752500  0.936400  1.0  0.1254
  C  C446  1  0.515300  0.702200  0.868000  1.0  0.7263
  C  C447  1  0.259600  0.680600  0.380900  1.0  0.12
  C  C448  1  0.288400  0.678700  0.465800  1.0  -0.0689
  C  C449  1  0.337700  0.687000  0.500900  1.0  -0.148
  C  C450  1  0.358100  0.697300  0.451100  1.0  -0.0847
  C  C451  1  0.329300  0.699300  0.366100  1.0  0.0948
  C  C452  1  0.367600  0.683800  0.589900  1.0  0.6516
  C  C453  1  0.595400  0.567700  0.876000  1.0  0.1088
  C  C454  1  0.561700  0.589100  0.869800  1.0  -0.0473
  C  C455  1  0.540700  0.606300  0.799600  1.0  -0.135
  C  C456  1  0.553400  0.602100  0.735600  1.0  -0.0563
  C  C457  1  0.587100  0.580800  0.741800  1.0  0.0982
  C  C458  1  0.500400  0.628600  0.788000  1.0  0.6728
  C  C459  1  0.164700  0.596900  0.130900  1.0  0.1131
  C  C460  1  0.134600  0.573000  0.119900  1.0  -0.106
  C  C461  1  0.098000  0.566200  0.042000  1.0  -0.0522
  C  C462  1  0.091400  0.583200  0.974300  1.0  -0.0921
  C  C463  1  0.121400  0.607100  0.985300  1.0  0.1029
  C  C464  1  0.066300  0.542300  0.030000  1.0  0.5437
  I  I465  1  0.219090  0.047970  0.777700  1.0  -0.2835
  I  I466  1  0.675730  0.826390  0.943190  1.0  -0.2751
  I  I467  1  0.771410  0.767050  0.148050  1.0  -0.3139
  I  I468  1  0.787410  0.863230  0.189950  1.0  -0.2524
  I  I469  1  0.650530  0.819310  0.169050  1.0  -0.2522
  I  I470  1  0.719090  0.547970  0.777700  1.0  -0.2835
  I  I471  1  0.175730  0.326390  0.943190  1.0  -0.2751
  I  I472  1  0.271410  0.267050  0.148050  1.0  -0.3139
  I  I473  1  0.287410  0.363230  0.189950  1.0  -0.2524
  I  I474  1  0.150530  0.319310  0.169050  1.0  -0.2522
  I  I475  1  0.780910  0.047970  0.222300  1.0  -0.2833
  I  I476  1  0.324270  0.826390  0.056810  1.0  -0.2737
  I  I477  1  0.228590  0.767050  0.851950  1.0  -0.3147
  I  I478  1  0.212590  0.863230  0.810050  1.0  -0.2526
  I  I479  1  0.349470  0.819310  0.830950  1.0  -0.2529
  I  I480  1  0.280910  0.547970  0.222300  1.0  -0.2833
  I  I481  1  0.824270  0.326390  0.056810  1.0  -0.2737
  I  I482  1  0.728590  0.267050  0.851950  1.0  -0.3147
  I  I483  1  0.712590  0.363230  0.810050  1.0  -0.2526
  I  I484  1  0.849470  0.319310  0.830950  1.0  -0.2529
  I  I485  1  0.780910  0.952030  0.222300  1.0  -0.2832
  I  I486  1  0.324270  0.173610  0.056810  1.0  -0.2746
  I  I487  1  0.228590  0.232950  0.851950  1.0  -0.3139
  I  I488  1  0.212590  0.136770  0.810050  1.0  -0.2519
  I  I489  1  0.349470  0.180690  0.830950  1.0  -0.2525
  I  I490  1  0.280910  0.452030  0.222300  1.0  -0.2832
  I  I491  1  0.824270  0.673610  0.056810  1.0  -0.2746
  I  I492  1  0.728590  0.732950  0.851950  1.0  -0.3139
  I  I493  1  0.712590  0.636770  0.810050  1.0  -0.2519
  I  I494  1  0.849470  0.680690  0.830950  1.0  -0.2525
  I  I495  1  0.219090  0.952030  0.777700  1.0  -0.2839
  I  I496  1  0.675730  0.173610  0.943190  1.0  -0.275
  I  I497  1  0.771410  0.232950  0.148050  1.0  -0.3132
  I  I498  1  0.787410  0.136770  0.189950  1.0  -0.2517
  I  I499  1  0.650530  0.180690  0.169050  1.0  -0.2519
  I  I500  1  0.719090  0.452030  0.777700  1.0  -0.2839
  I  I501  1  0.175730  0.673610  0.943190  1.0  -0.275
  I  I502  1  0.271410  0.732950  0.148050  1.0  -0.3132
  I  I503  1  0.287410  0.636770  0.189950  1.0  -0.2517
  I  I504  1  0.150530  0.680690  0.169050  1.0  -0.2519
  I  I505  1  0.168220  0.000000  0.942700  1.0  -0.2597
  I  I506  1  0.079000  0.000000  0.668900  1.0  -0.2337
  I  I507  1  0.668220  0.500000  0.942700  1.0  -0.2708
  I  I508  1  0.579000  0.500000  0.668900  1.0  -0.2337
  I  I509  1  0.831780  0.000000  0.057300  1.0  -0.259
  I  I510  1  0.921000  0.000000  0.331100  1.0  -0.2324
  I  I511  1  0.331780  0.500000  0.057300  1.0  -0.2698
  I  I512  1  0.421000  0.500000  0.331100  1.0  -0.2324
  N  N513  1  0.809000  0.820700  0.030600  1.0  -0.2901
  N  N514  1  0.133200  0.738300  0.013300  1.0  -0.3156
  N  N515  1  0.780000  0.809100  0.331000  1.0  -0.2729
  N  N516  1  0.108100  0.936400  0.812000  1.0  -0.2546
  N  N517  1  0.658100  0.886100  0.063600  1.0  -0.2659
  N  N518  1  0.309000  0.320700  0.030600  1.0  -0.2901
  N  N519  1  0.633200  0.238300  0.013300  1.0  -0.3156
  N  N520  1  0.280000  0.309100  0.331000  1.0  -0.2729
  N  N521  1  0.608100  0.436400  0.812000  1.0  -0.2546
  N  N522  1  0.158100  0.386100  0.063600  1.0  -0.2659
  N  N523  1  0.191000  0.820700  0.969400  1.0  -0.2877
  N  N524  1  0.866800  0.738300  0.986700  1.0  -0.3164
  N  N525  1  0.220000  0.809100  0.669000  1.0  -0.2719
  N  N526  1  0.891900  0.936400  0.188000  1.0  -0.2534
  N  N527  1  0.341900  0.886100  0.936400  1.0  -0.2667
  N  N528  1  0.691000  0.320700  0.969400  1.0  -0.2877
  N  N529  1  0.366800  0.238300  0.986700  1.0  -0.3164
  N  N530  1  0.720000  0.309100  0.669000  1.0  -0.2719
  N  N531  1  0.391900  0.436400  0.188000  1.0  -0.2534
  N  N532  1  0.841900  0.386100  0.936400  1.0  -0.2667
  N  N533  1  0.191000  0.179300  0.969400  1.0  -0.2867
  N  N534  1  0.866800  0.261700  0.986700  1.0  -0.3171
  N  N535  1  0.220000  0.190900  0.669000  1.0  -0.2722
  N  N536  1  0.891900  0.063600  0.188000  1.0  -0.2537
  N  N537  1  0.341900  0.113900  0.936400  1.0  -0.2676
  N  N538  1  0.691000  0.679300  0.969400  1.0  -0.2867
  N  N539  1  0.366800  0.761700  0.986700  1.0  -0.3171
  N  N540  1  0.720000  0.690900  0.669000  1.0  -0.2722
  N  N541  1  0.391900  0.563600  0.188000  1.0  -0.2537
  N  N542  1  0.841900  0.613900  0.936400  1.0  -0.2676
  N  N543  1  0.809000  0.179300  0.030600  1.0  -0.2906
  N  N544  1  0.133200  0.261700  0.013300  1.0  -0.3179
  N  N545  1  0.780000  0.190900  0.331000  1.0  -0.2726
  N  N546  1  0.108100  0.063600  0.812000  1.0  -0.2536
  N  N547  1  0.658100  0.113900  0.063600  1.0  -0.2677
  N  N548  1  0.309000  0.679300  0.030600  1.0  -0.2906
  N  N549  1  0.633200  0.761700  0.013300  1.0  -0.3179
  N  N550  1  0.280000  0.690900  0.331000  1.0  -0.2726
  N  N551  1  0.608100  0.563600  0.812000  1.0  -0.2536
  N  N552  1  0.158100  0.613900  0.063600  1.0  -0.2677
  O  O553  1  0.909500  0.846300  0.885400  1.0  -0.661
  O  O554  1  0.861300  0.813300  0.807400  1.0  -0.6799
  O  O555  1  0.988500  0.805300  0.900400  1.0  -0.6687
  O  O556  1  0.009100  0.802800  0.798300  1.0  -0.6399
  O  O557  1  0.848500  0.822800  0.635800  1.0  -0.6791
  O  O558  1  0.914300  0.811500  0.623800  1.0  -0.703
  O  O559  1  0.994000  0.865300  0.847600  1.0  -0.679
  O  O560  1  0.978300  0.860400  0.715700  1.0  -0.6034
  O  O561  1  0.538700  0.967900  0.953000  1.0  -0.6357
  O  O562  1  0.564800  0.969500  0.096000  1.0  -0.7267
  O  O563  1  0.409500  0.346300  0.885400  1.0  -0.661
  O  O564  1  0.361300  0.313300  0.807400  1.0  -0.6799
  O  O565  1  0.488500  0.305300  0.900400  1.0  -0.6687
  O  O566  1  0.509100  0.302800  0.798300  1.0  -0.6399
  O  O567  1  0.348500  0.322800  0.635800  1.0  -0.6791
  O  O568  1  0.414300  0.311500  0.623800  1.0  -0.703
  O  O569  1  0.494000  0.365300  0.847600  1.0  -0.679
  O  O570  1  0.478300  0.360400  0.715700  1.0  -0.6034
  O  O571  1  0.038700  0.467900  0.953000  1.0  -0.6357
  O  O572  1  0.064800  0.469500  0.096000  1.0  -0.7267
  O  O573  1  0.090500  0.846300  0.114600  1.0  -0.6579
  O  O574  1  0.138700  0.813300  0.192600  1.0  -0.6799
  O  O575  1  0.011500  0.805300  0.099600  1.0  -0.6684
  O  O576  1  0.990900  0.802800  0.201700  1.0  -0.641
  O  O577  1  0.151500  0.822800  0.364200  1.0  -0.6786
  O  O578  1  0.085700  0.811500  0.376200  1.0  -0.7031
  O  O579  1  0.006000  0.865300  0.152400  1.0  -0.6813
  O  O580  1  0.021700  0.860400  0.284300  1.0  -0.5998
  O  O581  1  0.461300  0.967900  0.047000  1.0  -0.633
  O  O582  1  0.435200  0.969500  0.904000  1.0  -0.728
  O  O583  1  0.590500  0.346300  0.114600  1.0  -0.6579
  O  O584  1  0.638700  0.313300  0.192600  1.0  -0.6799
  O  O585  1  0.511500  0.305300  0.099600  1.0  -0.6684
  O  O586  1  0.490900  0.302800  0.201700  1.0  -0.641
  O  O587  1  0.651500  0.322800  0.364200  1.0  -0.6786
  O  O588  1  0.585700  0.311500  0.376200  1.0  -0.7031
  O  O589  1  0.506000  0.365300  0.152400  1.0  -0.6813
  O  O590  1  0.521700  0.360400  0.284300  1.0  -0.5998
  O  O591  1  0.961300  0.467900  0.047000  1.0  -0.633
  O  O592  1  0.935200  0.469500  0.904000  1.0  -0.728
  O  O593  1  0.090500  0.153700  0.114600  1.0  -0.6591
  O  O594  1  0.138700  0.186700  0.192600  1.0  -0.6808
  O  O595  1  0.011500  0.194700  0.099600  1.0  -0.6686
  O  O596  1  0.990900  0.197200  0.201700  1.0  -0.6406
  O  O597  1  0.151500  0.177200  0.364200  1.0  -0.6793
  O  O598  1  0.085700  0.188500  0.376200  1.0  -0.7026
  O  O599  1  0.006000  0.134700  0.152400  1.0  -0.6835
  O  O600  1  0.021700  0.139600  0.284300  1.0  -0.5994
  O  O601  1  0.461300  0.032100  0.047000  1.0  -0.6335
  O  O602  1  0.435200  0.030500  0.904000  1.0  -0.7275
  O  O603  1  0.590500  0.653700  0.114600  1.0  -0.6591
  O  O604  1  0.638700  0.686700  0.192600  1.0  -0.6808
  O  O605  1  0.511500  0.694700  0.099600  1.0  -0.6686
  O  O606  1  0.490900  0.697200  0.201700  1.0  -0.6406
  O  O607  1  0.651500  0.677200  0.364200  1.0  -0.6793
  O  O608  1  0.585700  0.688500  0.376200  1.0  -0.7026
  O  O609  1  0.506000  0.634700  0.152400  1.0  -0.6835
  O  O610  1  0.521700  0.639600  0.284300  1.0  -0.5994
  O  O611  1  0.961300  0.532100  0.047000  1.0  -0.6335
  O  O612  1  0.935200  0.530500  0.904000  1.0  -0.7275
  O  O613  1  0.909500  0.153700  0.885400  1.0  -0.66
  O  O614  1  0.861300  0.186700  0.807400  1.0  -0.6809
  O  O615  1  0.988500  0.194700  0.900400  1.0  -0.6686
  O  O616  1  0.009100  0.197200  0.798300  1.0  -0.6396
  O  O617  1  0.848500  0.177200  0.635800  1.0  -0.6794
  O  O618  1  0.914300  0.188500  0.623800  1.0  -0.7024
  O  O619  1  0.994000  0.134700  0.847600  1.0  -0.6802
  O  O620  1  0.978300  0.139600  0.715700  1.0  -0.6031
  O  O621  1  0.538700  0.032100  0.953000  1.0  -0.6354
  O  O622  1  0.564800  0.030500  0.096000  1.0  -0.7261
  O  O623  1  0.409500  0.653700  0.885400  1.0  -0.66
  O  O624  1  0.361300  0.686700  0.807400  1.0  -0.6809
  O  O625  1  0.488500  0.694700  0.900400  1.0  -0.6686
  O  O626  1  0.509100  0.697200  0.798300  1.0  -0.6396
  O  O627  1  0.348500  0.677200  0.635800  1.0  -0.6794
  O  O628  1  0.414300  0.688500  0.623800  1.0  -0.7024
  O  O629  1  0.494000  0.634700  0.847600  1.0  -0.6802
  O  O630  1  0.478300  0.639600  0.715700  1.0  -0.6031
  O  O631  1  0.038700  0.532100  0.953000  1.0  -0.6354
  O  O632  1  0.064800  0.530500  0.096000  1.0  -0.7261
