# generated using pymatgen
data_Co3H14C30N4O13
_symmetry_space_group_name_H-M   'P 1'
_cell_length_a   20.29370000
_cell_length_b   20.29370000
_cell_length_c   20.29370000
_cell_angle_alpha   85.00580000
_cell_angle_beta   85.00580000
_cell_angle_gamma   85.00580000
_symmetry_Int_Tables_number   1
_chemical_formula_structural   Co3H14C30N4O13
_chemical_formula_sum   'Co18 H84 C180 N24 O78'
_cell_volume   8267.66224946
_cell_formula_units_Z   6
loop_
 _symmetry_equiv_pos_site_id
 _symmetry_equiv_pos_as_xyz
  1  'x, y, z'
loop_
 _atom_site_type_symbol
 _atom_site_label
 _atom_site_symmetry_multiplicity
 _atom_site_fract_x
 _atom_site_fract_y
 _atom_site_fract_z
 _atom_site_occupancy
 _atom_site_charge
  Co  Co1  1  0.722070  0.025390  0.025390  1.0  1.0586
  Co  Co2  1  0.555720  0.076630  0.076630  1.0  0.9906
  Co  Co3  1  0.025390  0.722070  0.025390  1.0  1.0578
  Co  Co4  1  0.076630  0.555720  0.076630  1.0  0.9896
  Co  Co5  1  0.025390  0.025390  0.722070  1.0  1.0575
  Co  Co6  1  0.076630  0.076630  0.555720  1.0  0.99
  Co  Co7  1  0.974610  0.277930  0.974610  1.0  1.0585
  Co  Co8  1  0.923370  0.444280  0.923370  1.0  0.9902
  Co  Co9  1  0.277930  0.974610  0.974610  1.0  1.0587
  Co  Co10  1  0.444280  0.923370  0.923370  1.0  0.989
  Co  Co11  1  0.974610  0.974610  0.277930  1.0  1.0567
  Co  Co12  1  0.923370  0.923370  0.444280  1.0  0.9884
  Co  Co13  1  0.562430  0.562430  0.013200  1.0  0.8654
  Co  Co14  1  0.013200  0.562430  0.562430  1.0  0.8625
  Co  Co15  1  0.562430  0.013200  0.562430  1.0  0.8565
  Co  Co16  1  0.437570  0.437570  0.986800  1.0  0.8672
  Co  Co17  1  0.437570  0.986800  0.437570  1.0  0.8631
  Co  Co18  1  0.986800  0.437570  0.437570  1.0  0.8631
  H  H19  1  0.386900  0.121000  0.267400  1.0  0.1217
  H  H20  1  0.477600  0.069800  0.211700  1.0  0.0887
  H  H21  1  0.582800  0.282300  0.016400  1.0  0.1144
  H  H22  1  0.518200  0.664800  0.784600  1.0  0.1283
  H  H23  1  0.496200  0.638600  0.894900  1.0  0.0801
  H  H24  1  0.629500  0.776300  0.016100  1.0  0.1114
  H  H25  1  0.267400  0.386900  0.121000  1.0  0.1202
  H  H26  1  0.211700  0.477600  0.069800  1.0  0.0891
  H  H27  1  0.016400  0.582800  0.282300  1.0  0.1153
  H  H28  1  0.784600  0.518200  0.664800  1.0  0.1268
  H  H29  1  0.894900  0.496200  0.638600  1.0  0.0827
  H  H30  1  0.016100  0.629500  0.776300  1.0  0.1113
  H  H31  1  0.121000  0.267400  0.386900  1.0  0.1214
  H  H32  1  0.069800  0.211700  0.477600  1.0  0.0886
  H  H33  1  0.282300  0.016400  0.582800  1.0  0.1165
  H  H34  1  0.664800  0.784600  0.518200  1.0  0.128
  H  H35  1  0.638600  0.894900  0.496200  1.0  0.0819
  H  H36  1  0.776300  0.016100  0.629500  1.0  0.1147
  H  H37  1  0.879000  0.613100  0.732600  1.0  0.1218
  H  H38  1  0.930200  0.522400  0.788300  1.0  0.0879
  H  H39  1  0.717700  0.417200  0.983600  1.0  0.1158
  H  H40  1  0.335200  0.481800  0.215400  1.0  0.1287
  H  H41  1  0.361400  0.503800  0.105100  1.0  0.0825
  H  H42  1  0.223700  0.370500  0.983900  1.0  0.1133
  H  H43  1  0.613100  0.732600  0.879000  1.0  0.1214
  H  H44  1  0.522400  0.788300  0.930200  1.0  0.0892
  H  H45  1  0.417200  0.983600  0.717700  1.0  0.1151
  H  H46  1  0.481800  0.215400  0.335200  1.0  0.1277
  H  H47  1  0.503800  0.105100  0.361400  1.0  0.0819
  H  H48  1  0.370500  0.983900  0.223700  1.0  0.113
  H  H49  1  0.732600  0.879000  0.613100  1.0  0.1211
  H  H50  1  0.788300  0.930200  0.522400  1.0  0.089
  H  H51  1  0.983600  0.717700  0.417200  1.0  0.1148
  H  H52  1  0.215400  0.335200  0.481800  1.0  0.1272
  H  H53  1  0.105100  0.361400  0.503800  1.0  0.0817
  H  H54  1  0.983900  0.223700  0.370500  1.0  0.1134
  H  H55  1  0.613100  0.879000  0.732600  1.0  0.1216
  H  H56  1  0.522400  0.930200  0.788300  1.0  0.089
  H  H57  1  0.417200  0.717700  0.983600  1.0  0.1153
  H  H58  1  0.481800  0.335200  0.215400  1.0  0.1273
  H  H59  1  0.503800  0.361400  0.105100  1.0  0.0824
  H  H60  1  0.370500  0.223700  0.983900  1.0  0.112
  H  H61  1  0.732600  0.613100  0.879000  1.0  0.1211
  H  H62  1  0.788300  0.522400  0.930200  1.0  0.0894
  H  H63  1  0.983600  0.417200  0.717700  1.0  0.1156
  H  H64  1  0.215400  0.481800  0.335200  1.0  0.1285
  H  H65  1  0.105100  0.503800  0.361400  1.0  0.0828
  H  H66  1  0.983900  0.370500  0.223700  1.0  0.1116
  H  H67  1  0.879000  0.732600  0.613100  1.0  0.1216
  H  H68  1  0.930200  0.788300  0.522400  1.0  0.0885
  H  H69  1  0.717700  0.983600  0.417200  1.0  0.1152
  H  H70  1  0.335200  0.215400  0.481800  1.0  0.1273
  H  H71  1  0.361400  0.105100  0.503800  1.0  0.0827
  H  H72  1  0.223700  0.983900  0.370500  1.0  0.115
  H  H73  1  0.121000  0.386900  0.267400  1.0  0.1218
  H  H74  1  0.069800  0.477600  0.211700  1.0  0.0874
  H  H75  1  0.282300  0.582800  0.016400  1.0  0.1159
  H  H76  1  0.664800  0.518200  0.784600  1.0  0.1276
  H  H77  1  0.638600  0.496200  0.894900  1.0  0.0828
  H  H78  1  0.776300  0.629500  0.016100  1.0  0.1132
  H  H79  1  0.386900  0.267400  0.121000  1.0  0.1208
  H  H80  1  0.477600  0.211700  0.069800  1.0  0.0891
  H  H81  1  0.582800  0.016400  0.282300  1.0  0.1143
  H  H82  1  0.518200  0.784600  0.664800  1.0  0.1273
  H  H83  1  0.496200  0.894900  0.638600  1.0  0.0811
  H  H84  1  0.629500  0.016100  0.776300  1.0  0.1132
  H  H85  1  0.267400  0.121000  0.386900  1.0  0.1205
  H  H86  1  0.211700  0.069800  0.477600  1.0  0.0891
  H  H87  1  0.016400  0.282300  0.582800  1.0  0.1161
  H  H88  1  0.784600  0.664800  0.518200  1.0  0.1282
  H  H89  1  0.894900  0.638600  0.496200  1.0  0.0824
  H  H90  1  0.016100  0.776300  0.629500  1.0  0.1137
  H  H91  1  0.776900  0.223100  0.000000  1.0  0.12
  H  H92  1  0.000000  0.776900  0.223100  1.0  0.1209
  H  H93  1  0.223100  0.000000  0.776900  1.0  0.121
  H  H94  1  0.223100  0.776900  0.000000  1.0  0.1204
  H  H95  1  0.000000  0.223100  0.776900  1.0  0.1212
  H  H96  1  0.776900  0.000000  0.223100  1.0  0.1204
  H  H97  1  0.818000  0.818000  0.028000  1.0  0.118
  H  H98  1  0.028000  0.818000  0.818000  1.0  0.1194
  H  H99  1  0.818000  0.028000  0.818000  1.0  0.1189
  H  H100  1  0.182000  0.182000  0.972000  1.0  0.1182
  H  H101  1  0.182000  0.972000  0.182000  1.0  0.1189
  H  H102  1  0.972000  0.182000  0.182000  1.0  0.1187
  C  C103  1  0.662290  0.170070  0.026430  1.0  0.7456
  C  C104  1  0.404200  0.140200  0.227030  1.0  -0.1299
  C  C105  1  0.458140  0.109450  0.192920  1.0  0.1844
  C  C106  1  0.677560  0.241340  0.011560  1.0  -0.1527
  C  C107  1  0.626840  0.292310  0.010320  1.0  0.0084
  C  C108  1  0.543900  0.630900  0.806300  1.0  -0.149
  C  C109  1  0.697210  0.879710  0.026810  1.0  0.6724
  C  C110  1  0.531030  0.614830  0.872230  1.0  0.1882
  C  C111  1  0.720190  0.808390  0.023790  1.0  -0.13
  C  C112  1  0.674250  0.762290  0.017970  1.0  0.0043
  C  C113  1  0.026430  0.662290  0.170070  1.0  0.7469
  C  C114  1  0.227030  0.404200  0.140200  1.0  -0.1307
  C  C115  1  0.192920  0.458140  0.109450  1.0  0.1836
  C  C116  1  0.011560  0.677560  0.241340  1.0  -0.1528
  C  C117  1  0.010320  0.626840  0.292310  1.0  0.0115
  C  C118  1  0.806300  0.543900  0.630900  1.0  -0.1463
  C  C119  1  0.026810  0.697210  0.879710  1.0  0.6746
  C  C120  1  0.872230  0.531030  0.614830  1.0  0.187
  C  C121  1  0.023790  0.720190  0.808390  1.0  -0.1316
  C  C122  1  0.017970  0.674250  0.762290  1.0  0.009
  C  C123  1  0.170070  0.026430  0.662290  1.0  0.7469
  C  C124  1  0.140200  0.227030  0.404200  1.0  -0.1312
  C  C125  1  0.109450  0.192920  0.458140  1.0  0.1854
  C  C126  1  0.241340  0.011560  0.677560  1.0  -0.1519
  C  C127  1  0.292310  0.010320  0.626840  1.0  0.008
  C  C128  1  0.630900  0.806300  0.543900  1.0  -0.1517
  C  C129  1  0.879710  0.026810  0.697210  1.0  0.672
  C  C130  1  0.614830  0.872230  0.531030  1.0  0.1868
  C  C131  1  0.808390  0.023790  0.720190  1.0  -0.1303
  C  C132  1  0.762290  0.017970  0.674250  1.0  0.0046
  C  C133  1  0.829930  0.337710  0.973570  1.0  0.7449
  C  C134  1  0.859800  0.595800  0.772970  1.0  -0.1285
  C  C135  1  0.890550  0.541860  0.807080  1.0  0.1839
  C  C136  1  0.758660  0.322440  0.988440  1.0  -0.153
  C  C137  1  0.707690  0.373160  0.989680  1.0  0.0099
  C  C138  1  0.369100  0.456100  0.193700  1.0  -0.1483
  C  C139  1  0.120290  0.302790  0.973190  1.0  0.6719
  C  C140  1  0.385170  0.468970  0.127770  1.0  0.1881
  C  C141  1  0.191610  0.279810  0.976210  1.0  -0.1313
  C  C142  1  0.237710  0.325750  0.982030  1.0  0.0048
  C  C143  1  0.337710  0.973570  0.829930  1.0  0.7487
  C  C144  1  0.595800  0.772970  0.859800  1.0  -0.1309
  C  C145  1  0.541860  0.807080  0.890550  1.0  0.1832
  C  C146  1  0.322440  0.988440  0.758660  1.0  -0.1556
  C  C147  1  0.373160  0.989680  0.707690  1.0  0.0089
  C  C148  1  0.456100  0.193700  0.369100  1.0  -0.1445
  C  C149  1  0.302790  0.973190  0.120290  1.0  0.6719
  C  C150  1  0.468970  0.127770  0.385170  1.0  0.1879
  C  C151  1  0.279810  0.976210  0.191610  1.0  -0.1322
  C  C152  1  0.325750  0.982030  0.237710  1.0  0.0038
  C  C153  1  0.973570  0.829930  0.337710  1.0  0.745
  C  C154  1  0.772970  0.859800  0.595800  1.0  -0.1305
  C  C155  1  0.807080  0.890550  0.541860  1.0  0.1845
  C  C156  1  0.988440  0.758660  0.322440  1.0  -0.1526
  C  C157  1  0.989680  0.707690  0.373160  1.0  0.0104
  C  C158  1  0.193700  0.369100  0.456100  1.0  -0.1524
  C  C159  1  0.973190  0.120290  0.302790  1.0  0.673
  C  C160  1  0.127770  0.385170  0.468970  1.0  0.1859
  C  C161  1  0.976210  0.191610  0.279810  1.0  -0.1315
  C  C162  1  0.982030  0.237710  0.325750  1.0  0.0086
  C  C163  1  0.337710  0.829930  0.973570  1.0  0.7454
  C  C164  1  0.595800  0.859800  0.772970  1.0  -0.1316
  C  C165  1  0.541860  0.890550  0.807080  1.0  0.183
  C  C166  1  0.322440  0.758660  0.988440  1.0  -0.1529
  C  C167  1  0.373160  0.707690  0.989680  1.0  0.0092
  C  C168  1  0.456100  0.369100  0.193700  1.0  -0.1479
  C  C169  1  0.302790  0.120290  0.973190  1.0  0.6727
  C  C170  1  0.468970  0.385170  0.127770  1.0  0.189
  C  C171  1  0.279810  0.191610  0.976210  1.0  -0.1299
  C  C172  1  0.325750  0.237710  0.982030  1.0  0.0035
  C  C173  1  0.973570  0.337710  0.829930  1.0  0.7489
  C  C174  1  0.772970  0.595800  0.859800  1.0  -0.1306
  C  C175  1  0.807080  0.541860  0.890550  1.0  0.1846
  C  C176  1  0.988440  0.322440  0.758660  1.0  -0.1548
  C  C177  1  0.989680  0.373160  0.707690  1.0  0.0107
  C  C178  1  0.193700  0.456100  0.369100  1.0  -0.1508
  C  C179  1  0.973190  0.302790  0.120290  1.0  0.6736
  C  C180  1  0.127770  0.468970  0.385170  1.0  0.1858
  C  C181  1  0.976210  0.279810  0.191610  1.0  -0.1324
  C  C182  1  0.982030  0.325750  0.237710  1.0  0.0092
  C  C183  1  0.829930  0.973570  0.337710  1.0  0.7449
  C  C184  1  0.859800  0.772970  0.595800  1.0  -0.1321
  C  C185  1  0.890550  0.807080  0.541860  1.0  0.185
  C  C186  1  0.758660  0.988440  0.322440  1.0  -0.1527
  C  C187  1  0.707690  0.989680  0.373160  1.0  0.0104
  C  C188  1  0.369100  0.193700  0.456100  1.0  -0.152
  C  C189  1  0.120290  0.973190  0.302790  1.0  0.6719
  C  C190  1  0.385170  0.127770  0.468970  1.0  0.1882
  C  C191  1  0.191610  0.976210  0.279810  1.0  -0.1315
  C  C192  1  0.237710  0.982030  0.325750  1.0  0.0039
  C  C193  1  0.170070  0.662290  0.026430  1.0  0.7468
  C  C194  1  0.140200  0.404200  0.227030  1.0  -0.1291
  C  C195  1  0.109450  0.458140  0.192920  1.0  0.1848
  C  C196  1  0.241340  0.677560  0.011560  1.0  -0.1517
  C  C197  1  0.292310  0.626840  0.010320  1.0  0.0109
  C  C198  1  0.630900  0.543900  0.806300  1.0  -0.1465
  C  C199  1  0.879710  0.697210  0.026810  1.0  0.6715
  C  C200  1  0.614830  0.531030  0.872230  1.0  0.1888
  C  C201  1  0.808390  0.720190  0.023790  1.0  -0.1291
  C  C202  1  0.762290  0.674250  0.017970  1.0  0.0061
  C  C203  1  0.662290  0.026430  0.170070  1.0  0.7478
  C  C204  1  0.404200  0.227030  0.140200  1.0  -0.1333
  C  C205  1  0.458140  0.192920  0.109450  1.0  0.1834
  C  C206  1  0.677560  0.011560  0.241340  1.0  -0.153
  C  C207  1  0.626840  0.010320  0.292310  1.0  0.008
  C  C208  1  0.543900  0.806300  0.630900  1.0  -0.1481
  C  C209  1  0.697210  0.026810  0.879710  1.0  0.6721
  C  C210  1  0.531030  0.872230  0.614830  1.0  0.1874
  C  C211  1  0.720190  0.023790  0.808390  1.0  -0.1325
  C  C212  1  0.674250  0.017970  0.762290  1.0  0.0048
  C  C213  1  0.026430  0.170070  0.662290  1.0  0.7446
  C  C214  1  0.227030  0.140200  0.404200  1.0  -0.1319
  C  C215  1  0.192920  0.109450  0.458140  1.0  0.1855
  C  C216  1  0.011560  0.241340  0.677560  1.0  -0.1526
  C  C217  1  0.010320  0.292310  0.626840  1.0  0.0086
  C  C218  1  0.806300  0.630900  0.543900  1.0  -0.1521
  C  C219  1  0.026810  0.879710  0.697210  1.0  0.6739
  C  C220  1  0.872230  0.614830  0.531030  1.0  0.1866
  C  C221  1  0.023790  0.808390  0.720190  1.0  -0.1309
  C  C222  1  0.017970  0.762290  0.674250  1.0  0.008
  C  C223  1  0.642000  0.358000  0.000000  1.0  -0.1134
  C  C224  1  0.743000  0.257000  0.000000  1.0  0.0474
  C  C225  1  0.586100  0.413900  0.000000  1.0  0.714
  C  C226  1  0.000000  0.642000  0.358000  1.0  -0.1123
  C  C227  1  0.000000  0.743000  0.257000  1.0  0.0475
  C  C228  1  0.000000  0.586100  0.413900  1.0  0.7159
  C  C229  1  0.358000  0.000000  0.642000  1.0  -0.1142
  C  C230  1  0.257000  0.000000  0.743000  1.0  0.0459
  C  C231  1  0.413900  0.000000  0.586100  1.0  0.7135
  C  C232  1  0.358000  0.642000  0.000000  1.0  -0.1135
  C  C233  1  0.257000  0.743000  0.000000  1.0  0.0476
  C  C234  1  0.413900  0.586100  0.000000  1.0  0.7135
  C  C235  1  0.000000  0.358000  0.642000  1.0  -0.1122
  C  C236  1  0.000000  0.257000  0.743000  1.0  0.0477
  C  C237  1  0.000000  0.413900  0.586100  1.0  0.7156
  C  C238  1  0.642000  0.000000  0.358000  1.0  -0.1144
  C  C239  1  0.743000  0.000000  0.257000  1.0  0.0459
  C  C240  1  0.586100  0.000000  0.413900  1.0  0.7144
  C  C241  1  0.315570  0.233120  0.233120  1.0  0.3674
  C  C242  1  0.375870  0.200420  0.200420  1.0  -0.0607
  C  C243  1  0.233120  0.315570  0.233120  1.0  0.3677
  C  C244  1  0.200420  0.375870  0.200420  1.0  -0.0606
  C  C245  1  0.233120  0.233120  0.315570  1.0  0.3672
  C  C246  1  0.200420  0.200420  0.375870  1.0  -0.0604
  C  C247  1  0.766880  0.684430  0.766880  1.0  0.3694
  C  C248  1  0.799580  0.624130  0.799580  1.0  -0.0609
  C  C249  1  0.684430  0.766880  0.766880  1.0  0.3689
  C  C250  1  0.624130  0.799580  0.799580  1.0  -0.0596
  C  C251  1  0.766880  0.766880  0.684430  1.0  0.3687
  C  C252  1  0.799580  0.799580  0.624130  1.0  -0.0632
  C  C253  1  0.695320  0.695320  0.014820  1.0  -0.0577
  C  C254  1  0.647400  0.647400  0.007400  1.0  0.7065
  C  C255  1  0.787150  0.787150  0.025500  1.0  0.0311
  C  C256  1  0.014820  0.695320  0.695320  1.0  -0.0599
  C  C257  1  0.007400  0.647400  0.647400  1.0  0.7047
  C  C258  1  0.025500  0.787150  0.787150  1.0  0.0309
  C  C259  1  0.695320  0.014820  0.695320  1.0  -0.0583
  C  C260  1  0.647400  0.007400  0.647400  1.0  0.7096
  C  C261  1  0.787150  0.025500  0.787150  1.0  0.0313
  C  C262  1  0.304680  0.304680  0.985180  1.0  -0.056
  C  C263  1  0.352600  0.352600  0.992600  1.0  0.7033
  C  C264  1  0.212850  0.212850  0.974500  1.0  0.0322
  C  C265  1  0.304680  0.985180  0.304680  1.0  -0.0565
  C  C266  1  0.352600  0.992600  0.352600  1.0  0.7101
  C  C267  1  0.212850  0.974500  0.212850  1.0  0.0311
  C  C268  1  0.985180  0.304680  0.304680  1.0  -0.0603
  C  C269  1  0.992600  0.352600  0.352600  1.0  0.7057
  C  C270  1  0.974500  0.212850  0.212850  1.0  0.0317
  C  C271  1  0.596080  0.596080  0.771180  1.0  0.1817
  C  C272  1  0.621800  0.621800  0.703000  1.0  0.3962
  C  C273  1  0.771180  0.596080  0.596080  1.0  0.1802
  C  C274  1  0.703000  0.621800  0.621800  1.0  0.3973
  C  C275  1  0.596080  0.771180  0.596080  1.0  0.1796
  C  C276  1  0.621800  0.703000  0.621800  1.0  0.3983
  C  C277  1  0.403920  0.403920  0.228820  1.0  0.1814
  C  C278  1  0.378200  0.378200  0.297000  1.0  0.3933
  C  C279  1  0.403920  0.228820  0.403920  1.0  0.1803
  C  C280  1  0.378200  0.297000  0.378200  1.0  0.3966
  C  C281  1  0.228820  0.403920  0.403920  1.0  0.1834
  C  C282  1  0.297000  0.378200  0.378200  1.0  0.3962
  N  N283  1  0.483750  0.134050  0.134050  1.0  -0.2988
  N  N284  1  0.134050  0.483750  0.134050  1.0  -0.2976
  N  N285  1  0.134040  0.134050  0.483750  1.0  -0.2976
  N  N286  1  0.865960  0.516250  0.865960  1.0  -0.2967
  N  N287  1  0.516250  0.865960  0.865960  1.0  -0.2975
  N  N288  1  0.865960  0.865960  0.516250  1.0  -0.2969
  N  N289  1  0.566100  0.566100  0.906200  1.0  -0.3052
  N  N290  1  0.906200  0.566100  0.566100  1.0  -0.3002
  N  N291  1  0.566100  0.906200  0.566100  1.0  -0.3035
  N  N292  1  0.433900  0.433900  0.093800  1.0  -0.3071
  N  N293  1  0.433900  0.093800  0.433900  1.0  -0.3045
  N  N294  1  0.093800  0.433900  0.433900  1.0  -0.3012
  N  N295  1  0.677760  0.590000  0.677760  1.0  -0.4317
  N  N296  1  0.677760  0.677760  0.590000  1.0  -0.4309
  N  N297  1  0.590000  0.677760  0.677760  1.0  -0.4334
  N  N298  1  0.410000  0.322240  0.322240  1.0  -0.4353
  N  N299  1  0.322240  0.322240  0.410000  1.0  -0.4348
  N  N300  1  0.322240  0.410000  0.322240  1.0  -0.4313
  N  N301  1  0.289480  0.203180  0.289480  1.0  -0.5151
  N  N302  1  0.289480  0.289480  0.203180  1.0  -0.5115
  N  N303  1  0.203180  0.289480  0.289480  1.0  -0.5157
  N  N304  1  0.796820  0.710520  0.710520  1.0  -0.5147
  N  N305  1  0.710520  0.710520  0.796820  1.0  -0.5149
  N  N306  1  0.710520  0.796820  0.710520  1.0  -0.5128
  O  O307  1  0.603450  0.159880  0.046980  1.0  -0.6075
  O  O308  1  0.709570  0.127180  0.017660  1.0  -0.6175
  O  O309  1  0.599200  0.467280  0.019920  1.0  -0.6327
  O  O310  1  0.738340  0.921450  0.027220  1.0  -0.5756
  O  O311  1  0.634440  0.898340  0.011040  1.0  -0.5267
  O  O312  1  0.586030  0.666750  0.006430  1.0  -0.5552
  O  O313  1  0.046980  0.603450  0.159880  1.0  -0.6113
  O  O314  1  0.017660  0.709570  0.127180  1.0  -0.6138
  O  O315  1  0.019920  0.599200  0.467280  1.0  -0.6297
  O  O316  1  0.027220  0.738340  0.921450  1.0  -0.5741
  O  O317  1  0.011040  0.634440  0.898340  1.0  -0.5283
  O  O318  1  0.006430  0.586030  0.666750  1.0  -0.5574
  O  O319  1  0.159880  0.046980  0.603450  1.0  -0.6067
  O  O320  1  0.127180  0.017660  0.709570  1.0  -0.6114
  O  O321  1  0.467280  0.019920  0.599200  1.0  -0.6284
  O  O322  1  0.921450  0.027220  0.738340  1.0  -0.5743
  O  O323  1  0.898340  0.011040  0.634440  1.0  -0.5311
  O  O324  1  0.666750  0.006430  0.586030  1.0  -0.5541
  O  O325  1  0.840120  0.396550  0.953020  1.0  -0.608
  O  O326  1  0.872820  0.290430  0.982340  1.0  -0.6144
  O  O327  1  0.532720  0.400800  0.980080  1.0  -0.6272
  O  O328  1  0.078550  0.261660  0.972780  1.0  -0.5756
  O  O329  1  0.101660  0.365560  0.988960  1.0  -0.5247
  O  O330  1  0.333250  0.413970  0.993570  1.0  -0.555
  O  O331  1  0.396550  0.953020  0.840120  1.0  -0.6077
  O  O332  1  0.290430  0.982340  0.872820  1.0  -0.6159
  O  O333  1  0.400800  0.980080  0.532720  1.0  -0.6286
  O  O334  1  0.261660  0.972780  0.078550  1.0  -0.5738
  O  O335  1  0.365560  0.988960  0.101660  1.0  -0.5269
  O  O336  1  0.413970  0.993570  0.333250  1.0  -0.5545
  O  O337  1  0.953020  0.840120  0.396550  1.0  -0.6082
  O  O338  1  0.982340  0.872820  0.290430  1.0  -0.6119
  O  O339  1  0.980080  0.532720  0.400800  1.0  -0.6298
  O  O340  1  0.972780  0.078550  0.261660  1.0  -0.5775
  O  O341  1  0.988960  0.101660  0.365560  1.0  -0.5308
  O  O342  1  0.993570  0.333250  0.413970  1.0  -0.5543
  O  O343  1  0.396550  0.840120  0.953020  1.0  -0.6083
  O  O344  1  0.290430  0.872820  0.982340  1.0  -0.6181
  O  O345  1  0.400800  0.532720  0.980080  1.0  -0.6297
  O  O346  1  0.261660  0.078550  0.972780  1.0  -0.5762
  O  O347  1  0.365560  0.101660  0.988960  1.0  -0.5298
  O  O348  1  0.413970  0.333250  0.993570  1.0  -0.5574
  O  O349  1  0.953020  0.396550  0.840120  1.0  -0.6108
  O  O350  1  0.982340  0.290430  0.872820  1.0  -0.6138
  O  O351  1  0.980080  0.400800  0.532720  1.0  -0.6295
  O  O352  1  0.972780  0.261660  0.078550  1.0  -0.5755
  O  O353  1  0.988960  0.365560  0.101660  1.0  -0.526
  O  O354  1  0.993570  0.413970  0.333250  1.0  -0.5563
  O  O355  1  0.840120  0.953020  0.396550  1.0  -0.6055
  O  O356  1  0.872820  0.982340  0.290430  1.0  -0.6104
  O  O357  1  0.532720  0.980080  0.400800  1.0  -0.6279
  O  O358  1  0.078550  0.972780  0.261660  1.0  -0.5752
  O  O359  1  0.101660  0.988960  0.365560  1.0  -0.5292
  O  O360  1  0.333250  0.993570  0.413970  1.0  -0.5557
  O  O361  1  0.159880  0.603450  0.046980  1.0  -0.6078
  O  O362  1  0.127180  0.709570  0.017660  1.0  -0.6132
  O  O363  1  0.467280  0.599200  0.019920  1.0  -0.6297
  O  O364  1  0.921450  0.738340  0.027220  1.0  -0.5748
  O  O365  1  0.898340  0.634440  0.011040  1.0  -0.5253
  O  O366  1  0.666750  0.586030  0.006430  1.0  -0.5562
  O  O367  1  0.603450  0.046980  0.159880  1.0  -0.6069
  O  O368  1  0.709570  0.017660  0.127180  1.0  -0.6163
  O  O369  1  0.599200  0.019920  0.467280  1.0  -0.6304
  O  O370  1  0.738340  0.027220  0.921450  1.0  -0.5748
  O  O371  1  0.634440  0.011040  0.898340  1.0  -0.5257
  O  O372  1  0.586030  0.006430  0.666750  1.0  -0.5542
  O  O373  1  0.046980  0.159880  0.603450  1.0  -0.6108
  O  O374  1  0.017660  0.127180  0.709570  1.0  -0.6133
  O  O375  1  0.019920  0.467280  0.599200  1.0  -0.632
  O  O376  1  0.027220  0.921450  0.738340  1.0  -0.5759
  O  O377  1  0.011040  0.898340  0.634440  1.0  -0.5328
  O  O378  1  0.006430  0.666750  0.586030  1.0  -0.5536
  O  O379  1  0.618480  0.017050  0.017050  1.0  -0.5736
  O  O380  1  0.017040  0.618480  0.017050  1.0  -0.574
  O  O381  1  0.017040  0.017050  0.618480  1.0  -0.574
  O  O382  1  0.982960  0.381520  0.982960  1.0  -0.5739
  O  O383  1  0.381520  0.982960  0.982960  1.0  -0.573
  O  O384  1  0.982960  0.982960  0.381520  1.0  -0.5716
