# generated using pymatgen
data_U2H41C29N13O16
_symmetry_space_group_name_H-M   'P 1'
_cell_length_a   10.83460000
_cell_length_b   13.84270000
_cell_length_c   27.98820000
_cell_angle_alpha   97.55400000
_cell_angle_beta   90.00000000
_cell_angle_gamma   90.00000000
_symmetry_Int_Tables_number   1
_chemical_formula_structural   U2H41C29N13O16
_chemical_formula_sum   'U8 H164 C116 N52 O64'
_cell_volume   4161.24360563
_cell_formula_units_Z   4
loop_
 _symmetry_equiv_pos_site_id
 _symmetry_equiv_pos_as_xyz
  1  'x, y, z'
loop_
 _atom_site_type_symbol
 _atom_site_label
 _atom_site_symmetry_multiplicity
 _atom_site_fract_x
 _atom_site_fract_y
 _atom_site_fract_z
 _atom_site_occupancy
 _atom_site_charge
  U  U1  1  0.879170  0.590610  0.524050  1.0  2.5451
  U  U2  1  0.886710  0.553290  0.388710  1.0  2.5708
  U  U3  1  0.379170  0.909390  0.975950  1.0  2.5459
  U  U4  1  0.386710  0.946710  0.111290  1.0  2.5718
  U  U5  1  0.120830  0.409390  0.475950  1.0  2.5466
  U  U6  1  0.113290  0.446710  0.611290  1.0  2.5739
  U  U7  1  0.620830  0.090610  0.024050  1.0  2.546
  U  U8  1  0.613290  0.053290  0.888710  1.0  2.575
  H  H9  1  0.714800  0.605900  0.452500  1.0  0.3648
  H  H10  1  0.858700  0.228500  0.787700  1.0  0.0944
  H  H11  1  0.807100  0.148900  0.747400  1.0  0.088
  H  H12  1  0.650100  0.298800  0.792500  1.0  0.1001
  H  H13  1  0.620100  0.229600  0.745000  1.0  0.0831
  H  H14  1  0.798900  0.380100  0.751600  1.0  0.0832
  H  H15  1  0.773800  0.309300  0.704200  1.0  0.0681
  H  H16  1  0.593500  0.440600  0.747600  1.0  0.0906
  H  H17  1  0.576300  0.374300  0.698300  1.0  0.0804
  H  H18  1  0.617100  0.529200  0.681700  1.0  0.1044
  H  H19  1  0.730300  0.464000  0.664000  1.0  0.0841
  H  H20  1  0.730000  0.590700  0.751600  1.0  0.0873
  H  H21  1  0.844300  0.529300  0.730900  1.0  0.0777
  H  H22  1  0.862600  0.692400  0.715000  1.0  0.1129
  H  H23  1  0.738400  0.682100  0.685900  1.0  0.0896
  H  H24  1  0.631000  0.821300  0.684400  1.0  0.0893
  H  H25  1  0.482400  0.710300  0.658000  1.0  0.0946
  H  H26  1  0.548200  0.594900  0.539900  1.0  0.1084
  H  H27  1  0.439400  0.591400  0.576700  1.0  0.1094
  H  H28  1  0.252800  0.717900  0.627900  1.0  0.1161
  H  H29  1  0.201500  0.824600  0.634800  1.0  0.1275
  H  H30  1  0.226300  0.632800  0.542300  1.0  0.09
  H  H31  1  0.155600  0.673700  0.471100  1.0  0.0874
  H  H32  1  0.247000  0.674600  0.391800  1.0  0.0969
  H  H33  1  0.390500  0.681200  0.386900  1.0  0.0801
  H  H34  1  0.032100  0.900700  0.487400  1.0  0.0861
  H  H35  1  0.033700  0.802700  0.452400  1.0  0.0837
  H  H36  1  0.126900  0.814700  0.368400  1.0  0.0842
  H  H37  1  0.165300  0.949200  0.330100  1.0  0.0858
  H  H38  1  0.631400  0.997600  0.711900  1.0  0.1267
  H  H39  1  0.512000  0.054000  0.700600  1.0  0.1205
  H  H40  1  0.837400  0.869900  0.647900  1.0  0.1096
  H  H41  1  0.856000  0.834500  0.592900  1.0  0.1082
  H  H42  1  0.214800  0.894100  0.047500  1.0  0.3646
  H  H43  1  0.358700  0.271500  0.712300  1.0  0.0945
  H  H44  1  0.307100  0.351100  0.752600  1.0  0.0878
  H  H45  1  0.150100  0.201200  0.707500  1.0  0.101
  H  H46  1  0.120100  0.270400  0.755000  1.0  0.0814
  H  H47  1  0.298900  0.119900  0.748400  1.0  0.0833
  H  H48  1  0.273800  0.190700  0.795800  1.0  0.0685
  H  H49  1  0.093500  0.059400  0.752400  1.0  0.0917
  H  H50  1  0.076300  0.125700  0.801700  1.0  0.0806
  H  H51  1  0.117100  0.970800  0.818300  1.0  0.1034
  H  H52  1  0.230300  0.036000  0.836000  1.0  0.0847
  H  H53  1  0.230000  0.909300  0.748400  1.0  0.0876
  H  H54  1  0.344300  0.970700  0.769100  1.0  0.0775
  H  H55  1  0.362600  0.807600  0.785000  1.0  0.1136
  H  H56  1  0.238400  0.817900  0.814100  1.0  0.0894
  H  H57  1  0.131000  0.678700  0.815600  1.0  0.0897
  H  H58  1  0.982400  0.789700  0.842000  1.0  0.0936
  H  H59  1  0.048200  0.905100  0.960100  1.0  0.1083
  H  H60  1  0.939400  0.908600  0.923300  1.0  0.1098
  H  H61  1  0.752800  0.782100  0.872100  1.0  0.1142
  H  H62  1  0.701500  0.675400  0.865200  1.0  0.1277
  H  H63  1  0.726300  0.867200  0.957700  1.0  0.0902
  H  H64  1  0.655600  0.826300  0.028900  1.0  0.0877
  H  H65  1  0.747000  0.825400  0.108200  1.0  0.0971
  H  H66  1  0.890500  0.818800  0.113100  1.0  0.0799
  H  H67  1  0.532100  0.599300  0.012600  1.0  0.0856
  H  H68  1  0.533700  0.697300  0.047600  1.0  0.0851
  H  H69  1  0.626900  0.685300  0.131600  1.0  0.0841
  H  H70  1  0.665300  0.550800  0.169900  1.0  0.0866
  H  H71  1  0.131400  0.502400  0.788100  1.0  0.1251
  H  H72  1  0.012000  0.446000  0.799400  1.0  0.1206
  H  H73  1  0.337400  0.630100  0.852100  1.0  0.1094
  H  H74  1  0.356000  0.665500  0.907100  1.0  0.1084
  H  H75  1  0.285200  0.394100  0.547500  1.0  0.3629
  H  H76  1  0.141300  0.771500  0.212300  1.0  0.0934
  H  H77  1  0.192900  0.851100  0.252600  1.0  0.0874
  H  H78  1  0.349900  0.701200  0.207500  1.0  0.1013
  H  H79  1  0.379900  0.770400  0.255000  1.0  0.0818
  H  H80  1  0.201100  0.619900  0.248400  1.0  0.0813
  H  H81  1  0.226200  0.690700  0.295800  1.0  0.0676
  H  H82  1  0.406500  0.559400  0.252400  1.0  0.091
  H  H83  1  0.423700  0.625700  0.301700  1.0  0.0796
  H  H84  1  0.382900  0.470800  0.318300  1.0  0.1029
  H  H85  1  0.269700  0.536000  0.336000  1.0  0.0846
  H  H86  1  0.270000  0.409300  0.248400  1.0  0.0868
  H  H87  1  0.155700  0.470700  0.269100  1.0  0.0777
  H  H88  1  0.137400  0.307600  0.285000  1.0  0.1145
  H  H89  1  0.261600  0.317900  0.314100  1.0  0.0897
  H  H90  1  0.369000  0.178700  0.315600  1.0  0.0899
  H  H91  1  0.517600  0.289700  0.342000  1.0  0.0941
  H  H92  1  0.451800  0.405100  0.460100  1.0  0.1084
  H  H93  1  0.560600  0.408600  0.423300  1.0  0.1096
  H  H94  1  0.747200  0.282100  0.372100  1.0  0.1141
  H  H95  1  0.798500  0.175400  0.365200  1.0  0.1271
  H  H96  1  0.773700  0.367200  0.457700  1.0  0.0903
  H  H97  1  0.844400  0.326300  0.528900  1.0  0.0876
  H  H98  1  0.753000  0.325400  0.608200  1.0  0.0969
  H  H99  1  0.609500  0.318800  0.613100  1.0  0.0801
  H  H100  1  0.967900  0.099300  0.512600  1.0  0.0852
  H  H101  1  0.966300  0.197300  0.547600  1.0  0.0855
  H  H102  1  0.873100  0.185300  0.631600  1.0  0.0846
  H  H103  1  0.834700  0.050800  0.669900  1.0  0.0873
  H  H104  1  0.368600  0.002400  0.288100  1.0  0.1256
  H  H105  1  0.488000  0.946000  0.299400  1.0  0.1207
  H  H106  1  0.162600  0.130100  0.352100  1.0  0.1086
  H  H107  1  0.144000  0.165500  0.407100  1.0  0.1092
  H  H108  1  0.785200  0.105900  0.952500  1.0  0.364
  H  H109  1  0.641300  0.728500  0.287700  1.0  0.0935
  H  H110  1  0.692900  0.648900  0.247400  1.0  0.088
  H  H111  1  0.849900  0.798800  0.292500  1.0  0.1
  H  H112  1  0.879900  0.729600  0.245000  1.0  0.0833
  H  H113  1  0.701100  0.880100  0.251600  1.0  0.0817
  H  H114  1  0.726200  0.809300  0.204200  1.0  0.068
  H  H115  1  0.906500  0.940600  0.247600  1.0  0.0905
  H  H116  1  0.923700  0.874300  0.198300  1.0  0.0795
  H  H117  1  0.882900  0.029200  0.181700  1.0  0.1032
  H  H118  1  0.769700  0.964000  0.164000  1.0  0.0847
  H  H119  1  0.770000  0.090700  0.251600  1.0  0.0871
  H  H120  1  0.655700  0.029300  0.230900  1.0  0.077
  H  H121  1  0.637400  0.192400  0.215000  1.0  0.1141
  H  H122  1  0.761600  0.182100  0.185900  1.0  0.0894
  H  H123  1  0.869000  0.321300  0.184400  1.0  0.0895
  H  H124  1  0.017600  0.210300  0.158000  1.0  0.0948
  H  H125  1  0.951800  0.094900  0.039900  1.0  0.1087
  H  H126  1  0.060600  0.091400  0.076700  1.0  0.1093
  H  H127  1  0.247200  0.217900  0.127900  1.0  0.116
  H  H128  1  0.298500  0.324600  0.134800  1.0  0.1258
  H  H129  1  0.273700  0.132800  0.042300  1.0  0.0899
  H  H130  1  0.344400  0.173700  0.971100  1.0  0.0881
  H  H131  1  0.253000  0.174600  0.891800  1.0  0.097
  H  H132  1  0.109500  0.181200  0.886900  1.0  0.0806
  H  H133  1  0.467900  0.400700  0.987400  1.0  0.0858
  H  H134  1  0.466300  0.302700  0.952400  1.0  0.0848
  H  H135  1  0.373100  0.314700  0.868400  1.0  0.0852
  H  H136  1  0.334700  0.449200  0.830100  1.0  0.0865
  H  H137  1  0.868600  0.497600  0.211900  1.0  0.1269
  H  H138  1  0.988000  0.554000  0.200600  1.0  0.1208
  H  H139  1  0.662600  0.369900  0.147900  1.0  0.1097
  H  H140  1  0.644000  0.334500  0.092900  1.0  0.1086
  H  H141  1  0.713900  0.776300  0.453300  1.0  0.1805
  H  H142  1  0.638800  0.784200  0.411000  1.0  0.1642
  H  H143  1  0.646600  0.921200  0.490300  1.0  0.0961
  H  H144  1  0.533600  0.853000  0.475500  1.0  0.1014
  H  H145  1  0.570100  0.934300  0.444100  1.0  0.1077
  H  H146  1  0.753200  0.912200  0.394000  1.0  0.1096
  H  H147  1  0.831100  0.816500  0.392700  1.0  0.1047
  H  H148  1  0.837400  0.896300  0.437800  1.0  0.108
  H  H149  1  0.213900  0.723700  0.046700  1.0  0.1794
  H  H150  1  0.138800  0.715800  0.089000  1.0  0.1636
  H  H151  1  0.146600  0.578800  0.009700  1.0  0.097
  H  H152  1  0.033600  0.647000  0.024500  1.0  0.1013
  H  H153  1  0.070100  0.565700  0.055900  1.0  0.1073
  H  H154  1  0.253200  0.587800  0.106000  1.0  0.1095
  H  H155  1  0.331100  0.683500  0.107300  1.0  0.1038
  H  H156  1  0.337400  0.603700  0.062200  1.0  0.1063
  H  H157  1  0.286100  0.223700  0.546700  1.0  0.1808
  H  H158  1  0.361200  0.215800  0.589000  1.0  0.1631
  H  H159  1  0.353400  0.078800  0.509700  1.0  0.0977
  H  H160  1  0.466400  0.147000  0.524500  1.0  0.1024
  H  H161  1  0.429900  0.065700  0.555900  1.0  0.1081
  H  H162  1  0.246800  0.087800  0.606000  1.0  0.1092
  H  H163  1  0.168900  0.183500  0.607300  1.0  0.1044
  H  H164  1  0.162600  0.103700  0.562200  1.0  0.107
  H  H165  1  0.786100  0.276300  0.953300  1.0  0.1819
  H  H166  1  0.861200  0.284200  0.911000  1.0  0.1642
  H  H167  1  0.853400  0.421200  0.990300  1.0  0.0967
  H  H168  1  0.966400  0.353000  0.975500  1.0  0.1023
  H  H169  1  0.929900  0.434300  0.944100  1.0  0.1077
  H  H170  1  0.746800  0.412200  0.894000  1.0  0.1088
  H  H171  1  0.668900  0.316500  0.892700  1.0  0.1051
  H  H172  1  0.662600  0.396300  0.937800  1.0  0.1083
  C  C173  1  0.735300  0.137800  0.813500  1.0  0.7726
  C  C174  1  0.785100  0.193300  0.775900  1.0  -0.2665
  C  C175  1  0.685600  0.265800  0.763000  1.0  -0.131
  C  C176  1  0.735600  0.342300  0.733200  1.0  -0.1016
  C  C177  1  0.636200  0.411700  0.718800  1.0  -0.1169
  C  C178  1  0.686200  0.493100  0.692400  1.0  -0.1206
  C  C179  1  0.771600  0.563800  0.722100  1.0  -0.106
  C  C180  1  0.811100  0.647100  0.694400  1.0  -0.2575
  C  C181  1  0.878500  0.611600  0.650900  1.0  0.7253
  C  C182  1  0.650300  0.751800  0.578700  1.0  0.5006
  C  C183  1  0.595100  0.834500  0.653800  1.0  -0.0187
  C  C184  1  0.493400  0.758700  0.635800  1.0  -0.0243
  C  C185  1  0.407900  0.915700  0.649800  1.0  0.466
  C  C186  1  0.483900  0.633300  0.557500  1.0  -0.074
  C  C187  1  0.263900  0.782300  0.618400  1.0  -0.0654
  C  C188  1  0.429900  0.675200  0.476200  1.0  0.4263
  C  C189  1  0.269100  0.690000  0.533200  1.0  -0.025
  C  C190  1  0.220600  0.718200  0.484900  1.0  -0.0067
  C  C191  1  0.177000  0.843800  0.546600  1.0  0.458
  C  C192  1  0.319000  0.712700  0.403000  1.0  -0.0413
  C  C193  1  0.085100  0.855400  0.467500  1.0  -0.0305
  C  C194  1  0.396200  0.847500  0.362500  1.0  0.4672
  C  C195  1  0.188100  0.858300  0.385700  1.0  -0.032
  C  C196  1  0.220600  0.945500  0.357500  1.0  -0.0265
  C  C197  1  0.162300  0.003900  0.436500  1.0  0.4468
  C  C198  1  0.580100  0.015400  0.686100  1.0  -0.0845
  C  C199  1  0.801100  0.870100  0.616300  1.0  -0.0686
  C  C200  1  0.235300  0.362200  0.686500  1.0  0.7762
  C  C201  1  0.285100  0.306700  0.724100  1.0  -0.2636
  C  C202  1  0.185600  0.234200  0.737000  1.0  -0.1301
  C  C203  1  0.235600  0.157700  0.766800  1.0  -0.1005
  C  C204  1  0.136200  0.088300  0.781200  1.0  -0.1166
  C  C205  1  0.186200  0.006900  0.807600  1.0  -0.1217
  C  C206  1  0.271600  0.936200  0.777900  1.0  -0.1052
  C  C207  1  0.311100  0.852900  0.805600  1.0  -0.2572
  C  C208  1  0.378500  0.888400  0.849100  1.0  0.7239
  C  C209  1  0.150300  0.748200  0.921300  1.0  0.5
  C  C210  1  0.095100  0.665500  0.846200  1.0  -0.0187
  C  C211  1  0.993400  0.741300  0.864200  1.0  -0.0254
  C  C212  1  0.907900  0.584300  0.850200  1.0  0.4676
  C  C213  1  0.983900  0.866700  0.942500  1.0  -0.0731
  C  C214  1  0.763900  0.717700  0.881600  1.0  -0.0656
  C  C215  1  0.929900  0.824800  0.023800  1.0  0.4258
  C  C216  1  0.769100  0.810000  0.966800  1.0  -0.0256
  C  C217  1  0.720600  0.781800  0.015100  1.0  -0.007
  C  C218  1  0.677000  0.656200  0.953400  1.0  0.4587
  C  C219  1  0.819000  0.787300  0.097000  1.0  -0.0403
  C  C220  1  0.585100  0.644600  0.032500  1.0  -0.0305
  C  C221  1  0.896200  0.652500  0.137500  1.0  0.4671
  C  C222  1  0.688100  0.641700  0.114300  1.0  -0.0319
  C  C223  1  0.720600  0.554500  0.142500  1.0  -0.0266
  C  C224  1  0.662300  0.496100  0.063500  1.0  0.4475
  C  C225  1  0.080100  0.484600  0.813900  1.0  -0.0844
  C  C226  1  0.301100  0.629900  0.883700  1.0  -0.0716
  C  C227  1  0.264700  0.862200  0.186500  1.0  0.7763
  C  C228  1  0.214900  0.806700  0.224100  1.0  -0.2644
  C  C229  1  0.314400  0.734200  0.237000  1.0  -0.127
  C  C230  1  0.264400  0.657700  0.266800  1.0  -0.105
  C  C231  1  0.363800  0.588300  0.281200  1.0  -0.1141
  C  C232  1  0.313800  0.506900  0.307600  1.0  -0.1222
  C  C233  1  0.228400  0.436200  0.277900  1.0  -0.105
  C  C234  1  0.188900  0.352900  0.305600  1.0  -0.2559
  C  C235  1  0.121500  0.388400  0.349100  1.0  0.7239
  C  C236  1  0.349700  0.248200  0.421300  1.0  0.4981
  C  C237  1  0.404900  0.165500  0.346200  1.0  -0.0182
  C  C238  1  0.506600  0.241300  0.364200  1.0  -0.0263
  C  C239  1  0.592100  0.084300  0.350200  1.0  0.4688
  C  C240  1  0.516100  0.366700  0.442500  1.0  -0.0732
  C  C241  1  0.736100  0.217700  0.381600  1.0  -0.0654
  C  C242  1  0.570100  0.324800  0.523800  1.0  0.4249
  C  C243  1  0.730900  0.310000  0.466800  1.0  -0.0265
  C  C244  1  0.779400  0.281800  0.515100  1.0  -0.0079
  C  C245  1  0.823000  0.156200  0.453400  1.0  0.4589
  C  C246  1  0.681000  0.287300  0.597000  1.0  -0.0399
  C  C247  1  0.914900  0.144600  0.532500  1.0  -0.0282
  C  C248  1  0.603800  0.152500  0.637500  1.0  0.4666
  C  C249  1  0.811900  0.141700  0.614300  1.0  -0.0318
  C  C250  1  0.779400  0.054500  0.642500  1.0  -0.0242
  C  C251  1  0.837700  0.996100  0.563500  1.0  0.4479
  C  C252  1  0.419900  0.984600  0.313900  1.0  -0.0843
  C  C253  1  0.198900  0.129900  0.383700  1.0  -0.0718
  C  C254  1  0.764700  0.637800  0.313500  1.0  0.7731
  C  C255  1  0.714900  0.693300  0.275900  1.0  -0.2656
  C  C256  1  0.814400  0.765800  0.263000  1.0  -0.127
  C  C257  1  0.764400  0.842300  0.233200  1.0  -0.1057
  C  C258  1  0.863800  0.911700  0.218800  1.0  -0.1144
  C  C259  1  0.813800  0.993100  0.192400  1.0  -0.1206
  C  C260  1  0.728400  0.063800  0.222100  1.0  -0.1064
  C  C261  1  0.688900  0.147100  0.194400  1.0  -0.2558
  C  C262  1  0.621500  0.111600  0.150900  1.0  0.7266
  C  C263  1  0.849700  0.251800  0.078700  1.0  0.4987
  C  C264  1  0.904900  0.334500  0.153800  1.0  -0.0193
  C  C265  1  0.006600  0.258700  0.135800  1.0  -0.0246
  C  C266  1  0.092100  0.415700  0.149800  1.0  0.4665
  C  C267  1  0.016100  0.133300  0.057500  1.0  -0.0742
  C  C268  1  0.236100  0.282300  0.118400  1.0  -0.0654
  C  C269  1  0.070100  0.175200  0.976200  1.0  0.4255
  C  C270  1  0.230900  0.190000  0.033200  1.0  -0.0255
  C  C271  1  0.279400  0.218200  0.984900  1.0  -0.0076
  C  C272  1  0.323000  0.343800  0.046600  1.0  0.4585
  C  C273  1  0.181000  0.212700  0.903000  1.0  -0.0412
  C  C274  1  0.414900  0.355400  0.967500  1.0  -0.0286
  C  C275  1  0.103800  0.347500  0.862500  1.0  0.4667
  C  C276  1  0.311900  0.358300  0.885700  1.0  -0.0322
  C  C277  1  0.279400  0.445500  0.857500  1.0  -0.0245
  C  C278  1  0.337700  0.503900  0.936500  1.0  0.4472
  C  C279  1  0.919900  0.515400  0.186100  1.0  -0.0841
  C  C280  1  0.698900  0.370100  0.116300  1.0  -0.0705
  C  C281  1  0.601300  0.887800  0.463600  1.0  -0.1813
  C  C282  1  0.784800  0.864700  0.412900  1.0  -0.1916
  C  C283  1  0.101300  0.612200  0.036400  1.0  -0.1818
  C  C284  1  0.284800  0.635300  0.087100  1.0  -0.1919
  C  C285  1  0.398700  0.112200  0.536400  1.0  -0.1827
  C  C286  1  0.215200  0.135300  0.587100  1.0  -0.1904
  C  C287  1  0.898700  0.387800  0.963600  1.0  -0.1811
  C  C288  1  0.715200  0.364700  0.912900  1.0  -0.1901
  N  N289  1  0.685100  0.821100  0.614900  1.0  -0.1001
  N  N290  1  0.540200  0.714700  0.589400  1.0  -0.1381
  N  N291  1  0.385300  0.818700  0.634000  1.0  -0.1019
  N  N292  1  0.530700  0.926500  0.658900  1.0  -0.1493
  N  N293  1  0.398700  0.670800  0.523300  1.0  -0.1295
  N  N294  1  0.332000  0.711100  0.454500  1.0  -0.1293
  N  N295  1  0.174300  0.816300  0.497900  1.0  -0.1492
  N  N296  1  0.245500  0.776800  0.567200  1.0  -0.1455
  N  N297  1  0.306500  0.810700  0.388300  1.0  -0.1299
  N  N298  1  0.347300  0.924700  0.342500  1.0  -0.1556
  N  N299  1  0.208300  0.028400  0.394000  1.0  -0.1606
  N  N300  1  0.140900  0.905600  0.429900  1.0  -0.1669
  N  N301  1  0.185100  0.678900  0.885100  1.0  -0.1007
  N  N302  1  0.040200  0.785300  0.910600  1.0  -0.1383
  N  N303  1  0.885300  0.681300  0.866000  1.0  -0.1014
  N  N304  1  0.030700  0.573500  0.841100  1.0  -0.1504
  N  N305  1  0.898700  0.829200  0.976700  1.0  -0.1295
  N  N306  1  0.832000  0.788900  0.045500  1.0  -0.1299
  N  N307  1  0.674300  0.683700  0.002100  1.0  -0.149
  N  N308  1  0.745500  0.723200  0.932800  1.0  -0.1452
  N  N309  1  0.806500  0.689300  0.111700  1.0  -0.1306
  N  N310  1  0.847300  0.575300  0.157500  1.0  -0.1555
  N  N311  1  0.708300  0.471600  0.106000  1.0  -0.1599
  N  N312  1  0.640900  0.594400  0.070100  1.0  -0.1669
  N  N313  1  0.314900  0.178900  0.385100  1.0  -0.1006
  N  N314  1  0.459800  0.285300  0.410600  1.0  -0.1379
  N  N315  1  0.614700  0.181300  0.366000  1.0  -0.1009
  N  N316  1  0.469300  0.073500  0.341100  1.0  -0.1496
  N  N317  1  0.601300  0.329200  0.476700  1.0  -0.1303
  N  N318  1  0.668000  0.288900  0.545500  1.0  -0.1309
  N  N319  1  0.825700  0.183700  0.502100  1.0  -0.1494
  N  N320  1  0.754500  0.223200  0.432800  1.0  -0.145
  N  N321  1  0.693500  0.189300  0.611700  1.0  -0.132
  N  N322  1  0.652700  0.075300  0.657500  1.0  -0.1547
  N  N323  1  0.791700  0.971600  0.606000  1.0  -0.1611
  N  N324  1  0.859100  0.094400  0.570100  1.0  -0.1664
  N  N325  1  0.814900  0.321100  0.114900  1.0  -0.1003
  N  N326  1  0.959800  0.214700  0.089400  1.0  -0.1378
  N  N327  1  0.114700  0.318700  0.134000  1.0  -0.1019
  N  N328  1  0.969300  0.426500  0.158900  1.0  -0.1487
  N  N329  1  0.101300  0.170800  0.023300  1.0  -0.1304
  N  N330  1  0.168000  0.211100  0.954500  1.0  -0.1306
  N  N331  1  0.325700  0.316300  0.997900  1.0  -0.1496
  N  N332  1  0.254500  0.276800  0.067200  1.0  -0.1458
  N  N333  1  0.193500  0.310700  0.888300  1.0  -0.1315
  N  N334  1  0.152700  0.424700  0.842500  1.0  -0.1546
  N  N335  1  0.291700  0.528400  0.894000  1.0  -0.1615
  N  N336  1  0.359100  0.405600  0.929900  1.0  -0.1664
  N  N337  1  0.683400  0.818500  0.434500  1.0  -0.1301
  N  N338  1  0.183400  0.681500  0.065500  1.0  -0.1279
  N  N339  1  0.316600  0.181500  0.565500  1.0  -0.128
  N  N340  1  0.816600  0.318500  0.934500  1.0  -0.1303
  O  O341  1  0.762600  0.500500  0.525600  1.0  -0.5959
  O  O342  1  0.985500  0.689000  0.526100  1.0  -0.588
  O  O343  1  0.769600  0.460400  0.385300  1.0  -0.562
  O  O344  1  0.997500  0.648000  0.388000  1.0  -0.6581
  O  O345  1  0.971300  0.507400  0.453600  1.0  -0.8019
  O  O346  1  0.784500  0.637500  0.454100  1.0  -0.8181
  O  O347  1  0.766100  0.158700  0.856400  1.0  -0.6457
  O  O348  1  0.660000  0.066300  0.801600  1.0  -0.6867
  O  O349  1  0.847900  0.626100  0.610100  1.0  -0.6428
  O  O350  1  0.980900  0.563100  0.655900  1.0  -0.7133
  O  O351  1  0.715600  0.722700  0.543200  1.0  -0.6263
  O  O352  1  0.329300  0.979700  0.656400  1.0  -0.5116
  O  O353  1  0.527900  0.651700  0.456300  1.0  -0.5615
  O  O354  1  0.129200  0.916300  0.567600  1.0  -0.4748
  O  O355  1  0.502800  0.816500  0.356700  1.0  -0.5787
  O  O356  1  0.143800  0.059400  0.473100  1.0  -0.5467
  O  O357  1  0.262600  0.999500  0.974400  1.0  -0.5964
  O  O358  1  0.485500  0.811000  0.973900  1.0  -0.5874
  O  O359  1  0.269600  0.039600  0.114700  1.0  -0.5583
  O  O360  1  0.497500  0.852000  0.112000  1.0  -0.6577
  O  O361  1  0.471300  0.992600  0.046400  1.0  -0.8016
  O  O362  1  0.284500  0.862500  0.045900  1.0  -0.8184
  O  O363  1  0.266100  0.341300  0.643600  1.0  -0.648
  O  O364  1  0.160000  0.433700  0.698400  1.0  -0.6853
  O  O365  1  0.347900  0.873900  0.889900  1.0  -0.643
  O  O366  1  0.480900  0.936900  0.844100  1.0  -0.7135
  O  O367  1  0.215600  0.777300  0.956800  1.0  -0.6267
  O  O368  1  0.829300  0.520300  0.843600  1.0  -0.512
  O  O369  1  0.027900  0.848300  0.043700  1.0  -0.5626
  O  O370  1  0.629200  0.583700  0.932400  1.0  -0.4744
  O  O371  1  0.002800  0.683500  0.143300  1.0  -0.5784
  O  O372  1  0.643800  0.440600  0.026900  1.0  -0.5481
  O  O373  1  0.237400  0.499500  0.474400  1.0  -0.5961
  O  O374  1  0.014500  0.311000  0.473900  1.0  -0.5867
  O  O375  1  0.230400  0.539600  0.614700  1.0  -0.5587
  O  O376  1  0.002500  0.352000  0.612000  1.0  -0.6579
  O  O377  1  0.028700  0.492600  0.546400  1.0  -0.8013
  O  O378  1  0.215500  0.362500  0.545900  1.0  -0.8182
  O  O379  1  0.233900  0.841300  0.143600  1.0  -0.647
  O  O380  1  0.340000  0.933700  0.198400  1.0  -0.686
  O  O381  1  0.152100  0.373900  0.389900  1.0  -0.6431
  O  O382  1  0.019100  0.436900  0.344100  1.0  -0.7141
  O  O383  1  0.284400  0.277300  0.456800  1.0  -0.6277
  O  O384  1  0.670700  0.020300  0.343600  1.0  -0.5117
  O  O385  1  0.472100  0.348300  0.543700  1.0  -0.5626
  O  O386  1  0.870800  0.083700  0.432400  1.0  -0.4752
  O  O387  1  0.497200  0.183500  0.643300  1.0  -0.5783
  O  O388  1  0.856200  0.940600  0.526900  1.0  -0.5483
  O  O389  1  0.737400  0.000500  0.025600  1.0  -0.5955
  O  O390  1  0.514500  0.189000  0.026100  1.0  -0.5872
  O  O391  1  0.730400  0.960400  0.885300  1.0  -0.5619
  O  O392  1  0.502500  0.148000  0.888000  1.0  -0.6579
  O  O393  1  0.528700  0.007400  0.953600  1.0  -0.8017
  O  O394  1  0.715500  0.137500  0.954100  1.0  -0.8178
  O  O395  1  0.733900  0.658700  0.356400  1.0  -0.6454
  O  O396  1  0.840000  0.566300  0.301600  1.0  -0.687
  O  O397  1  0.652100  0.126100  0.110100  1.0  -0.6426
  O  O398  1  0.519100  0.063100  0.155900  1.0  -0.7151
  O  O399  1  0.784400  0.222700  0.043200  1.0  -0.6271
  O  O400  1  0.170700  0.479700  0.156400  1.0  -0.5117
  O  O401  1  0.972100  0.151700  0.956300  1.0  -0.5613
  O  O402  1  0.370800  0.416300  0.067600  1.0  -0.4752
  O  O403  1  0.997200  0.316500  0.856700  1.0  -0.5788
  O  O404  1  0.356200  0.559400  0.973100  1.0  -0.5469
