# generated using pymatgen
data_Zn2H48C59N17O13
_symmetry_space_group_name_H-M   'P 1'
_cell_length_a   7.91140000
_cell_length_b   14.25720000
_cell_length_c   29.55700000
_cell_angle_alpha   90.00000000
_cell_angle_beta   90.00000000
_cell_angle_gamma   90.00000000
_symmetry_Int_Tables_number   1
_chemical_formula_structural   Zn2H48C59N17O13
_chemical_formula_sum   'Zn4 H96 C118 N34 O26'
_cell_volume   3333.86443785
_cell_formula_units_Z   2
loop_
 _symmetry_equiv_pos_site_id
 _symmetry_equiv_pos_as_xyz
  1  'x, y, z'
loop_
 _atom_site_type_symbol
 _atom_site_label
 _atom_site_symmetry_multiplicity
 _atom_site_fract_x
 _atom_site_fract_y
 _atom_site_fract_z
 _atom_site_occupancy
 _atom_site_charge
  Zn  Zn1  1  0.492210  0.631260  0.150560  1.0  0.8803
  Zn  Zn2  1  0.507790  0.368740  0.650560  1.0  0.8798
  Zn  Zn3  1  0.507790  0.631260  0.349440  1.0  0.8802
  Zn  Zn4  1  0.492210  0.368740  0.849440  1.0  0.8801
  H  H5  1  0.598200  0.426800  0.107400  1.0  0.1223
  H  H6  1  0.693000  0.297200  0.153600  1.0  0.1335
  H  H7  1  0.642700  0.518000  0.231800  1.0  0.1074
  H  H8  1  0.661400  0.212100  0.224300  1.0  0.1333
  H  H9  1  0.749300  0.130800  0.287200  1.0  0.1189
  H  H10  1  0.917700  0.370900  0.344000  1.0  0.1266
  H  H11  1  0.832200  0.451100  0.279100  1.0  0.1288
  H  H12  1  0.554700  0.300700  0.551700  1.0  0.1191
  H  H13  1  0.820600  0.490400  0.614200  1.0  0.1177
  H  H14  1  0.957700  0.461900  0.541300  1.0  0.1361
  H  H15  1  0.049100  0.305600  0.496100  1.0  0.1358
  H  H16  1  0.097100  0.233900  0.426800  1.0  0.1227
  H  H17  1  0.605100  0.261600  0.395700  1.0  0.1195
  H  H18  1  0.557200  0.333333  0.465000  1.0  0.1214
  H  H19  1  0.367300  0.840600  0.345100  1.0  0.1158
  H  H20  1  0.141800  0.615700  0.391800  1.0  0.1208
  H  H21  1  0.936000  0.740600  0.395000  1.0  0.1378
  H  H22  1  0.929500  0.913000  0.425000  1.0  0.1264
  H  H23  1  0.830300  0.066100  0.422400  1.0  0.1222
  H  H24  1  0.066800  0.104700  0.303500  1.0  0.1163
  H  H25  1  0.166000  0.951700  0.306100  1.0  0.1225
  H  H26  1  0.198800  0.780800  0.256800  1.0  0.116
  H  H27  1  0.093500  0.799900  0.213000  1.0  0.1075
  H  H28  1  0.956200  0.651300  0.226200  1.0  0.0996
  H  H29  1  0.401800  0.573200  0.607400  1.0  0.1221
  H  H30  1  0.307000  0.702800  0.653600  1.0  0.1337
  H  H31  1  0.357300  0.482000  0.731800  1.0  0.1077
  H  H32  1  0.338600  0.787900  0.724300  1.0  0.1337
  H  H33  1  0.250700  0.869200  0.787200  1.0  0.1191
  H  H34  1  0.082300  0.629100  0.844000  1.0  0.1272
  H  H35  1  0.167800  0.548900  0.779100  1.0  0.1292
  H  H36  1  0.445300  0.699300  0.051700  1.0  0.1194
  H  H37  1  0.179400  0.509600  0.114200  1.0  0.1175
  H  H38  1  0.042300  0.538100  0.041300  1.0  0.136
  H  H39  1  0.950900  0.694400  0.996100  1.0  0.1353
  H  H40  1  0.902900  0.766100  0.926800  1.0  0.1223
  H  H41  1  0.394900  0.738400  0.895700  1.0  0.1196
  H  H42  1  0.442800  0.666667  0.965000  1.0  0.1216
  H  H43  1  0.632700  0.159400  0.845100  1.0  0.1154
  H  H44  1  0.858200  0.384300  0.891800  1.0  0.1228
  H  H45  1  0.064000  0.259400  0.895000  1.0  0.1381
  H  H46  1  0.070500  0.087000  0.925000  1.0  0.1262
  H  H47  1  0.169700  0.933900  0.922400  1.0  0.1216
  H  H48  1  0.933200  0.895300  0.803500  1.0  0.1167
  H  H49  1  0.834000  0.048300  0.806100  1.0  0.1224
  H  H50  1  0.801200  0.219200  0.756800  1.0  0.1159
  H  H51  1  0.906500  0.200100  0.713000  1.0  0.107
  H  H52  1  0.043800  0.348700  0.726200  1.0  0.1
  H  H53  1  0.401800  0.426800  0.392600  1.0  0.1222
  H  H54  1  0.307000  0.297200  0.346400  1.0  0.1334
  H  H55  1  0.357300  0.518000  0.268200  1.0  0.1078
  H  H56  1  0.338600  0.212100  0.275700  1.0  0.1335
  H  H57  1  0.250700  0.130800  0.212800  1.0  0.1189
  H  H58  1  0.082300  0.370900  0.156000  1.0  0.1284
  H  H59  1  0.167800  0.451100  0.220900  1.0  0.1296
  H  H60  1  0.445300  0.300700  0.948300  1.0  0.1198
  H  H61  1  0.179400  0.490400  0.885800  1.0  0.1178
  H  H62  1  0.042300  0.461900  0.958700  1.0  0.1358
  H  H63  1  0.950900  0.305600  0.003900  1.0  0.1349
  H  H64  1  0.902900  0.233900  0.073200  1.0  0.1224
  H  H65  1  0.394900  0.261600  0.104300  1.0  0.1198
  H  H66  1  0.442800  0.333333  0.035000  1.0  0.1217
  H  H67  1  0.632700  0.840600  0.154900  1.0  0.1156
  H  H68  1  0.858200  0.615700  0.108200  1.0  0.1214
  H  H69  1  0.064000  0.740600  0.105000  1.0  0.138
  H  H70  1  0.070500  0.913000  0.075000  1.0  0.1265
  H  H71  1  0.169700  0.066100  0.077600  1.0  0.1215
  H  H72  1  0.933200  0.104700  0.196500  1.0  0.1168
  H  H73  1  0.834000  0.951700  0.193900  1.0  0.1224
  H  H74  1  0.801200  0.780800  0.243200  1.0  0.1163
  H  H75  1  0.906500  0.799900  0.287000  1.0  0.1077
  H  H76  1  0.043800  0.651300  0.273800  1.0  0.1002
  H  H77  1  0.598200  0.573200  0.892600  1.0  0.1224
  H  H78  1  0.693000  0.702800  0.846400  1.0  0.1334
  H  H79  1  0.642700  0.482000  0.768200  1.0  0.1077
  H  H80  1  0.661400  0.787900  0.775700  1.0  0.1332
  H  H81  1  0.749300  0.869200  0.712800  1.0  0.1193
  H  H82  1  0.917700  0.629100  0.656000  1.0  0.128
  H  H83  1  0.832200  0.548900  0.720900  1.0  0.1288
  H  H84  1  0.554700  0.699300  0.448300  1.0  0.1192
  H  H85  1  0.820600  0.509600  0.385800  1.0  0.1173
  H  H86  1  0.957700  0.538100  0.458700  1.0  0.1362
  H  H87  1  0.049100  0.694400  0.503900  1.0  0.1358
  H  H88  1  0.097100  0.766100  0.573200  1.0  0.1229
  H  H89  1  0.605100  0.738400  0.604300  1.0  0.1196
  H  H90  1  0.557200  0.666667  0.535000  1.0  0.1212
  H  H91  1  0.367300  0.159400  0.654900  1.0  0.1159
  H  H92  1  0.141800  0.384300  0.608200  1.0  0.1219
  H  H93  1  0.936000  0.259400  0.605000  1.0  0.1372
  H  H94  1  0.929500  0.087000  0.575000  1.0  0.1262
  H  H95  1  0.830300  0.933900  0.577600  1.0  0.1215
  H  H96  1  0.066800  0.895300  0.696500  1.0  0.117
  H  H97  1  0.166000  0.048300  0.693900  1.0  0.1225
  H  H98  1  0.198800  0.219200  0.743200  1.0  0.1155
  H  H99  1  0.093500  0.200100  0.787000  1.0  0.1083
  H  H100  1  0.956200  0.348700  0.773800  1.0  0.099
  C  C101  1  0.617700  0.429000  0.138460  1.0  0.0536
  C  C102  1  0.671500  0.357900  0.163690  1.0  -0.0919
  C  C103  1  0.642300  0.479500  0.206440  1.0  0.1786
  C  C104  1  0.741800  0.338700  0.246160  1.0  0.1617
  C  C105  1  0.713700  0.243300  0.248100  1.0  -0.1756
  C  C106  1  0.764500  0.195400  0.285970  1.0  -0.081
  C  C107  1  0.838800  0.241500  0.322910  1.0  0.1538
  C  C108  1  0.866600  0.338900  0.320260  1.0  -0.1597
  C  C109  1  0.815800  0.386600  0.281260  1.0  -0.1223
  C  C110  1  0.638400  0.344300  0.558460  1.0  0.1649
  C  C111  1  0.784800  0.447900  0.592320  1.0  0.0074
  C  C112  1  0.860200  0.432900  0.551950  1.0  -0.0943
  C  C113  1  0.798400  0.326600  0.487420  1.0  0.1754
  C  C114  1  0.960100  0.296800  0.475970  1.0  -0.112
  C  C115  1  0.988900  0.253900  0.434460  1.0  -0.172
  C  C116  1  0.855900  0.240700  0.404400  1.0  0.1553
  C  C117  1  0.694100  0.270400  0.415850  1.0  -0.1602
  C  C118  1  0.665400  0.313400  0.457360  1.0  -0.183
  C  C119  1  0.285800  0.800500  0.356900  1.0  0.1599
  C  C120  1  0.159800  0.677200  0.382520  1.0  0.0477
  C  C121  1  0.046900  0.745400  0.384830  1.0  -0.1241
  C  C122  1  0.057600  0.917200  0.365800  1.0  0.1697
  C  C123  1  0.957000  0.951400  0.400630  1.0  -0.1292
  C  C124  1  0.897600  0.043100  0.399100  1.0  -0.1552
  C  C125  1  0.938700  0.100500  0.362720  1.0  0.1676
  C  C126  1  0.039300  0.066300  0.327880  1.0  -0.175
  C  C127  1  0.098700  0.974600  0.329420  1.0  -0.1582
  C  C128  1  0.266800  0.702200  0.205200  1.0  0.3716
  C  C129  1  0.142200  0.750700  0.231500  1.0  -0.2043
  C  C130  1  0.382300  0.571000  0.638460  1.0  0.0529
  C  C131  1  0.328500  0.642100  0.663690  1.0  -0.0929
  C  C132  1  0.357700  0.520500  0.706440  1.0  0.1795
  C  C133  1  0.258200  0.661300  0.746160  1.0  0.1616
  C  C134  1  0.286300  0.756700  0.748100  1.0  -0.1746
  C  C135  1  0.235500  0.804600  0.785970  1.0  -0.0843
  C  C136  1  0.161200  0.758500  0.822910  1.0  0.1539
  C  C137  1  0.133400  0.661100  0.820260  1.0  -0.16
  C  C138  1  0.184200  0.613400  0.781260  1.0  -0.1236
  C  C139  1  0.361600  0.655700  0.058460  1.0  0.1655
  C  C140  1  0.215200  0.552100  0.092320  1.0  0.0066
  C  C141  1  0.139800  0.567100  0.051950  1.0  -0.0945
  C  C142  1  0.201600  0.673400  0.987420  1.0  0.175
  C  C143  1  0.039900  0.703200  0.975970  1.0  -0.1117
  C  C144  1  0.011100  0.746100  0.934460  1.0  -0.1714
  C  C145  1  0.144100  0.759300  0.904400  1.0  0.1561
  C  C146  1  0.305900  0.729600  0.915850  1.0  -0.1609
  C  C147  1  0.334600  0.686600  0.957360  1.0  -0.1822
  C  C148  1  0.714200  0.199500  0.856900  1.0  0.1584
  C  C149  1  0.840200  0.322800  0.882520  1.0  0.0482
  C  C150  1  0.953100  0.254600  0.884830  1.0  -0.1244
  C  C151  1  0.942400  0.082800  0.865800  1.0  0.1687
  C  C152  1  0.043000  0.048600  0.900630  1.0  -0.1289
  C  C153  1  0.102400  0.956900  0.899100  1.0  -0.1548
  C  C154  1  0.061300  0.899500  0.862720  1.0  0.1676
  C  C155  1  0.960700  0.933700  0.827880  1.0  -0.1761
  C  C156  1  0.901300  0.025400  0.829420  1.0  -0.1586
  C  C157  1  0.733200  0.297800  0.705200  1.0  0.3696
  C  C158  1  0.857800  0.249300  0.731500  1.0  -0.2054
  C  C159  1  0.382300  0.429000  0.361540  1.0  0.0534
  C  C160  1  0.328500  0.357900  0.336310  1.0  -0.0923
  C  C161  1  0.357700  0.479500  0.293560  1.0  0.1785
  C  C162  1  0.258200  0.338700  0.253840  1.0  0.1614
  C  C163  1  0.286300  0.243300  0.251900  1.0  -0.1762
  C  C164  1  0.235500  0.195400  0.214030  1.0  -0.0799
  C  C165  1  0.161200  0.241500  0.177090  1.0  0.1539
  C  C166  1  0.133400  0.338900  0.179740  1.0  -0.1593
  C  C167  1  0.184200  0.386600  0.218740  1.0  -0.1229
  C  C168  1  0.361600  0.344300  0.941540  1.0  0.164
  C  C169  1  0.215200  0.447900  0.907680  1.0  0.0056
  C  C170  1  0.139800  0.432900  0.948050  1.0  -0.0954
  C  C171  1  0.201600  0.326600  0.012580  1.0  0.1753
  C  C172  1  0.039900  0.296800  0.024030  1.0  -0.1111
  C  C173  1  0.011100  0.253900  0.065540  1.0  -0.1731
  C  C174  1  0.144100  0.240700  0.095600  1.0  0.1553
  C  C175  1  0.305900  0.270400  0.084150  1.0  -0.1595
  C  C176  1  0.334600  0.313400  0.042640  1.0  -0.1832
  C  C177  1  0.714200  0.800500  0.143100  1.0  0.1576
  C  C178  1  0.840200  0.677200  0.117480  1.0  0.0478
  C  C179  1  0.953100  0.745400  0.115170  1.0  -0.1236
  C  C180  1  0.942400  0.917200  0.134200  1.0  0.1685
  C  C181  1  0.043000  0.951400  0.099370  1.0  -0.1282
  C  C182  1  0.102400  0.043100  0.100900  1.0  -0.1542
  C  C183  1  0.061300  0.100500  0.137280  1.0  0.1676
  C  C184  1  0.960700  0.066300  0.172120  1.0  -0.1767
  C  C185  1  0.901300  0.974600  0.170580  1.0  -0.158
  C  C186  1  0.733200  0.702200  0.294800  1.0  0.3691
  C  C187  1  0.857800  0.750700  0.268500  1.0  -0.205
  C  C188  1  0.617700  0.571000  0.861540  1.0  0.0535
  C  C189  1  0.671500  0.642100  0.836310  1.0  -0.0922
  C  C190  1  0.642300  0.520500  0.793560  1.0  0.1796
  C  C191  1  0.741800  0.661300  0.753840  1.0  0.1614
  C  C192  1  0.713700  0.756700  0.751900  1.0  -0.1757
  C  C193  1  0.764500  0.804600  0.714030  1.0  -0.0849
  C  C194  1  0.838800  0.758500  0.677090  1.0  0.1539
  C  C195  1  0.866600  0.661100  0.679740  1.0  -0.1605
  C  C196  1  0.815800  0.613400  0.718740  1.0  -0.1234
  C  C197  1  0.638400  0.655700  0.441540  1.0  0.1649
  C  C198  1  0.784800  0.552100  0.407680  1.0  0.0066
  C  C199  1  0.860200  0.567100  0.448050  1.0  -0.0948
  C  C200  1  0.798400  0.673400  0.512580  1.0  0.1755
  C  C201  1  0.960100  0.703200  0.524030  1.0  -0.1103
  C  C202  1  0.988900  0.746100  0.565540  1.0  -0.1739
  C  C203  1  0.855900  0.759300  0.595600  1.0  0.155
  C  C204  1  0.694100  0.729600  0.584150  1.0  -0.1594
  C  C205  1  0.665400  0.686600  0.542640  1.0  -0.1833
  C  C206  1  0.285800  0.199500  0.643100  1.0  0.1601
  C  C207  1  0.159800  0.322800  0.617480  1.0  0.0475
  C  C208  1  0.046900  0.254600  0.615170  1.0  -0.1239
  C  C209  1  0.057600  0.082800  0.634200  1.0  0.1684
  C  C210  1  0.957000  0.048600  0.599370  1.0  -0.1248
  C  C211  1  0.897600  0.956900  0.600900  1.0  -0.153
  C  C212  1  0.938700  0.899500  0.637280  1.0  0.1669
  C  C213  1  0.039300  0.933700  0.672120  1.0  -0.1755
  C  C214  1  0.098700  0.025400  0.670580  1.0  -0.1577
  C  C215  1  0.266800  0.297800  0.794800  1.0  0.3725
  C  C216  1  0.142200  0.249300  0.768500  1.0  -0.206
  C  C217  1  0.000000  0.691300  0.250000  1.0  -0.0402
  C  C218  1  0.000000  0.308700  0.750000  1.0  -0.0405
  N  N219  1  0.595300  0.507400  0.165970  1.0  -0.4068
  N  N220  1  0.689400  0.389600  0.207000  1.0  0.064
  N  N221  1  0.885400  0.195100  0.362910  1.0  -0.1332
  N  N222  1  0.648600  0.390700  0.595690  1.0  -0.3226
  N  N223  1  0.768100  0.368300  0.530240  1.0  0.0699
  N  N224  1  0.307200  0.710800  0.364430  1.0  -0.3028
  N  N225  1  0.127500  0.826300  0.368850  1.0  0.0544
  N  N226  1  0.404700  0.492600  0.665970  1.0  -0.4065
  N  N227  1  0.310600  0.610400  0.707000  1.0  0.0633
  N  N228  1  0.114600  0.804900  0.862910  1.0  -0.1328
  N  N229  1  0.351400  0.609300  0.095690  1.0  -0.323
  N  N230  1  0.231900  0.631700  0.030240  1.0  0.07
  N  N231  1  0.692800  0.289200  0.864430  1.0  -0.3041
  N  N232  1  0.872500  0.173700  0.868850  1.0  0.054
  N  N233  1  0.404700  0.507400  0.334030  1.0  -0.4074
  N  N234  1  0.310600  0.389600  0.293000  1.0  0.0641
  N  N235  1  0.114600  0.195100  0.137090  1.0  -0.1331
  N  N236  1  0.351400  0.390700  0.904310  1.0  -0.3232
  N  N237  1  0.231900  0.368300  0.969760  1.0  0.0695
  N  N238  1  0.692800  0.710800  0.135570  1.0  -0.3049
  N  N239  1  0.872500  0.826300  0.131150  1.0  0.0543
  N  N240  1  0.595300  0.492600  0.834030  1.0  -0.4059
  N  N241  1  0.689400  0.610400  0.793000  1.0  0.0637
  N  N242  1  0.885400  0.804900  0.637090  1.0  -0.1338
  N  N243  1  0.648600  0.609300  0.404310  1.0  -0.322
  N  N244  1  0.768100  0.631700  0.469760  1.0  0.0689
  N  N245  1  0.307200  0.289200  0.635570  1.0  -0.3028
  N  N246  1  0.127500  0.173700  0.631150  1.0  0.0543
  N  N247  1  0.421500  0.911100  0.622900  1.0  0.3036
  N  N248  1  0.578500  0.088900  0.122900  1.0  0.3021
  N  N249  1  0.578500  0.911100  0.877100  1.0  0.3045
  N  N250  1  0.421500  0.088900  0.377100  1.0  0.3038
  N  N251  1  0.307700  0.500000  0.500000  1.0  0.7726
  N  N252  1  0.692300  0.500000  0.000000  1.0  0.7727
  O  O253  1  0.358700  0.747600  0.182140  1.0  -0.5541
  O  O254  1  0.299300  0.620700  0.204610  1.0  -0.5801
  O  O255  1  0.641300  0.252400  0.682140  1.0  -0.5539
  O  O256  1  0.700700  0.379300  0.704610  1.0  -0.5794
  O  O257  1  0.641300  0.747600  0.317860  1.0  -0.5537
  O  O258  1  0.700700  0.620700  0.295390  1.0  -0.5795
  O  O259  1  0.358700  0.252400  0.817860  1.0  -0.5532
  O  O260  1  0.299300  0.379300  0.795390  1.0  -0.5794
  O  O261  1  0.358700  0.862200  0.596400  1.0  -0.4736
  O  O262  1  0.459400  0.989300  0.611100  1.0  -0.4364
  O  O263  1  0.447200  0.885100  0.658400  1.0  -0.4541
  O  O264  1  0.641300  0.137800  0.096400  1.0  -0.4725
  O  O265  1  0.540600  0.010700  0.111100  1.0  -0.4368
  O  O266  1  0.552800  0.114900  0.158400  1.0  -0.4536
  O  O267  1  0.641300  0.862200  0.903600  1.0  -0.4721
  O  O268  1  0.540600  0.989300  0.888900  1.0  -0.4336
  O  O269  1  0.552800  0.885100  0.841600  1.0  -0.4567
  O  O270  1  0.358700  0.137800  0.403600  1.0  -0.4707
  O  O271  1  0.459400  0.010700  0.388900  1.0  -0.4355
  O  O272  1  0.447200  0.114900  0.341600  1.0  -0.456
  O  O273  1  0.231800  0.478500  0.465760  1.0  -0.4148
  O  O274  1  0.231800  0.521500  0.534240  1.0  -0.4145
  O  O275  1  0.463700  0.500000  0.500000  1.0  -0.5081
  O  O276  1  0.768200  0.521500  0.965760  1.0  -0.4152
  O  O277  1  0.768200  0.478500  0.034240  1.0  -0.4148
  O  O278  1  0.536300  0.500000  0.000000  1.0  -0.5077
