# generated using pymatgen
data_Zn2H44C57(N8O5)2
_symmetry_space_group_name_H-M   'P 1'
_cell_length_a   9.90550000
_cell_length_b   27.76600000
_cell_length_c   28.33000000
_cell_angle_alpha   90.00000000
_cell_angle_beta   90.00000000
_cell_angle_gamma   90.00000000
_symmetry_Int_Tables_number   1
_chemical_formula_structural   Zn2H44C57(N8O5)2
_chemical_formula_sum   'Zn8 H176 C228 N64 O40'
_cell_volume   7791.77308129
_cell_formula_units_Z   4
loop_
 _symmetry_equiv_pos_site_id
 _symmetry_equiv_pos_as_xyz
  1  'x, y, z'
loop_
 _atom_site_type_symbol
 _atom_site_label
 _atom_site_symmetry_multiplicity
 _atom_site_fract_x
 _atom_site_fract_y
 _atom_site_fract_z
 _atom_site_occupancy
 _atom_site_charge
  Zn  Zn1  1  0.615980  0.512560  0.631500  1.0  0.8116
  Zn  Zn2  1  0.615980  0.487440  0.868500  1.0  0.8127
  Zn  Zn3  1  0.884020  0.012560  0.868500  1.0  0.8119
  Zn  Zn4  1  0.884020  0.987440  0.631500  1.0  0.8128
  Zn  Zn5  1  0.384020  0.487440  0.368500  1.0  0.8127
  Zn  Zn6  1  0.384020  0.512560  0.131500  1.0  0.8117
  Zn  Zn7  1  0.115980  0.987440  0.131500  1.0  0.8128
  Zn  Zn8  1  0.115980  0.012560  0.368500  1.0  0.8118
  H  H9  1  0.383700  0.443800  0.586100  1.0  0.1021
  H  H10  1  0.410500  0.397600  0.516800  1.0  0.1209
  H  H11  1  0.736500  0.475700  0.536400  1.0  0.0958
  H  H12  1  0.281900  0.078500  0.441900  1.0  0.1079
  H  H13  1  0.251900  0.165000  0.450700  1.0  0.1322
  H  H14  1  0.017700  0.115700  0.346100  1.0  0.1
  H  H15  1  0.278200  0.454400  0.219500  1.0  0.1103
  H  H16  1  0.065600  0.499300  0.111600  1.0  0.0982
  H  H17  1  0.909300  0.456000  0.163900  1.0  0.1292
  H  H18  1  0.607200  0.340300  0.485500  1.0  0.1238
  H  H19  1  0.726900  0.304000  0.424800  1.0  0.1098
  H  H20  1  0.866400  0.433300  0.384100  1.0  0.1007
  H  H21  1  0.746700  0.469700  0.444800  1.0  0.1077
  H  H22  1  0.097300  0.229900  0.451200  1.0  0.112
  H  H23  1  0.993600  0.304600  0.440600  1.0  0.1028
  H  H24  1  0.927000  0.272400  0.304800  1.0  0.1205
  H  H25  1  0.007900  0.194900  0.317800  1.0  0.1269
  H  H26  1  0.214100  0.404300  0.274000  1.0  0.1247
  H  H27  1  0.127600  0.363900  0.338700  1.0  0.066
  H  H28  1  0.763600  0.386400  0.299600  1.0  0.0747
  H  H29  1  0.831600  0.418400  0.230100  1.0  0.1324
  H  H30  1  0.321300  0.472900  0.741700  1.0  0.09
  H  H31  1  0.383700  0.556200  0.913900  1.0  0.1023
  H  H32  1  0.410500  0.602400  0.983200  1.0  0.1213
  H  H33  1  0.736500  0.524300  0.963600  1.0  0.0958
  H  H34  1  0.281900  0.921500  0.058100  1.0  0.1081
  H  H35  1  0.251900  0.835000  0.049300  1.0  0.1315
  H  H36  1  0.017700  0.884300  0.153900  1.0  0.1005
  H  H37  1  0.278200  0.545600  0.280500  1.0  0.1101
  H  H38  1  0.065600  0.500700  0.388400  1.0  0.0987
  H  H39  1  0.909300  0.544000  0.336100  1.0  0.1284
  H  H40  1  0.607200  0.659700  0.014500  1.0  0.124
  H  H41  1  0.726900  0.696000  0.075200  1.0  0.1109
  H  H42  1  0.866400  0.566700  0.115900  1.0  0.1012
  H  H43  1  0.746700  0.530300  0.055200  1.0  0.1083
  H  H44  1  0.097300  0.770100  0.048800  1.0  0.1136
  H  H45  1  0.993600  0.695400  0.059400  1.0  0.103
  H  H46  1  0.927000  0.727600  0.195200  1.0  0.1196
  H  H47  1  0.007900  0.805100  0.182200  1.0  0.1259
  H  H48  1  0.214100  0.595700  0.226000  1.0  0.1246
  H  H49  1  0.127600  0.636100  0.161300  1.0  0.0667
  H  H50  1  0.763600  0.613600  0.200400  1.0  0.0748
  H  H51  1  0.831600  0.581600  0.269900  1.0  0.1331
  H  H52  1  0.321300  0.527100  0.758300  1.0  0.0902
  H  H53  1  0.116300  0.943800  0.913900  1.0  0.1019
  H  H54  1  0.089500  0.897600  0.983200  1.0  0.1209
  H  H55  1  0.763500  0.975700  0.963600  1.0  0.0961
  H  H56  1  0.218100  0.578500  0.058100  1.0  0.1074
  H  H57  1  0.248100  0.665000  0.049300  1.0  0.132
  H  H58  1  0.482300  0.615700  0.153900  1.0  0.1006
  H  H59  1  0.221800  0.954400  0.280500  1.0  0.111
  H  H60  1  0.434400  0.999300  0.388400  1.0  0.0985
  H  H61  1  0.590700  0.956000  0.336100  1.0  0.1289
  H  H62  1  0.892800  0.840300  0.014500  1.0  0.1237
  H  H63  1  0.773100  0.804000  0.075200  1.0  0.1097
  H  H64  1  0.633600  0.933300  0.115900  1.0  0.1005
  H  H65  1  0.753300  0.969700  0.055200  1.0  0.108
  H  H66  1  0.402700  0.729900  0.048800  1.0  0.1138
  H  H67  1  0.506400  0.804600  0.059400  1.0  0.1029
  H  H68  1  0.573000  0.772400  0.195200  1.0  0.12
  H  H69  1  0.492100  0.694900  0.182200  1.0  0.1264
  H  H70  1  0.285900  0.904300  0.226000  1.0  0.1248
  H  H71  1  0.372400  0.863900  0.161300  1.0  0.0668
  H  H72  1  0.736400  0.886400  0.200400  1.0  0.0751
  H  H73  1  0.668400  0.918400  0.269900  1.0  0.1324
  H  H74  1  0.178700  0.972900  0.758300  1.0  0.0906
  H  H75  1  0.116300  0.056200  0.586100  1.0  0.1019
  H  H76  1  0.089500  0.102400  0.516800  1.0  0.121
  H  H77  1  0.763500  0.024300  0.536400  1.0  0.0959
  H  H78  1  0.218100  0.421500  0.441900  1.0  0.1077
  H  H79  1  0.248100  0.335000  0.450700  1.0  0.1326
  H  H80  1  0.482300  0.384300  0.346100  1.0  0.1001
  H  H81  1  0.221800  0.045600  0.219500  1.0  0.11
  H  H82  1  0.434400  0.000700  0.111600  1.0  0.0984
  H  H83  1  0.590700  0.044000  0.163900  1.0  0.1288
  H  H84  1  0.892800  0.159700  0.485500  1.0  0.1228
  H  H85  1  0.773100  0.196000  0.424800  1.0  0.1106
  H  H86  1  0.633600  0.066700  0.384100  1.0  0.1007
  H  H87  1  0.753300  0.030300  0.444800  1.0  0.1083
  H  H88  1  0.402700  0.270100  0.451200  1.0  0.1121
  H  H89  1  0.506400  0.195400  0.440600  1.0  0.103
  H  H90  1  0.573000  0.227600  0.304800  1.0  0.1209
  H  H91  1  0.492100  0.305100  0.317800  1.0  0.1268
  H  H92  1  0.285900  0.095700  0.274000  1.0  0.1248
  H  H93  1  0.372400  0.136100  0.338700  1.0  0.0659
  H  H94  1  0.736400  0.113600  0.299600  1.0  0.0747
  H  H95  1  0.668400  0.081600  0.230100  1.0  0.1311
  H  H96  1  0.178700  0.027100  0.741700  1.0  0.0896
  H  H97  1  0.616300  0.556200  0.413900  1.0  0.102
  H  H98  1  0.589500  0.602400  0.483200  1.0  0.121
  H  H99  1  0.263500  0.524300  0.463600  1.0  0.0961
  H  H100  1  0.718100  0.921500  0.558100  1.0  0.1076
  H  H101  1  0.748100  0.835000  0.549300  1.0  0.1317
  H  H102  1  0.982300  0.884300  0.653900  1.0  0.1005
  H  H103  1  0.721800  0.545600  0.780500  1.0  0.1105
  H  H104  1  0.934400  0.500700  0.888400  1.0  0.0983
  H  H105  1  0.090700  0.544000  0.836100  1.0  0.1287
  H  H106  1  0.392800  0.659700  0.514500  1.0  0.1238
  H  H107  1  0.273100  0.696000  0.575200  1.0  0.1107
  H  H108  1  0.133600  0.566700  0.615900  1.0  0.1007
  H  H109  1  0.253300  0.530300  0.555200  1.0  0.1084
  H  H110  1  0.902700  0.770100  0.548800  1.0  0.1136
  H  H111  1  0.006400  0.695400  0.559400  1.0  0.103
  H  H112  1  0.073000  0.727600  0.695200  1.0  0.1199
  H  H113  1  0.992100  0.805100  0.682200  1.0  0.1262
  H  H114  1  0.785900  0.595700  0.726000  1.0  0.1244
  H  H115  1  0.872400  0.636100  0.661300  1.0  0.0669
  H  H116  1  0.236400  0.613600  0.700400  1.0  0.0744
  H  H117  1  0.168400  0.581600  0.769900  1.0  0.1325
  H  H118  1  0.678700  0.527100  0.258300  1.0  0.0898
  H  H119  1  0.616300  0.443800  0.086100  1.0  0.1017
  H  H120  1  0.589500  0.397600  0.016800  1.0  0.121
  H  H121  1  0.263500  0.475700  0.036400  1.0  0.096
  H  H122  1  0.718100  0.078500  0.941900  1.0  0.1079
  H  H123  1  0.748100  0.165000  0.950700  1.0  0.1326
  H  H124  1  0.982300  0.115700  0.846100  1.0  0.1
  H  H125  1  0.721800  0.454400  0.719500  1.0  0.1104
  H  H126  1  0.934400  0.499300  0.611600  1.0  0.0983
  H  H127  1  0.090700  0.456000  0.663900  1.0  0.1289
  H  H128  1  0.392800  0.340300  0.985500  1.0  0.1239
  H  H129  1  0.273100  0.304000  0.924800  1.0  0.1097
  H  H130  1  0.133600  0.433300  0.884100  1.0  0.1007
  H  H131  1  0.253300  0.469700  0.944800  1.0  0.108
  H  H132  1  0.902700  0.229900  0.951200  1.0  0.112
  H  H133  1  0.006400  0.304600  0.940600  1.0  0.1027
  H  H134  1  0.073000  0.272400  0.804800  1.0  0.1209
  H  H135  1  0.992100  0.194900  0.817800  1.0  0.1268
  H  H136  1  0.785900  0.404300  0.774000  1.0  0.1247
  H  H137  1  0.872400  0.363900  0.838700  1.0  0.066
  H  H138  1  0.236400  0.386400  0.799600  1.0  0.0748
  H  H139  1  0.168400  0.418400  0.730100  1.0  0.1316
  H  H140  1  0.678700  0.472900  0.241700  1.0  0.0897
  H  H141  1  0.883700  0.056200  0.086100  1.0  0.1018
  H  H142  1  0.910500  0.102400  0.016800  1.0  0.1213
  H  H143  1  0.236500  0.024300  0.036400  1.0  0.0955
  H  H144  1  0.781900  0.421500  0.941900  1.0  0.1078
  H  H145  1  0.751900  0.335000  0.950700  1.0  0.1322
  H  H146  1  0.517700  0.384300  0.846100  1.0  0.1001
  H  H147  1  0.778200  0.045600  0.719500  1.0  0.1099
  H  H148  1  0.565600  0.000700  0.611600  1.0  0.0985
  H  H149  1  0.409300  0.044000  0.663900  1.0  0.1289
  H  H150  1  0.107200  0.159700  0.985500  1.0  0.1231
  H  H151  1  0.226900  0.196000  0.924800  1.0  0.1107
  H  H152  1  0.366400  0.066700  0.884100  1.0  0.1009
  H  H153  1  0.246700  0.030300  0.944800  1.0  0.108
  H  H154  1  0.597300  0.270100  0.951200  1.0  0.1121
  H  H155  1  0.493600  0.195400  0.940600  1.0  0.1032
  H  H156  1  0.427000  0.227600  0.804800  1.0  0.1207
  H  H157  1  0.507900  0.305100  0.817800  1.0  0.1269
  H  H158  1  0.714100  0.095700  0.774000  1.0  0.1251
  H  H159  1  0.627600  0.136100  0.838700  1.0  0.0659
  H  H160  1  0.263600  0.113600  0.799600  1.0  0.0749
  H  H161  1  0.331600  0.081600  0.730100  1.0  0.1319
  H  H162  1  0.821300  0.027100  0.241700  1.0  0.0901
  H  H163  1  0.883700  0.943800  0.413900  1.0  0.1021
  H  H164  1  0.910500  0.897600  0.483200  1.0  0.1209
  H  H165  1  0.236500  0.975700  0.463600  1.0  0.096
  H  H166  1  0.781900  0.578500  0.558100  1.0  0.1078
  H  H167  1  0.751900  0.665000  0.549300  1.0  0.1315
  H  H168  1  0.517700  0.615700  0.653900  1.0  0.1004
  H  H169  1  0.778200  0.954400  0.780500  1.0  0.1106
  H  H170  1  0.565600  0.999300  0.888400  1.0  0.0987
  H  H171  1  0.409300  0.956000  0.836100  1.0  0.1283
  H  H172  1  0.107200  0.840300  0.514500  1.0  0.1236
  H  H173  1  0.226900  0.804000  0.575200  1.0  0.1099
  H  H174  1  0.366400  0.933300  0.615900  1.0  0.1007
  H  H175  1  0.246700  0.969700  0.555200  1.0  0.1078
  H  H176  1  0.597300  0.729900  0.548800  1.0  0.1136
  H  H177  1  0.493600  0.804600  0.559400  1.0  0.1028
  H  H178  1  0.427000  0.772400  0.695200  1.0  0.1197
  H  H179  1  0.507900  0.694900  0.682200  1.0  0.1262
  H  H180  1  0.714100  0.904300  0.726000  1.0  0.125
  H  H181  1  0.627600  0.863900  0.661300  1.0  0.0667
  H  H182  1  0.263600  0.886400  0.700400  1.0  0.0748
  H  H183  1  0.331600  0.918400  0.769900  1.0  0.1334
  H  H184  1  0.821300  0.972900  0.258300  1.0  0.0906
  C  C185  1  0.458800  0.444950  0.566460  1.0  0.053
  C  C186  1  0.472900  0.419300  0.529140  1.0  -0.1142
  C  C187  1  0.650700  0.462560  0.539720  1.0  0.186
  C  C188  1  0.225100  0.097510  0.423590  1.0  0.0447
  C  C189  1  0.209800  0.145290  0.428590  1.0  -0.1419
  C  C190  1  0.080200  0.117520  0.370530  1.0  0.1388
  C  C191  1  0.206100  0.460480  0.199290  1.0  0.1282
  C  C192  1  0.089500  0.485010  0.140110  1.0  0.0873
  C  C193  1  0.001100  0.461080  0.168760  1.0  -0.1159
  C  C194  1  0.665080  0.408580  0.471160  1.0  0.1515
  C  C195  1  0.659140  0.358940  0.465170  1.0  -0.1376
  C  C196  1  0.730850  0.337170  0.428790  1.0  -0.1733
  C  C197  1  0.808520  0.365050  0.398400  1.0  0.1323
  C  C198  1  0.814460  0.414690  0.404390  1.0  -0.1688
  C  C199  1  0.742740  0.436460  0.440770  1.0  -0.1868
  C  C200  1  0.064800  0.206850  0.386300  1.0  0.1974
  C  C201  1  0.060300  0.237970  0.422050  1.0  -0.1601
  C  C202  1  0.999100  0.283150  0.415470  1.0  -0.1161
  C  C203  1  0.947200  0.296000  0.372040  1.0  0.182
  C  C204  1  0.956500  0.263410  0.334650  1.0  -0.1503
  C  C205  1  0.009200  0.217730  0.341820  1.0  -0.1571
  C  C206  1  0.032900  0.419430  0.247140  1.0  0.1695
  C  C207  1  0.121400  0.400820  0.278050  1.0  -0.201
  C  C208  1  0.067400  0.375990  0.316510  1.0  -0.0888
  C  C209  1  0.937700  0.368350  0.323780  1.0  0.3126
  C  C210  1  0.855600  0.387820  0.293190  1.0  -0.1382
  C  C211  1  0.894200  0.409830  0.253070  1.0  -0.2731
  C  C212  1  0.470600  0.512940  0.709530  1.0  0.3169
  C  C213  1  0.458800  0.555050  0.933540  1.0  0.0523
  C  C214  1  0.472900  0.580700  0.970860  1.0  -0.1143
  C  C215  1  0.650700  0.537440  0.960280  1.0  0.1854
  C  C216  1  0.225100  0.902490  0.076410  1.0  0.0443
  C  C217  1  0.209800  0.854710  0.071410  1.0  -0.1414
  C  C218  1  0.080200  0.882480  0.129470  1.0  0.1389
  C  C219  1  0.206100  0.539520  0.300710  1.0  0.1276
  C  C220  1  0.089500  0.514990  0.359890  1.0  0.0857
  C  C221  1  0.001100  0.538920  0.331240  1.0  -0.1167
  C  C222  1  0.665080  0.591420  0.028840  1.0  0.1515
  C  C223  1  0.659140  0.641060  0.034830  1.0  -0.1347
  C  C224  1  0.730850  0.662830  0.071210  1.0  -0.1752
  C  C225  1  0.808520  0.634950  0.101600  1.0  0.1317
  C  C226  1  0.814460  0.585310  0.095610  1.0  -0.1691
  C  C227  1  0.742740  0.563540  0.059230  1.0  -0.1859
  C  C228  1  0.064800  0.793150  0.113700  1.0  0.1966
  C  C229  1  0.060300  0.762030  0.077950  1.0  -0.1611
  C  C230  1  0.999100  0.716850  0.084530  1.0  -0.1171
  C  C231  1  0.947200  0.704000  0.127960  1.0  0.1821
  C  C232  1  0.956500  0.736590  0.165350  1.0  -0.1545
  C  C233  1  0.009200  0.782270  0.158180  1.0  -0.1561
  C  C234  1  0.032900  0.580570  0.252860  1.0  0.1702
  C  C235  1  0.121400  0.599180  0.221950  1.0  -0.2005
  C  C236  1  0.067400  0.624010  0.183490  1.0  -0.0896
  C  C237  1  0.937700  0.631650  0.176220  1.0  0.3118
  C  C238  1  0.855600  0.612180  0.206810  1.0  -0.1382
  C  C239  1  0.894200  0.590170  0.246930  1.0  -0.2733
  C  C240  1  0.470600  0.487060  0.790470  1.0  0.3182
  C  C241  1  0.041200  0.944950  0.933540  1.0  0.0534
  C  C242  1  0.027100  0.919300  0.970860  1.0  -0.1136
  C  C243  1  0.849300  0.962560  0.960280  1.0  0.185
  C  C244  1  0.274900  0.597510  0.076410  1.0  0.0441
  C  C245  1  0.290200  0.645290  0.071410  1.0  -0.1408
  C  C246  1  0.419800  0.617520  0.129470  1.0  0.139
  C  C247  1  0.293900  0.960480  0.300710  1.0  0.1266
  C  C248  1  0.410500  0.985010  0.359890  1.0  0.086
  C  C249  1  0.498900  0.961080  0.331240  1.0  -0.1139
  C  C250  1  0.834920  0.908580  0.028840  1.0  0.1509
  C  C251  1  0.840860  0.858940  0.034830  1.0  -0.1348
  C  C252  1  0.769150  0.837170  0.071210  1.0  -0.1751
  C  C253  1  0.691480  0.865050  0.101600  1.0  0.1319
  C  C254  1  0.685540  0.914690  0.095610  1.0  -0.1703
  C  C255  1  0.757260  0.936460  0.059230  1.0  -0.1868
  C  C256  1  0.435200  0.706850  0.113700  1.0  0.1976
  C  C257  1  0.439700  0.737970  0.077950  1.0  -0.161
  C  C258  1  0.500900  0.783150  0.084530  1.0  -0.1168
  C  C259  1  0.552800  0.796000  0.127960  1.0  0.1824
  C  C260  1  0.543500  0.763410  0.165350  1.0  -0.1536
  C  C261  1  0.490800  0.717730  0.158180  1.0  -0.1579
  C  C262  1  0.467100  0.919430  0.252860  1.0  0.1701
  C  C263  1  0.378600  0.900820  0.221950  1.0  -0.2035
  C  C264  1  0.432600  0.875990  0.183490  1.0  -0.0879
  C  C265  1  0.562300  0.868350  0.176220  1.0  0.3126
  C  C266  1  0.644400  0.887820  0.206810  1.0  -0.1366
  C  C267  1  0.605800  0.909830  0.246930  1.0  -0.2713
  C  C268  1  0.029400  0.012940  0.790470  1.0  0.3189
  C  C269  1  0.041200  0.055050  0.566460  1.0  0.0533
  C  C270  1  0.027100  0.080700  0.529140  1.0  -0.113
  C  C271  1  0.849300  0.037440  0.539720  1.0  0.1858
  C  C272  1  0.274900  0.402490  0.423590  1.0  0.0443
  C  C273  1  0.290200  0.354710  0.428590  1.0  -0.1408
  C  C274  1  0.419800  0.382480  0.370530  1.0  0.1382
  C  C275  1  0.293900  0.039520  0.199290  1.0  0.1264
  C  C276  1  0.410500  0.014990  0.140110  1.0  0.0872
  C  C277  1  0.498900  0.038920  0.168760  1.0  -0.1149
  C  C278  1  0.834920  0.091420  0.471160  1.0  0.1514
  C  C279  1  0.840860  0.141060  0.465170  1.0  -0.1362
  C  C280  1  0.769150  0.162830  0.428790  1.0  -0.1755
  C  C281  1  0.691480  0.134950  0.398400  1.0  0.1328
  C  C282  1  0.685540  0.085310  0.404390  1.0  -0.1709
  C  C283  1  0.757260  0.063540  0.440770  1.0  -0.1858
  C  C284  1  0.435200  0.293150  0.386300  1.0  0.1982
  C  C285  1  0.439700  0.262030  0.422050  1.0  -0.1609
  C  C286  1  0.500900  0.216850  0.415470  1.0  -0.1164
  C  C287  1  0.552800  0.204000  0.372040  1.0  0.1818
  C  C288  1  0.543500  0.236590  0.334650  1.0  -0.1492
  C  C289  1  0.490800  0.282270  0.341820  1.0  -0.1564
  C  C290  1  0.467100  0.080570  0.247140  1.0  0.1687
  C  C291  1  0.378600  0.099180  0.278050  1.0  -0.2042
  C  C292  1  0.432600  0.124010  0.316510  1.0  -0.0871
  C  C293  1  0.562300  0.131650  0.323780  1.0  0.3125
  C  C294  1  0.644400  0.112180  0.293190  1.0  -0.137
  C  C295  1  0.605800  0.090170  0.253070  1.0  -0.2735
  C  C296  1  0.029400  0.987060  0.709530  1.0  0.3171
  C  C297  1  0.541200  0.555050  0.433540  1.0  0.0528
  C  C298  1  0.527100  0.580700  0.470860  1.0  -0.1128
  C  C299  1  0.349300  0.537440  0.460280  1.0  0.1851
  C  C300  1  0.774900  0.902490  0.576410  1.0  0.0446
  C  C301  1  0.790200  0.854710  0.571410  1.0  -0.1405
  C  C302  1  0.919800  0.882480  0.629470  1.0  0.1392
  C  C303  1  0.793900  0.539520  0.800710  1.0  0.126
  C  C304  1  0.910500  0.514990  0.859890  1.0  0.086
  C  C305  1  0.998900  0.538920  0.831240  1.0  -0.1142
  C  C306  1  0.334920  0.591420  0.528840  1.0  0.1509
  C  C307  1  0.340860  0.641060  0.534830  1.0  -0.1342
  C  C308  1  0.269150  0.662830  0.571210  1.0  -0.1754
  C  C309  1  0.191480  0.634950  0.601600  1.0  0.1321
  C  C310  1  0.185540  0.585310  0.595610  1.0  -0.1702
  C  C311  1  0.257260  0.563540  0.559230  1.0  -0.1858
  C  C312  1  0.935200  0.793150  0.613700  1.0  0.1975
  C  C313  1  0.939700  0.762030  0.577950  1.0  -0.1612
  C  C314  1  0.000900  0.716850  0.584530  1.0  -0.1172
  C  C315  1  0.052800  0.704000  0.627960  1.0  0.1822
  C  C316  1  0.043500  0.736590  0.665350  1.0  -0.1537
  C  C317  1  0.990800  0.782270  0.658180  1.0  -0.1576
  C  C318  1  0.967100  0.580570  0.752860  1.0  0.1701
  C  C319  1  0.878600  0.599180  0.721950  1.0  -0.2033
  C  C320  1  0.932600  0.624010  0.683490  1.0  -0.0881
  C  C321  1  0.062300  0.631650  0.676220  1.0  0.3121
  C  C322  1  0.144400  0.612180  0.706810  1.0  -0.1373
  C  C323  1  0.105800  0.590170  0.746930  1.0  -0.2722
  C  C324  1  0.529400  0.487060  0.290470  1.0  0.3188
  C  C325  1  0.541200  0.444950  0.066460  1.0  0.0538
  C  C326  1  0.527100  0.419300  0.029140  1.0  -0.1135
  C  C327  1  0.349300  0.462560  0.039720  1.0  0.1857
  C  C328  1  0.774900  0.097510  0.923590  1.0  0.0447
  C  C329  1  0.790200  0.145290  0.928590  1.0  -0.1412
  C  C330  1  0.919800  0.117520  0.870530  1.0  0.1381
  C  C331  1  0.793900  0.460480  0.699290  1.0  0.127
  C  C332  1  0.910500  0.485010  0.640110  1.0  0.0866
  C  C333  1  0.998900  0.461080  0.668760  1.0  -0.1147
  C  C334  1  0.334920  0.408580  0.971160  1.0  0.1513
  C  C335  1  0.340860  0.358940  0.965170  1.0  -0.1368
  C  C336  1  0.269150  0.337170  0.928790  1.0  -0.1738
  C  C337  1  0.191480  0.365050  0.898400  1.0  0.1327
  C  C338  1  0.185540  0.414690  0.904390  1.0  -0.1703
  C  C339  1  0.257260  0.436460  0.940770  1.0  -0.1864
  C  C340  1  0.935200  0.206850  0.886300  1.0  0.198
  C  C341  1  0.939700  0.237970  0.922050  1.0  -0.1606
  C  C342  1  0.000900  0.283150  0.915470  1.0  -0.116
  C  C343  1  0.052800  0.296000  0.872040  1.0  0.1821
  C  C344  1  0.043500  0.263410  0.834650  1.0  -0.1499
  C  C345  1  0.990800  0.217730  0.841820  1.0  -0.1572
  C  C346  1  0.967100  0.419430  0.747140  1.0  0.1694
  C  C347  1  0.878600  0.400820  0.778050  1.0  -0.2047
  C  C348  1  0.932600  0.375990  0.816510  1.0  -0.0872
  C  C349  1  0.062300  0.368350  0.823780  1.0  0.313
  C  C350  1  0.144400  0.387820  0.793190  1.0  -0.137
  C  C351  1  0.105800  0.409830  0.753070  1.0  -0.2734
  C  C352  1  0.529400  0.512940  0.209530  1.0  0.3177
  C  C353  1  0.958800  0.055050  0.066460  1.0  0.0516
  C  C354  1  0.972900  0.080700  0.029140  1.0  -0.1143
  C  C355  1  0.150700  0.037440  0.039720  1.0  0.1861
  C  C356  1  0.725100  0.402490  0.923590  1.0  0.0442
  C  C357  1  0.709800  0.354710  0.928590  1.0  -0.1416
  C  C358  1  0.580200  0.382480  0.870530  1.0  0.1386
  C  C359  1  0.706100  0.039520  0.699290  1.0  0.1284
  C  C360  1  0.589500  0.014990  0.640110  1.0  0.0878
  C  C361  1  0.501100  0.038920  0.668760  1.0  -0.1169
  C  C362  1  0.165080  0.091420  0.971160  1.0  0.1518
  C  C363  1  0.159140  0.141060  0.965170  1.0  -0.1371
  C  C364  1  0.230850  0.162830  0.928790  1.0  -0.1747
  C  C365  1  0.308520  0.134950  0.898400  1.0  0.1324
  C  C366  1  0.314460  0.085310  0.904390  1.0  -0.1695
  C  C367  1  0.242740  0.063540  0.940770  1.0  -0.1857
  C  C368  1  0.564800  0.293150  0.886300  1.0  0.1975
  C  C369  1  0.560300  0.262030  0.922050  1.0  -0.1603
  C  C370  1  0.499100  0.216850  0.915470  1.0  -0.1163
  C  C371  1  0.447200  0.204000  0.872040  1.0  0.1817
  C  C372  1  0.456500  0.236590  0.834650  1.0  -0.1497
  C  C373  1  0.509200  0.282270  0.841820  1.0  -0.1567
  C  C374  1  0.532900  0.080570  0.747140  1.0  0.1688
  C  C375  1  0.621400  0.099180  0.778050  1.0  -0.2005
  C  C376  1  0.567400  0.124010  0.816510  1.0  -0.0886
  C  C377  1  0.437700  0.131650  0.823780  1.0  0.3123
  C  C378  1  0.355600  0.112180  0.793190  1.0  -0.1377
  C  C379  1  0.394200  0.090170  0.753070  1.0  -0.274
  C  C380  1  0.970600  0.987060  0.209530  1.0  0.3166
  C  C381  1  0.958800  0.944950  0.433540  1.0  0.054
  C  C382  1  0.972900  0.919300  0.470860  1.0  -0.114
  C  C383  1  0.150700  0.962560  0.460280  1.0  0.1853
  C  C384  1  0.725100  0.597510  0.576410  1.0  0.0438
  C  C385  1  0.709800  0.645290  0.571410  1.0  -0.1418
  C  C386  1  0.580200  0.617520  0.629470  1.0  0.1392
  C  C387  1  0.706100  0.960480  0.800710  1.0  0.1275
  C  C388  1  0.589500  0.985010  0.859890  1.0  0.0859
  C  C389  1  0.501100  0.961080  0.831240  1.0  -0.116
  C  C390  1  0.165080  0.908580  0.528840  1.0  0.1513
  C  C391  1  0.159140  0.858940  0.534830  1.0  -0.1351
  C  C392  1  0.230850  0.837170  0.571210  1.0  -0.175
  C  C393  1  0.308520  0.865050  0.601600  1.0  0.1316
  C  C394  1  0.314460  0.914690  0.595610  1.0  -0.1688
  C  C395  1  0.242740  0.936460  0.559230  1.0  -0.1871
  C  C396  1  0.564800  0.706850  0.613700  1.0  0.1969
  C  C397  1  0.560300  0.737970  0.577950  1.0  -0.1608
  C  C398  1  0.499100  0.783150  0.584530  1.0  -0.1167
  C  C399  1  0.447200  0.796000  0.627960  1.0  0.1823
  C  C400  1  0.456500  0.763410  0.665350  1.0  -0.1544
  C  C401  1  0.509200  0.717730  0.658180  1.0  -0.1563
  C  C402  1  0.532900  0.919430  0.752860  1.0  0.1702
  C  C403  1  0.621400  0.900820  0.721950  1.0  -0.2011
  C  C404  1  0.567400  0.875990  0.683490  1.0  -0.0893
  C  C405  1  0.437700  0.868350  0.676220  1.0  0.3125
  C  C406  1  0.355600  0.887820  0.706810  1.0  -0.1375
  C  C407  1  0.394200  0.909830  0.746930  1.0  -0.2714
  C  C408  1  0.970600  0.012940  0.290470  1.0  0.3183
  C  C409  1  0.378300  0.500000  0.750000  1.0  -0.3453
  C  C410  1  0.121700  0.000000  0.750000  1.0  -0.3454
  C  C411  1  0.621700  0.500000  0.250000  1.0  -0.3454
  C  C412  1  0.878300  0.000000  0.250000  1.0  -0.3453
  N  N413  1  0.568900  0.474350  0.573740  1.0  -0.41
  N  N414  1  0.600800  0.430200  0.510380  1.0  -0.0117
  N  N415  1  0.887990  0.341370  0.363050  1.0  -0.1805
  N  N416  1  0.145600  0.080730  0.387910  1.0  -0.3334
  N  N417  1  0.116640  0.159470  0.393440  1.0  -0.0809
  N  N418  1  0.213600  0.485370  0.157750  1.0  -0.3864
  N  N419  1  0.078400  0.446190  0.206340  1.0  0.0556
  N  N420  1  0.568900  0.525650  0.926260  1.0  -0.4111
  N  N421  1  0.600800  0.569800  0.989620  1.0  -0.0107
  N  N422  1  0.887990  0.658630  0.136950  1.0  -0.1795
  N  N423  1  0.145600  0.919270  0.112090  1.0  -0.3354
  N  N424  1  0.116640  0.840530  0.106560  1.0  -0.0808
  N  N425  1  0.213600  0.514630  0.342250  1.0  -0.3871
  N  N426  1  0.078400  0.553810  0.293660  1.0  0.0548
  N  N427  1  0.931100  0.974350  0.926260  1.0  -0.41
  N  N428  1  0.899200  0.930200  0.989620  1.0  -0.012
  N  N429  1  0.612010  0.841370  0.136950  1.0  -0.1799
  N  N430  1  0.354400  0.580730  0.112090  1.0  -0.3338
  N  N431  1  0.383360  0.659470  0.106560  1.0  -0.0811
  N  N432  1  0.286400  0.985370  0.342250  1.0  -0.3881
  N  N433  1  0.421600  0.946190  0.293660  1.0  0.0544
  N  N434  1  0.931100  0.025650  0.573740  1.0  -0.4117
  N  N435  1  0.899200  0.069800  0.510380  1.0  -0.0123
  N  N436  1  0.612010  0.158630  0.363050  1.0  -0.1804
  N  N437  1  0.354400  0.419270  0.387910  1.0  -0.3351
  N  N438  1  0.383360  0.340530  0.393440  1.0  -0.0816
  N  N439  1  0.286400  0.014630  0.157750  1.0  -0.386
  N  N440  1  0.421600  0.053810  0.206340  1.0  0.0564
  N  N441  1  0.431100  0.525650  0.426260  1.0  -0.4114
  N  N442  1  0.399200  0.569800  0.489620  1.0  -0.0115
  N  N443  1  0.112010  0.658630  0.636950  1.0  -0.1797
  N  N444  1  0.854400  0.919270  0.612090  1.0  -0.3356
  N  N445  1  0.883360  0.840530  0.606560  1.0  -0.0809
  N  N446  1  0.786400  0.514630  0.842250  1.0  -0.3874
  N  N447  1  0.921600  0.553810  0.793660  1.0  0.0552
  N  N448  1  0.431100  0.474350  0.073740  1.0  -0.4104
  N  N449  1  0.399200  0.430200  0.010380  1.0  -0.0124
  N  N450  1  0.112010  0.341370  0.863050  1.0  -0.1805
  N  N451  1  0.854400  0.080730  0.887910  1.0  -0.3336
  N  N452  1  0.883360  0.159470  0.893440  1.0  -0.0811
  N  N453  1  0.786400  0.485370  0.657750  1.0  -0.3862
  N  N454  1  0.921600  0.446190  0.706340  1.0  0.0559
  N  N455  1  0.068900  0.025650  0.073740  1.0  -0.4113
  N  N456  1  0.100800  0.069800  0.010380  1.0  -0.0116
  N  N457  1  0.387990  0.158630  0.863050  1.0  -0.1804
  N  N458  1  0.645600  0.419270  0.887910  1.0  -0.335
  N  N459  1  0.616640  0.340530  0.893440  1.0  -0.0814
  N  N460  1  0.713600  0.014630  0.657750  1.0  -0.3867
  N  N461  1  0.578400  0.053810  0.706340  1.0  0.056
  N  N462  1  0.068900  0.974350  0.426260  1.0  -0.4099
  N  N463  1  0.100800  0.930200  0.489620  1.0  -0.011
  N  N464  1  0.387990  0.841370  0.636950  1.0  -0.1796
  N  N465  1  0.645600  0.580730  0.612090  1.0  -0.3335
  N  N466  1  0.616640  0.659470  0.606560  1.0  -0.081
  N  N467  1  0.713600  0.985370  0.842250  1.0  -0.3872
  N  N468  1  0.578400  0.946190  0.793660  1.0  0.0541
  N  N469  1  0.846000  0.668950  0.444800  1.0  0.8473
  N  N470  1  0.846000  0.331050  0.055200  1.0  0.8489
  N  N471  1  0.654000  0.168950  0.055200  1.0  0.8491
  N  N472  1  0.654000  0.831050  0.444800  1.0  0.8483
  N  N473  1  0.154000  0.331050  0.555200  1.0  0.8488
  N  N474  1  0.154000  0.668950  0.944800  1.0  0.8486
  N  N475  1  0.346000  0.831050  0.944800  1.0  0.8467
  N  N476  1  0.346000  0.168950  0.555200  1.0  0.8494
  O  O477  1  0.557350  0.545030  0.714090  1.0  -0.5758
  O  O478  1  0.449310  0.496660  0.674690  1.0  -0.5425
  O  O479  1  0.557350  0.454970  0.785910  1.0  -0.5744
  O  O480  1  0.449310  0.503340  0.825310  1.0  -0.544
  O  O481  1  0.942650  0.045030  0.785910  1.0  -0.5751
  O  O482  1  0.050690  0.996660  0.825310  1.0  -0.5412
  O  O483  1  0.942650  0.954970  0.714090  1.0  -0.5752
  O  O484  1  0.050690  0.003340  0.674690  1.0  -0.5414
  O  O485  1  0.442650  0.454970  0.285910  1.0  -0.5748
  O  O486  1  0.550690  0.503340  0.325310  1.0  -0.5429
  O  O487  1  0.442650  0.545030  0.214090  1.0  -0.5755
  O  O488  1  0.550690  0.496660  0.174690  1.0  -0.5415
  O  O489  1  0.057350  0.954970  0.214090  1.0  -0.5747
  O  O490  1  0.949310  0.003340  0.174690  1.0  -0.5424
  O  O491  1  0.057350  0.045030  0.285910  1.0  -0.5754
  O  O492  1  0.949310  0.996660  0.325310  1.0  -0.5421
  O  O493  1  0.906400  0.634980  0.463680  1.0  -0.4164
  O  O494  1  0.855970  0.674670  0.402230  1.0  -0.4013
  O  O495  1  0.788570  0.698750  0.468820  1.0  -0.3646
  O  O496  1  0.906400  0.365020  0.036320  1.0  -0.4164
  O  O497  1  0.855970  0.325330  0.097770  1.0  -0.4073
  O  O498  1  0.788570  0.301250  0.031180  1.0  -0.3647
  O  O499  1  0.593600  0.134980  0.036320  1.0  -0.4165
  O  O500  1  0.644030  0.174670  0.097770  1.0  -0.4081
  O  O501  1  0.711430  0.198750  0.031180  1.0  -0.3642
  O  O502  1  0.593600  0.865020  0.463680  1.0  -0.4176
  O  O503  1  0.644030  0.825330  0.402230  1.0  -0.4009
  O  O504  1  0.711430  0.801250  0.468820  1.0  -0.3648
  O  O505  1  0.093600  0.365020  0.536320  1.0  -0.4161
  O  O506  1  0.144030  0.325330  0.597770  1.0  -0.4074
  O  O507  1  0.211430  0.301250  0.531180  1.0  -0.3652
  O  O508  1  0.093600  0.634980  0.963680  1.0  -0.4175
  O  O509  1  0.144030  0.674670  0.902230  1.0  -0.4014
  O  O510  1  0.211430  0.698750  0.968820  1.0  -0.3652
  O  O511  1  0.406400  0.865020  0.963680  1.0  -0.4168
  O  O512  1  0.355970  0.825330  0.902230  1.0  -0.4004
  O  O513  1  0.288570  0.801250  0.968820  1.0  -0.3641
  O  O514  1  0.406400  0.134980  0.536320  1.0  -0.4164
  O  O515  1  0.355970  0.174670  0.597770  1.0  -0.4074
  O  O516  1  0.288570  0.198750  0.531180  1.0  -0.3635
