# generated using pymatgen
data_CsUPH4C7O6
_symmetry_space_group_name_H-M   'P 1'
_cell_length_a   11.95630000
_cell_length_b   20.52250000
_cell_length_c   22.05560000
_cell_angle_alpha   90.00000000
_cell_angle_beta   90.00000000
_cell_angle_gamma   90.00000000
_symmetry_Int_Tables_number   1
_chemical_formula_structural   CsUPH4C7O6
_chemical_formula_sum   'Cs12 U12 P12 H48 C84 O72'
_cell_volume   5411.85241657
_cell_formula_units_Z   12
loop_
 _symmetry_equiv_pos_site_id
 _symmetry_equiv_pos_as_xyz
  1  'x, y, z'
loop_
 _atom_site_type_symbol
 _atom_site_label
 _atom_site_symmetry_multiplicity
 _atom_site_fract_x
 _atom_site_fract_y
 _atom_site_fract_z
 _atom_site_occupancy
 _atom_site_charge
  Cs  Cs1  1  0.762350  0.919680  0.540100  1.0  0.929
  Cs  Cs2  1  0.262350  0.080320  0.959900  1.0  0.9286
  Cs  Cs3  1  0.237650  0.419680  0.459900  1.0  0.9272
  Cs  Cs4  1  0.737650  0.580320  0.040100  1.0  0.9282
  Cs  Cs5  1  0.237650  0.080320  0.459900  1.0  0.9274
  Cs  Cs6  1  0.737650  0.919680  0.040100  1.0  0.928
  Cs  Cs7  1  0.762350  0.580320  0.540100  1.0  0.929
  Cs  Cs8  1  0.262350  0.419680  0.959900  1.0  0.9284
  Cs  Cs9  1  0.997530  0.750000  0.655130  1.0  0.9656
  Cs  Cs10  1  0.497530  0.250000  0.844870  1.0  0.9655
  Cs  Cs11  1  0.002470  0.250000  0.344870  1.0  0.9635
  Cs  Cs12  1  0.502470  0.750000  0.155130  1.0  0.9636
  U  U13  1  0.140230  0.916810  0.572420  1.0  2.297
  U  U14  1  0.640230  0.083190  0.927580  1.0  2.2981
  U  U15  1  0.859770  0.416810  0.427580  1.0  2.2989
  U  U16  1  0.359770  0.583190  0.072420  1.0  2.2979
  U  U17  1  0.859770  0.083190  0.427580  1.0  2.2991
  U  U18  1  0.359770  0.916810  0.072420  1.0  2.2986
  U  U19  1  0.140230  0.583190  0.572420  1.0  2.2974
  U  U20  1  0.640230  0.416810  0.927580  1.0  2.299
  U  U21  1  0.910390  0.750000  0.440080  1.0  2.2899
  U  U22  1  0.410390  0.250000  0.059920  1.0  2.2909
  U  U23  1  0.089610  0.250000  0.559920  1.0  2.2893
  U  U24  1  0.589610  0.750000  0.940080  1.0  2.2888
  P  P25  1  0.000300  0.922300  0.427100  1.0  1.5334
  P  P26  1  0.500300  0.077700  0.072900  1.0  1.5333
  P  P27  1  0.999700  0.422300  0.572900  1.0  1.5331
  P  P28  1  0.499700  0.577700  0.927100  1.0  1.5337
  P  P29  1  0.999700  0.077700  0.572900  1.0  1.5332
  P  P30  1  0.499700  0.922300  0.927100  1.0  1.5335
  P  P31  1  0.000300  0.577700  0.427100  1.0  1.5334
  P  P32  1  0.500300  0.422300  0.072900  1.0  1.5333
  P  P33  1  0.180200  0.750000  0.504990  1.0  1.5709
  P  P34  1  0.680200  0.250000  0.995010  1.0  1.5696
  P  P35  1  0.819800  0.250000  0.495010  1.0  1.5689
  P  P36  1  0.319800  0.750000  0.004990  1.0  1.5702
  H  H37  1  0.341800  0.848600  0.470900  1.0  0.0823
  H  H38  1  0.529900  0.849600  0.445700  1.0  0.1122
  H  H39  1  0.027200  0.006200  0.324700  1.0  0.0878
  H  H40  1  0.135300  0.004900  0.236300  1.0  0.1121
  H  H41  1  0.234500  0.820100  0.277900  1.0  0.1057
  H  H42  1  0.133700  0.825500  0.367800  1.0  0.0822
  H  H43  1  0.841800  0.151400  0.029100  1.0  0.0821
  H  H44  1  0.029900  0.150400  0.054300  1.0  0.1115
  H  H45  1  0.527200  0.993800  0.175300  1.0  0.088
  H  H46  1  0.635300  0.995100  0.263700  1.0  0.1119
  H  H47  1  0.734500  0.179900  0.222100  1.0  0.106
  H  H48  1  0.633700  0.174500  0.132200  1.0  0.0826
  H  H49  1  0.658200  0.348600  0.529100  1.0  0.0816
  H  H50  1  0.470100  0.349600  0.554300  1.0  0.112
  H  H51  1  0.972800  0.506200  0.675300  1.0  0.0881
  H  H52  1  0.864700  0.504900  0.763700  1.0  0.112
  H  H53  1  0.765500  0.320100  0.722100  1.0  0.1055
  H  H54  1  0.866300  0.325500  0.632200  1.0  0.0825
  H  H55  1  0.158200  0.651400  0.970900  1.0  0.0814
  H  H56  1  0.970100  0.650400  0.945700  1.0  0.111
  H  H57  1  0.472800  0.493800  0.824700  1.0  0.0871
  H  H58  1  0.364700  0.495100  0.736300  1.0  0.1111
  H  H59  1  0.265500  0.679900  0.777900  1.0  0.1057
  H  H60  1  0.366300  0.674500  0.867800  1.0  0.0819
  H  H61  1  0.658200  0.151400  0.529100  1.0  0.0814
  H  H62  1  0.470100  0.150400  0.554300  1.0  0.1112
  H  H63  1  0.972800  0.993800  0.675300  1.0  0.088
  H  H64  1  0.864700  0.995100  0.763700  1.0  0.1119
  H  H65  1  0.765500  0.179900  0.722100  1.0  0.1059
  H  H66  1  0.866300  0.174500  0.632200  1.0  0.0825
  H  H67  1  0.158200  0.848600  0.970900  1.0  0.0816
  H  H68  1  0.970100  0.849600  0.945700  1.0  0.1121
  H  H69  1  0.472800  0.006200  0.824700  1.0  0.0874
  H  H70  1  0.364700  0.004900  0.736300  1.0  0.1121
  H  H71  1  0.265500  0.820100  0.777900  1.0  0.1053
  H  H72  1  0.366300  0.825500  0.867800  1.0  0.0822
  H  H73  1  0.341800  0.651400  0.470900  1.0  0.082
  H  H74  1  0.529900  0.650400  0.445700  1.0  0.1114
  H  H75  1  0.027200  0.493800  0.324700  1.0  0.087
  H  H76  1  0.135300  0.495100  0.236300  1.0  0.1111
  H  H77  1  0.234500  0.679900  0.277900  1.0  0.1059
  H  H78  1  0.133700  0.674500  0.367800  1.0  0.082
  H  H79  1  0.841800  0.348600  0.029100  1.0  0.0824
  H  H80  1  0.029900  0.349600  0.054300  1.0  0.112
  H  H81  1  0.527200  0.506200  0.175300  1.0  0.0885
  H  H82  1  0.635300  0.504900  0.263700  1.0  0.112
  H  H83  1  0.734500  0.320100  0.222100  1.0  0.1059
  H  H84  1  0.633700  0.325500  0.132200  1.0  0.0825
  C  C85  1  0.380300  0.808400  0.466700  1.0  -0.059
  C  C86  1  0.491700  0.809500  0.451600  1.0  -0.1285
  C  C87  1  0.071400  0.916700  0.355400  1.0  -0.1749
  C  C88  1  0.071300  0.969000  0.315600  1.0  -0.0427
  C  C89  1  0.134200  0.968200  0.262600  1.0  -0.1168
  C  C90  1  0.196300  0.911800  0.248700  1.0  -0.1374
  C  C91  1  0.194100  0.858600  0.287800  1.0  -0.07
  C  C92  1  0.133300  0.861600  0.340800  1.0  -0.0412
  C  C93  1  0.266500  0.911100  0.191600  1.0  0.682
  C  C94  1  0.880300  0.191600  0.033300  1.0  -0.0579
  C  C95  1  0.991700  0.190500  0.048400  1.0  -0.1289
  C  C96  1  0.571400  0.083300  0.144600  1.0  -0.1758
  C  C97  1  0.571300  0.031000  0.184400  1.0  -0.0414
  C  C98  1  0.634200  0.031800  0.237400  1.0  -0.1171
  C  C99  1  0.696300  0.088200  0.251300  1.0  -0.1367
  C  C100  1  0.694100  0.141400  0.212200  1.0  -0.0704
  C  C101  1  0.633300  0.138400  0.159200  1.0  -0.044
  C  C102  1  0.766500  0.088900  0.308400  1.0  0.6814
  C  C103  1  0.619700  0.308400  0.533300  1.0  -0.059
  C  C104  1  0.508300  0.309500  0.548400  1.0  -0.1294
  C  C105  1  0.928600  0.416700  0.644600  1.0  -0.1761
  C  C106  1  0.928700  0.469000  0.684400  1.0  -0.0427
  C  C107  1  0.865800  0.468200  0.737400  1.0  -0.1167
  C  C108  1  0.803700  0.411800  0.751300  1.0  -0.137
  C  C109  1  0.805900  0.358600  0.712200  1.0  -0.0693
  C  C110  1  0.866700  0.361600  0.659200  1.0  -0.0433
  C  C111  1  0.733500  0.411100  0.808400  1.0  0.6813
  C  C112  1  0.119700  0.691600  0.966700  1.0  -0.0562
  C  C113  1  0.008300  0.690500  0.951600  1.0  -0.1293
  C  C114  1  0.428600  0.583300  0.855400  1.0  -0.1748
  C  C115  1  0.428700  0.531000  0.815600  1.0  -0.0426
  C  C116  1  0.365800  0.531800  0.762600  1.0  -0.1167
  C  C117  1  0.303700  0.588200  0.748700  1.0  -0.1375
  C  C118  1  0.305900  0.641400  0.787800  1.0  -0.0703
  C  C119  1  0.366700  0.638400  0.840800  1.0  -0.0417
  C  C120  1  0.233500  0.588900  0.691600  1.0  0.6826
  C  C121  1  0.619700  0.191600  0.533300  1.0  -0.0571
  C  C122  1  0.508300  0.190500  0.548400  1.0  -0.1294
  C  C123  1  0.928600  0.083300  0.644600  1.0  -0.1762
  C  C124  1  0.928700  0.031000  0.684400  1.0  -0.0416
  C  C125  1  0.865800  0.031800  0.737400  1.0  -0.1172
  C  C126  1  0.803700  0.088200  0.751300  1.0  -0.137
  C  C127  1  0.805900  0.141400  0.712200  1.0  -0.0697
  C  C128  1  0.866700  0.138400  0.659200  1.0  -0.0437
  C  C129  1  0.733500  0.088900  0.808400  1.0  0.6813
  C  C130  1  0.119700  0.808400  0.966700  1.0  -0.0595
  C  C131  1  0.008300  0.809500  0.951600  1.0  -0.1296
  C  C132  1  0.428600  0.916700  0.855400  1.0  -0.1749
  C  C133  1  0.428700  0.969000  0.815600  1.0  -0.0432
  C  C134  1  0.365800  0.968200  0.762600  1.0  -0.1171
  C  C135  1  0.303700  0.911800  0.748700  1.0  -0.1377
  C  C136  1  0.305900  0.858600  0.787800  1.0  -0.0694
  C  C137  1  0.366700  0.861600  0.840800  1.0  -0.0409
  C  C138  1  0.233500  0.911100  0.691600  1.0  0.6826
  C  C139  1  0.380300  0.691600  0.466700  1.0  -0.058
  C  C140  1  0.491700  0.690500  0.451600  1.0  -0.1287
  C  C141  1  0.071400  0.583300  0.355400  1.0  -0.1747
  C  C142  1  0.071300  0.531000  0.315600  1.0  -0.0422
  C  C143  1  0.134200  0.531800  0.262600  1.0  -0.1164
  C  C144  1  0.196300  0.588200  0.248700  1.0  -0.1371
  C  C145  1  0.194100  0.641400  0.287800  1.0  -0.0706
  C  C146  1  0.133300  0.638400  0.340800  1.0  -0.042
  C  C147  1  0.266500  0.588900  0.191600  1.0  0.6821
  C  C148  1  0.880300  0.308400  0.033300  1.0  -0.0595
  C  C149  1  0.991700  0.309500  0.048400  1.0  -0.1283
  C  C150  1  0.571400  0.416700  0.144600  1.0  -0.1757
  C  C151  1  0.571300  0.469000  0.184400  1.0  -0.0422
  C  C152  1  0.634200  0.468200  0.237400  1.0  -0.1168
  C  C153  1  0.696300  0.411800  0.251300  1.0  -0.1367
  C  C154  1  0.694100  0.358600  0.212200  1.0  -0.0703
  C  C155  1  0.633300  0.361600  0.159200  1.0  -0.0437
  C  C156  1  0.766500  0.411100  0.308400  1.0  0.6814
  C  C157  1  0.320700  0.750000  0.476100  1.0  -0.2945
  C  C158  1  0.547300  0.750000  0.445100  1.0  -0.1483
  C  C159  1  0.669800  0.750000  0.435300  1.0  0.6391
  C  C160  1  0.820700  0.250000  0.023900  1.0  -0.2938
  C  C161  1  0.047300  0.250000  0.054900  1.0  -0.148
  C  C162  1  0.169800  0.250000  0.064700  1.0  0.6404
  C  C163  1  0.679300  0.250000  0.523900  1.0  -0.293
  C  C164  1  0.452700  0.250000  0.554900  1.0  -0.1491
  C  C165  1  0.330200  0.250000  0.564700  1.0  0.6403
  C  C166  1  0.179300  0.750000  0.976100  1.0  -0.2943
  C  C167  1  0.952700  0.750000  0.945100  1.0  -0.1494
  C  C168  1  0.830200  0.750000  0.935300  1.0  0.6393
  O  O169  1  0.001400  0.895200  0.595700  1.0  -0.8272
  O  O170  1  0.165200  0.811100  0.542600  1.0  -1.0071
  O  O171  1  0.724100  0.804000  0.433700  1.0  -0.751
  O  O172  1  0.091500  0.936700  0.473400  1.0  -0.9678
  O  O173  1  0.912500  0.976200  0.424200  1.0  -0.9756
  O  O174  1  0.942400  0.858900  0.441000  1.0  -1.0029
  O  O175  1  0.284800  0.858200  0.163200  1.0  -0.7534
  O  O176  1  0.302600  0.964500  0.170000  1.0  -0.6523
  O  O177  1  0.501400  0.104800  0.904300  1.0  -0.8273
  O  O178  1  0.665200  0.188900  0.957400  1.0  -1.0056
  O  O179  1  0.224100  0.196000  0.066300  1.0  -0.7503
  O  O180  1  0.591500  0.063300  0.026600  1.0  -0.9659
  O  O181  1  0.412500  0.023800  0.075800  1.0  -0.9753
  O  O182  1  0.442400  0.141100  0.059000  1.0  -1.0028
  O  O183  1  0.784800  0.141800  0.336800  1.0  -0.7534
  O  O184  1  0.802600  0.035500  0.330000  1.0  -0.6537
  O  O185  1  0.998600  0.395200  0.404300  1.0  -0.8274
  O  O186  1  0.834800  0.311100  0.457400  1.0  -1.0059
  O  O187  1  0.275900  0.304000  0.566300  1.0  -0.7525
  O  O188  1  0.908500  0.436700  0.526600  1.0  -0.9639
  O  O189  1  0.087500  0.476200  0.575800  1.0  -0.9733
  O  O190  1  0.057600  0.358900  0.559000  1.0  -1.0012
  O  O191  1  0.715200  0.358200  0.836800  1.0  -0.7545
  O  O192  1  0.697400  0.464500  0.830000  1.0  -0.6502
  O  O193  1  0.498600  0.604800  0.095700  1.0  -0.8278
  O  O194  1  0.334800  0.688900  0.042600  1.0  -1.0052
  O  O195  1  0.775900  0.696000  0.933700  1.0  -0.7521
  O  O196  1  0.408500  0.563300  0.973400  1.0  -0.9649
  O  O197  1  0.587500  0.523800  0.924200  1.0  -0.9742
  O  O198  1  0.557600  0.641100  0.941000  1.0  -1.0019
  O  O199  1  0.215200  0.641800  0.663200  1.0  -0.7549
  O  O200  1  0.197400  0.535500  0.670000  1.0  -0.6534
  O  O201  1  0.998600  0.104800  0.404300  1.0  -0.8272
  O  O202  1  0.834800  0.188900  0.457400  1.0  -1.0054
  O  O203  1  0.275900  0.196000  0.566300  1.0  -0.7517
  O  O204  1  0.908500  0.063300  0.526600  1.0  -0.9638
  O  O205  1  0.087500  0.023800  0.575800  1.0  -0.9739
  O  O206  1  0.057600  0.141100  0.559000  1.0  -1.0012
  O  O207  1  0.715200  0.141800  0.836800  1.0  -0.7545
  O  O208  1  0.697400  0.035500  0.830000  1.0  -0.6509
  O  O209  1  0.498600  0.895200  0.095700  1.0  -0.8279
  O  O210  1  0.334800  0.811100  0.042600  1.0  -1.0071
  O  O211  1  0.775900  0.804000  0.933700  1.0  -0.7515
  O  O212  1  0.408500  0.936700  0.973400  1.0  -0.9652
  O  O213  1  0.587500  0.976200  0.924200  1.0  -0.9736
  O  O214  1  0.557600  0.858900  0.941000  1.0  -1.0018
  O  O215  1  0.215200  0.858200  0.663200  1.0  -0.7546
  O  O216  1  0.197400  0.964500  0.670000  1.0  -0.652
  O  O217  1  0.001400  0.604800  0.595700  1.0  -0.8277
  O  O218  1  0.165200  0.688900  0.542600  1.0  -1.0054
  O  O219  1  0.724100  0.696000  0.433700  1.0  -0.751
  O  O220  1  0.091500  0.563300  0.473400  1.0  -0.9675
  O  O221  1  0.912500  0.523800  0.424200  1.0  -0.9755
  O  O222  1  0.942400  0.641100  0.441000  1.0  -1.0029
  O  O223  1  0.284800  0.641800  0.163200  1.0  -0.7536
  O  O224  1  0.302600  0.535500  0.170000  1.0  -0.653
  O  O225  1  0.501400  0.395200  0.904300  1.0  -0.8269
  O  O226  1  0.665200  0.311100  0.957400  1.0  -1.0059
  O  O227  1  0.224100  0.304000  0.066300  1.0  -0.7516
  O  O228  1  0.591500  0.436700  0.026600  1.0  -0.966
  O  O229  1  0.412500  0.476200  0.075800  1.0  -0.9755
  O  O230  1  0.442400  0.358900  0.059000  1.0  -1.0028
  O  O231  1  0.784800  0.358200  0.336800  1.0  -0.7527
  O  O232  1  0.802600  0.464500  0.330000  1.0  -0.6538
  O  O233  1  0.892500  0.750000  0.520800  1.0  -0.801
  O  O234  1  0.102100  0.750000  0.450200  1.0  -0.8554
  O  O235  1  0.392500  0.250000  0.979200  1.0  -0.8007
  O  O236  1  0.602100  0.250000  0.049800  1.0  -0.8552
  O  O237  1  0.107500  0.250000  0.479200  1.0  -0.8002
  O  O238  1  0.897900  0.250000  0.549800  1.0  -0.8562
  O  O239  1  0.607500  0.750000  0.020800  1.0  -0.8008
  O  O240  1  0.397900  0.750000  0.950200  1.0  -0.8562
