# generated using pymatgen
data_Cd3H22(C7O2)6
_symmetry_space_group_name_H-M   'P 1'
_cell_length_a   7.14220000
_cell_length_b   21.21100000
_cell_length_c   22.18100000
_cell_angle_alpha   62.41200000
_cell_angle_beta   81.39200000
_cell_angle_gamma   89.53800000
_symmetry_Int_Tables_number   1
_chemical_formula_structural   Cd3H22(C7O2)6
_chemical_formula_sum   'Cd6 H44 C84 O24'
_cell_volume   2937.45987086
_cell_formula_units_Z   2
loop_
 _symmetry_equiv_pos_site_id
 _symmetry_equiv_pos_as_xyz
  1  'x, y, z'
loop_
 _atom_site_type_symbol
 _atom_site_label
 _atom_site_symmetry_multiplicity
 _atom_site_fract_x
 _atom_site_fract_y
 _atom_site_fract_z
 _atom_site_occupancy
 _atom_site_charge
  Cd  Cd1  1  0.165050  0.690500  0.569250  1.0  1.1211
  Cd  Cd2  1  0.663590  0.746600  0.569650  1.0  1.1332
  Cd  Cd3  1  0.258740  0.907290  0.015830  1.0  1.0199
  Cd  Cd4  1  0.834950  0.309500  0.430750  1.0  1.1256
  Cd  Cd5  1  0.336410  0.253400  0.430350  1.0  1.1332
  Cd  Cd6  1  0.741260  0.092710  0.984170  1.0  1.0218
  H  H7  1  0.893600  0.908900  0.911100  1.0  0.1082
  H  H8  1  0.133100  0.915600  0.825400  1.0  0.1203
  H  H9  1  0.738400  0.871700  0.734000  1.0  0.1167
  H  H10  1  0.502300  0.874700  0.819800  1.0  0.0981
  H  H11  1  0.999000  0.805500  0.715700  1.0  0.1075
  H  H12  1  0.486000  0.886900  0.584600  1.0  0.0995
  H  H13  1  0.278400  0.971800  0.705100  1.0  0.1096
  H  H14  1  0.419900  0.076000  0.605400  1.0  0.1094
  H  H15  1  0.667700  0.162400  0.560700  1.0  0.1137
  H  H16  1  0.027300  0.019100  0.552200  1.0  0.1069
  H  H17  1  0.778400  0.934100  0.594100  1.0  0.0985
  H  H18  1  0.470300  0.565600  0.452500  1.0  0.0953
  H  H19  1  0.715900  0.524100  0.403800  1.0  0.1091
  H  H20  1  0.085600  0.659600  0.413400  1.0  0.1092
  H  H21  1  0.837800  0.702200  0.460300  1.0  0.0976
  H  H22  1  0.012500  0.460800  0.412100  1.0  0.0995
  H  H23  1  0.506600  0.512500  0.283200  1.0  0.1106
  H  H24  1  0.212800  0.666100  0.305000  1.0  0.1143
  H  H25  1  0.366000  0.730400  0.190200  1.0  0.1115
  H  H26  1  0.760100  0.588400  0.264300  1.0  0.112
  H  H27  1  0.998500  0.673000  0.195000  1.0  0.1052
  H  H28  1  0.608800  0.817400  0.115800  1.0  0.1029
  H  H29  1  0.106400  0.091100  0.088900  1.0  0.1084
  H  H30  1  0.866900  0.084400  0.174600  1.0  0.1199
  H  H31  1  0.261600  0.128300  0.266000  1.0  0.1166
  H  H32  1  0.497700  0.125300  0.180200  1.0  0.0977
  H  H33  1  0.001000  0.194500  0.284300  1.0  0.1082
  H  H34  1  0.514000  0.113100  0.415400  1.0  0.0994
  H  H35  1  0.721600  0.028200  0.294900  1.0  0.1095
  H  H36  1  0.580100  0.924000  0.394600  1.0  0.1089
  H  H37  1  0.332300  0.837600  0.439300  1.0  0.1137
  H  H38  1  0.972700  0.980900  0.447800  1.0  0.1071
  H  H39  1  0.221600  0.065900  0.405900  1.0  0.0986
  H  H40  1  0.529700  0.434400  0.547500  1.0  0.0952
  H  H41  1  0.284100  0.475900  0.596200  1.0  0.1093
  H  H42  1  0.914400  0.340400  0.586600  1.0  0.1102
  H  H43  1  0.162200  0.297800  0.539700  1.0  0.0979
  H  H44  1  0.987500  0.539200  0.587900  1.0  0.0997
  H  H45  1  0.493400  0.487500  0.716800  1.0  0.1111
  H  H46  1  0.787200  0.333900  0.695000  1.0  0.1154
  H  H47  1  0.634000  0.269600  0.809800  1.0  0.111
  H  H48  1  0.239900  0.411600  0.735700  1.0  0.1125
  H  H49  1  0.001500  0.327000  0.805000  1.0  0.1056
  H  H50  1  0.391200  0.182600  0.884200  1.0  0.1026
  C  C51  1  0.526400  0.897600  0.923600  1.0  0.6637
  C  C52  1  0.679100  0.897500  0.868200  1.0  -0.1248
  C  C53  1  0.863900  0.904900  0.873500  1.0  -0.0494
  C  C54  1  0.007300  0.906400  0.823800  1.0  -0.1148
  C  C55  1  0.961000  0.893900  0.770600  1.0  0.0493
  C  C56  1  0.771400  0.881200  0.768100  1.0  -0.1496
  C  C57  1  0.629800  0.883300  0.819900  1.0  -0.0315
  C  C58  1  0.114600  0.889000  0.718900  1.0  0.0235
  C  C59  1  0.103400  0.838600  0.697000  1.0  -0.073
  C  C60  1  0.243300  0.835100  0.647600  1.0  -0.1558
  C  C61  1  0.393400  0.887200  0.618700  1.0  -0.0721
  C  C62  1  0.410300  0.939200  0.638600  1.0  0.0324
  C  C63  1  0.268300  0.937900  0.689900  1.0  -0.1156
  C  C64  1  0.567600  0.995000  0.605400  1.0  0.0547
  C  C65  1  0.541300  0.064300  0.594100  1.0  -0.1152
  C  C66  1  0.689400  0.116700  0.566800  1.0  -0.0507
  C  C67  1  0.868900  0.100200  0.548600  1.0  -0.151
  C  C68  1  0.904300  0.030800  0.561400  1.0  -0.0542
  C  C69  1  0.755300  0.979800  0.587700  1.0  -0.1105
  C  C70  1  0.025000  0.158600  0.517500  1.0  0.7065
  C  C71  1  0.222700  0.781000  0.625000  1.0  0.7137
  C  C72  1  0.471400  0.667200  0.490200  1.0  0.6846
  C  C73  1  0.628000  0.638300  0.460300  1.0  -0.1655
  C  C74  1  0.593600  0.585100  0.443800  1.0  -0.0034
  C  C75  1  0.740300  0.560400  0.414500  1.0  -0.1315
  C  C76  1  0.927800  0.590200  0.400600  1.0  0.0589
  C  C77  1  0.961900  0.641600  0.419800  1.0  -0.128
  C  C78  1  0.813900  0.666667  0.448600  1.0  -0.0044
  C  C79  1  0.087700  0.566600  0.366000  1.0  0.0343
  C  C80  1  0.106400  0.494800  0.380100  1.0  -0.0682
  C  C81  1  0.256800  0.471600  0.349000  1.0  -0.1168
  C  C82  1  0.399500  0.525500  0.303100  1.0  -0.0776
  C  C83  1  0.386200  0.598000  0.286500  1.0  0.0266
  C  C84  1  0.226200  0.618300  0.317200  1.0  -0.1054
  C  C85  1  0.277100  0.398400  0.367900  1.0  0.7279
  C  C86  1  0.538100  0.652000  0.236400  1.0  0.0552
  C  C87  1  0.492300  0.719500  0.190900  1.0  -0.1284
  C  C88  1  0.731000  0.634400  0.235500  1.0  -0.143
  C  C89  1  0.872800  0.684400  0.192900  1.0  -0.0407
  C  C90  1  0.831200  0.754600  0.144900  1.0  -0.1512
  C  C91  1  0.638800  0.771800  0.145400  1.0  -0.0307
  C  C92  1  0.986100  0.805900  0.096900  1.0  0.6905
  C  C93  1  0.473600  0.102400  0.076400  1.0  0.6648
  C  C94  1  0.320900  0.102500  0.131800  1.0  -0.1244
  C  C95  1  0.136100  0.095100  0.126500  1.0  -0.0512
  C  C96  1  0.992700  0.093600  0.176200  1.0  -0.1154
  C  C97  1  0.039000  0.106100  0.229400  1.0  0.0492
  C  C98  1  0.228600  0.118800  0.231900  1.0  -0.1503
  C  C99  1  0.370200  0.116700  0.180100  1.0  -0.0323
  C  C100  1  0.885400  0.111000  0.281100  1.0  0.0244
  C  C101  1  0.896600  0.161400  0.303000  1.0  -0.0682
  C  C102  1  0.756700  0.164900  0.352400  1.0  -0.1552
  C  C103  1  0.606600  0.112800  0.381300  1.0  -0.0709
  C  C104  1  0.589700  0.060800  0.361400  1.0  0.0328
  C  C105  1  0.731700  0.062100  0.310100  1.0  -0.116
  C  C106  1  0.432400  0.005000  0.394600  1.0  0.0539
  C  C107  1  0.458700  0.935700  0.405900  1.0  -0.1158
  C  C108  1  0.310600  0.883300  0.433200  1.0  -0.0615
  C  C109  1  0.131100  0.899800  0.451400  1.0  -0.1514
  C  C110  1  0.095700  0.969200  0.438600  1.0  -0.054
  C  C111  1  0.244700  0.020200  0.412300  1.0  -0.1094
  C  C112  1  0.975000  0.841400  0.482500  1.0  0.7076
  C  C113  1  0.777300  0.219000  0.375000  1.0  0.7141
  C  C114  1  0.528600  0.332800  0.509800  1.0  0.6844
  C  C115  1  0.372000  0.361700  0.539700  1.0  -0.1661
  C  C116  1  0.406400  0.414900  0.556200  1.0  -0.0029
  C  C117  1  0.259700  0.439600  0.585500  1.0  -0.1304
  C  C118  1  0.072200  0.409800  0.599400  1.0  0.0584
  C  C119  1  0.038100  0.358400  0.580200  1.0  -0.1285
  C  C120  1  0.186100  0.333400  0.551400  1.0  -0.0089
  C  C121  1  0.912300  0.433400  0.634000  1.0  0.0355
  C  C122  1  0.893600  0.505200  0.619900  1.0  -0.0701
  C  C123  1  0.743200  0.528400  0.651000  1.0  -0.1146
  C  C124  1  0.600500  0.474500  0.696900  1.0  -0.0789
  C  C125  1  0.613800  0.402000  0.713500  1.0  0.0274
  C  C126  1  0.773800  0.381700  0.682800  1.0  -0.1038
  C  C127  1  0.722900  0.601600  0.632100  1.0  0.7265
  C  C128  1  0.461900  0.348000  0.763600  1.0  0.0544
  C  C129  1  0.507700  0.280500  0.809100  1.0  -0.1275
  C  C130  1  0.269000  0.365600  0.764500  1.0  -0.1422
  C  C131  1  0.127200  0.315600  0.807100  1.0  -0.0403
  C  C132  1  0.168800  0.245400  0.855100  1.0  -0.1532
  C  C133  1  0.361200  0.228200  0.854600  1.0  -0.0297
  C  C134  1  0.013900  0.194100  0.903100  1.0  0.6895
  O  O135  1  0.567200  0.919200  0.966200  1.0  -0.601
  O  O136  1  0.357900  0.881300  0.924200  1.0  -0.5849
  O  O137  1  0.067200  0.745600  0.639900  1.0  -0.6161
  O  O138  1  0.355200  0.771600  0.588500  1.0  -0.6764
  O  O139  1  0.003900  0.212500  0.522700  1.0  -0.6519
  O  O140  1  0.169100  0.154400  0.479800  1.0  -0.6183
  O  O141  1  0.306400  0.636500  0.506700  1.0  -0.5896
  O  O142  1  0.507700  0.717700  0.501800  1.0  -0.6679
  O  O143  1  0.136400  0.357900  0.385300  1.0  -0.681
  O  O144  1  0.438700  0.373700  0.370600  1.0  -0.6156
  O  O145  1  0.153700  0.797300  0.104700  1.0  -0.5906
  O  O146  1  0.947000  0.866300  0.051200  1.0  -0.5968
  O  O147  1  0.432800  0.080800  0.033800  1.0  -0.6007
  O  O148  1  0.642100  0.118700  0.075800  1.0  -0.5845
  O  O149  1  0.932800  0.254400  0.360100  1.0  -0.6156
  O  O150  1  0.644800  0.228400  0.411500  1.0  -0.6768
  O  O151  1  0.996100  0.787500  0.477300  1.0  -0.6524
  O  O152  1  0.830900  0.845600  0.520200  1.0  -0.6164
  O  O153  1  0.693600  0.363500  0.493300  1.0  -0.5929
  O  O154  1  0.492300  0.282300  0.498200  1.0  -0.6689
  O  O155  1  0.863600  0.642100  0.614700  1.0  -0.6822
  O  O156  1  0.561300  0.626300  0.629400  1.0  -0.6116
  O  O157  1  0.846300  0.202700  0.895300  1.0  -0.5903
  O  O158  1  0.053000  0.133700  0.948800  1.0  -0.5955
