# generated using pymatgen
data_LuH11C12N3O7
_symmetry_space_group_name_H-M   'P 1'
_cell_length_a   10.06690000
_cell_length_b   10.35620000
_cell_length_c   10.53800000
_cell_angle_alpha   103.15800000
_cell_angle_beta   115.52400000
_cell_angle_gamma   92.54600000
_symmetry_Int_Tables_number   1
_chemical_formula_structural   LuH11C12N3O7
_chemical_formula_sum   'Lu2 H22 C24 N6 O14'
_cell_volume   952.60690390
_cell_formula_units_Z   2
loop_
 _symmetry_equiv_pos_site_id
 _symmetry_equiv_pos_as_xyz
  1  'x, y, z'
loop_
 _atom_site_type_symbol
 _atom_site_label
 _atom_site_symmetry_multiplicity
 _atom_site_fract_x
 _atom_site_fract_y
 _atom_site_fract_z
 _atom_site_occupancy
 _atom_site_charge
  Lu  Lu1  1  0.474930  0.233750  0.003340  1.0  1.7676
  Lu  Lu2  1  0.525070  0.766250  0.996660  1.0  1.7645
  H  H3  1  0.314800  0.993200  0.817700  1.0  0.2631
  H  H4  1  0.470500  0.050800  0.824100  1.0  0.3172
  H  H5  1  0.197800  0.169600  0.153700  1.0  0.0991
  H  H6  1  0.246600  0.600800  0.143600  1.0  0.1095
  H  H7  1  0.913300  0.570800  0.288300  1.0  0.0998
  H  H8  1  0.961100  0.705300  0.782800  1.0  0.3465
  H  H9  1  0.124400  0.753300  0.847900  1.0  0.3192
  H  H10  1  0.837900  0.200400  0.748800  1.0  0.3212
  H  H11  1  0.999700  0.196100  0.796500  1.0  0.3438
  H  H12  1  0.739100  0.260800  0.452800  1.0  0.3581
  H  H13  1  0.858900  0.274500  0.603100  1.0  0.2862
  H  H14  1  0.685200  0.006800  0.182300  1.0  0.2631
  H  H15  1  0.529500  0.949200  0.175900  1.0  0.3154
  H  H16  1  0.802200  0.830400  0.846300  1.0  0.0983
  H  H17  1  0.753400  0.399200  0.856400  1.0  0.1085
  H  H18  1  0.086700  0.429200  0.711700  1.0  0.0993
  H  H19  1  0.038900  0.294700  0.217200  1.0  0.3471
  H  H20  1  0.875600  0.246700  0.152100  1.0  0.3196
  H  H21  1  0.162100  0.799600  0.251200  1.0  0.3242
  H  H22  1  0.000300  0.803900  0.203500  1.0  0.3423
  H  H23  1  0.260900  0.739200  0.547200  1.0  0.3591
  H  H24  1  0.141100  0.725500  0.396900  1.0  0.2837
  C  C25  1  0.116300  0.432600  0.999600  1.0  -0.1364
  C  C26  1  0.717400  0.374800  0.248100  1.0  0.6001
  C  C27  1  0.296300  0.977600  0.035600  1.0  0.611
  C  C28  1  0.117900  0.101100  0.090800  1.0  -0.1648
  C  C29  1  0.143400  0.990100  0.016900  1.0  -0.0663
  C  C30  1  0.966600  0.374200  0.903500  1.0  0.12
  C  C31  1  0.863800  0.440800  0.381000  1.0  -0.1464
  C  C32  1  0.147900  0.558500  0.088000  1.0  -0.1257
  C  C33  1  0.022600  0.881600  0.922500  1.0  0.1724
  C  C34  1  0.947500  0.541400  0.372300  1.0  -0.1193
  C  C35  1  0.912700  0.398900  0.507500  1.0  0.1675
  C  C36  1  0.237000  0.360400  0.993000  1.0  0.5845
  C  C37  1  0.883700  0.567400  0.000400  1.0  -0.1376
  C  C38  1  0.282600  0.625200  0.751900  1.0  0.6023
  C  C39  1  0.703700  0.022400  0.964400  1.0  0.6123
  C  C40  1  0.882100  0.898900  0.909200  1.0  -0.1607
  C  C41  1  0.856600  0.009900  0.983100  1.0  -0.0597
  C  C42  1  0.033400  0.625800  0.096500  1.0  0.1171
  C  C43  1  0.136200  0.559200  0.619000  1.0  -0.144
  C  C44  1  0.852100  0.441500  0.912000  1.0  -0.1211
  C  C45  1  0.977400  0.118400  0.077500  1.0  0.1724
  C  C46  1  0.052500  0.458600  0.627700  1.0  -0.1208
  C  C47  1  0.087300  0.601100  0.492500  1.0  0.1678
  C  C48  1  0.763000  0.639600  0.007000  1.0  0.5836
  N  N49  1  0.037900  0.765800  0.841000  1.0  -0.5929
  N  N50  1  0.930000  0.238000  0.802000  1.0  -0.5831
  N  N51  1  0.825500  0.298200  0.523200  1.0  -0.6583
  N  N52  1  0.962100  0.234200  0.159000  1.0  -0.5928
  N  N53  1  0.070000  0.762000  0.198000  1.0  -0.5847
  N  N54  1  0.174500  0.701800  0.476800  1.0  -0.6588
  O  O55  1  0.372400  0.402600  0.098000  1.0  -0.6486
  O  O56  1  0.678800  0.412300  0.137800  1.0  -0.6039
  O  O57  1  0.394200  0.088500  0.086400  1.0  -0.5735
  O  O58  1  0.223200  0.261400  0.898300  1.0  -0.6053
  O  O59  1  0.330400  0.863200  0.000900  1.0  -0.5915
  O  O60  1  0.637900  0.275500  0.250600  1.0  -0.6354
  O  O61  1  0.361900  0.058100  0.785600  1.0  -0.6385
  O  O62  1  0.627600  0.597400  0.902000  1.0  -0.6451
  O  O63  1  0.321200  0.587700  0.862200  1.0  -0.6046
  O  O64  1  0.605800  0.911500  0.913600  1.0  -0.5734
  O  O65  1  0.776800  0.738600  0.101700  1.0  -0.6037
  O  O66  1  0.669600  0.136800  0.999100  1.0  -0.5922
  O  O67  1  0.362100  0.724500  0.749400  1.0  -0.636
  O  O68  1  0.638100  0.941900  0.214400  1.0  -0.6419
