# generated using pymatgen
data_CeH3(C3O2)3
_symmetry_space_group_name_H-M   'P 1'
_cell_length_a   10.69940000
_cell_length_b   12.19610000
_cell_length_c   13.67730000
_cell_angle_alpha   90.00000000
_cell_angle_beta   90.00000000
_cell_angle_gamma   101.57400000
_symmetry_Int_Tables_number   1
_chemical_formula_structural   CeH3(C3O2)3
_chemical_formula_sum   'Ce4 H12 C36 O24'
_cell_volume   1748.47321824
_cell_formula_units_Z   4
loop_
 _symmetry_equiv_pos_site_id
 _symmetry_equiv_pos_as_xyz
  1  'x, y, z'
loop_
 _atom_site_type_symbol
 _atom_site_label
 _atom_site_symmetry_multiplicity
 _atom_site_fract_x
 _atom_site_fract_y
 _atom_site_fract_z
 _atom_site_occupancy
 _atom_site_charge
  Ce  Ce1  1  0.376940  0.604340  0.963910  1.0  2.2131
  Ce  Ce2  1  0.123060  0.895660  0.463910  1.0  2.2107
  Ce  Ce3  1  0.623060  0.395660  0.036090  1.0  2.2109
  Ce  Ce4  1  0.876940  0.104340  0.536090  1.0  2.2142
  H  H5  1  0.071500  0.390400  0.069100  1.0  0.1037
  H  H6  1  0.879000  0.173600  0.262200  1.0  0.0969
  H  H7  1  0.243300  0.166600  0.198200  1.0  0.1108
  H  H8  1  0.428500  0.109600  0.569100  1.0  0.1039
  H  H9  1  0.621000  0.326400  0.762200  1.0  0.0955
  H  H10  1  0.256700  0.333400  0.698200  1.0  0.1098
  H  H11  1  0.928500  0.609600  0.930900  1.0  0.1036
  H  H12  1  0.121000  0.826400  0.737800  1.0  0.0961
  H  H13  1  0.756700  0.833400  0.801800  1.0  0.1098
  H  H14  1  0.571500  0.890400  0.430900  1.0  0.1031
  H  H15  1  0.379000  0.673600  0.237800  1.0  0.0968
  H  H16  1  0.743300  0.666667  0.301800  1.0  0.1106
  C  C17  1  0.300700  0.341600  0.076000  1.0  0.7886
  C  C18  1  0.178200  0.286700  0.127600  1.0  -0.1778
  C  C19  1  0.068700  0.330500  0.111800  1.0  0.0142
  C  C20  1  0.955200  0.284700  0.159700  1.0  -0.1278
  C  C21  1  0.953100  0.200600  0.227000  1.0  -0.0019
  C  C22  1  0.061200  0.155400  0.242900  1.0  -0.1721
  C  C23  1  0.172000  0.198600  0.190300  1.0  0.0276
  C  C24  1  0.060700  0.063200  0.315400  1.0  0.7685
  C  C25  1  0.838600  0.331000  0.134200  1.0  0.6775
  C  C26  1  0.199300  0.158400  0.576000  1.0  0.7738
  C  C27  1  0.321800  0.213300  0.627600  1.0  -0.1777
  C  C28  1  0.431300  0.169500  0.611800  1.0  0.015
  C  C29  1  0.544800  0.215300  0.659700  1.0  -0.1351
  C  C30  1  0.546900  0.299400  0.727000  1.0  -0.0031
  C  C31  1  0.438800  0.344600  0.742900  1.0  -0.1717
  C  C32  1  0.328000  0.301400  0.690300  1.0  0.0259
  C  C33  1  0.439300  0.436800  0.815400  1.0  0.7671
  C  C34  1  0.661400  0.169000  0.634200  1.0  0.6783
  C  C35  1  0.699300  0.658400  0.924000  1.0  0.7736
  C  C36  1  0.821800  0.713300  0.872400  1.0  -0.1775
  C  C37  1  0.931300  0.669500  0.888200  1.0  0.0152
  C  C38  1  0.044800  0.715300  0.840300  1.0  -0.1362
  C  C39  1  0.046900  0.799400  0.773000  1.0  -0.0025
  C  C40  1  0.938800  0.844600  0.757100  1.0  -0.1717
  C  C41  1  0.828000  0.801400  0.809700  1.0  0.0257
  C  C42  1  0.939300  0.936800  0.684600  1.0  0.7664
  C  C43  1  0.161400  0.669000  0.865800  1.0  0.6757
  C  C44  1  0.800700  0.841600  0.424000  1.0  0.7886
  C  C45  1  0.678200  0.786700  0.372400  1.0  -0.178
  C  C46  1  0.568700  0.830500  0.388200  1.0  0.0139
  C  C47  1  0.455200  0.784700  0.340300  1.0  -0.1339
  C  C48  1  0.453100  0.700600  0.273000  1.0  -0.0033
  C  C49  1  0.561200  0.655400  0.257100  1.0  -0.1723
  C  C50  1  0.672000  0.698600  0.309700  1.0  0.038
  C  C51  1  0.560700  0.563200  0.184600  1.0  0.7687
  C  C52  1  0.338600  0.831000  0.365800  1.0  0.6751
  O  O53  1  0.289600  0.411700  0.011000  1.0  -0.7277
  O  O54  1  0.402200  0.313300  0.099900  1.0  -0.7077
  O  O55  1  0.852200  0.427700  0.100900  1.0  -0.6407
  O  O56  1  0.728900  0.267100  0.142800  1.0  -0.7205
  O  O57  1  0.988400  0.058500  0.390000  1.0  -0.8789
  O  O58  1  0.133500  0.997600  0.302700  1.0  -0.6351
  O  O59  1  0.210400  0.088300  0.511000  1.0  -0.7165
  O  O60  1  0.097800  0.186700  0.599900  1.0  -0.7081
  O  O61  1  0.647800  0.072300  0.600900  1.0  -0.6439
  O  O62  1  0.771100  0.232900  0.642800  1.0  -0.7224
  O  O63  1  0.511600  0.441500  0.890000  1.0  -0.8878
  O  O64  1  0.366500  0.502400  0.802700  1.0  -0.6266
  O  O65  1  0.710400  0.588300  0.989000  1.0  -0.7158
  O  O66  1  0.597800  0.686700  0.900100  1.0  -0.7065
  O  O67  1  0.147800  0.572300  0.899100  1.0  -0.6442
  O  O68  1  0.271100  0.732900  0.857200  1.0  -0.7221
  O  O69  1  0.011600  0.941500  0.610000  1.0  -0.8881
  O  O70  1  0.866500  0.002400  0.697300  1.0  -0.6253
  O  O71  1  0.789600  0.911700  0.489000  1.0  -0.7266
  O  O72  1  0.902200  0.813300  0.400100  1.0  -0.7079
  O  O73  1  0.352200  0.927700  0.399100  1.0  -0.6433
  O  O74  1  0.228900  0.767100  0.357200  1.0  -0.7201
  O  O75  1  0.488400  0.558500  0.110000  1.0  -0.8789
  O  O76  1  0.633500  0.497600  0.197300  1.0  -0.63
