# generated using pymatgen
data_In2FeH52C100(NO4)4
_symmetry_space_group_name_H-M   'P 1'
_cell_length_a   23.48970000
_cell_length_b   23.48950000
_cell_length_c   31.96450000
_cell_angle_alpha   90.00000000
_cell_angle_beta   90.00000000
_cell_angle_gamma   90.00000000
_symmetry_Int_Tables_number   1
_chemical_formula_structural   In2FeH52C100(NO4)4
_chemical_formula_sum   'In4 Fe2 H104 C200 N8 O32'
_cell_volume   17636.77433436
_cell_formula_units_Z   2
loop_
 _symmetry_equiv_pos_site_id
 _symmetry_equiv_pos_as_xyz
  1  'x, y, z'
loop_
 _atom_site_type_symbol
 _atom_site_label
 _atom_site_symmetry_multiplicity
 _atom_site_fract_x
 _atom_site_fract_y
 _atom_site_fract_z
 _atom_site_occupancy
 _atom_site_charge
  In  In1  1  0.500000  0.000000  0.750020  1.0  1.415
  In  In2  1  0.000000  0.500000  0.749980  1.0  1.4144
  In  In3  1  0.500000  0.000000  0.249980  1.0  1.4148
  In  In4  1  0.000000  0.500000  0.250020  1.0  1.4145
  Fe  Fe5  1  0.500000  0.500000  0.500000  1.0  0.7996
  Fe  Fe6  1  0.000000  0.000000  0.000000  1.0  0.7996
  H  H7  1  0.428000  0.188700  0.759900  1.0  0.1065
  H  H8  1  0.320100  0.320300  0.694100  1.0  0.0929
  H  H9  1  0.329300  0.450500  0.614300  1.0  0.117
  H  H10  1  0.190600  0.429600  0.760900  1.0  0.1112
  H  H11  1  0.393600  0.276300  0.734100  1.0  0.1076
  H  H12  1  0.274900  0.392200  0.735000  1.0  0.1085
  H  H13  1  0.463600  0.139700  0.642900  1.0  0.108
  H  H14  1  0.436400  0.228100  0.618300  1.0  0.1076
  H  H15  1  0.451300  0.329000  0.614700  1.0  0.1193
  H  H16  1  0.226700  0.437100  0.618000  1.0  0.1073
  H  H17  1  0.351600  0.351500  0.538000  1.0  0.1043
  H  H18  1  0.140800  0.467000  0.643500  1.0  0.1049
  H  H19  1  0.462700  0.463200  0.654500  1.0  0.1184
  H  H20  1  0.572000  0.811300  0.759900  1.0  0.1061
  H  H21  1  0.679900  0.679700  0.694100  1.0  0.0951
  H  H22  1  0.670700  0.549500  0.614300  1.0  0.1178
  H  H23  1  0.809400  0.570400  0.760900  1.0  0.1104
  H  H24  1  0.606400  0.723700  0.734100  1.0  0.1082
  H  H25  1  0.725100  0.607800  0.735000  1.0  0.1081
  H  H26  1  0.536400  0.860300  0.642900  1.0  0.1081
  H  H27  1  0.563600  0.771900  0.618300  1.0  0.1081
  H  H28  1  0.548700  0.671000  0.614700  1.0  0.12
  H  H29  1  0.773300  0.562900  0.618000  1.0  0.1086
  H  H30  1  0.648400  0.648500  0.538000  1.0  0.1047
  H  H31  1  0.859200  0.533000  0.643500  1.0  0.1055
  H  H32  1  0.537300  0.536800  0.654500  1.0  0.1188
  H  H33  1  0.072000  0.688700  0.740100  1.0  0.1053
  H  H34  1  0.179900  0.820300  0.805900  1.0  0.0924
  H  H35  1  0.170700  0.950500  0.885700  1.0  0.1163
  H  H36  1  0.309400  0.929600  0.739100  1.0  0.1092
  H  H37  1  0.106400  0.776300  0.765900  1.0  0.1062
  H  H38  1  0.225100  0.892200  0.765000  1.0  0.108
  H  H39  1  0.036400  0.639700  0.857100  1.0  0.1081
  H  H40  1  0.063600  0.728100  0.881700  1.0  0.1075
  H  H41  1  0.048700  0.829000  0.885300  1.0  0.1196
  H  H42  1  0.273300  0.937100  0.882000  1.0  0.1079
  H  H43  1  0.148400  0.851500  0.962000  1.0  0.1048
  H  H44  1  0.359200  0.967000  0.856500  1.0  0.1054
  H  H45  1  0.037300  0.963200  0.845500  1.0  0.1187
  H  H46  1  0.928000  0.311300  0.740100  1.0  0.1061
  H  H47  1  0.820100  0.179700  0.805900  1.0  0.0919
  H  H48  1  0.829300  0.049500  0.885700  1.0  0.1172
  H  H49  1  0.690600  0.070400  0.739100  1.0  0.1095
  H  H50  1  0.893600  0.223700  0.765900  1.0  0.1062
  H  H51  1  0.774900  0.107800  0.765000  1.0  0.1078
  H  H52  1  0.963600  0.360300  0.857100  1.0  0.1079
  H  H53  1  0.936400  0.271900  0.881700  1.0  0.1076
  H  H54  1  0.951300  0.171000  0.885300  1.0  0.1193
  H  H55  1  0.726700  0.062900  0.882000  1.0  0.1082
  H  H56  1  0.851600  0.148500  0.962000  1.0  0.105
  H  H57  1  0.640800  0.033000  0.856500  1.0  0.1058
  H  H58  1  0.962700  0.036800  0.845500  1.0  0.1185
  H  H59  1  0.572000  0.811300  0.240100  1.0  0.106
  H  H60  1  0.679900  0.679700  0.305900  1.0  0.0949
  H  H61  1  0.670700  0.549500  0.385700  1.0  0.1182
  H  H62  1  0.809400  0.570400  0.239100  1.0  0.1097
  H  H63  1  0.606400  0.723700  0.265900  1.0  0.1067
  H  H64  1  0.725100  0.607800  0.265000  1.0  0.1071
  H  H65  1  0.536400  0.860300  0.357100  1.0  0.1079
  H  H66  1  0.563600  0.771900  0.381700  1.0  0.1077
  H  H67  1  0.548700  0.671000  0.385300  1.0  0.1201
  H  H68  1  0.773300  0.562900  0.382000  1.0  0.1075
  H  H69  1  0.648400  0.648500  0.462000  1.0  0.1049
  H  H70  1  0.859200  0.533000  0.356500  1.0  0.1057
  H  H71  1  0.537300  0.536800  0.345500  1.0  0.1185
  H  H72  1  0.428000  0.188700  0.240100  1.0  0.1058
  H  H73  1  0.320100  0.320300  0.305900  1.0  0.092
  H  H74  1  0.329300  0.450500  0.385700  1.0  0.1171
  H  H75  1  0.190600  0.429600  0.239100  1.0  0.1105
  H  H76  1  0.393600  0.276300  0.265900  1.0  0.1068
  H  H77  1  0.274900  0.392200  0.265000  1.0  0.1075
  H  H78  1  0.463600  0.139700  0.357100  1.0  0.1081
  H  H79  1  0.436400  0.228100  0.381700  1.0  0.1072
  H  H80  1  0.451300  0.329000  0.385300  1.0  0.1198
  H  H81  1  0.226700  0.437100  0.382000  1.0  0.1073
  H  H82  1  0.351600  0.351500  0.462000  1.0  0.1042
  H  H83  1  0.140800  0.467000  0.356500  1.0  0.1053
  H  H84  1  0.462700  0.463200  0.345500  1.0  0.1184
  H  H85  1  0.928000  0.311300  0.259900  1.0  0.1062
  H  H86  1  0.820100  0.179700  0.194100  1.0  0.0924
  H  H87  1  0.829300  0.049500  0.114300  1.0  0.1166
  H  H88  1  0.690600  0.070400  0.260900  1.0  0.1099
  H  H89  1  0.893600  0.223700  0.234100  1.0  0.1075
  H  H90  1  0.774900  0.107800  0.235000  1.0  0.1086
  H  H91  1  0.963600  0.360300  0.142900  1.0  0.1082
  H  H92  1  0.936400  0.271900  0.118300  1.0  0.108
  H  H93  1  0.951300  0.171000  0.114700  1.0  0.1192
  H  H94  1  0.726700  0.062900  0.118000  1.0  0.1077
  H  H95  1  0.851600  0.148500  0.038000  1.0  0.105
  H  H96  1  0.640800  0.033000  0.143500  1.0  0.1051
  H  H97  1  0.962700  0.036800  0.154500  1.0  0.1185
  H  H98  1  0.072000  0.688700  0.259900  1.0  0.1055
  H  H99  1  0.179900  0.820300  0.194100  1.0  0.0925
  H  H100  1  0.170700  0.950500  0.114300  1.0  0.1161
  H  H101  1  0.309400  0.929600  0.260900  1.0  0.1101
  H  H102  1  0.106400  0.776300  0.234100  1.0  0.1073
  H  H103  1  0.225100  0.892200  0.235000  1.0  0.1088
  H  H104  1  0.036400  0.639700  0.142900  1.0  0.1077
  H  H105  1  0.063600  0.728100  0.118300  1.0  0.1077
  H  H106  1  0.048700  0.829000  0.114700  1.0  0.1193
  H  H107  1  0.273300  0.937100  0.118000  1.0  0.109
  H  H108  1  0.148400  0.851500  0.038000  1.0  0.1047
  H  H109  1  0.359200  0.967000  0.143500  1.0  0.1056
  H  H110  1  0.037300  0.963200  0.154500  1.0  0.119
  C  C111  1  0.468150  0.098600  0.721000  1.0  0.6457
  C  C112  1  0.426620  0.426440  0.575460  1.0  -0.0175
  C  C113  1  0.449140  0.156380  0.703790  1.0  -0.1387
  C  C114  1  0.410200  0.260700  0.673670  1.0  0.0234
  C  C115  1  0.414430  0.414800  0.535140  1.0  0.1937
  C  C116  1  0.428600  0.196200  0.731310  1.0  -0.0459
  C  C117  1  0.260510  0.410200  0.673620  1.0  0.0464
  C  C118  1  0.388330  0.315480  0.657200  1.0  0.0125
  C  C119  1  0.395330  0.394910  0.609910  1.0  0.0291
  C  C120  1  0.315430  0.387800  0.656860  1.0  0.0275
  C  C121  1  0.338760  0.338800  0.672280  1.0  -0.1094
  C  C122  1  0.344080  0.416920  0.625150  1.0  -0.0832
  C  C123  1  0.197500  0.429000  0.732250  1.0  -0.0842
  C  C124  1  0.467180  0.467600  0.589270  1.0  0.1715
  C  C125  1  0.408300  0.249300  0.715680  1.0  -0.1249
  C  C126  1  0.248400  0.407900  0.716700  1.0  -0.1264
  C  C127  1  0.450700  0.167400  0.661410  1.0  -0.0787
  C  C128  1  0.433000  0.219800  0.646660  1.0  -0.1306
  C  C129  1  0.417580  0.343790  0.625410  1.0  -0.0885
  C  C130  1  0.219000  0.434000  0.646440  1.0  -0.1265
  C  C131  1  0.374300  0.374400  0.521010  1.0  -0.1473
  C  C132  1  0.168000  0.452400  0.661730  1.0  -0.0709
  C  C133  1  0.479500  0.479800  0.631170  1.0  -0.1628
  C  C134  1  0.098000  0.468300  0.720700  1.0  0.6667
  C  C135  1  0.156440  0.449300  0.703810  1.0  -0.141
  C  C136  1  0.531850  0.901400  0.721000  1.0  0.6449
  C  C137  1  0.573380  0.573560  0.575460  1.0  -0.0184
  C  C138  1  0.550860  0.843620  0.703790  1.0  -0.1395
  C  C139  1  0.589800  0.739300  0.673670  1.0  0.023
  C  C140  1  0.585570  0.585200  0.535140  1.0  0.1932
  C  C141  1  0.571400  0.803800  0.731310  1.0  -0.0457
  C  C142  1  0.739490  0.589800  0.673620  1.0  0.0463
  C  C143  1  0.611670  0.684520  0.657200  1.0  0.0129
  C  C144  1  0.604670  0.605090  0.609910  1.0  0.0292
  C  C145  1  0.684570  0.612200  0.656860  1.0  0.0292
  C  C146  1  0.661240  0.661200  0.672280  1.0  -0.1122
  C  C147  1  0.655920  0.583080  0.625150  1.0  -0.0817
  C  C148  1  0.802500  0.571000  0.732250  1.0  -0.0841
  C  C149  1  0.532820  0.532400  0.589270  1.0  0.1718
  C  C150  1  0.591700  0.750700  0.715680  1.0  -0.1249
  C  C151  1  0.751600  0.592100  0.716700  1.0  -0.1271
  C  C152  1  0.549300  0.832600  0.661410  1.0  -0.0777
  C  C153  1  0.567000  0.780200  0.646660  1.0  -0.1302
  C  C154  1  0.582420  0.656210  0.625410  1.0  -0.0887
  C  C155  1  0.781000  0.566000  0.646440  1.0  -0.1254
  C  C156  1  0.625700  0.625600  0.521010  1.0  -0.1478
  C  C157  1  0.832000  0.547600  0.661730  1.0  -0.0716
  C  C158  1  0.520500  0.520200  0.631170  1.0  -0.1616
  C  C159  1  0.902000  0.531700  0.720700  1.0  0.6651
  C  C160  1  0.843560  0.550700  0.703810  1.0  -0.1404
  C  C161  1  0.031850  0.598600  0.779000  1.0  0.6458
  C  C162  1  0.073380  0.926440  0.924540  1.0  -0.0177
  C  C163  1  0.050860  0.656380  0.796210  1.0  -0.1392
  C  C164  1  0.089800  0.760700  0.826330  1.0  0.0232
  C  C165  1  0.085570  0.914800  0.964860  1.0  0.1928
  C  C166  1  0.071400  0.696200  0.768690  1.0  -0.0477
  C  C167  1  0.239490  0.910200  0.826380  1.0  0.046
  C  C168  1  0.111670  0.815480  0.842800  1.0  0.0125
  C  C169  1  0.104670  0.894910  0.890090  1.0  0.0288
  C  C170  1  0.184570  0.887800  0.843140  1.0  0.0291
  C  C171  1  0.161240  0.838800  0.827720  1.0  -0.1107
  C  C172  1  0.155920  0.916920  0.874850  1.0  -0.0824
  C  C173  1  0.302500  0.929000  0.767750  1.0  -0.0845
  C  C174  1  0.032820  0.967600  0.910730  1.0  0.171
  C  C175  1  0.091700  0.749300  0.784320  1.0  -0.1269
  C  C176  1  0.251600  0.907900  0.783300  1.0  -0.1255
  C  C177  1  0.049300  0.667400  0.838590  1.0  -0.0784
  C  C178  1  0.067000  0.719800  0.853340  1.0  -0.131
  C  C179  1  0.082420  0.843790  0.874590  1.0  -0.0881
  C  C180  1  0.281000  0.934000  0.853560  1.0  -0.1258
  C  C181  1  0.125700  0.874400  0.978990  1.0  -0.1466
  C  C182  1  0.332000  0.952400  0.838270  1.0  -0.0706
  C  C183  1  0.020500  0.979800  0.868830  1.0  -0.1602
  C  C184  1  0.402000  0.968300  0.779300  1.0  0.6648
  C  C185  1  0.343560  0.949300  0.796190  1.0  -0.1407
  C  C186  1  0.968150  0.401400  0.779000  1.0  0.6448
  C  C187  1  0.926620  0.073560  0.924540  1.0  -0.0175
  C  C188  1  0.949140  0.343620  0.796210  1.0  -0.1391
  C  C189  1  0.910200  0.239300  0.826330  1.0  0.0233
  C  C190  1  0.914430  0.085200  0.964860  1.0  0.1928
  C  C191  1  0.928600  0.303800  0.768690  1.0  -0.048
  C  C192  1  0.760510  0.089800  0.826380  1.0  0.0468
  C  C193  1  0.888330  0.184520  0.842800  1.0  0.0135
  C  C194  1  0.895330  0.105090  0.890090  1.0  0.0288
  C  C195  1  0.815430  0.112200  0.843140  1.0  0.0274
  C  C196  1  0.838760  0.161200  0.827720  1.0  -0.1081
  C  C197  1  0.844080  0.083080  0.874850  1.0  -0.0825
  C  C198  1  0.697500  0.071000  0.767750  1.0  -0.0838
  C  C199  1  0.967180  0.032400  0.910730  1.0  0.1714
  C  C200  1  0.908300  0.250700  0.784320  1.0  -0.127
  C  C201  1  0.748400  0.092100  0.783300  1.0  -0.1265
  C  C202  1  0.950700  0.332600  0.838590  1.0  -0.0787
  C  C203  1  0.933000  0.280200  0.853340  1.0  -0.1303
  C  C204  1  0.917580  0.156210  0.874590  1.0  -0.089
  C  C205  1  0.719000  0.066000  0.853560  1.0  -0.1273
  C  C206  1  0.874300  0.125600  0.978990  1.0  -0.1487
  C  C207  1  0.668000  0.047600  0.838270  1.0  -0.0702
  C  C208  1  0.979500  0.020200  0.868830  1.0  -0.1607
  C  C209  1  0.598000  0.031700  0.779300  1.0  0.667
  C  C210  1  0.656440  0.050700  0.796190  1.0  -0.1418
  C  C211  1  0.531850  0.901400  0.279000  1.0  0.6448
  C  C212  1  0.573380  0.573560  0.424540  1.0  -0.018
  C  C213  1  0.550860  0.843620  0.296210  1.0  -0.1394
  C  C214  1  0.589800  0.739300  0.326330  1.0  0.0231
  C  C215  1  0.585570  0.585200  0.464860  1.0  0.192
  C  C216  1  0.571400  0.803800  0.268690  1.0  -0.0482
  C  C217  1  0.739490  0.589800  0.326380  1.0  0.0464
  C  C218  1  0.611670  0.684520  0.342800  1.0  0.0133
  C  C219  1  0.604670  0.605090  0.390090  1.0  0.0286
  C  C220  1  0.684570  0.612200  0.343140  1.0  0.0291
  C  C221  1  0.661240  0.661200  0.327720  1.0  -0.1107
  C  C222  1  0.655920  0.583080  0.374850  1.0  -0.0813
  C  C223  1  0.802500  0.571000  0.267750  1.0  -0.0844
  C  C224  1  0.532820  0.532400  0.410730  1.0  0.1721
  C  C225  1  0.591700  0.750700  0.284320  1.0  -0.1269
  C  C226  1  0.751600  0.592100  0.283300  1.0  -0.1258
  C  C227  1  0.549300  0.832600  0.338590  1.0  -0.0799
  C  C228  1  0.567000  0.780200  0.353340  1.0  -0.1306
  C  C229  1  0.582420  0.656210  0.374590  1.0  -0.0885
  C  C230  1  0.781000  0.566000  0.353560  1.0  -0.1261
  C  C231  1  0.625700  0.625600  0.478990  1.0  -0.1472
  C  C232  1  0.832000  0.547600  0.338270  1.0  -0.07
  C  C233  1  0.520500  0.520200  0.368830  1.0  -0.1597
  C  C234  1  0.902000  0.531700  0.279300  1.0  0.6649
  C  C235  1  0.843560  0.550700  0.296190  1.0  -0.1404
  C  C236  1  0.468150  0.098600  0.279000  1.0  0.6456
  C  C237  1  0.426620  0.426440  0.424540  1.0  -0.0172
  C  C238  1  0.449140  0.156380  0.296210  1.0  -0.1388
  C  C239  1  0.410200  0.260700  0.326330  1.0  0.0235
  C  C240  1  0.414430  0.414800  0.464860  1.0  0.1923
  C  C241  1  0.428600  0.196200  0.268690  1.0  -0.0474
  C  C242  1  0.260510  0.410200  0.326380  1.0  0.0465
  C  C243  1  0.388330  0.315480  0.342800  1.0  0.0127
  C  C244  1  0.395330  0.394910  0.390090  1.0  0.0289
  C  C245  1  0.315430  0.387800  0.343140  1.0  0.0275
  C  C246  1  0.338760  0.338800  0.327720  1.0  -0.1084
  C  C247  1  0.344080  0.416920  0.374850  1.0  -0.0833
  C  C248  1  0.197500  0.429000  0.267750  1.0  -0.0838
  C  C249  1  0.467180  0.467600  0.410730  1.0  0.1704
  C  C250  1  0.408300  0.249300  0.284320  1.0  -0.1268
  C  C251  1  0.248400  0.407900  0.283300  1.0  -0.1263
  C  C252  1  0.450700  0.167400  0.338590  1.0  -0.078
  C  C253  1  0.433000  0.219800  0.353340  1.0  -0.1311
  C  C254  1  0.417580  0.343790  0.374590  1.0  -0.0883
  C  C255  1  0.219000  0.434000  0.353560  1.0  -0.127
  C  C256  1  0.374300  0.374400  0.478990  1.0  -0.1476
  C  C257  1  0.168000  0.452400  0.338270  1.0  -0.0713
  C  C258  1  0.479500  0.479800  0.368830  1.0  -0.161
  C  C259  1  0.098000  0.468300  0.279300  1.0  0.6666
  C  C260  1  0.156440  0.449300  0.296190  1.0  -0.1416
  C  C261  1  0.968150  0.401400  0.221000  1.0  0.6449
  C  C262  1  0.926620  0.073560  0.075460  1.0  -0.0179
  C  C263  1  0.949140  0.343620  0.203790  1.0  -0.1393
  C  C264  1  0.910200  0.239300  0.173670  1.0  0.0231
  C  C265  1  0.914430  0.085200  0.035140  1.0  0.1924
  C  C266  1  0.928600  0.303800  0.231310  1.0  -0.0458
  C  C267  1  0.760510  0.089800  0.173620  1.0  0.0468
  C  C268  1  0.888330  0.184520  0.157200  1.0  0.0131
  C  C269  1  0.895330  0.105090  0.109910  1.0  0.0291
  C  C270  1  0.815430  0.112200  0.156860  1.0  0.0274
  C  C271  1  0.838760  0.161200  0.172280  1.0  -0.1098
  C  C272  1  0.844080  0.083080  0.125150  1.0  -0.0826
  C  C273  1  0.697500  0.071000  0.232250  1.0  -0.0842
  C  C274  1  0.967180  0.032400  0.089270  1.0  0.1722
  C  C275  1  0.908300  0.250700  0.215680  1.0  -0.1255
  C  C276  1  0.748400  0.092100  0.216700  1.0  -0.1266
  C  C277  1  0.950700  0.332600  0.161410  1.0  -0.0788
  C  C278  1  0.933000  0.280200  0.146660  1.0  -0.1306
  C  C279  1  0.917580  0.156210  0.125410  1.0  -0.089
  C  C280  1  0.719000  0.066000  0.146440  1.0  -0.1257
  C  C281  1  0.874300  0.125600  0.021010  1.0  -0.1491
  C  C282  1  0.668000  0.047600  0.161730  1.0  -0.0697
  C  C283  1  0.979500  0.020200  0.131170  1.0  -0.1629
  C  C284  1  0.598000  0.031700  0.220700  1.0  0.6671
  C  C285  1  0.656440  0.050700  0.203810  1.0  -0.1412
  C  C286  1  0.031850  0.598600  0.221000  1.0  0.6459
  C  C287  1  0.073380  0.926440  0.075460  1.0  -0.018
  C  C288  1  0.050860  0.656380  0.203790  1.0  -0.1392
  C  C289  1  0.089800  0.760700  0.173670  1.0  0.0232
  C  C290  1  0.085570  0.914800  0.035140  1.0  0.1927
  C  C291  1  0.071400  0.696200  0.231310  1.0  -0.0458
  C  C292  1  0.239490  0.910200  0.173620  1.0  0.0459
  C  C293  1  0.111670  0.815480  0.157200  1.0  0.0123
  C  C294  1  0.104670  0.894910  0.109910  1.0  0.0292
  C  C295  1  0.184570  0.887800  0.156860  1.0  0.0291
  C  C296  1  0.161240  0.838800  0.172280  1.0  -0.1116
  C  C297  1  0.155920  0.916920  0.125150  1.0  -0.0824
  C  C298  1  0.302500  0.929000  0.232250  1.0  -0.084
  C  C299  1  0.032820  0.967600  0.089270  1.0  0.171
  C  C300  1  0.091700  0.749300  0.215680  1.0  -0.1245
  C  C301  1  0.251600  0.907900  0.216700  1.0  -0.1269
  C  C302  1  0.049300  0.667400  0.161410  1.0  -0.0772
  C  C303  1  0.067000  0.719800  0.146660  1.0  -0.13
  C  C304  1  0.082420  0.843790  0.125410  1.0  -0.0883
  C  C305  1  0.281000  0.934000  0.146440  1.0  -0.1261
  C  C306  1  0.125700  0.874400  0.021010  1.0  -0.1466
  C  C307  1  0.332000  0.952400  0.161730  1.0  -0.0728
  C  C308  1  0.020500  0.979800  0.131170  1.0  -0.1618
  C  C309  1  0.402000  0.968300  0.220700  1.0  0.665
  C  C310  1  0.343560  0.949300  0.203810  1.0  -0.1407
  N  N311  1  0.439000  0.439320  0.500000  1.0  -0.3669
  N  N312  1  0.561000  0.560680  0.500000  1.0  -0.3645
  N  N313  1  0.061000  0.939320  0.000000  1.0  -0.3649
  N  N314  1  0.939000  0.060680  0.000000  1.0  -0.3665
  N  N315  1  0.500000  0.500000  0.562780  1.0  -0.4179
  N  N316  1  0.000000  0.000000  0.937220  1.0  -0.4183
  N  N317  1  0.500000  0.500000  0.437220  1.0  -0.4183
  N  N318  1  0.000000  0.000000  0.062780  1.0  -0.4179
  O  O319  1  0.468690  0.090800  0.759800  1.0  -0.5145
  O  O320  1  0.481980  0.060520  0.695270  1.0  -0.5086
  O  O321  1  0.090910  0.469290  0.759650  1.0  -0.5168
  O  O322  1  0.060310  0.482350  0.695010  1.0  -0.5277
  O  O323  1  0.531310  0.909200  0.759800  1.0  -0.5142
  O  O324  1  0.518020  0.939480  0.695270  1.0  -0.5085
  O  O325  1  0.909090  0.530710  0.759650  1.0  -0.5166
  O  O326  1  0.939690  0.517650  0.695010  1.0  -0.5286
  O  O327  1  0.031310  0.590800  0.740200  1.0  -0.513
  O  O328  1  0.018020  0.560520  0.804730  1.0  -0.5083
  O  O329  1  0.409090  0.969290  0.740350  1.0  -0.5159
  O  O330  1  0.439690  0.982350  0.804990  1.0  -0.5282
  O  O331  1  0.968690  0.409200  0.740200  1.0  -0.5113
  O  O332  1  0.981980  0.439480  0.804730  1.0  -0.5065
  O  O333  1  0.590910  0.030710  0.740350  1.0  -0.5166
  O  O334  1  0.560310  0.017650  0.804990  1.0  -0.5292
  O  O335  1  0.531310  0.909200  0.240200  1.0  -0.512
  O  O336  1  0.518020  0.939480  0.304730  1.0  -0.5076
  O  O337  1  0.909090  0.530710  0.240350  1.0  -0.5162
  O  O338  1  0.939690  0.517650  0.304990  1.0  -0.5293
  O  O339  1  0.468690  0.090800  0.240200  1.0  -0.5127
  O  O340  1  0.481980  0.060520  0.304730  1.0  -0.5076
  O  O341  1  0.090910  0.469290  0.240350  1.0  -0.5163
  O  O342  1  0.060310  0.482350  0.304990  1.0  -0.5281
  O  O343  1  0.968690  0.409200  0.259800  1.0  -0.5138
  O  O344  1  0.981980  0.439480  0.195270  1.0  -0.5087
  O  O345  1  0.590910  0.030710  0.259650  1.0  -0.5166
  O  O346  1  0.560310  0.017650  0.195010  1.0  -0.5275
  O  O347  1  0.031310  0.590800  0.259800  1.0  -0.5146
  O  O348  1  0.018020  0.560520  0.195270  1.0  -0.5083
  O  O349  1  0.409090  0.969290  0.259650  1.0  -0.5169
  O  O350  1  0.439690  0.982350  0.195010  1.0  -0.5287
