# generated using pymatgen
data_U3P3H2O12F
_symmetry_space_group_name_H-M   'P 1'
_cell_length_a   13.44870000
_cell_length_b   17.92100000
_cell_length_c   19.90260000
_cell_angle_alpha   90.00000000
_cell_angle_beta   90.98330000
_cell_angle_gamma   90.00000000
_symmetry_Int_Tables_number   1
_chemical_formula_structural   U3P3H2O12F
_chemical_formula_sum   'U24 P24 H16 O96 F8'
_cell_volume   4796.10189532
_cell_formula_units_Z   8
loop_
 _symmetry_equiv_pos_site_id
 _symmetry_equiv_pos_as_xyz
  1  'x, y, z'
loop_
 _atom_site_type_symbol
 _atom_site_label
 _atom_site_symmetry_multiplicity
 _atom_site_fract_x
 _atom_site_fract_y
 _atom_site_fract_z
 _atom_site_occupancy
 _atom_site_charge
  U  U1  1  0.349040  0.978170  0.229050  1.0  1.7208
  U  U2  1  0.652810  0.001750  0.274480  1.0  1.7094
  U  U3  1  0.378560  0.738140  0.377290  1.0  1.8463
  U  U4  1  0.623540  0.248350  0.122740  1.0  1.5754
  U  U5  1  0.347800  0.005190  0.509410  1.0  1.7376
  U  U6  1  0.348840  0.007550  0.011810  1.0  1.7622
  U  U7  1  0.150960  0.478170  0.270950  1.0  1.7222
  U  U8  1  0.847190  0.501750  0.225520  1.0  1.7082
  U  U9  1  0.121440  0.238140  0.122710  1.0  1.8472
  U  U10  1  0.876460  0.748350  0.377260  1.0  1.5741
  U  U11  1  0.152200  0.505190  0.990590  1.0  1.736
  U  U12  1  0.151160  0.507550  0.488190  1.0  1.7598
  U  U13  1  0.650960  0.021830  0.770950  1.0  1.721
  U  U14  1  0.347190  0.998250  0.725520  1.0  1.7094
  U  U15  1  0.621440  0.261860  0.622710  1.0  1.8471
  U  U16  1  0.376460  0.751650  0.877260  1.0  1.5754
  U  U17  1  0.652200  0.994810  0.490590  1.0  1.7359
  U  U18  1  0.651160  0.992450  0.988190  1.0  1.7585
  U  U19  1  0.849040  0.521830  0.729050  1.0  1.7197
  U  U20  1  0.152810  0.498250  0.774480  1.0  1.7106
  U  U21  1  0.878560  0.761860  0.877290  1.0  1.8469
  U  U22  1  0.123540  0.251650  0.622740  1.0  1.5711
  U  U23  1  0.847800  0.494810  0.009410  1.0  1.7375
  U  U24  1  0.848840  0.492450  0.511810  1.0  1.7609
  P  P25  1  0.143000  0.032420  0.118490  1.0  1.5658
  P  P26  1  0.774700  0.077910  0.128280  1.0  1.6212
  P  P27  1  0.858700  0.958310  0.387960  1.0  1.529
  P  P28  1  0.493800  0.061050  0.128380  1.0  1.581
  P  P29  1  0.509200  0.923910  0.379240  1.0  1.4809
  P  P30  1  0.227000  0.904820  0.374790  1.0  1.6556
  P  P31  1  0.357000  0.532420  0.381510  1.0  1.5643
  P  P32  1  0.725300  0.577910  0.371720  1.0  1.6217
  P  P33  1  0.641300  0.458310  0.112040  1.0  1.5292
  P  P34  1  0.006200  0.561050  0.371620  1.0  1.5808
  P  P35  1  0.990800  0.423910  0.120760  1.0  1.4816
  P  P36  1  0.273000  0.404820  0.125210  1.0  1.6542
  P  P37  1  0.857000  0.967580  0.881510  1.0  1.5644
  P  P38  1  0.225300  0.922090  0.871720  1.0  1.6216
  P  P39  1  0.141300  0.041690  0.612040  1.0  1.5295
  P  P40  1  0.506200  0.938950  0.871620  1.0  1.5809
  P  P41  1  0.490800  0.076090  0.620760  1.0  1.4811
  P  P42  1  0.773000  0.095180  0.625210  1.0  1.654
  P  P43  1  0.643000  0.467580  0.618490  1.0  1.5656
  P  P44  1  0.274700  0.422090  0.628280  1.0  1.6211
  P  P45  1  0.358700  0.541690  0.887960  1.0  1.5293
  P  P46  1  0.993800  0.438950  0.628380  1.0  1.581
  P  P47  1  0.009200  0.576090  0.879240  1.0  1.4801
  P  P48  1  0.727000  0.595180  0.874790  1.0  1.6557
  H  H49  1  0.988600  0.012000  0.105900  1.0  0.3556
  H  H50  1  0.085900  0.846300  0.375000  1.0  0.4398
  H  H51  1  0.028200  0.977100  0.386900  1.0  0.3518
  H  H52  1  0.932600  0.126500  0.119200  1.0  0.3624
  H  H53  1  0.511400  0.512000  0.394100  1.0  0.3564
  H  H54  1  0.414100  0.346300  0.125000  1.0  0.4396
  H  H55  1  0.471800  0.477100  0.113100  1.0  0.3506
  H  H56  1  0.567400  0.626500  0.380800  1.0  0.3628
  H  H57  1  0.011400  0.988000  0.894100  1.0  0.3557
  H  H58  1  0.914100  0.153700  0.625000  1.0  0.4381
  H  H59  1  0.971800  0.022900  0.613100  1.0  0.3536
  H  H60  1  0.067400  0.873500  0.880800  1.0  0.3632
  H  H61  1  0.488600  0.488000  0.605900  1.0  0.3555
  H  H62  1  0.585900  0.653700  0.875000  1.0  0.4385
  H  H63  1  0.528200  0.522900  0.886900  1.0  0.3549
  H  H64  1  0.432600  0.373500  0.619200  1.0  0.3621
  O  O65  1  0.481000  0.975000  0.438100  1.0  -0.9419
  O  O66  1  0.961700  0.999900  0.395600  1.0  -0.5756
  O  O67  1  0.378100  0.054200  0.127200  1.0  -0.9305
  O  O68  1  0.626000  0.932400  0.380100  1.0  -0.9555
  O  O69  1  0.201200  0.985000  0.168500  1.0  -0.8807
  O  O70  1  0.520800  0.019100  0.063400  1.0  -0.9581
  O  O71  1  0.800300  0.003100  0.335400  1.0  -0.8531
  O  O72  1  0.261400  0.972100  0.415400  1.0  -0.9239
  O  O73  1  0.195100  0.037600  0.051600  1.0  -0.8778
  O  O74  1  0.524400  0.016700  0.191900  1.0  -0.9186
  O  O75  1  0.479400  0.957600  0.310800  1.0  -0.9314
  O  O76  1  0.041700  0.988800  0.105800  1.0  -0.6692
  O  O77  1  0.254300  0.915000  0.301900  1.0  -0.8967
  O  O78  1  0.264400  0.831700  0.402700  1.0  -0.8601
  O  O79  1  0.878600  0.879500  0.365400  1.0  -0.8852
  O  O80  1  0.808000  0.962000  0.455000  1.0  -0.8636
  O  O81  1  0.748900  0.062300  0.201100  1.0  -0.9187
  O  O82  1  0.743400  0.011600  0.085000  1.0  -0.8769
  O  O83  1  0.119100  0.108200  0.146900  1.0  -0.8808
  O  O84  1  0.891700  0.080100  0.123900  1.0  -0.5811
  O  O85  1  0.528700  0.139800  0.128900  1.0  -0.9251
  O  O86  1  0.476900  0.845800  0.389800  1.0  -0.8755
  O  O87  1  0.735100  0.151800  0.103600  1.0  -0.8932
  O  O88  1  0.109800  0.905200  0.380000  1.0  -0.5986
  O  O89  1  0.019000  0.475000  0.061900  1.0  -0.9401
  O  O90  1  0.538300  0.499900  0.104400  1.0  -0.5747
  O  O91  1  0.121900  0.554200  0.372800  1.0  -0.931
  O  O92  1  0.874000  0.432400  0.119900  1.0  -0.9564
  O  O93  1  0.298800  0.485000  0.331500  1.0  -0.8786
  O  O94  1  0.979200  0.519100  0.436600  1.0  -0.9582
  O  O95  1  0.699700  0.503100  0.164600  1.0  -0.8552
  O  O96  1  0.238600  0.472100  0.084600  1.0  -0.924
  O  O97  1  0.304900  0.537600  0.448400  1.0  -0.8807
  O  O98  1  0.975600  0.516700  0.308100  1.0  -0.9176
  O  O99  1  0.020600  0.457600  0.189200  1.0  -0.9333
  O  O100  1  0.458300  0.488800  0.394200  1.0  -0.6709
  O  O101  1  0.245700  0.415000  0.198100  1.0  -0.8967
  O  O102  1  0.235600  0.331700  0.097300  1.0  -0.8609
  O  O103  1  0.621400  0.379500  0.134600  1.0  -0.8852
  O  O104  1  0.692000  0.462000  0.045000  1.0  -0.8612
  O  O105  1  0.751100  0.562300  0.298900  1.0  -0.9185
  O  O106  1  0.756600  0.511600  0.415000  1.0  -0.8775
  O  O107  1  0.380900  0.608200  0.353100  1.0  -0.8834
  O  O108  1  0.608300  0.580100  0.376100  1.0  -0.582
  O  O109  1  0.971300  0.639800  0.371100  1.0  -0.9249
  O  O110  1  0.023100  0.345800  0.110200  1.0  -0.8756
  O  O111  1  0.764900  0.651800  0.396400  1.0  -0.8942
  O  O112  1  0.390200  0.405200  0.120000  1.0  -0.5997
  O  O113  1  0.519000  0.025000  0.561900  1.0  -0.9394
  O  O114  1  0.038300  0.000100  0.604400  1.0  -0.5724
  O  O115  1  0.621900  0.945800  0.872800  1.0  -0.9309
  O  O116  1  0.374000  0.067600  0.619900  1.0  -0.9564
  O  O117  1  0.798800  0.015000  0.831500  1.0  -0.8794
  O  O118  1  0.479200  0.980900  0.936600  1.0  -0.9581
  O  O119  1  0.199700  0.996900  0.664600  1.0  -0.8556
  O  O120  1  0.738600  0.027900  0.584600  1.0  -0.9224
  O  O121  1  0.804900  0.962400  0.948400  1.0  -0.8804
  O  O122  1  0.475600  0.983300  0.808100  1.0  -0.9175
  O  O123  1  0.520600  0.042400  0.689200  1.0  -0.9336
  O  O124  1  0.958300  0.011200  0.894200  1.0  -0.6716
  O  O125  1  0.745700  0.085000  0.698100  1.0  -0.8969
  O  O126  1  0.735600  0.168300  0.597300  1.0  -0.8626
  O  O127  1  0.121400  0.120500  0.634600  1.0  -0.8857
  O  O128  1  0.192000  0.038000  0.545000  1.0  -0.861
  O  O129  1  0.251100  0.937700  0.798900  1.0  -0.9187
  O  O130  1  0.256600  0.988400  0.915000  1.0  -0.8786
  O  O131  1  0.880900  0.891800  0.853100  1.0  -0.8831
  O  O132  1  0.108300  0.919900  0.876100  1.0  -0.5828
  O  O133  1  0.471300  0.860200  0.871100  1.0  -0.9228
  O  O134  1  0.523100  0.154200  0.610200  1.0  -0.8767
  O  O135  1  0.264900  0.848200  0.896400  1.0  -0.8942
  O  O136  1  0.890200  0.094800  0.620000  1.0  -0.5989
  O  O137  1  0.981000  0.525000  0.938100  1.0  -0.941
  O  O138  1  0.461700  0.500100  0.895600  1.0  -0.5741
  O  O139  1  0.878100  0.445800  0.627200  1.0  -0.9305
  O  O140  1  0.126000  0.567600  0.880100  1.0  -0.9555
  O  O141  1  0.701200  0.515000  0.668500  1.0  -0.8815
  O  O142  1  0.020800  0.480900  0.563400  1.0  -0.9575
  O  O143  1  0.300300  0.496900  0.835400  1.0  -0.8537
  O  O144  1  0.761400  0.527900  0.915400  1.0  -0.9228
  O  O145  1  0.695100  0.462400  0.551600  1.0  -0.8782
  O  O146  1  0.024400  0.483300  0.691900  1.0  -0.9187
  O  O147  1  0.979400  0.542400  0.810800  1.0  -0.9322
  O  O148  1  0.541700  0.511200  0.605800  1.0  -0.6692
  O  O149  1  0.754300  0.585000  0.801900  1.0  -0.8968
  O  O150  1  0.764400  0.668300  0.902700  1.0  -0.8605
  O  O151  1  0.378600  0.620500  0.865400  1.0  -0.8865
  O  O152  1  0.308000  0.538000  0.955000  1.0  -0.8637
  O  O153  1  0.248900  0.437700  0.701100  1.0  -0.9193
  O  O154  1  0.243400  0.488400  0.585000  1.0  -0.8791
  O  O155  1  0.619100  0.391800  0.646900  1.0  -0.8823
  O  O156  1  0.391700  0.419900  0.623900  1.0  -0.582
  O  O157  1  0.028700  0.360200  0.628900  1.0  -0.9234
  O  O158  1  0.976900  0.654200  0.889800  1.0  -0.8766
  O  O159  1  0.235100  0.348200  0.603600  1.0  -0.8924
  O  O160  1  0.609800  0.594800  0.880000  1.0  -0.5981
  F  F161  1  0.460100  0.280300  0.140800  1.0  -0.3827
  F  F162  1  0.543000  0.706200  0.366500  1.0  -0.4297
  F  F163  1  0.039900  0.780300  0.359200  1.0  -0.3838
  F  F164  1  0.957000  0.206200  0.133500  1.0  -0.4302
  F  F165  1  0.539900  0.719700  0.859200  1.0  -0.3848
  F  F166  1  0.457000  0.293800  0.633500  1.0  -0.4293
  F  F167  1  0.960100  0.219700  0.640800  1.0  -0.3856
  F  F168  1  0.043000  0.793800  0.866500  1.0  -0.4294
