# generated using pymatgen
data_FeAg2H4(C4N3)2
_symmetry_space_group_name_H-M   'P 1'
_cell_length_a   6.73400000
_cell_length_b   12.53600000
_cell_length_c   9.12000000
_cell_angle_alpha   90.00000000
_cell_angle_beta   118.62200000
_cell_angle_gamma   90.00000000
_symmetry_Int_Tables_number   1
_chemical_formula_structural   FeAg2H4(C4N3)2
_chemical_formula_sum   'Fe2 Ag4 H8 C16 N12'
_cell_volume   675.80603876
_cell_formula_units_Z   2
loop_
 _symmetry_equiv_pos_site_id
 _symmetry_equiv_pos_as_xyz
  1  'x, y, z'
loop_
 _atom_site_type_symbol
 _atom_site_label
 _atom_site_symmetry_multiplicity
 _atom_site_fract_x
 _atom_site_fract_y
 _atom_site_fract_z
 _atom_site_occupancy
 _atom_site_charge
  Fe  Fe1  1  0.380700  0.000000  0.082000  1.0  0.5199
  Fe  Fe2  1  0.880700  0.500000  0.082000  1.0  0.5199
  Ag  Ag3  1  0.646300  0.233020  0.601500  1.0  0.3172
  Ag  Ag4  1  0.146300  0.733020  0.601500  1.0  0.3172
  Ag  Ag5  1  0.646300  0.766980  0.601500  1.0  0.3172
  Ag  Ag6  1  0.146300  0.266980  0.601500  1.0  0.3172
  H  H7  1  0.049100  0.157500  0.075100  1.0  0.0933
  H  H8  1  0.700900  0.156500  0.073800  1.0  0.0898
  H  H9  1  0.549100  0.657500  0.075100  1.0  0.0933
  H  H10  1  0.200900  0.656500  0.073800  1.0  0.0898
  H  H11  1  0.049100  0.842500  0.075100  1.0  0.0938
  H  H12  1  0.700900  0.843500  0.073800  1.0  0.0897
  H  H13  1  0.549100  0.342500  0.075100  1.0  0.0938
  H  H14  1  0.200900  0.343500  0.073800  1.0  0.0897
  C  C15  1  0.550000  0.160100  0.376300  1.0  -0.0459
  C  C16  1  0.725000  0.326500  0.809100  1.0  -0.0249
  C  C17  1  0.981400  0.091400  0.077100  1.0  0.1314
  C  C18  1  0.773900  0.090800  0.078400  1.0  0.1202
  C  C19  1  0.050000  0.660100  0.376300  1.0  -0.0459
  C  C20  1  0.225000  0.826500  0.809100  1.0  -0.0249
  C  C21  1  0.481400  0.591400  0.077100  1.0  0.1314
  C  C22  1  0.273900  0.590800  0.078400  1.0  0.1202
  C  C23  1  0.550000  0.839900  0.376300  1.0  -0.0456
  C  C24  1  0.725000  0.673500  0.809100  1.0  -0.0249
  C  C25  1  0.981400  0.908600  0.077100  1.0  0.1306
  C  C26  1  0.773900  0.909200  0.078400  1.0  0.1203
  C  C27  1  0.050000  0.339900  0.376300  1.0  -0.0456
  C  C28  1  0.225000  0.173500  0.809100  1.0  -0.0249
  C  C29  1  0.481400  0.408600  0.077100  1.0  0.1306
  C  C30  1  0.273900  0.409200  0.078400  1.0  0.1203
  N  N31  1  0.488300  0.107000  0.258600  1.0  -0.3386
  N  N32  1  0.773200  0.389100  0.909800  1.0  -0.3212
  N  N33  1  0.988300  0.607000  0.258600  1.0  -0.3386
  N  N34  1  0.273200  0.889100  0.909800  1.0  -0.3212
  N  N35  1  0.488300  0.893000  0.258600  1.0  -0.338
  N  N36  1  0.773200  0.610900  0.909800  1.0  -0.3209
  N  N37  1  0.988300  0.393000  0.258600  1.0  -0.338
  N  N38  1  0.273200  0.110900  0.909800  1.0  -0.3209
  N  N39  1  0.085000  0.000000  0.078700  1.0  -0.2723
  N  N40  1  0.678000  0.000000  0.085900  1.0  -0.291
  N  N41  1  0.585000  0.500000  0.078700  1.0  -0.2723
  N  N42  1  0.178000  0.500000  0.085900  1.0  -0.291
