# generated using pymatgen
data_Ce2H6(C3O4)3
_symmetry_space_group_name_H-M   'P 1'
_cell_length_a   11.31060000
_cell_length_b   12.66980000
_cell_length_c   14.73970000
_cell_angle_alpha   90.00000000
_cell_angle_beta   90.00000000
_cell_angle_gamma   90.00000000
_symmetry_Int_Tables_number   1
_chemical_formula_structural   Ce2H6(C3O4)3
_chemical_formula_sum   'Ce8 H24 C36 O48'
_cell_volume   2112.24381692
_cell_formula_units_Z   4
loop_
 _symmetry_equiv_pos_site_id
 _symmetry_equiv_pos_as_xyz
  1  'x, y, z'
loop_
 _atom_site_type_symbol
 _atom_site_label
 _atom_site_symmetry_multiplicity
 _atom_site_fract_x
 _atom_site_fract_y
 _atom_site_fract_z
 _atom_site_occupancy
 _atom_site_charge
  Ce  Ce1  1  0.149400  0.885100  0.493000  1.0  2.2158
  Ce  Ce2  1  0.350600  0.614900  0.993000  1.0  2.2149
  Ce  Ce3  1  0.850600  0.885100  0.007000  1.0  2.2183
  Ce  Ce4  1  0.649400  0.614900  0.507000  1.0  2.217
  Ce  Ce5  1  0.850600  0.114900  0.507000  1.0  2.2173
  Ce  Ce6  1  0.649400  0.385100  0.007000  1.0  2.2181
  Ce  Ce7  1  0.149400  0.114900  0.993000  1.0  2.2146
  Ce  Ce8  1  0.350600  0.385100  0.493000  1.0  2.216
  H  H9  1  0.448700  0.092300  0.345200  1.0  0.1518
  H  H10  1  0.338200  0.031500  0.308500  1.0  0.1497
  H  H11  1  0.066700  0.096500  0.235700  1.0  0.1536
  H  H12  1  0.051300  0.407700  0.845200  1.0  0.1516
  H  H13  1  0.161800  0.468500  0.808500  1.0  0.1502
  H  H14  1  0.433300  0.403500  0.735700  1.0  0.15
  H  H15  1  0.551300  0.092300  0.154800  1.0  0.1517
  H  H16  1  0.661800  0.031500  0.191500  1.0  0.1512
  H  H17  1  0.933300  0.096500  0.264300  1.0  0.1522
  H  H18  1  0.948700  0.407700  0.654800  1.0  0.1502
  H  H19  1  0.838200  0.468500  0.691500  1.0  0.1504
  H  H20  1  0.566700  0.403500  0.764300  1.0  0.1519
  H  H21  1  0.551300  0.907700  0.654800  1.0  0.1512
  H  H22  1  0.661800  0.968500  0.691500  1.0  0.1511
  H  H23  1  0.933300  0.903500  0.764300  1.0  0.1505
  H  H24  1  0.948700  0.592300  0.154800  1.0  0.1507
  H  H25  1  0.838200  0.531500  0.191500  1.0  0.1505
  H  H26  1  0.566700  0.596500  0.264300  1.0  0.1535
  H  H27  1  0.448700  0.907700  0.845200  1.0  0.1513
  H  H28  1  0.338200  0.968500  0.808500  1.0  0.1497
  H  H29  1  0.066700  0.903500  0.735700  1.0  0.1513
  H  H30  1  0.051300  0.592300  0.345200  1.0  0.1522
  H  H31  1  0.161800  0.531500  0.308500  1.0  0.1503
  H  H32  1  0.433300  0.596500  0.235700  1.0  0.1525
  C  C33  1  0.428500  0.947800  0.404400  1.0  0.7725
  C  C34  1  0.381800  0.049100  0.363100  1.0  -0.5655
  C  C35  1  0.302600  0.114000  0.424100  1.0  0.8373
  C  C36  1  0.029800  0.986100  0.332200  1.0  0.7706
  C  C37  1  0.071500  0.552200  0.904400  1.0  0.7717
  C  C38  1  0.118200  0.450900  0.863100  1.0  -0.5647
  C  C39  1  0.197400  0.386000  0.924100  1.0  0.8379
  C  C40  1  0.470200  0.513900  0.832200  1.0  0.7707
  C  C41  1  0.571500  0.947800  0.095600  1.0  0.7739
  C  C42  1  0.618200  0.049100  0.136900  1.0  -0.5669
  C  C43  1  0.697400  0.114000  0.075900  1.0  0.8398
  C  C44  1  0.970200  0.986100  0.167800  1.0  0.7717
  C  C45  1  0.928500  0.552200  0.595600  1.0  0.7716
  C  C46  1  0.881800  0.450900  0.636900  1.0  -0.5655
  C  C47  1  0.802600  0.386000  0.575900  1.0  0.8391
  C  C48  1  0.529800  0.513900  0.667800  1.0  0.7718
  C  C49  1  0.571500  0.052200  0.595600  1.0  0.7852
  C  C50  1  0.618200  0.950900  0.636900  1.0  -0.5661
  C  C51  1  0.697400  0.886000  0.575900  1.0  0.8393
  C  C52  1  0.970200  0.013900  0.667800  1.0  0.7725
  C  C53  1  0.928500  0.447800  0.095600  1.0  0.7851
  C  C54  1  0.881800  0.549100  0.136900  1.0  -0.5663
  C  C55  1  0.802600  0.614000  0.075900  1.0  0.8401
  C  C56  1  0.529800  0.486100  0.167800  1.0  0.7712
  C  C57  1  0.428500  0.052200  0.904400  1.0  0.7828
  C  C58  1  0.381800  0.950900  0.863100  1.0  -0.5646
  C  C59  1  0.302600  0.886000  0.924100  1.0  0.8379
  C  C60  1  0.029800  0.013900  0.832200  1.0  0.7703
  C  C61  1  0.071500  0.447800  0.404400  1.0  0.7857
  C  C62  1  0.118200  0.549100  0.363100  1.0  -0.5657
  C  C63  1  0.197400  0.614000  0.424100  1.0  0.8375
  C  C64  1  0.470200  0.486100  0.332200  1.0  0.7708
  C  C65  1  0.000000  0.051400  0.250000  1.0  -0.498
  C  C66  1  0.500000  0.448600  0.750000  1.0  -0.4996
  C  C67  1  0.000000  0.948600  0.750000  1.0  -0.4996
  C  C68  1  0.500000  0.551400  0.250000  1.0  -0.498
  O  O69  1  0.354400  0.882700  0.437000  1.0  -0.7628
  O  O70  1  0.221700  0.067700  0.468000  1.0  -0.7254
  O  O71  1  0.536600  0.931400  0.402000  1.0  -0.579
  O  O72  1  0.318100  0.211700  0.426000  1.0  -0.7109
  O  O73  1  0.103000  0.913300  0.325000  1.0  -0.6436
  O  O74  1  0.985100  0.008300  0.408200  1.0  -0.8207
  O  O75  1  0.145600  0.617300  0.937000  1.0  -0.7616
  O  O76  1  0.278300  0.432300  0.968000  1.0  -0.7263
  O  O77  1  0.963400  0.568600  0.902000  1.0  -0.5824
  O  O78  1  0.181900  0.288300  0.926000  1.0  -0.7091
  O  O79  1  0.397000  0.586700  0.825000  1.0  -0.6439
  O  O80  1  0.514900  0.491700  0.908200  1.0  -0.821
  O  O81  1  0.645600  0.882700  0.063000  1.0  -0.7642
  O  O82  1  0.778300  0.067700  0.032000  1.0  -0.7254
  O  O83  1  0.463400  0.931400  0.098000  1.0  -0.5799
  O  O84  1  0.681900  0.211700  0.074000  1.0  -0.7108
  O  O85  1  0.897000  0.913300  0.175000  1.0  -0.6437
  O  O86  1  0.014900  0.008300  0.091800  1.0  -0.8221
  O  O87  1  0.854400  0.617300  0.563000  1.0  -0.7624
  O  O88  1  0.721700  0.432300  0.532000  1.0  -0.7241
  O  O89  1  0.036600  0.568600  0.598000  1.0  -0.5777
  O  O90  1  0.818100  0.288300  0.574000  1.0  -0.7096
  O  O91  1  0.603000  0.586700  0.675000  1.0  -0.646
  O  O92  1  0.485100  0.491700  0.591800  1.0  -0.8211
  O  O93  1  0.645600  0.117300  0.563000  1.0  -0.7627
  O  O94  1  0.778300  0.932300  0.532000  1.0  -0.7254
  O  O95  1  0.463400  0.068600  0.598000  1.0  -0.5821
  O  O96  1  0.681900  0.788300  0.574000  1.0  -0.7098
  O  O97  1  0.897000  0.086700  0.675000  1.0  -0.6444
  O  O98  1  0.014900  0.991700  0.591800  1.0  -0.8227
  O  O99  1  0.854400  0.382700  0.063000  1.0  -0.7643
  O  O100  1  0.721700  0.567700  0.032000  1.0  -0.7242
  O  O101  1  0.036600  0.431400  0.098000  1.0  -0.5783
  O  O102  1  0.818100  0.711700  0.074000  1.0  -0.7112
  O  O103  1  0.603000  0.413300  0.175000  1.0  -0.644
  O  O104  1  0.485100  0.508300  0.091800  1.0  -0.8206
  O  O105  1  0.354400  0.117300  0.937000  1.0  -0.7607
  O  O106  1  0.221700  0.932300  0.968000  1.0  -0.725
  O  O107  1  0.536600  0.068600  0.902000  1.0  -0.5783
  O  O108  1  0.318100  0.788300  0.926000  1.0  -0.7095
  O  O109  1  0.103000  0.086700  0.825000  1.0  -0.6452
  O  O110  1  0.985100  0.991700  0.908200  1.0  -0.8207
  O  O111  1  0.145600  0.382700  0.437000  1.0  -0.7618
  O  O112  1  0.278300  0.567700  0.468000  1.0  -0.7265
  O  O113  1  0.963400  0.431400  0.402000  1.0  -0.5811
  O  O114  1  0.181900  0.711700  0.426000  1.0  -0.7108
  O  O115  1  0.397000  0.413300  0.325000  1.0  -0.6435
  O  O116  1  0.514900  0.508300  0.408200  1.0  -0.821
