# generated using pymatgen
data_LaH24C24(NO)4
_symmetry_space_group_name_H-M   'P 1'
_cell_length_a   10.83040000
_cell_length_b   16.71330000
_cell_length_c   28.08500000
_cell_angle_alpha   90.00000000
_cell_angle_beta   94.96700000
_cell_angle_gamma   90.00000000
_symmetry_Int_Tables_number   1
_chemical_formula_structural   LaH24C24(NO)4
_chemical_formula_sum   'La4 H96 C96 N16 O16'
_cell_volume   5064.62356269
_cell_formula_units_Z   4
loop_
 _symmetry_equiv_pos_site_id
 _symmetry_equiv_pos_as_xyz
  1  'x, y, z'
loop_
 _atom_site_type_symbol
 _atom_site_label
 _atom_site_symmetry_multiplicity
 _atom_site_fract_x
 _atom_site_fract_y
 _atom_site_fract_z
 _atom_site_occupancy
 _atom_site_charge
  La  La1  1  0.540310  0.877350  0.531690  1.0  1.9435
  La  La2  1  0.959690  0.377350  0.968310  1.0  1.9438
  La  La3  1  0.459690  0.122650  0.468310  1.0  1.9436
  La  La4  1  0.040310  0.622650  0.031690  1.0  1.9434
  H  H5  1  0.796300  0.837000  0.445200  1.0  0.1004
  H  H6  1  0.905800  0.785800  0.385900  1.0  0.0979
  H  H7  1  0.636400  0.629200  0.355500  1.0  0.0785
  H  H8  1  0.527500  0.683100  0.414400  1.0  0.1077
  H  H9  1  0.907200  0.714800  0.314000  1.0  0.0497
  H  H10  1  0.898700  0.627400  0.333100  1.0  0.0607
  H  H11  1  0.725400  0.694700  0.276100  1.0  0.0602
  H  H12  1  0.741500  0.605000  0.290200  1.0  0.0599
  H  H13  1  0.018600  0.613100  0.265700  1.0  0.0904
  H  H14  1  0.110200  0.606400  0.194500  1.0  0.0928
  H  H15  1  0.789000  0.629900  0.124800  1.0  0.0929
  H  H16  1  0.698800  0.645000  0.193500  1.0  0.077
  H  H17  1  0.881400  0.840000  0.633800  1.0  0.0836
  H  H18  1  0.935000  0.776000  0.703500  1.0  0.077
  H  H19  1  0.669700  0.624500  0.673300  1.0  0.0704
  H  H20  1  0.621100  0.689100  0.603000  1.0  0.0942
  H  H21  1  0.769600  0.646800  0.762400  1.0  0.0598
  H  H22  1  0.851200  0.587600  0.735700  1.0  0.0863
  H  H23  1  0.943900  0.726000  0.778300  1.0  0.0606
  H  H24  1  0.021600  0.658200  0.756700  1.0  0.0681
  H  H25  1  0.141700  0.595000  0.820800  1.0  0.0864
  H  H26  1  0.165600  0.541300  0.896900  1.0  0.1074
  H  H27  1  0.814500  0.584400  0.913100  1.0  0.1032
  H  H28  1  0.792400  0.647100  0.840200  1.0  0.0893
  H  H29  1  0.703700  0.337000  0.054800  1.0  0.1012
  H  H30  1  0.594200  0.285800  0.114100  1.0  0.0984
  H  H31  1  0.863600  0.129200  0.144500  1.0  0.0789
  H  H32  1  0.972500  0.183100  0.085600  1.0  0.1076
  H  H33  1  0.592800  0.214800  0.186000  1.0  0.049
  H  H34  1  0.601300  0.127400  0.166900  1.0  0.0609
  H  H35  1  0.774600  0.194700  0.223900  1.0  0.0558
  H  H36  1  0.758500  0.105000  0.209800  1.0  0.0601
  H  H37  1  0.481400  0.113100  0.234300  1.0  0.0901
  H  H38  1  0.389800  0.106400  0.305500  1.0  0.0926
  H  H39  1  0.711000  0.129900  0.375200  1.0  0.0931
  H  H40  1  0.801200  0.145000  0.306500  1.0  0.0763
  H  H41  1  0.618600  0.340000  0.866200  1.0  0.0838
  H  H42  1  0.565000  0.276000  0.796500  1.0  0.0772
  H  H43  1  0.830300  0.124500  0.826700  1.0  0.0715
  H  H44  1  0.878900  0.189100  0.897000  1.0  0.0946
  H  H45  1  0.730400  0.146800  0.737600  1.0  0.0623
  H  H46  1  0.648800  0.087600  0.764300  1.0  0.0871
  H  H47  1  0.556100  0.226000  0.721700  1.0  0.0608
  H  H48  1  0.478400  0.158200  0.743300  1.0  0.0687
  H  H49  1  0.358300  0.095000  0.679200  1.0  0.0865
  H  H50  1  0.334400  0.041300  0.603100  1.0  0.1068
  H  H51  1  0.685500  0.084400  0.586900  1.0  0.1018
  H  H52  1  0.707600  0.147100  0.659800  1.0  0.0903
  H  H53  1  0.203700  0.163000  0.554800  1.0  0.1009
  H  H54  1  0.094200  0.214200  0.614100  1.0  0.0978
  H  H55  1  0.363600  0.370800  0.644500  1.0  0.0797
  H  H56  1  0.472500  0.316900  0.585600  1.0  0.1073
  H  H57  1  0.092800  0.285200  0.686000  1.0  0.0476
  H  H58  1  0.101300  0.372600  0.666900  1.0  0.0607
  H  H59  1  0.274600  0.305300  0.723900  1.0  0.0551
  H  H60  1  0.258500  0.395000  0.709800  1.0  0.0634
  H  H61  1  0.981400  0.386900  0.734300  1.0  0.0898
  H  H62  1  0.889800  0.393600  0.805500  1.0  0.0926
  H  H63  1  0.211000  0.370100  0.875200  1.0  0.0936
  H  H64  1  0.301200  0.355000  0.806500  1.0  0.0763
  H  H65  1  0.118600  0.160000  0.366200  1.0  0.0834
  H  H66  1  0.065000  0.224000  0.296500  1.0  0.0765
  H  H67  1  0.330300  0.375500  0.326700  1.0  0.0717
  H  H68  1  0.378900  0.310900  0.397000  1.0  0.0945
  H  H69  1  0.230400  0.353200  0.237600  1.0  0.0624
  H  H70  1  0.148800  0.412400  0.264300  1.0  0.0872
  H  H71  1  0.056100  0.274000  0.221700  1.0  0.061
  H  H72  1  0.978400  0.341800  0.243300  1.0  0.0687
  H  H73  1  0.858300  0.405000  0.179200  1.0  0.0862
  H  H74  1  0.834400  0.458700  0.103100  1.0  0.107
  H  H75  1  0.185500  0.415600  0.086900  1.0  0.1017
  H  H76  1  0.207600  0.352900  0.159800  1.0  0.09
  H  H77  1  0.296300  0.663000  0.945200  1.0  0.1002
  H  H78  1  0.405800  0.714200  0.885900  1.0  0.0987
  H  H79  1  0.136400  0.870800  0.855500  1.0  0.079
  H  H80  1  0.027500  0.816900  0.914400  1.0  0.1075
  H  H81  1  0.407200  0.785200  0.814000  1.0  0.0474
  H  H82  1  0.398700  0.872600  0.833100  1.0  0.0592
  H  H83  1  0.225400  0.805300  0.776100  1.0  0.0573
  H  H84  1  0.241500  0.895000  0.790200  1.0  0.064
  H  H85  1  0.518600  0.886900  0.765700  1.0  0.0904
  H  H86  1  0.610200  0.893600  0.694500  1.0  0.0929
  H  H87  1  0.289000  0.870100  0.624800  1.0  0.0936
  H  H88  1  0.198800  0.855000  0.693500  1.0  0.0769
  H  H89  1  0.381400  0.660000  0.133800  1.0  0.0835
  H  H90  1  0.435000  0.724000  0.203500  1.0  0.0764
  H  H91  1  0.169700  0.875500  0.173300  1.0  0.0714
  H  H92  1  0.121100  0.810900  0.103000  1.0  0.0943
  H  H93  1  0.269600  0.853200  0.262400  1.0  0.0598
  H  H94  1  0.351200  0.912400  0.235700  1.0  0.0876
  H  H95  1  0.443900  0.774000  0.278300  1.0  0.0607
  H  H96  1  0.521600  0.841800  0.256700  1.0  0.0686
  H  H97  1  0.641700  0.905000  0.320800  1.0  0.0863
  H  H98  1  0.665600  0.958700  0.396900  1.0  0.1071
  H  H99  1  0.314500  0.915600  0.413100  1.0  0.1032
  H  H100  1  0.292400  0.852900  0.340200  1.0  0.0897
  C  C101  1  0.763400  0.794920  0.426500  1.0  -0.0242
  C  C102  1  0.828400  0.764970  0.391020  1.0  -0.1888
  C  C103  1  0.778300  0.703300  0.362610  1.0  0.0834
  C  C104  1  0.669100  0.672700  0.372940  1.0  -0.2105
  C  C105  1  0.604400  0.704010  0.408610  1.0  -0.0582
  C  C106  1  0.849800  0.673200  0.321660  1.0  -0.145
  C  C107  1  0.786700  0.653100  0.283250  1.0  -0.1434
  C  C108  1  0.848700  0.637000  0.236900  1.0  0.1299
  C  C109  1  0.970900  0.620400  0.236880  1.0  -0.2505
  C  C110  1  0.025100  0.614000  0.194290  1.0  -0.022
  C  C111  1  0.837700  0.628900  0.153700  1.0  -0.0284
  C  C112  1  0.784200  0.637900  0.194740  1.0  -0.1837
  C  C113  1  0.837000  0.794800  0.641400  1.0  0.0047
  C  C114  1  0.869300  0.756100  0.683380  1.0  -0.2527
  C  C115  1  0.809300  0.689560  0.696980  1.0  0.1262
  C  C116  1  0.717100  0.668600  0.666070  1.0  -0.1755
  C  C117  1  0.686400  0.707800  0.623710  1.0  -0.0477
  C  C118  1  0.840600  0.643500  0.743670  1.0  -0.2555
  C  C119  1  0.948700  0.668640  0.773540  1.0  -0.1927
  C  C120  1  0.965400  0.628130  0.822250  1.0  0.0533
  C  C121  1  0.075200  0.595230  0.839690  1.0  -0.1451
  C  C122  1  0.089500  0.562110  0.885110  1.0  -0.0536
  C  C123  1  0.882100  0.588860  0.895010  1.0  -0.0828
  C  C124  1  0.868400  0.624710  0.850930  1.0  -0.1864
  C  C125  1  0.736600  0.294920  0.073500  1.0  -0.0227
  C  C126  1  0.671600  0.264970  0.108980  1.0  -0.1895
  C  C127  1  0.721700  0.203300  0.137390  1.0  0.084
  C  C128  1  0.830900  0.172700  0.127060  1.0  -0.2149
  C  C129  1  0.895600  0.204010  0.091390  1.0  -0.0556
  C  C130  1  0.650200  0.173200  0.178340  1.0  -0.144
  C  C131  1  0.713300  0.153100  0.216750  1.0  -0.1412
  C  C132  1  0.651300  0.137000  0.263100  1.0  0.1302
  C  C133  1  0.529100  0.120400  0.263120  1.0  -0.25
  C  C134  1  0.474900  0.114000  0.305710  1.0  -0.0234
  C  C135  1  0.662300  0.128900  0.346300  1.0  -0.0279
  C  C136  1  0.715800  0.137900  0.305260  1.0  -0.1831
  C  C137  1  0.663000  0.294800  0.858600  1.0  0.0031
  C  C138  1  0.630700  0.256100  0.816620  1.0  -0.2547
  C  C139  1  0.690700  0.189560  0.803020  1.0  0.126
  C  C140  1  0.782900  0.168600  0.833930  1.0  -0.1759
  C  C141  1  0.813600  0.207800  0.876290  1.0  -0.0471
  C  C142  1  0.659400  0.143500  0.756330  1.0  -0.2554
  C  C143  1  0.551300  0.168640  0.726460  1.0  -0.1927
  C  C144  1  0.534600  0.128130  0.677750  1.0  0.054
  C  C145  1  0.424800  0.095230  0.660310  1.0  -0.145
  C  C146  1  0.410500  0.062110  0.614890  1.0  -0.0538
  C  C147  1  0.617900  0.088860  0.604990  1.0  -0.0811
  C  C148  1  0.631600  0.124710  0.649070  1.0  -0.1858
  C  C149  1  0.236600  0.205080  0.573500  1.0  -0.0232
  C  C150  1  0.171600  0.235030  0.608980  1.0  -0.185
  C  C151  1  0.221700  0.296700  0.637390  1.0  0.0843
  C  C152  1  0.330900  0.327300  0.627060  1.0  -0.2103
  C  C153  1  0.395600  0.295990  0.591390  1.0  -0.0555
  C  C154  1  0.150200  0.326800  0.678340  1.0  -0.1446
  C  C155  1  0.213300  0.346900  0.716750  1.0  -0.1405
  C  C156  1  0.151300  0.363000  0.763100  1.0  0.1303
  C  C157  1  0.029100  0.379600  0.763120  1.0  -0.2496
  C  C158  1  0.974900  0.386000  0.805710  1.0  -0.0236
  C  C159  1  0.162300  0.371100  0.846300  1.0  -0.0275
  C  C160  1  0.215800  0.362100  0.805260  1.0  -0.1831
  C  C161  1  0.163000  0.205200  0.358600  1.0  0.0016
  C  C162  1  0.130700  0.243900  0.316620  1.0  -0.2536
  C  C163  1  0.190700  0.310440  0.303020  1.0  0.1259
  C  C164  1  0.282900  0.331400  0.333930  1.0  -0.1748
  C  C165  1  0.313600  0.292200  0.376290  1.0  -0.0472
  C  C166  1  0.159400  0.356500  0.256330  1.0  -0.2553
  C  C167  1  0.051300  0.331360  0.226460  1.0  -0.1939
  C  C168  1  0.034600  0.371870  0.177750  1.0  0.0536
  C  C169  1  0.924800  0.404770  0.160310  1.0  -0.1456
  C  C170  1  0.910500  0.437890  0.114890  1.0  -0.0539
  C  C171  1  0.117900  0.411140  0.104990  1.0  -0.0814
  C  C172  1  0.131600  0.375290  0.149070  1.0  -0.1851
  C  C173  1  0.263400  0.705080  0.926500  1.0  -0.0245
  C  C174  1  0.328400  0.735030  0.891020  1.0  -0.192
  C  C175  1  0.278300  0.796700  0.862610  1.0  0.0838
  C  C176  1  0.169100  0.827300  0.872940  1.0  -0.2125
  C  C177  1  0.104400  0.795990  0.908610  1.0  -0.0551
  C  C178  1  0.349800  0.826800  0.821660  1.0  -0.1464
  C  C179  1  0.286700  0.846900  0.783250  1.0  -0.1427
  C  C180  1  0.348700  0.863000  0.736900  1.0  0.13
  C  C181  1  0.470900  0.879600  0.736880  1.0  -0.2502
  C  C182  1  0.525100  0.886000  0.694290  1.0  -0.0218
  C  C183  1  0.337700  0.871100  0.653700  1.0  -0.0285
  C  C184  1  0.284200  0.862100  0.694740  1.0  -0.1832
  C  C185  1  0.337000  0.705200  0.141400  1.0  0.0014
  C  C186  1  0.369300  0.743900  0.183380  1.0  -0.2517
  C  C187  1  0.309300  0.810440  0.196980  1.0  0.1258
  C  C188  1  0.217100  0.831400  0.166070  1.0  -0.1749
  C  C189  1  0.186400  0.792200  0.123710  1.0  -0.0484
  C  C190  1  0.340600  0.856500  0.243670  1.0  -0.2533
  C  C191  1  0.448700  0.831360  0.273540  1.0  -0.1937
  C  C192  1  0.465400  0.871870  0.322250  1.0  0.0528
  C  C193  1  0.575200  0.904770  0.339690  1.0  -0.1453
  C  C194  1  0.589500  0.937890  0.385110  1.0  -0.0544
  C  C195  1  0.382100  0.911140  0.395010  1.0  -0.0827
  C  C196  1  0.368400  0.875290  0.350930  1.0  -0.1854
  N  N197  1  0.653000  0.764450  0.434710  1.0  0.3028
  N  N198  1  0.956900  0.618710  0.153850  1.0  0.2632
  N  N199  1  0.748000  0.770950  0.612330  1.0  0.2509
  N  N200  1  0.992260  0.560320  0.912000  1.0  0.3612
  N  N201  1  0.847000  0.264450  0.065290  1.0  0.3033
  N  N202  1  0.543100  0.118710  0.346150  1.0  0.2643
  N  N203  1  0.752000  0.270950  0.887670  1.0  0.2494
  N  N204  1  0.507740  0.060320  0.588000  1.0  0.3643
  N  N205  1  0.347000  0.235550  0.565290  1.0  0.3029
  N  N206  1  0.043100  0.381290  0.846150  1.0  0.2633
  N  N207  1  0.252000  0.229050  0.387670  1.0  0.2502
  N  N208  1  0.007740  0.439680  0.088000  1.0  0.3649
  N  N209  1  0.153000  0.735550  0.934710  1.0  0.3035
  N  N210  1  0.456900  0.881290  0.653850  1.0  0.2624
  N  N211  1  0.248000  0.729050  0.112330  1.0  0.2496
  N  N212  1  0.492260  0.939680  0.412000  1.0  0.361
  O  O213  1  0.587160  0.796370  0.467760  1.0  -0.7221
  O  O214  1  0.008200  0.608280  0.113310  1.0  -0.7452
  O  O215  1  0.723110  0.807710  0.570510  1.0  -0.601
  O  O216  1  0.006090  0.527130  0.955800  1.0  -0.7595
  O  O217  1  0.912840  0.296370  0.032240  1.0  -0.7226
  O  O218  1  0.491800  0.108280  0.386690  1.0  -0.7468
  O  O219  1  0.776890  0.307710  0.929490  1.0  -0.6044
  O  O220  1  0.493910  0.027130  0.544200  1.0  -0.7615
  O  O221  1  0.412840  0.203630  0.532240  1.0  -0.7223
  O  O222  1  0.991800  0.391720  0.886690  1.0  -0.7463
  O  O223  1  0.276890  0.192290  0.429490  1.0  -0.604
  O  O224  1  0.993910  0.472870  0.044200  1.0  -0.7617
  O  O225  1  0.087160  0.703630  0.967760  1.0  -0.7218
  O  O226  1  0.508200  0.891720  0.613310  1.0  -0.7444
  O  O227  1  0.223110  0.692290  0.070510  1.0  -0.6012
  O  O228  1  0.506090  0.972870  0.455800  1.0  -0.7603
