# generated using pymatgen
data_Co3H30C54O13
_symmetry_space_group_name_H-M   'P 1'
_cell_length_a   17.55100000
_cell_length_b   21.14800000
_cell_length_c   25.35600000
_cell_angle_alpha   90.00000000
_cell_angle_beta   90.00000000
_cell_angle_gamma   90.00000000
_symmetry_Int_Tables_number   1
_chemical_formula_structural   Co3H30C54O13
_chemical_formula_sum   'Co12 H120 C216 O52'
_cell_volume   9411.34970309
_cell_formula_units_Z   4
loop_
 _symmetry_equiv_pos_site_id
 _symmetry_equiv_pos_as_xyz
  1  'x, y, z'
loop_
 _atom_site_type_symbol
 _atom_site_label
 _atom_site_symmetry_multiplicity
 _atom_site_fract_x
 _atom_site_fract_y
 _atom_site_fract_z
 _atom_site_occupancy
 _atom_site_charge
  Co  Co1  1  0.003250  0.936210  0.680790  1.0  1.0836
  Co  Co2  1  0.496750  0.436210  0.319210  1.0  1.0823
  Co  Co3  1  0.003250  0.936210  0.819210  1.0  1.0835
  Co  Co4  1  0.496750  0.436210  0.180790  1.0  1.0823
  Co  Co5  1  0.387230  0.336760  0.250000  1.0  1.0913
  Co  Co6  1  0.112770  0.836760  0.750000  1.0  1.0931
  Co  Co7  1  0.996750  0.063790  0.180790  1.0  1.0817
  Co  Co8  1  0.503250  0.563790  0.819210  1.0  1.0815
  Co  Co9  1  0.996750  0.063790  0.319210  1.0  1.0813
  Co  Co10  1  0.503250  0.563790  0.680790  1.0  1.082
  Co  Co11  1  0.612770  0.663240  0.750000  1.0  1.0951
  Co  Co12  1  0.887230  0.163240  0.250000  1.0  1.0942
  H  H13  1  0.403000  0.189200  0.362100  1.0  0.1069
  H  H14  1  0.617400  0.108400  0.517700  1.0  0.1175
  H  H15  1  0.301000  0.080500  0.576000  1.0  0.1193
  H  H16  1  0.516500  0.988900  0.618400  1.0  0.1045
  H  H17  1  0.576000  0.216400  0.497800  1.0  0.127
  H  H18  1  0.564900  0.292000  0.432600  1.0  0.1119
  H  H19  1  0.190400  0.039000  0.612000  1.0  0.1122
  H  H20  1  0.412000  0.114000  0.427000  1.0  0.1049
  H  H21  1  0.415400  0.925300  0.620300  1.0  0.1074
  H  H22  1  0.306300  0.886000  0.659100  1.0  0.1129
  H  H23  1  0.740900  0.963500  0.689600  1.0  0.102
  H  H24  1  0.389900  0.088600  0.516400  1.0  0.1102
  H  H25  1  0.626600  0.998600  0.662700  1.0  0.1116
  H  H26  1  0.710900  0.033300  0.519600  1.0  0.1225
  H  H27  1  0.830100  0.012600  0.551400  1.0  0.1133
  H  H28  1  0.097000  0.689200  0.637900  1.0  0.1069
  H  H29  1  0.882600  0.608400  0.482300  1.0  0.1173
  H  H30  1  0.199000  0.580500  0.424000  1.0  0.1182
  H  H31  1  0.983500  0.488900  0.381600  1.0  0.1048
  H  H32  1  0.924000  0.716400  0.502200  1.0  0.1271
  H  H33  1  0.935100  0.792000  0.567400  1.0  0.1118
  H  H34  1  0.309600  0.539000  0.388000  1.0  0.1121
  H  H35  1  0.088000  0.614000  0.573000  1.0  0.105
  H  H36  1  0.084600  0.425300  0.379700  1.0  0.1071
  H  H37  1  0.193700  0.386000  0.340900  1.0  0.1125
  H  H38  1  0.759100  0.463500  0.310400  1.0  0.1011
  H  H39  1  0.110100  0.588600  0.483600  1.0  0.111
  H  H40  1  0.873400  0.498600  0.337300  1.0  0.1125
  H  H41  1  0.789100  0.533300  0.480400  1.0  0.1223
  H  H42  1  0.669900  0.512600  0.448600  1.0  0.1137
  H  H43  1  0.403000  0.189200  0.137900  1.0  0.1072
  H  H44  1  0.617400  0.108400  0.982300  1.0  0.117
  H  H45  1  0.301000  0.080500  0.924000  1.0  0.1185
  H  H46  1  0.516500  0.988900  0.881600  1.0  0.1046
  H  H47  1  0.576000  0.216400  0.002200  1.0  0.1268
  H  H48  1  0.564900  0.292000  0.067400  1.0  0.1119
  H  H49  1  0.190400  0.039000  0.888000  1.0  0.1121
  H  H50  1  0.412000  0.114000  0.073000  1.0  0.1049
  H  H51  1  0.415400  0.925300  0.879700  1.0  0.107
  H  H52  1  0.306300  0.886000  0.840900  1.0  0.1124
  H  H53  1  0.740900  0.963500  0.810400  1.0  0.1012
  H  H54  1  0.389900  0.088600  0.983600  1.0  0.1105
  H  H55  1  0.626600  0.998600  0.837300  1.0  0.1109
  H  H56  1  0.710900  0.033300  0.980400  1.0  0.122
  H  H57  1  0.830100  0.012600  0.948600  1.0  0.1134
  H  H58  1  0.097000  0.689200  0.862100  1.0  0.1069
  H  H59  1  0.882600  0.608400  0.017700  1.0  0.1179
  H  H60  1  0.199000  0.580500  0.076000  1.0  0.1191
  H  H61  1  0.983500  0.488900  0.118400  1.0  0.1046
  H  H62  1  0.924000  0.716400  0.997800  1.0  0.1276
  H  H63  1  0.935100  0.792000  0.932600  1.0  0.1119
  H  H64  1  0.309600  0.539000  0.112000  1.0  0.1125
  H  H65  1  0.088000  0.614000  0.927000  1.0  0.1052
  H  H66  1  0.084600  0.425300  0.120300  1.0  0.1069
  H  H67  1  0.193700  0.386000  0.159100  1.0  0.1129
  H  H68  1  0.759100  0.463500  0.189600  1.0  0.1019
  H  H69  1  0.110100  0.588600  0.016400  1.0  0.1105
  H  H70  1  0.873400  0.498600  0.162700  1.0  0.1135
  H  H71  1  0.789100  0.533300  0.019600  1.0  0.1225
  H  H72  1  0.669900  0.512600  0.051400  1.0  0.1137
  H  H73  1  0.597000  0.810800  0.862100  1.0  0.1067
  H  H74  1  0.382600  0.891600  0.017700  1.0  0.1186
  H  H75  1  0.699000  0.919500  0.076000  1.0  0.1193
  H  H76  1  0.483500  0.011100  0.118400  1.0  0.1044
  H  H77  1  0.424000  0.783600  0.997800  1.0  0.1277
  H  H78  1  0.435100  0.708000  0.932600  1.0  0.1113
  H  H79  1  0.809600  0.961000  0.112000  1.0  0.1119
  H  H80  1  0.588000  0.886000  0.927000  1.0  0.1049
  H  H81  1  0.584600  0.074700  0.120300  1.0  0.1069
  H  H82  1  0.693700  0.114000  0.159100  1.0  0.1129
  H  H83  1  0.259100  0.036500  0.189600  1.0  0.1012
  H  H84  1  0.610100  0.911400  0.016400  1.0  0.1108
  H  H85  1  0.373400  0.001400  0.162700  1.0  0.1122
  H  H86  1  0.289100  0.966700  0.019600  1.0  0.1222
  H  H87  1  0.169900  0.987400  0.051400  1.0  0.1136
  H  H88  1  0.903000  0.310800  0.137900  1.0  0.1069
  H  H89  1  0.117400  0.391600  0.982300  1.0  0.1176
  H  H90  1  0.801000  0.419500  0.924000  1.0  0.1186
  H  H91  1  0.016500  0.511100  0.881600  1.0  0.1051
  H  H92  1  0.076000  0.283600  0.002200  1.0  0.127
  H  H93  1  0.064900  0.208000  0.067400  1.0  0.1115
  H  H94  1  0.690400  0.461000  0.888000  1.0  0.1119
  H  H95  1  0.912000  0.386000  0.073000  1.0  0.1052
  H  H96  1  0.915400  0.574700  0.879700  1.0  0.1073
  H  H97  1  0.806300  0.614000  0.840900  1.0  0.1127
  H  H98  1  0.240900  0.536500  0.810400  1.0  0.101
  H  H99  1  0.889900  0.411400  0.983600  1.0  0.1109
  H  H100  1  0.126600  0.501400  0.837300  1.0  0.1121
  H  H101  1  0.210900  0.466700  0.980400  1.0  0.122
  H  H102  1  0.330100  0.487400  0.948600  1.0  0.1136
  H  H103  1  0.597000  0.810800  0.637900  1.0  0.1068
  H  H104  1  0.382600  0.891600  0.482300  1.0  0.118
  H  H105  1  0.699000  0.919500  0.424000  1.0  0.1187
  H  H106  1  0.483500  0.011100  0.381600  1.0  0.105
  H  H107  1  0.424000  0.783600  0.502200  1.0  0.1272
  H  H108  1  0.435100  0.708000  0.567400  1.0  0.1109
  H  H109  1  0.809600  0.961000  0.388000  1.0  0.1118
  H  H110  1  0.588000  0.886000  0.573000  1.0  0.1051
  H  H111  1  0.584600  0.074700  0.379700  1.0  0.1074
  H  H112  1  0.693700  0.114000  0.340900  1.0  0.1128
  H  H113  1  0.259100  0.036500  0.310400  1.0  0.1009
  H  H114  1  0.610100  0.911400  0.483600  1.0  0.1111
  H  H115  1  0.373400  0.001400  0.337300  1.0  0.1106
  H  H116  1  0.289100  0.966700  0.480400  1.0  0.1224
  H  H117  1  0.169900  0.987400  0.448600  1.0  0.1139
  H  H118  1  0.903000  0.310800  0.362100  1.0  0.1067
  H  H119  1  0.117400  0.391600  0.517700  1.0  0.1183
  H  H120  1  0.801000  0.419500  0.576000  1.0  0.1186
  H  H121  1  0.016500  0.511100  0.618400  1.0  0.1046
  H  H122  1  0.076000  0.283600  0.497800  1.0  0.1274
  H  H123  1  0.064900  0.208000  0.432600  1.0  0.1118
  H  H124  1  0.690400  0.461000  0.612000  1.0  0.1119
  H  H125  1  0.912000  0.386000  0.427000  1.0  0.1048
  H  H126  1  0.915400  0.574700  0.620300  1.0  0.1073
  H  H127  1  0.806300  0.614000  0.659100  1.0  0.1127
  H  H128  1  0.240900  0.536500  0.689600  1.0  0.1016
  H  H129  1  0.889900  0.411400  0.516400  1.0  0.1107
  H  H130  1  0.126600  0.501400  0.662700  1.0  0.1129
  H  H131  1  0.210900  0.466700  0.519600  1.0  0.1224
  H  H132  1  0.330100  0.487400  0.551400  1.0  0.1133
  C  C133  1  0.579300  0.044600  0.570670  1.0  0.0241
  C  C134  1  0.877800  0.969480  0.648800  1.0  0.697
  C  C135  1  0.437500  0.194840  0.389490  1.0  -0.0438
  C  C136  1  0.502980  0.107300  0.510480  1.0  0.0146
  C  C137  1  0.573400  0.089680  0.530870  1.0  -0.1242
  C  C138  1  0.482000  0.249200  0.390930  1.0  -0.1406
  C  C139  1  0.302200  0.041100  0.592290  1.0  -0.1314
  C  C140  1  0.655700  0.025300  0.590050  1.0  0.091
  C  C141  1  0.799900  0.988970  0.626560  1.0  -0.1079
  C  C142  1  0.496400  0.154900  0.468150  1.0  0.0786
  C  C143  1  0.513000  0.018100  0.591070  1.0  -0.1181
  C  C144  1  0.237000  0.959060  0.639820  1.0  -0.1267
  C  C145  1  0.541500  0.210550  0.470310  1.0  -0.1255
  C  C146  1  0.370700  0.007300  0.594230  1.0  0.0237
  C  C147  1  0.472700  0.299570  0.349900  1.0  0.7312
  C  C148  1  0.534200  0.256110  0.431470  1.0  -0.0391
  C  C149  1  0.235800  0.016490  0.614420  1.0  -0.0357
  C  C150  1  0.443700  0.149150  0.428040  1.0  -0.0858
  C  C151  1  0.165800  0.933750  0.666090  1.0  0.7436
  C  C152  1  0.441300  0.034440  0.571360  1.0  -0.0099
  C  C153  1  0.370700  0.948810  0.619050  1.0  -0.1374
  C  C154  1  0.305000  0.924930  0.642090  1.0  -0.0527
  C  C155  1  0.736700  0.982100  0.656510  1.0  -0.0344
  C  C156  1  0.437100  0.078280  0.530580  1.0  -0.1251
  C  C157  1  0.667700  0.001500  0.639730  1.0  -0.1245
  C  C158  1  0.717800  0.024100  0.555200  1.0  -0.1751
  C  C159  1  0.788300  0.009300  0.573900  1.0  -0.0599
  C  C160  1  0.920700  0.544600  0.429330  1.0  0.0235
  C  C161  1  0.622200  0.469480  0.351200  1.0  0.6974
  C  C162  1  0.062500  0.694840  0.610510  1.0  -0.0439
  C  C163  1  0.997020  0.607300  0.489520  1.0  0.0151
  C  C164  1  0.926600  0.589680  0.469130  1.0  -0.1264
  C  C165  1  0.018000  0.749200  0.609070  1.0  -0.1406
  C  C166  1  0.197800  0.541100  0.407710  1.0  -0.1324
  C  C167  1  0.844300  0.525300  0.409950  1.0  0.09
  C  C168  1  0.700100  0.488970  0.373440  1.0  -0.1085
  C  C169  1  0.003600  0.654900  0.531850  1.0  0.0786
  C  C170  1  0.987000  0.518100  0.408930  1.0  -0.1175
  C  C171  1  0.263000  0.459060  0.360180  1.0  -0.1272
  C  C172  1  0.958500  0.710550  0.529690  1.0  -0.1257
  C  C173  1  0.129300  0.507300  0.405770  1.0  0.0229
  C  C174  1  0.027300  0.799570  0.650100  1.0  0.7307
  C  C175  1  0.965800  0.756110  0.568530  1.0  -0.0395
  C  C176  1  0.264200  0.516490  0.385580  1.0  -0.0357
  C  C177  1  0.056300  0.649150  0.571960  1.0  -0.0864
  C  C178  1  0.334200  0.433750  0.333910  1.0  0.7429
  C  C179  1  0.058700  0.534440  0.428640  1.0  -0.011
  C  C180  1  0.129300  0.448810  0.380950  1.0  -0.1368
  C  C181  1  0.195000  0.424930  0.357910  1.0  -0.0518
  C  C182  1  0.763300  0.482100  0.343490  1.0  -0.0334
  C  C183  1  0.062900  0.578280  0.469420  1.0  -0.1231
  C  C184  1  0.832300  0.501500  0.360270  1.0  -0.1241
  C  C185  1  0.782200  0.524100  0.444800  1.0  -0.1754
  C  C186  1  0.711700  0.509300  0.426100  1.0  -0.0611
  C  C187  1  0.579300  0.044600  0.929330  1.0  0.0238
  C  C188  1  0.877800  0.969480  0.851200  1.0  0.6964
  C  C189  1  0.437500  0.194840  0.110510  1.0  -0.0447
  C  C190  1  0.502980  0.107300  0.989520  1.0  0.0151
  C  C191  1  0.573400  0.089680  0.969130  1.0  -0.1246
  C  C192  1  0.482000  0.249200  0.109070  1.0  -0.141
  C  C193  1  0.302200  0.041100  0.907710  1.0  -0.1301
  C  C194  1  0.655700  0.025300  0.909950  1.0  0.0894
  C  C195  1  0.799900  0.988970  0.873440  1.0  -0.1077
  C  C196  1  0.496400  0.154900  0.031850  1.0  0.0787
  C  C197  1  0.513000  0.018100  0.908930  1.0  -0.1176
  C  C198  1  0.237000  0.959060  0.860180  1.0  -0.127
  C  C199  1  0.541500  0.210550  0.029690  1.0  -0.1257
  C  C200  1  0.370700  0.007300  0.905770  1.0  0.0237
  C  C201  1  0.472700  0.299570  0.150100  1.0  0.7309
  C  C202  1  0.534200  0.256110  0.068530  1.0  -0.0392
  C  C203  1  0.235800  0.016490  0.885580  1.0  -0.0364
  C  C204  1  0.443700  0.149150  0.071960  1.0  -0.0854
  C  C205  1  0.165800  0.933750  0.833910  1.0  0.7429
  C  C206  1  0.441300  0.034440  0.928640  1.0  -0.0106
  C  C207  1  0.370700  0.948810  0.880950  1.0  -0.1367
  C  C208  1  0.305000  0.924930  0.857910  1.0  -0.0521
  C  C209  1  0.736700  0.982100  0.843490  1.0  -0.0343
  C  C210  1  0.437100  0.078280  0.969420  1.0  -0.1253
  C  C211  1  0.667700  0.001500  0.860270  1.0  -0.1252
  C  C212  1  0.717800  0.024100  0.944800  1.0  -0.1759
  C  C213  1  0.788300  0.009300  0.926100  1.0  -0.0603
  C  C214  1  0.920700  0.544600  0.070670  1.0  0.023
  C  C215  1  0.622200  0.469480  0.148800  1.0  0.6978
  C  C216  1  0.062500  0.694840  0.889490  1.0  -0.0438
  C  C217  1  0.997020  0.607300  0.010480  1.0  0.0149
  C  C218  1  0.926600  0.589680  0.030870  1.0  -0.1266
  C  C219  1  0.018000  0.749200  0.890930  1.0  -0.1402
  C  C220  1  0.197800  0.541100  0.092290  1.0  -0.1334
  C  C221  1  0.844300  0.525300  0.090050  1.0  0.0907
  C  C222  1  0.700100  0.488970  0.126560  1.0  -0.1085
  C  C223  1  0.003600  0.654900  0.968150  1.0  0.0788
  C  C224  1  0.987000  0.518100  0.091070  1.0  -0.1179
  C  C225  1  0.263000  0.459060  0.139820  1.0  -0.1276
  C  C226  1  0.958500  0.710550  0.970310  1.0  -0.1268
  C  C227  1  0.129300  0.507300  0.094230  1.0  0.0245
  C  C228  1  0.027300  0.799570  0.849900  1.0  0.7311
  C  C229  1  0.965800  0.756110  0.931470  1.0  -0.0395
  C  C230  1  0.264200  0.516490  0.114420  1.0  -0.0353
  C  C231  1  0.056300  0.649150  0.928040  1.0  -0.0863
  C  C232  1  0.334200  0.433750  0.166090  1.0  0.7435
  C  C233  1  0.058700  0.534440  0.071360  1.0  -0.01
  C  C234  1  0.129300  0.448810  0.119050  1.0  -0.1383
  C  C235  1  0.195000  0.424930  0.142090  1.0  -0.0524
  C  C236  1  0.763300  0.482100  0.156510  1.0  -0.0342
  C  C237  1  0.062900  0.578280  0.030580  1.0  -0.1228
  C  C238  1  0.832300  0.501500  0.139730  1.0  -0.1235
  C  C239  1  0.782200  0.524100  0.055200  1.0  -0.1746
  C  C240  1  0.711700  0.509300  0.073900  1.0  -0.0608
  C  C241  1  0.420700  0.955400  0.070670  1.0  0.024
  C  C242  1  0.122200  0.030520  0.148800  1.0  0.6974
  C  C243  1  0.562500  0.805160  0.889490  1.0  -0.0439
  C  C244  1  0.497020  0.892700  0.010480  1.0  0.0153
  C  C245  1  0.426600  0.910320  0.030870  1.0  -0.1279
  C  C246  1  0.518000  0.750800  0.890930  1.0  -0.1414
  C  C247  1  0.697800  0.958900  0.092290  1.0  -0.1327
  C  C248  1  0.344300  0.974700  0.090050  1.0  0.091
  C  C249  1  0.200100  0.011030  0.126560  1.0  -0.1085
  C  C250  1  0.503600  0.845100  0.968150  1.0  0.0802
  C  C251  1  0.487000  0.981900  0.091070  1.0  -0.1186
  C  C252  1  0.763000  0.040940  0.139820  1.0  -0.1276
  C  C253  1  0.458500  0.789450  0.970310  1.0  -0.1254
  C  C254  1  0.629300  0.992700  0.094230  1.0  0.0245
  C  C255  1  0.527300  0.700430  0.849900  1.0  0.7308
  C  C256  1  0.465800  0.743890  0.931470  1.0  -0.0373
  C  C257  1  0.764200  0.983510  0.114420  1.0  -0.0365
  C  C258  1  0.556300  0.850850  0.928040  1.0  -0.0856
  C  C259  1  0.834200  0.066250  0.166090  1.0  0.7433
  C  C260  1  0.558700  0.965560  0.071360  1.0  -0.0093
  C  C261  1  0.629300  0.051190  0.119050  1.0  -0.1385
  C  C262  1  0.695000  0.075070  0.142090  1.0  -0.0517
  C  C263  1  0.263300  0.017900  0.156510  1.0  -0.0353
  C  C264  1  0.562900  0.921720  0.030580  1.0  -0.1241
  C  C265  1  0.332300  0.998500  0.139730  1.0  -0.124
  C  C266  1  0.282200  0.975900  0.055200  1.0  -0.1742
  C  C267  1  0.211700  0.990700  0.073900  1.0  -0.0604
  C  C268  1  0.079300  0.455400  0.929330  1.0  0.0248
  C  C269  1  0.377800  0.530520  0.851200  1.0  0.697
  C  C270  1  0.937500  0.305160  0.110510  1.0  -0.044
  C  C271  1  0.002980  0.392700  0.989520  1.0  0.0146
  C  C272  1  0.073400  0.410320  0.969130  1.0  -0.1262
  C  C273  1  0.982000  0.250800  0.109070  1.0  -0.1415
  C  C274  1  0.802200  0.458900  0.907710  1.0  -0.1303
  C  C275  1  0.155700  0.474700  0.909950  1.0  0.0897
  C  C276  1  0.299900  0.511030  0.873440  1.0  -0.1071
  C  C277  1  0.996400  0.345100  0.031850  1.0  0.0802
  C  C278  1  0.013000  0.481900  0.908930  1.0  -0.1181
  C  C279  1  0.737000  0.540940  0.860180  1.0  -0.1269
  C  C280  1  0.041500  0.289450  0.029690  1.0  -0.1252
  C  C281  1  0.870700  0.492700  0.905770  1.0  0.0228
  C  C282  1  0.972700  0.200430  0.150100  1.0  0.7306
  C  C283  1  0.034200  0.243890  0.068530  1.0  -0.0396
  C  C284  1  0.735800  0.483510  0.885580  1.0  -0.036
  C  C285  1  0.943700  0.350850  0.071960  1.0  -0.0839
  C  C286  1  0.665800  0.566250  0.833910  1.0  0.7427
  C  C287  1  0.941300  0.465560  0.928640  1.0  -0.0111
  C  C288  1  0.870700  0.551190  0.880950  1.0  -0.1364
  C  C289  1  0.805000  0.575070  0.857910  1.0  -0.0532
  C  C290  1  0.236700  0.517900  0.843490  1.0  -0.0349
  C  C291  1  0.937100  0.421720  0.969420  1.0  -0.1253
  C  C292  1  0.167700  0.498500  0.860270  1.0  -0.1248
  C  C293  1  0.217800  0.475900  0.944800  1.0  -0.1753
  C  C294  1  0.288300  0.490700  0.926100  1.0  -0.06
  C  C295  1  0.420700  0.955400  0.429330  1.0  0.024
  C  C296  1  0.122200  0.030520  0.351200  1.0  0.6974
  C  C297  1  0.562500  0.805160  0.610510  1.0  -0.0437
  C  C298  1  0.497020  0.892700  0.489520  1.0  0.0147
  C  C299  1  0.426600  0.910320  0.469130  1.0  -0.127
  C  C300  1  0.518000  0.750800  0.609070  1.0  -0.1411
  C  C301  1  0.697800  0.958900  0.407710  1.0  -0.1312
  C  C302  1  0.344300  0.974700  0.409950  1.0  0.0899
  C  C303  1  0.200100  0.011030  0.373440  1.0  -0.1087
  C  C304  1  0.503600  0.845100  0.531850  1.0  0.0801
  C  C305  1  0.487000  0.981900  0.408930  1.0  -0.1179
  C  C306  1  0.763000  0.040940  0.360180  1.0  -0.127
  C  C307  1  0.458500  0.789450  0.529690  1.0  -0.124
  C  C308  1  0.629300  0.992700  0.405770  1.0  0.0219
  C  C309  1  0.527300  0.700430  0.650100  1.0  0.7304
  C  C310  1  0.465800  0.743890  0.568530  1.0  -0.0377
  C  C311  1  0.764200  0.983510  0.385580  1.0  -0.037
  C  C312  1  0.556300  0.850850  0.571960  1.0  -0.0856
  C  C313  1  0.834200  0.066250  0.333910  1.0  0.7429
  C  C314  1  0.558700  0.965560  0.428640  1.0  -0.011
  C  C315  1  0.629300  0.051190  0.380950  1.0  -0.1371
  C  C316  1  0.695000  0.075070  0.357910  1.0  -0.0525
  C  C317  1  0.263300  0.017900  0.343490  1.0  -0.034
  C  C318  1  0.562900  0.921720  0.469420  1.0  -0.1243
  C  C319  1  0.332300  0.998500  0.360270  1.0  -0.1246
  C  C320  1  0.282200  0.975900  0.444800  1.0  -0.1753
  C  C321  1  0.211700  0.990700  0.426100  1.0  -0.0604
  C  C322  1  0.079300  0.455400  0.570670  1.0  0.0253
  C  C323  1  0.377800  0.530520  0.648800  1.0  0.6972
  C  C324  1  0.937500  0.305160  0.389490  1.0  -0.0432
  C  C325  1  0.002980  0.392700  0.510480  1.0  0.0151
  C  C326  1  0.073400  0.410320  0.530870  1.0  -0.126
  C  C327  1  0.982000  0.250800  0.390930  1.0  -0.1416
  C  C328  1  0.802200  0.458900  0.592290  1.0  -0.132
  C  C329  1  0.155700  0.474700  0.590050  1.0  0.0908
  C  C330  1  0.299900  0.511030  0.626560  1.0  -0.1073
  C  C331  1  0.996400  0.345100  0.468150  1.0  0.0801
  C  C332  1  0.013000  0.481900  0.591070  1.0  -0.1187
  C  C333  1  0.737000  0.540940  0.639820  1.0  -0.1267
  C  C334  1  0.041500  0.289450  0.470310  1.0  -0.1252
  C  C335  1  0.870700  0.492700  0.594230  1.0  0.0241
  C  C336  1  0.972700  0.200430  0.349900  1.0  0.7309
  C  C337  1  0.034200  0.243890  0.431470  1.0  -0.0394
  C  C338  1  0.735800  0.483510  0.614420  1.0  -0.0356
  C  C339  1  0.943700  0.350850  0.428040  1.0  -0.0844
  C  C340  1  0.665800  0.566250  0.666090  1.0  0.7432
  C  C341  1  0.941300  0.465560  0.571360  1.0  -0.01
  C  C342  1  0.870700  0.551190  0.619050  1.0  -0.1372
  C  C343  1  0.805000  0.575070  0.642090  1.0  -0.0525
  C  C344  1  0.236700  0.517900  0.656510  1.0  -0.0352
  C  C345  1  0.937100  0.421720  0.530580  1.0  -0.1257
  C  C346  1  0.167700  0.498500  0.639730  1.0  -0.1246
  C  C347  1  0.217800  0.475900  0.555200  1.0  -0.1749
  C  C348  1  0.288300  0.490700  0.573900  1.0  -0.0603
  O  O349  1  0.106430  0.965790  0.660420  1.0  -0.6005
  O  O350  1  0.438780  0.283450  0.308520  1.0  -0.6104
  O  O351  1  0.499700  0.352840  0.360760  1.0  -0.593
  O  O352  1  0.172890  0.884670  0.692650  1.0  -0.6211
  O  O353  1  0.879200  0.934870  0.685980  1.0  -0.5249
  O  O354  1  0.935100  0.988310  0.624900  1.0  -0.552
  O  O355  1  0.393570  0.465790  0.339580  1.0  -0.6005
  O  O356  1  0.061220  0.783450  0.691480  1.0  -0.611
  O  O357  1  0.000300  0.852840  0.639240  1.0  -0.5934
  O  O358  1  0.327110  0.384670  0.307350  1.0  -0.6213
  O  O359  1  0.620800  0.434870  0.314020  1.0  -0.5269
  O  O360  1  0.564900  0.488310  0.375100  1.0  -0.5522
  O  O361  1  0.106430  0.965790  0.839580  1.0  -0.6
  O  O362  1  0.438780  0.283450  0.191480  1.0  -0.6114
  O  O363  1  0.499700  0.352840  0.139240  1.0  -0.5927
  O  O364  1  0.172890  0.884670  0.807350  1.0  -0.6212
  O  O365  1  0.879200  0.934870  0.814020  1.0  -0.525
  O  O366  1  0.935100  0.988310  0.875100  1.0  -0.5504
  O  O367  1  0.393570  0.465790  0.160420  1.0  -0.601
  O  O368  1  0.061220  0.783450  0.808520  1.0  -0.6103
  O  O369  1  0.000300  0.852840  0.860760  1.0  -0.5939
  O  O370  1  0.327110  0.384670  0.192650  1.0  -0.6208
  O  O371  1  0.620800  0.434870  0.185980  1.0  -0.5271
  O  O372  1  0.564900  0.488310  0.124900  1.0  -0.5539
  O  O373  1  0.484230  0.393010  0.250000  1.0  -0.8231
  O  O374  1  0.015770  0.893010  0.750000  1.0  -0.8234
  O  O375  1  0.893570  0.034210  0.160420  1.0  -0.6006
  O  O376  1  0.561220  0.716550  0.808520  1.0  -0.6099
  O  O377  1  0.500300  0.647160  0.860760  1.0  -0.5937
  O  O378  1  0.827110  0.115330  0.192650  1.0  -0.6215
  O  O379  1  0.120800  0.065130  0.185980  1.0  -0.5258
  O  O380  1  0.064900  0.011690  0.124900  1.0  -0.5505
  O  O381  1  0.606430  0.534210  0.839580  1.0  -0.6
  O  O382  1  0.938780  0.216550  0.191480  1.0  -0.6102
  O  O383  1  0.999700  0.147160  0.139240  1.0  -0.5927
  O  O384  1  0.672890  0.615330  0.807350  1.0  -0.6215
  O  O385  1  0.379200  0.565130  0.814020  1.0  -0.5268
  O  O386  1  0.435100  0.511690  0.875100  1.0  -0.5553
  O  O387  1  0.893570  0.034210  0.339580  1.0  -0.6006
  O  O388  1  0.561220  0.716550  0.691480  1.0  -0.6099
  O  O389  1  0.500300  0.647160  0.639240  1.0  -0.5935
  O  O390  1  0.827110  0.115330  0.307350  1.0  -0.6221
  O  O391  1  0.120800  0.065130  0.314020  1.0  -0.5264
  O  O392  1  0.064900  0.011690  0.375100  1.0  -0.5502
  O  O393  1  0.606430  0.534210  0.660420  1.0  -0.5998
  O  O394  1  0.938780  0.216550  0.308520  1.0  -0.6099
  O  O395  1  0.999700  0.147160  0.360760  1.0  -0.5927
  O  O396  1  0.672890  0.615330  0.692650  1.0  -0.6216
  O  O397  1  0.379200  0.565130  0.685980  1.0  -0.5264
  O  O398  1  0.435100  0.511690  0.624900  1.0  -0.5564
  O  O399  1  0.515770  0.606990  0.750000  1.0  -0.8235
  O  O400  1  0.984230  0.106990  0.250000  1.0  -0.8232
