# generated using pymatgen
data_Co11H90(C9O2)18
_symmetry_space_group_name_H-M   'P 1'
_cell_length_a   28.93520000
_cell_length_b   28.93520000
_cell_length_c   33.18400000
_cell_angle_alpha   86.15110000
_cell_angle_beta   86.15110000
_cell_angle_gamma   76.69370000
_symmetry_Int_Tables_number   1
_chemical_formula_structural   Co11H90(C9O2)18
_chemical_formula_sum   'Co22 H180 C324 O72'
_cell_volume   26938.07142939
_cell_formula_units_Z   2
loop_
 _symmetry_equiv_pos_site_id
 _symmetry_equiv_pos_as_xyz
  1  'x, y, z'
loop_
 _atom_site_type_symbol
 _atom_site_label
 _atom_site_symmetry_multiplicity
 _atom_site_fract_x
 _atom_site_fract_y
 _atom_site_fract_z
 _atom_site_occupancy
 _atom_site_charge
  Co  Co1  1  0.240410  0.173960  0.855640  1.0  0.9647
  Co  Co2  1  0.728100  0.793970  0.407450  1.0  1.0174
  Co  Co3  1  0.244960  0.054200  0.869080  1.0  0.9402
  Co  Co4  1  0.258320  0.711630  0.146610  1.0  1.0133
  Co  Co5  1  0.696740  0.688790  0.393170  1.0  0.8797
  Co  Co6  1  0.826040  0.759590  0.644360  1.0  0.9694
  Co  Co7  1  0.206030  0.271900  0.092550  1.0  1.0087
  Co  Co8  1  0.945800  0.755040  0.630920  1.0  0.9405
  Co  Co9  1  0.288370  0.741680  0.353390  1.0  1.019
  Co  Co10  1  0.311210  0.303260  0.106830  1.0  0.8867
  Co  Co11  1  0.759590  0.826040  0.144360  1.0  0.9719
  Co  Co12  1  0.271900  0.206030  0.592550  1.0  1.0166
  Co  Co13  1  0.755040  0.945800  0.130920  1.0  0.9423
  Co  Co14  1  0.741680  0.288370  0.853390  1.0  1.0193
  Co  Co15  1  0.303260  0.311210  0.606830  1.0  0.8784
  Co  Co16  1  0.173960  0.240410  0.355640  1.0  0.9719
  Co  Co17  1  0.793970  0.728100  0.907450  1.0  1.0071
  Co  Co18  1  0.054200  0.244960  0.369080  1.0  0.9426
  Co  Co19  1  0.711630  0.258320  0.646610  1.0  1.0133
  Co  Co20  1  0.688790  0.696740  0.893170  1.0  0.8852
  Co  Co21  1  0.269410  0.730590  0.250000  1.0  1.1947
  Co  Co22  1  0.730590  0.269410  0.750000  1.0  1.1948
  H  H23  1  0.202100  0.856900  0.116500  1.0  0.1135
  H  H24  1  0.253300  0.880300  0.222100  1.0  0.0977
  H  H25  1  0.235900  0.962300  0.204200  1.0  0.1047
  H  H26  1  0.184900  0.937700  0.100100  1.0  0.1122
  H  H27  1  0.211300  0.005900  0.079400  1.0  0.1196
  H  H28  1  0.167300  0.139700  0.114900  1.0  0.1059
  H  H29  1  0.176900  0.030900  0.197300  1.0  0.1086
  H  H30  1  0.187500  0.173100  0.171800  1.0  0.0856
  H  H31  1  0.110000  0.087600  0.225700  1.0  0.1161
  H  H32  1  0.169500  0.222100  0.225000  1.0  0.0995
  H  H33  1  0.092300  0.134900  0.280100  1.0  0.1028
  H  H34  1  0.178800  0.042800  0.022200  1.0  0.1074
  H  H35  1  0.190300  0.068700  0.954800  1.0  0.1205
  H  H36  1  0.218200  0.153200  0.061900  1.0  0.1042
  H  H37  1  0.229200  0.181400  0.994900  1.0  0.0841
  H  H38  1  0.104700  0.698300  0.193500  1.0  0.1113
  H  H39  1  0.051500  0.668300  0.238800  1.0  0.1155
  H  H40  1  0.210700  0.644300  0.266200  1.0  0.0918
  H  H41  1  0.158900  0.607300  0.308100  1.0  0.0989
  H  H42  1  0.113500  0.544700  0.305900  1.0  0.1064
  H  H43  1  0.013000  0.666000  0.307900  1.0  0.1055
  H  H44  1  0.133500  0.477300  0.352000  1.0  0.0911
  H  H45  1  0.000700  0.471700  0.333100  1.0  0.116
  H  H46  1  0.154500  0.395700  0.360500  1.0  0.0858
  H  H47  1  0.021500  0.389700  0.341100  1.0  0.1036
  H  H48  1  0.986500  0.545100  0.362200  1.0  0.102
  H  H49  1  0.911100  0.578700  0.348300  1.0  0.1132
  H  H50  1  0.954500  0.700300  0.354300  1.0  0.1028
  H  H51  1  0.879100  0.738300  0.372700  1.0  0.0878
  H  H52  1  0.835300  0.617900  0.368300  1.0  0.101
  H  H53  1  0.395000  0.751600  0.116100  1.0  0.1159
  H  H54  1  0.472500  0.760100  0.109400  1.0  0.1053
  H  H55  1  0.493800  0.710800  0.224700  1.0  0.1225
  H  H56  1  0.555800  0.729800  0.103500  1.0  0.1055
  H  H57  1  0.611200  0.688600  0.064300  1.0  0.1024
  H  H58  1  0.692500  0.771900  0.096700  1.0  0.1132
  H  H59  1  0.737700  0.757500  0.036300  1.0  0.0887
  H  H60  1  0.652600  0.677800  0.001400  1.0  0.1196
  H  H61  1  0.541200  0.762600  0.219400  1.0  0.1058
  H  H62  1  0.666900  0.752100  0.157400  1.0  0.1039
  H  H63  1  0.670700  0.811300  0.207800  1.0  0.091
  H  H64  1  0.702500  0.823100  0.266300  1.0  0.0945
  H  H65  1  0.627800  0.741200  0.328400  1.0  0.1015
  H  H66  1  0.594000  0.728800  0.271400  1.0  0.1176
  H  H67  1  0.415500  0.703900  0.232200  1.0  0.1027
  H  H68  1  0.143100  0.797900  0.383500  1.0  0.1135
  H  H69  1  0.119700  0.746700  0.277900  1.0  0.0969
  H  H70  1  0.037700  0.764100  0.295800  1.0  0.1039
  H  H71  1  0.062300  0.815100  0.399900  1.0  0.1119
  H  H72  1  0.994100  0.788700  0.420600  1.0  0.1173
  H  H73  1  0.860300  0.832700  0.385100  1.0  0.1065
  H  H74  1  0.969100  0.823100  0.302700  1.0  0.1087
  H  H75  1  0.826900  0.812500  0.328200  1.0  0.0848
  H  H76  1  0.912400  0.890000  0.274300  1.0  0.1155
  H  H77  1  0.777900  0.830500  0.275000  1.0  0.0997
  H  H78  1  0.865100  0.907700  0.219900  1.0  0.102
  H  H79  1  0.957200  0.821200  0.477800  1.0  0.1069
  H  H80  1  0.931300  0.809700  0.545200  1.0  0.1219
  H  H81  1  0.846800  0.781800  0.438100  1.0  0.1053
  H  H82  1  0.818600  0.770800  0.505100  1.0  0.0842
  H  H83  1  0.301700  0.895300  0.306500  1.0  0.1115
  H  H84  1  0.331700  0.948500  0.261200  1.0  0.1145
  H  H85  1  0.355700  0.789300  0.233800  1.0  0.0913
  H  H86  1  0.392700  0.841100  0.191900  1.0  0.0995
  H  H87  1  0.455300  0.886500  0.194100  1.0  0.1061
  H  H88  1  0.334000  0.987000  0.192100  1.0  0.1043
  H  H89  1  0.522700  0.866500  0.148000  1.0  0.0902
  H  H90  1  0.528300  0.999300  0.166900  1.0  0.1145
  H  H91  1  0.604300  0.845500  0.139500  1.0  0.0864
  H  H92  1  0.610300  0.978500  0.158900  1.0  0.1046
  H  H93  1  0.454900  0.013500  0.137800  1.0  0.1015
  H  H94  1  0.421300  0.088900  0.151700  1.0  0.1117
  H  H95  1  0.299700  0.045500  0.145700  1.0  0.1019
  H  H96  1  0.261700  0.120900  0.127300  1.0  0.0882
  H  H97  1  0.382100  0.164700  0.131700  1.0  0.1016
  H  H98  1  0.248400  0.605000  0.383900  1.0  0.1115
  H  H99  1  0.239900  0.527500  0.390600  1.0  0.105
  H  H100  1  0.289200  0.506200  0.275300  1.0  0.1208
  H  H101  1  0.270200  0.444200  0.396500  1.0  0.1053
  H  H102  1  0.311400  0.388800  0.435700  1.0  0.1035
  H  H103  1  0.228100  0.307500  0.403300  1.0  0.1132
  H  H104  1  0.242500  0.262300  0.463700  1.0  0.0877
  H  H105  1  0.322200  0.347400  0.498600  1.0  0.1206
  H  H106  1  0.237400  0.458800  0.280600  1.0  0.1053
  H  H107  1  0.247900  0.333100  0.342600  1.0  0.1026
  H  H108  1  0.188700  0.329300  0.292200  1.0  0.0905
  H  H109  1  0.176900  0.297500  0.233700  1.0  0.0937
  H  H110  1  0.258800  0.372200  0.171600  1.0  0.1008
  H  H111  1  0.271200  0.406000  0.228600  1.0  0.1175
  H  H112  1  0.296100  0.584500  0.267800  1.0  0.1024
  H  H113  1  0.797900  0.143100  0.883500  1.0  0.1141
  H  H114  1  0.746700  0.119700  0.777900  1.0  0.0978
  H  H115  1  0.764100  0.037700  0.795800  1.0  0.1041
  H  H116  1  0.815100  0.062300  0.899900  1.0  0.1124
  H  H117  1  0.788700  0.994100  0.920600  1.0  0.1181
  H  H118  1  0.832700  0.860300  0.885100  1.0  0.1064
  H  H119  1  0.823100  0.969100  0.802700  1.0  0.1086
  H  H120  1  0.812500  0.826900  0.828200  1.0  0.0854
  H  H121  1  0.890000  0.912400  0.774300  1.0  0.1159
  H  H122  1  0.830500  0.777900  0.775000  1.0  0.0994
  H  H123  1  0.907700  0.865100  0.719900  1.0  0.103
  H  H124  1  0.821200  0.957200  0.977800  1.0  0.1079
  H  H125  1  0.809700  0.931300  0.045200  1.0  0.1214
  H  H126  1  0.781800  0.846800  0.938100  1.0  0.1051
  H  H127  1  0.770800  0.818600  0.005100  1.0  0.0834
  H  H128  1  0.895300  0.301700  0.806500  1.0  0.1113
  H  H129  1  0.948500  0.331700  0.761200  1.0  0.1145
  H  H130  1  0.789300  0.355700  0.733800  1.0  0.0916
  H  H131  1  0.841100  0.392700  0.691900  1.0  0.0988
  H  H132  1  0.886500  0.455300  0.694100  1.0  0.106
  H  H133  1  0.987000  0.334000  0.692100  1.0  0.1051
  H  H134  1  0.866500  0.522700  0.648000  1.0  0.0916
  H  H135  1  0.999300  0.528300  0.666900  1.0  0.1167
  H  H136  1  0.845500  0.604300  0.639500  1.0  0.0865
  H  H137  1  0.978500  0.610300  0.658900  1.0  0.1038
  H  H138  1  0.013500  0.454900  0.637800  1.0  0.1015
  H  H139  1  0.088900  0.421300  0.651700  1.0  0.1129
  H  H140  1  0.045500  0.299700  0.645700  1.0  0.1033
  H  H141  1  0.120900  0.261700  0.627300  1.0  0.0873
  H  H142  1  0.164700  0.382100  0.631700  1.0  0.1018
  H  H143  1  0.605000  0.248400  0.883900  1.0  0.1157
  H  H144  1  0.527500  0.239900  0.890600  1.0  0.1044
  H  H145  1  0.506200  0.289200  0.775300  1.0  0.1224
  H  H146  1  0.444200  0.270200  0.896500  1.0  0.1053
  H  H147  1  0.388800  0.311400  0.935700  1.0  0.1027
  H  H148  1  0.307500  0.228100  0.903300  1.0  0.1133
  H  H149  1  0.262300  0.242500  0.963700  1.0  0.088
  H  H150  1  0.347400  0.322200  0.998600  1.0  0.1203
  H  H151  1  0.458800  0.237400  0.780600  1.0  0.1056
  H  H152  1  0.333100  0.247900  0.842600  1.0  0.1061
  H  H153  1  0.329300  0.188700  0.792200  1.0  0.091
  H  H154  1  0.297500  0.176900  0.733700  1.0  0.094
  H  H155  1  0.372200  0.258800  0.671600  1.0  0.1012
  H  H156  1  0.406000  0.271200  0.728600  1.0  0.1178
  H  H157  1  0.584500  0.296100  0.767800  1.0  0.103
  H  H158  1  0.856900  0.202100  0.616500  1.0  0.1135
  H  H159  1  0.880300  0.253300  0.722100  1.0  0.0972
  H  H160  1  0.962300  0.235900  0.704200  1.0  0.1046
  H  H161  1  0.937700  0.184900  0.600100  1.0  0.1113
  H  H162  1  0.005900  0.211300  0.579400  1.0  0.1181
  H  H163  1  0.139700  0.167300  0.614900  1.0  0.1049
  H  H164  1  0.030900  0.176900  0.697300  1.0  0.1093
  H  H165  1  0.173100  0.187500  0.671800  1.0  0.0846
  H  H166  1  0.087600  0.110000  0.725700  1.0  0.1158
  H  H167  1  0.222100  0.169500  0.725000  1.0  0.1
  H  H168  1  0.134900  0.092300  0.780100  1.0  0.1018
  H  H169  1  0.042800  0.178800  0.522200  1.0  0.1072
  H  H170  1  0.068700  0.190300  0.454800  1.0  0.1212
  H  H171  1  0.153200  0.218200  0.561900  1.0  0.1041
  H  H172  1  0.181400  0.229200  0.494900  1.0  0.0842
  H  H173  1  0.698300  0.104700  0.693500  1.0  0.1109
  H  H174  1  0.668300  0.051500  0.738800  1.0  0.1133
  H  H175  1  0.644300  0.210700  0.766200  1.0  0.0915
  H  H176  1  0.607300  0.158900  0.808100  1.0  0.0992
  H  H177  1  0.544700  0.113500  0.805900  1.0  0.1063
  H  H178  1  0.666000  0.013000  0.807900  1.0  0.1048
  H  H179  1  0.477300  0.133500  0.852000  1.0  0.09
  H  H180  1  0.471700  0.000700  0.833100  1.0  0.1143
  H  H181  1  0.395700  0.154500  0.860500  1.0  0.0867
  H  H182  1  0.389700  0.021500  0.841100  1.0  0.1042
  H  H183  1  0.545100  0.986500  0.862200  1.0  0.102
  H  H184  1  0.578700  0.911100  0.848300  1.0  0.1135
  H  H185  1  0.700300  0.954500  0.854300  1.0  0.1025
  H  H186  1  0.738300  0.879100  0.872700  1.0  0.087
  H  H187  1  0.617900  0.835300  0.868300  1.0  0.1008
  H  H188  1  0.751600  0.395000  0.616100  1.0  0.1116
  H  H189  1  0.760100  0.472500  0.609400  1.0  0.1058
  H  H190  1  0.710800  0.493800  0.724700  1.0  0.1218
  H  H191  1  0.729800  0.555800  0.603500  1.0  0.1059
  H  H192  1  0.688600  0.611200  0.564300  1.0  0.1039
  H  H193  1  0.771900  0.692500  0.596700  1.0  0.1138
  H  H194  1  0.757500  0.737700  0.536300  1.0  0.0882
  H  H195  1  0.677800  0.652600  0.501400  1.0  0.1198
  H  H196  1  0.762600  0.541200  0.719400  1.0  0.1061
  H  H197  1  0.752100  0.666900  0.657400  1.0  0.103
  H  H198  1  0.811300  0.670700  0.707800  1.0  0.0906
  H  H199  1  0.823100  0.702500  0.766300  1.0  0.0944
  H  H200  1  0.741200  0.627800  0.828400  1.0  0.1009
  H  H201  1  0.728800  0.594000  0.771400  1.0  0.1174
  H  H202  1  0.703900  0.415500  0.732200  1.0  0.1021
  C  C203  1  0.238890  0.808230  0.182170  1.0  0.713
  C  C204  1  0.701040  0.716920  0.014490  1.0  -0.0947
  C  C205  1  0.208470  0.878010  0.134270  1.0  -0.0683
  C  C206  1  0.726710  0.709070  0.971750  1.0  0.5968
  C  C207  1  0.228350  0.861090  0.171530  1.0  -0.1209
  C  C208  1  0.239420  0.891880  0.197860  1.0  -0.0406
  C  C209  1  0.229000  0.941200  0.186820  1.0  -0.1358
  C  C210  1  0.198540  0.926040  0.124440  1.0  -0.1328
  C  C211  1  0.209110  0.958330  0.151390  1.0  0.0497
  C  C212  1  0.196250  0.010330  0.140670  1.0  0.0256
  C  C213  1  0.201160  0.027100  0.099690  1.0  -0.1165
  C  C214  1  0.190230  0.077010  0.090310  1.0  0.0249
  C  C215  1  0.174580  0.107080  0.121000  1.0  -0.1134
  C  C216  1  0.169270  0.090230  0.161660  1.0  0.0104
  C  C217  1  0.180210  0.042290  0.170620  1.0  -0.1309
  C  C218  1  0.153630  0.124690  0.194080  1.0  0.082
  C  C219  1  0.168860  0.164960  0.193870  1.0  -0.1145
  C  C220  1  0.122830  0.114190  0.226220  1.0  -0.1199
  C  C221  1  0.157720  0.194700  0.225570  1.0  -0.0973
  C  C222  1  0.111600  0.143000  0.258490  1.0  -0.0645
  C  C223  1  0.128370  0.183430  0.259070  1.0  -0.0883
  C  C224  1  0.119930  0.213130  0.294530  1.0  0.7268
  C  C225  1  0.197700  0.095120  0.048830  1.0  0.0208
  C  C226  1  0.189420  0.070680  0.016610  1.0  -0.141
  C  C227  1  0.196240  0.085660  0.975930  1.0  -0.1215
  C  C228  1  0.212580  0.136040  0.040780  1.0  -0.1847
  C  C229  1  0.212790  0.128570  0.968870  1.0  -0.163
  C  C230  1  0.219640  0.152920  0.999990  1.0  -0.0307
  C  C231  1  0.222790  0.144250  0.925610  1.0  0.6659
  C  C232  1  0.197900  0.691120  0.197300  1.0  0.6634
  C  C233  1  0.162560  0.674260  0.226460  1.0  -0.0696
  C  C234  1  0.115320  0.681180  0.217110  1.0  -0.0765
  C  C235  1  0.083720  0.661980  0.243620  1.0  -0.1193
  C  C236  1  0.179140  0.648040  0.259980  1.0  -0.1043
  C  C237  1  0.147640  0.626360  0.285570  1.0  -0.1162
  C  C238  1  0.101070  0.633390  0.277140  1.0  0.0027
  C  C239  1  0.067340  0.609020  0.302680  1.0  -0.013
  C  C240  1  0.082630  0.560650  0.313170  1.0  -0.0869
  C  C241  1  0.051100  0.536020  0.334860  1.0  -0.0093
  C  C242  1  0.022480  0.633540  0.314470  1.0  -0.0884
  C  C243  1  0.110610  0.459810  0.349900  1.0  -0.1109
  C  C244  1  0.031730  0.456270  0.338580  1.0  -0.1421
  C  C245  1  0.066120  0.482800  0.342050  1.0  0.0535
  C  C246  1  0.123380  0.410700  0.354920  1.0  -0.0193
  C  C247  1  0.044170  0.407330  0.343390  1.0  -0.0454
  C  C248  1  0.990670  0.609450  0.336710  1.0  0.0417
  C  C249  1  0.006790  0.560970  0.346780  1.0  -0.0901
  C  C250  1  0.942690  0.635070  0.349390  1.0  0.0358
  C  C251  1  0.905090  0.610690  0.353630  1.0  -0.1605
  C  C252  1  0.930820  0.683160  0.357020  1.0  -0.117
  C  C253  1  0.885620  0.705920  0.368400  1.0  -0.0323
  C  C254  1  0.849140  0.681760  0.373780  1.0  -0.1436
  C  C255  1  0.859460  0.634400  0.365680  1.0  -0.0337
  C  C256  1  0.799290  0.706590  0.386320  1.0  0.7127
  C  C257  1  0.397910  0.723610  0.174040  1.0  -0.1482
  C  C258  1  0.347480  0.717360  0.179100  1.0  0.7162
  C  C259  1  0.414640  0.742920  0.137690  1.0  -0.0691
  C  C260  1  0.461090  0.748970  0.134150  1.0  -0.1211
  C  C261  1  0.473780  0.719600  0.203320  1.0  -0.1659
  C  C262  1  0.490590  0.739230  0.165660  1.0  0.0266
  C  C263  1  0.540580  0.744420  0.162840  1.0  0.0051
  C  C264  1  0.568800  0.736940  0.126520  1.0  -0.1416
  C  C265  1  0.615700  0.740320  0.125090  1.0  -0.0209
  C  C266  1  0.646340  0.731340  0.086460  1.0  -0.0079
  C  C267  1  0.636320  0.703400  0.058260  1.0  -0.115
  C  C268  1  0.684740  0.752480  0.078250  1.0  -0.1748
  C  C269  1  0.711580  0.743860  0.041670  1.0  -0.0225
  C  C270  1  0.661300  0.695540  0.020720  1.0  -0.072
  C  C271  1  0.560210  0.756110  0.195820  1.0  -0.1186
  C  C272  1  0.635080  0.750540  0.158850  1.0  -0.1266
  C  C273  1  0.608490  0.758730  0.195580  1.0  0.0886
  C  C274  1  0.628180  0.769060  0.232310  1.0  0.0734
  C  C275  1  0.661540  0.797060  0.232070  1.0  -0.1437
  C  C276  1  0.680870  0.803790  0.267020  1.0  -0.0321
  C  C277  1  0.668970  0.782370  0.303420  1.0  -0.1396
  C  C278  1  0.636440  0.755240  0.303870  1.0  -0.0636
  C  C279  1  0.615940  0.747800  0.269920  1.0  -0.1728
  C  C280  1  0.427430  0.714030  0.207260  1.0  -0.0745
  C  C281  1  0.104000  0.330440  0.355410  1.0  0.7335
  C  C282  1  0.090840  0.384280  0.351690  1.0  -0.1521
  C  C283  1  0.692560  0.787340  0.340130  1.0  0.5924
  C  C284  1  0.191770  0.761110  0.317830  1.0  0.7104
  C  C285  1  0.283080  0.298960  0.485510  1.0  -0.0952
  C  C286  1  0.121990  0.791530  0.365730  1.0  -0.0672
  C  C287  1  0.290930  0.273290  0.528250  1.0  0.6035
  C  C288  1  0.138910  0.771650  0.328470  1.0  -0.1224
  C  C289  1  0.108120  0.760580  0.302140  1.0  -0.041
  C  C290  1  0.058800  0.771000  0.313180  1.0  -0.1372
  C  C291  1  0.073960  0.801460  0.375560  1.0  -0.1344
  C  C292  1  0.041670  0.790890  0.348610  1.0  0.0503
  C  C293  1  0.989670  0.803750  0.359330  1.0  0.0274
  C  C294  1  0.972900  0.798840  0.400310  1.0  -0.1154
  C  C295  1  0.922990  0.809770  0.409690  1.0  0.0272
  C  C296  1  0.892920  0.825420  0.379000  1.0  -0.1176
  C  C297  1  0.909770  0.830730  0.338340  1.0  0.0141
  C  C298  1  0.957710  0.819790  0.329380  1.0  -0.1297
  C  C299  1  0.875310  0.846370  0.305920  1.0  0.0835
  C  C300  1  0.835040  0.831140  0.306130  1.0  -0.1156
  C  C301  1  0.885810  0.877170  0.273780  1.0  -0.1147
  C  C302  1  0.805300  0.842280  0.274430  1.0  -0.0986
  C  C303  1  0.857000  0.888400  0.241510  1.0  -0.0709
  C  C304  1  0.816570  0.871630  0.240930  1.0  -0.0892
  C  C305  1  0.786870  0.880070  0.205470  1.0  0.7282
  C  C306  1  0.904880  0.802300  0.451170  1.0  0.0216
  C  C307  1  0.929320  0.810580  0.483390  1.0  -0.1357
  C  C308  1  0.914340  0.803760  0.524070  1.0  -0.1225
  C  C309  1  0.863960  0.787420  0.459220  1.0  -0.1852
  C  C310  1  0.871430  0.787210  0.531130  1.0  -0.1638
  C  C311  1  0.847080  0.780360  0.500010  1.0  -0.0309
  C  C312  1  0.855750  0.777210  0.574390  1.0  0.6653
  C  C313  1  0.308880  0.802100  0.302700  1.0  0.6658
  C  C314  1  0.325740  0.837440  0.273540  1.0  -0.0696
  C  C315  1  0.318820  0.884680  0.282890  1.0  -0.0828
  C  C316  1  0.338020  0.916280  0.256380  1.0  -0.1232
  C  C317  1  0.351960  0.820860  0.240020  1.0  -0.1024
  C  C318  1  0.373640  0.852360  0.214430  1.0  -0.1155
  C  C319  1  0.366610  0.898930  0.222860  1.0  0.0042
  C  C320  1  0.390980  0.932660  0.197320  1.0  -0.0138
  C  C321  1  0.439350  0.917370  0.186830  1.0  -0.0863
  C  C322  1  0.463980  0.948900  0.165140  1.0  -0.009
  C  C323  1  0.366460  0.977520  0.185530  1.0  -0.0905
  C  C324  1  0.540190  0.889390  0.150100  1.0  -0.1127
  C  C325  1  0.543730  0.968270  0.161420  1.0  -0.145
  C  C326  1  0.517200  0.933880  0.157950  1.0  0.0543
  C  C327  1  0.589300  0.876620  0.145080  1.0  -0.0213
  C  C328  1  0.592670  0.955830  0.156610  1.0  -0.0455
  C  C329  1  0.390550  0.009330  0.163290  1.0  0.0431
  C  C330  1  0.439030  0.993210  0.153220  1.0  -0.0973
  C  C331  1  0.364930  0.057310  0.150610  1.0  0.0372
  C  C332  1  0.389310  0.094910  0.146370  1.0  -0.1578
  C  C333  1  0.316840  0.069180  0.142980  1.0  -0.1176
  C  C334  1  0.294080  0.114380  0.131600  1.0  -0.03
  C  C335  1  0.318240  0.150860  0.126220  1.0  -0.1392
  C  C336  1  0.365600  0.140540  0.134320  1.0  -0.0332
  C  C337  1  0.293410  0.200710  0.113680  1.0  0.7131
  C  C338  1  0.276390  0.602090  0.325960  1.0  -0.146
  C  C339  1  0.282640  0.652520  0.320900  1.0  0.7156
  C  C340  1  0.257080  0.585360  0.362310  1.0  -0.0708
  C  C341  1  0.251030  0.538910  0.365850  1.0  -0.1226
  C  C342  1  0.280400  0.526220  0.296680  1.0  -0.1609
  C  C343  1  0.260770  0.509410  0.334340  1.0  0.0254
  C  C344  1  0.255580  0.459420  0.337160  1.0  0.0069
  C  C345  1  0.263060  0.431200  0.373480  1.0  -0.1428
  C  C346  1  0.259680  0.384300  0.374910  1.0  -0.0218
  C  C347  1  0.268660  0.353660  0.413540  1.0  -0.0083
  C  C348  1  0.296600  0.363680  0.441740  1.0  -0.1114
  C  C349  1  0.247520  0.315260  0.421750  1.0  -0.1741
  C  C350  1  0.256140  0.288420  0.458330  1.0  -0.0233
  C  C351  1  0.304460  0.338700  0.479280  1.0  -0.0696
  C  C352  1  0.243890  0.439790  0.304180  1.0  -0.1166
  C  C353  1  0.249460  0.364920  0.341150  1.0  -0.126
  C  C354  1  0.241270  0.391510  0.304420  1.0  0.0875
  C  C355  1  0.230940  0.371820  0.267690  1.0  0.0717
  C  C356  1  0.202940  0.338460  0.267930  1.0  -0.1409
  C  C357  1  0.196210  0.319130  0.232980  1.0  -0.0328
  C  C358  1  0.217630  0.331030  0.196580  1.0  -0.1407
  C  C359  1  0.244760  0.363560  0.196130  1.0  -0.0651
  C  C360  1  0.252200  0.384060  0.230080  1.0  -0.1709
  C  C361  1  0.285970  0.572570  0.292740  1.0  -0.0668
  C  C362  1  0.669560  0.896000  0.144590  1.0  0.7289
  C  C363  1  0.615720  0.909160  0.148310  1.0  -0.1524
  C  C364  1  0.212660  0.307440  0.159870  1.0  0.5917
  C  C365  1  0.761110  0.191770  0.817830  1.0  0.7124
  C  C366  1  0.298960  0.283080  0.985510  1.0  -0.0953
  C  C367  1  0.791530  0.121990  0.865730  1.0  -0.068
  C  C368  1  0.273290  0.290930  0.028250  1.0  0.5995
  C  C369  1  0.771650  0.138910  0.828470  1.0  -0.1215
  C  C370  1  0.760580  0.108120  0.802140  1.0  -0.0385
  C  C371  1  0.771000  0.058800  0.813180  1.0  -0.1376
  C  C372  1  0.801460  0.073960  0.875560  1.0  -0.1334
  C  C373  1  0.790890  0.041670  0.848610  1.0  0.0504
  C  C374  1  0.803750  0.989670  0.859330  1.0  0.026
  C  C375  1  0.798840  0.972900  0.900310  1.0  -0.1173
  C  C376  1  0.809770  0.922990  0.909690  1.0  0.0264
  C  C377  1  0.825420  0.892920  0.879000  1.0  -0.1096
  C  C378  1  0.830730  0.909770  0.838340  1.0  0.0129
  C  C379  1  0.819790  0.957710  0.829380  1.0  -0.1302
  C  C380  1  0.846370  0.875310  0.805920  1.0  0.0826
  C  C381  1  0.831140  0.835040  0.806130  1.0  -0.1144
  C  C382  1  0.877170  0.885810  0.773780  1.0  -0.1199
  C  C383  1  0.842280  0.805300  0.774430  1.0  -0.0972
  C  C384  1  0.888400  0.857000  0.741510  1.0  -0.066
  C  C385  1  0.871630  0.816570  0.740930  1.0  -0.0892
  C  C386  1  0.880070  0.786870  0.705470  1.0  0.7292
  C  C387  1  0.802300  0.904880  0.951170  1.0  0.0208
  C  C388  1  0.810580  0.929320  0.983390  1.0  -0.1409
  C  C389  1  0.803760  0.914340  0.024070  1.0  -0.124
  C  C390  1  0.787420  0.863960  0.959220  1.0  -0.186
  C  C391  1  0.787210  0.871430  0.031130  1.0  -0.1638
  C  C392  1  0.780360  0.847080  0.000010  1.0  -0.0307
  C  C393  1  0.777210  0.855750  0.074390  1.0  0.6664
  C  C394  1  0.802100  0.308880  0.802700  1.0  0.6656
  C  C395  1  0.837440  0.325740  0.773540  1.0  -0.0693
  C  C396  1  0.884680  0.318820  0.782890  1.0  -0.0817
  C  C397  1  0.916280  0.338020  0.756380  1.0  -0.1222
  C  C398  1  0.820860  0.351960  0.740020  1.0  -0.1031
  C  C399  1  0.852360  0.373640  0.714430  1.0  -0.1158
  C  C400  1  0.898930  0.366610  0.722860  1.0  0.0044
  C  C401  1  0.932660  0.390980  0.697320  1.0  -0.0128
  C  C402  1  0.917370  0.439350  0.686830  1.0  -0.0891
  C  C403  1  0.948900  0.463980  0.665140  1.0  -0.0085
  C  C404  1  0.977520  0.366460  0.685530  1.0  -0.0868
  C  C405  1  0.889390  0.540190  0.650100  1.0  -0.111
  C  C406  1  0.968270  0.543730  0.661420  1.0  -0.1405
  C  C407  1  0.933880  0.517200  0.657950  1.0  0.0539
  C  C408  1  0.876620  0.589300  0.645080  1.0  -0.0188
  C  C409  1  0.955830  0.592670  0.656610  1.0  -0.0436
  C  C410  1  0.009330  0.390550  0.663290  1.0  0.0423
  C  C411  1  0.993210  0.439030  0.653220  1.0  -0.0894
  C  C412  1  0.057310  0.364930  0.650610  1.0  0.0362
  C  C413  1  0.094910  0.389310  0.646370  1.0  -0.1618
  C  C414  1  0.069180  0.316840  0.642980  1.0  -0.1176
  C  C415  1  0.114380  0.294080  0.631600  1.0  -0.0325
  C  C416  1  0.150860  0.318240  0.626220  1.0  -0.1433
  C  C417  1  0.140540  0.365600  0.634320  1.0  -0.0341
  C  C418  1  0.200710  0.293410  0.613680  1.0  0.7119
  C  C419  1  0.602090  0.276390  0.825960  1.0  -0.1443
  C  C420  1  0.652520  0.282640  0.820900  1.0  0.7123
  C  C421  1  0.585360  0.257080  0.862310  1.0  -0.0717
  C  C422  1  0.538910  0.251030  0.865850  1.0  -0.1231
  C  C423  1  0.526220  0.280400  0.796680  1.0  -0.1667
  C  C424  1  0.509410  0.260770  0.834340  1.0  0.0259
  C  C425  1  0.459420  0.255580  0.837160  1.0  0.0061
  C  C426  1  0.431200  0.263060  0.873480  1.0  -0.1418
  C  C427  1  0.384300  0.259680  0.874910  1.0  -0.0203
  C  C428  1  0.353660  0.268660  0.913540  1.0  -0.0075
  C  C429  1  0.363680  0.296600  0.941740  1.0  -0.115
  C  C430  1  0.315260  0.247520  0.921750  1.0  -0.1757
  C  C431  1  0.288420  0.256140  0.958330  1.0  -0.0238
  C  C432  1  0.338700  0.304460  0.979280  1.0  -0.0708
  C  C433  1  0.439790  0.243890  0.804180  1.0  -0.1182
  C  C434  1  0.364920  0.249460  0.841150  1.0  -0.1291
  C  C435  1  0.391510  0.241270  0.804420  1.0  0.0881
  C  C436  1  0.371820  0.230940  0.767690  1.0  0.0733
  C  C437  1  0.338460  0.202940  0.767930  1.0  -0.1417
  C  C438  1  0.319130  0.196210  0.732980  1.0  -0.0319
  C  C439  1  0.331030  0.217630  0.696580  1.0  -0.1405
  C  C440  1  0.363560  0.244760  0.696130  1.0  -0.0653
  C  C441  1  0.384060  0.252200  0.730080  1.0  -0.1725
  C  C442  1  0.572570  0.285970  0.792740  1.0  -0.072
  C  C443  1  0.896000  0.669560  0.644590  1.0  0.7327
  C  C444  1  0.909160  0.615720  0.648310  1.0  -0.1514
  C  C445  1  0.307440  0.212660  0.659870  1.0  0.5903
  C  C446  1  0.808230  0.238890  0.682170  1.0  0.7114
  C  C447  1  0.716920  0.701040  0.514490  1.0  -0.0951
  C  C448  1  0.878010  0.208470  0.634270  1.0  -0.0679
  C  C449  1  0.709070  0.726710  0.471750  1.0  0.603
  C  C450  1  0.861090  0.228350  0.671530  1.0  -0.122
  C  C451  1  0.891880  0.239420  0.697860  1.0  -0.0411
  C  C452  1  0.941200  0.229000  0.686820  1.0  -0.1356
  C  C453  1  0.926040  0.198540  0.624440  1.0  -0.1338
  C  C454  1  0.958330  0.209110  0.651390  1.0  0.05
  C  C455  1  0.010330  0.196250  0.640670  1.0  0.0261
  C  C456  1  0.027100  0.201160  0.599690  1.0  -0.1183
  C  C457  1  0.077010  0.190230  0.590310  1.0  0.0261
  C  C458  1  0.107080  0.174580  0.621000  1.0  -0.1159
  C  C459  1  0.090230  0.169270  0.661660  1.0  0.0136
  C  C460  1  0.042290  0.180210  0.670620  1.0  -0.1312
  C  C461  1  0.124690  0.153630  0.694080  1.0  0.0829
  C  C462  1  0.164960  0.168860  0.693870  1.0  -0.1161
  C  C463  1  0.114190  0.122830  0.726220  1.0  -0.1144
  C  C464  1  0.194700  0.157720  0.725570  1.0  -0.1002
  C  C465  1  0.143000  0.111600  0.758490  1.0  -0.0703
  C  C466  1  0.183430  0.128370  0.759070  1.0  -0.09
  C  C467  1  0.213130  0.119930  0.794530  1.0  0.7265
  C  C468  1  0.095120  0.197700  0.548830  1.0  0.0213
  C  C469  1  0.070680  0.189420  0.516610  1.0  -0.1365
  C  C470  1  0.085660  0.196240  0.475930  1.0  -0.1218
  C  C471  1  0.136040  0.212580  0.540780  1.0  -0.186
  C  C472  1  0.128570  0.212790  0.468870  1.0  -0.1631
  C  C473  1  0.152920  0.219640  0.499990  1.0  -0.0305
  C  C474  1  0.144250  0.222790  0.425610  1.0  0.6651
  C  C475  1  0.691120  0.197900  0.697300  1.0  0.6639
  C  C476  1  0.674260  0.162560  0.726460  1.0  -0.0705
  C  C477  1  0.681180  0.115320  0.717110  1.0  -0.0786
  C  C478  1  0.661980  0.083720  0.743620  1.0  -0.1217
  C  C479  1  0.648040  0.179140  0.759980  1.0  -0.105
  C  C480  1  0.626360  0.147640  0.785570  1.0  -0.1164
  C  C481  1  0.633390  0.101070  0.777140  1.0  0.0039
  C  C482  1  0.609020  0.067340  0.802680  1.0  -0.0139
  C  C483  1  0.560650  0.082630  0.813170  1.0  -0.0878
  C  C484  1  0.536020  0.051100  0.834860  1.0  -0.0099
  C  C485  1  0.633540  0.022480  0.814470  1.0  -0.0881
  C  C486  1  0.459810  0.110610  0.849900  1.0  -0.1128
  C  C487  1  0.456270  0.031730  0.838580  1.0  -0.1432
  C  C488  1  0.482800  0.066120  0.842050  1.0  0.0537
  C  C489  1  0.410700  0.123380  0.854920  1.0  -0.0212
  C  C490  1  0.407330  0.044170  0.843390  1.0  -0.0467
  C  C491  1  0.609450  0.990670  0.836710  1.0  0.0431
  C  C492  1  0.560970  0.006790  0.846780  1.0  -0.0989
  C  C493  1  0.635070  0.942690  0.849390  1.0  0.0366
  C  C494  1  0.610690  0.905090  0.853630  1.0  -0.1607
  C  C495  1  0.683160  0.930820  0.857020  1.0  -0.1175
  C  C496  1  0.705920  0.885620  0.868400  1.0  -0.0317
  C  C497  1  0.681760  0.849140  0.873780  1.0  -0.1405
  C  C498  1  0.634400  0.859460  0.865680  1.0  -0.0327
  C  C499  1  0.706590  0.799290  0.886320  1.0  0.7143
  C  C500  1  0.723610  0.397910  0.674040  1.0  -0.1452
  C  C501  1  0.717360  0.347480  0.679100  1.0  0.7153
  C  C502  1  0.742920  0.414640  0.637690  1.0  -0.069
  C  C503  1  0.748970  0.461090  0.634150  1.0  -0.1209
  C  C504  1  0.719600  0.473780  0.703320  1.0  -0.1609
  C  C505  1  0.739230  0.490590  0.665660  1.0  0.025
  C  C506  1  0.744420  0.540580  0.662840  1.0  0.0067
  C  C507  1  0.736940  0.568800  0.626520  1.0  -0.1416
  C  C508  1  0.740320  0.615700  0.625090  1.0  -0.0211
  C  C509  1  0.731340  0.646340  0.586460  1.0  -0.0092
  C  C510  1  0.703400  0.636320  0.558260  1.0  -0.1107
  C  C511  1  0.752480  0.684740  0.578250  1.0  -0.1749
  C  C512  1  0.743860  0.711580  0.541670  1.0  -0.0237
  C  C513  1  0.695540  0.661300  0.520720  1.0  -0.0699
  C  C514  1  0.756110  0.560210  0.695820  1.0  -0.1168
  C  C515  1  0.750540  0.635080  0.658850  1.0  -0.1248
  C  C516  1  0.758730  0.608490  0.695580  1.0  0.0861
  C  C517  1  0.769060  0.628180  0.732310  1.0  0.0717
  C  C518  1  0.797060  0.661540  0.732070  1.0  -0.1413
  C  C519  1  0.803790  0.680870  0.767020  1.0  -0.0343
  C  C520  1  0.782370  0.668970  0.803420  1.0  -0.1395
  C  C521  1  0.755240  0.636440  0.803870  1.0  -0.0635
  C  C522  1  0.747800  0.615940  0.769920  1.0  -0.1721
  C  C523  1  0.714030  0.427430  0.707260  1.0  -0.07
  C  C524  1  0.330440  0.104000  0.855410  1.0  0.7301
  C  C525  1  0.384280  0.090840  0.851690  1.0  -0.155
  C  C526  1  0.787340  0.692560  0.840130  1.0  0.593
  O  O527  1  0.233710  0.782990  0.154490  1.0  -0.6522
  O  O528  1  0.252590  0.794130  0.217050  1.0  -0.632
  O  O529  1  0.326160  0.718840  0.148170  1.0  -0.5635
  O  O530  1  0.332700  0.710500  0.215690  1.0  -0.6337
  O  O531  1  0.238150  0.694310  0.208630  1.0  -0.7041
  O  O532  1  0.187720  0.700200  0.160700  1.0  -0.5829
  O  O533  1  0.769860  0.681980  0.394090  1.0  -0.6544
  O  O534  1  0.790850  0.751030  0.388810  1.0  -0.608
  O  O535  1  0.231690  0.185090  0.919240  1.0  -0.5447
  O  O536  1  0.220470  0.120170  0.896770  1.0  -0.6393
  O  O537  1  0.084400  0.209180  0.319250  1.0  -0.6331
  O  O538  1  0.147750  0.239450  0.300060  1.0  -0.5913
  O  O539  1  0.146940  0.310900  0.360060  1.0  -0.6007
  O  O540  1  0.070650  0.310090  0.354050  1.0  -0.675
  O  O541  1  0.715990  0.818690  0.342760  1.0  -0.4918
  O  O542  1  0.714290  0.682530  0.948850  1.0  -0.5861
  O  O543  1  0.760090  0.731170  0.964350  1.0  -0.5884
  O  O544  1  0.687680  0.759400  0.372270  1.0  -0.6588
  O  O545  1  0.217010  0.766290  0.345510  1.0  -0.6515
  O  O546  1  0.205870  0.747410  0.282950  1.0  -0.6319
  O  O547  1  0.281160  0.673840  0.351830  1.0  -0.5655
  O  O548  1  0.289500  0.667300  0.284310  1.0  -0.6318
  O  O549  1  0.305690  0.761850  0.291370  1.0  -0.7054
  O  O550  1  0.299800  0.812280  0.339300  1.0  -0.5913
  O  O551  1  0.318020  0.230140  0.105910  1.0  -0.6486
  O  O552  1  0.248970  0.209150  0.111190  1.0  -0.605
  O  O553  1  0.814910  0.768310  0.580760  1.0  -0.5392
  O  O554  1  0.879830  0.779530  0.603230  1.0  -0.639
  O  O555  1  0.790820  0.915600  0.180750  1.0  -0.6346
  O  O556  1  0.760550  0.852250  0.199940  1.0  -0.5914
  O  O557  1  0.689100  0.853060  0.139940  1.0  -0.6014
  O  O558  1  0.689910  0.929350  0.145950  1.0  -0.6763
  O  O559  1  0.181310  0.284010  0.157240  1.0  -0.4873
  O  O560  1  0.317470  0.285710  0.551150  1.0  -0.5895
  O  O561  1  0.268830  0.239910  0.535650  1.0  -0.5887
  O  O562  1  0.240600  0.312320  0.127730  1.0  -0.6576
  O  O563  1  0.766290  0.217010  0.845510  1.0  -0.6513
  O  O564  1  0.747410  0.205870  0.782950  1.0  -0.6316
  O  O565  1  0.673840  0.281160  0.851830  1.0  -0.5654
  O  O566  1  0.667300  0.289500  0.784310  1.0  -0.6357
  O  O567  1  0.761850  0.305690  0.791370  1.0  -0.7039
  O  O568  1  0.812280  0.299800  0.839300  1.0  -0.584
  O  O569  1  0.230140  0.318020  0.605910  1.0  -0.6532
  O  O570  1  0.209150  0.248970  0.611190  1.0  -0.6079
  O  O571  1  0.768310  0.814910  0.080760  1.0  -0.5428
  O  O572  1  0.779530  0.879830  0.103230  1.0  -0.6374
  O  O573  1  0.915600  0.790820  0.680750  1.0  -0.6334
  O  O574  1  0.852250  0.760550  0.699940  1.0  -0.5911
  O  O575  1  0.853060  0.689100  0.639940  1.0  -0.5997
  O  O576  1  0.929350  0.689910  0.645950  1.0  -0.6742
  O  O577  1  0.284010  0.181310  0.657240  1.0  -0.4936
  O  O578  1  0.285710  0.317470  0.051150  1.0  -0.5871
  O  O579  1  0.239910  0.268830  0.035650  1.0  -0.5874
  O  O580  1  0.312320  0.240600  0.627730  1.0  -0.6579
  O  O581  1  0.782990  0.233710  0.654490  1.0  -0.6508
  O  O582  1  0.794130  0.252590  0.717050  1.0  -0.6336
  O  O583  1  0.718840  0.326160  0.648170  1.0  -0.5646
  O  O584  1  0.710500  0.332700  0.715690  1.0  -0.6345
  O  O585  1  0.694310  0.238150  0.708630  1.0  -0.7081
  O  O586  1  0.700200  0.187720  0.660700  1.0  -0.5903
  O  O587  1  0.681980  0.769860  0.894090  1.0  -0.6517
  O  O588  1  0.751030  0.790850  0.888810  1.0  -0.6055
  O  O589  1  0.185090  0.231690  0.419240  1.0  -0.54
  O  O590  1  0.120170  0.220470  0.396770  1.0  -0.6354
  O  O591  1  0.209180  0.084400  0.819250  1.0  -0.6362
  O  O592  1  0.239450  0.147750  0.800060  1.0  -0.5916
  O  O593  1  0.310900  0.146940  0.860060  1.0  -0.6025
  O  O594  1  0.310090  0.070650  0.854050  1.0  -0.6725
  O  O595  1  0.818690  0.715990  0.842760  1.0  -0.4896
  O  O596  1  0.682530  0.714290  0.448850  1.0  -0.5907
  O  O597  1  0.731170  0.760090  0.464350  1.0  -0.5911
  O  O598  1  0.759400  0.687680  0.872270  1.0  -0.6568
