# generated using pymatgen
data_FeH10Au2(C9N4)2
_symmetry_space_group_name_H-M   'P 1'
_cell_length_a   14.22560000
_cell_length_b   14.46450000
_cell_length_c   30.44290000
_cell_angle_alpha   90.00000000
_cell_angle_beta   96.10400000
_cell_angle_gamma   90.00000000
_symmetry_Int_Tables_number   1
_chemical_formula_structural   FeH10Au2(C9N4)2
_chemical_formula_sum   'Fe8 H80 Au16 C144 N64'
_cell_volume   6228.60530068
_cell_formula_units_Z   8
loop_
 _symmetry_equiv_pos_site_id
 _symmetry_equiv_pos_as_xyz
  1  'x, y, z'
loop_
 _atom_site_type_symbol
 _atom_site_label
 _atom_site_symmetry_multiplicity
 _atom_site_fract_x
 _atom_site_fract_y
 _atom_site_fract_z
 _atom_site_occupancy
 _atom_site_charge
  Fe  Fe1  1  0.699450  0.519990  0.450310  1.0  0.7007
  Fe  Fe2  1  0.199450  0.019990  0.450310  1.0  0.7007
  Fe  Fe3  1  0.699450  0.480010  0.950310  1.0  0.7002
  Fe  Fe4  1  0.199450  0.980010  0.950310  1.0  0.7002
  Fe  Fe5  1  0.300550  0.519990  0.049690  1.0  0.7058
  Fe  Fe6  1  0.800550  0.019990  0.049690  1.0  0.7058
  Fe  Fe7  1  0.300550  0.480010  0.549690  1.0  0.7054
  Fe  Fe8  1  0.800550  0.980010  0.549690  1.0  0.7054
  H  H9  1  0.836800  0.515200  0.384500  1.0  0.0898
  H  H10  1  0.841600  0.499300  0.309300  1.0  0.1237
  H  H11  1  0.556000  0.504700  0.293900  1.0  0.1176
  H  H12  1  0.558500  0.519700  0.369800  1.0  0.0836
  H  H13  1  0.823100  0.407700  0.247700  1.0  0.1276
  H  H14  1  0.818300  0.390600  0.171200  1.0  0.1206
  H  H15  1  0.644500  0.599300  0.098800  1.0  0.1176
  H  H16  1  0.653400  0.603000  0.023600  1.0  0.0799
  H  H17  1  0.740800  0.345500  0.024400  1.0  0.0767
  H  H18  1  0.745100  0.338700  0.100600  1.0  0.1164
  H  H19  1  0.336800  0.015200  0.384500  1.0  0.0898
  H  H20  1  0.341600  0.999300  0.309300  1.0  0.1237
  H  H21  1  0.056000  0.004700  0.293900  1.0  0.1176
  H  H22  1  0.058500  0.019700  0.369800  1.0  0.0836
  H  H23  1  0.323100  0.907700  0.247700  1.0  0.1276
  H  H24  1  0.318300  0.890600  0.171200  1.0  0.1206
  H  H25  1  0.144500  0.099300  0.098800  1.0  0.1176
  H  H26  1  0.153400  0.103000  0.023600  1.0  0.0799
  H  H27  1  0.240800  0.845500  0.024400  1.0  0.0767
  H  H28  1  0.245100  0.838700  0.100600  1.0  0.1164
  H  H29  1  0.836800  0.484800  0.884500  1.0  0.0896
  H  H30  1  0.841600  0.500700  0.809300  1.0  0.1237
  H  H31  1  0.556000  0.495300  0.793900  1.0  0.1177
  H  H32  1  0.558500  0.480300  0.869800  1.0  0.0838
  H  H33  1  0.823100  0.592300  0.747700  1.0  0.1279
  H  H34  1  0.818300  0.609400  0.671200  1.0  0.1209
  H  H35  1  0.644500  0.400700  0.598800  1.0  0.1179
  H  H36  1  0.653400  0.397000  0.523600  1.0  0.0798
  H  H37  1  0.740800  0.654500  0.524400  1.0  0.0767
  H  H38  1  0.745100  0.661300  0.600600  1.0  0.1164
  H  H39  1  0.336800  0.984800  0.884500  1.0  0.0896
  H  H40  1  0.341600  0.000700  0.809300  1.0  0.1237
  H  H41  1  0.056000  0.995300  0.793900  1.0  0.1177
  H  H42  1  0.058500  0.980300  0.869800  1.0  0.0838
  H  H43  1  0.323100  0.092300  0.747700  1.0  0.1279
  H  H44  1  0.318300  0.109400  0.671200  1.0  0.1209
  H  H45  1  0.144500  0.900700  0.598800  1.0  0.1179
  H  H46  1  0.153400  0.897000  0.523600  1.0  0.0798
  H  H47  1  0.240800  0.154500  0.524400  1.0  0.0767
  H  H48  1  0.245100  0.161300  0.600600  1.0  0.1164
  H  H49  1  0.163200  0.515200  0.115500  1.0  0.0886
  H  H50  1  0.158400  0.499300  0.190700  1.0  0.124
  H  H51  1  0.444000  0.504700  0.206100  1.0  0.1179
  H  H52  1  0.441500  0.519700  0.130200  1.0  0.0836
  H  H53  1  0.176900  0.407700  0.252300  1.0  0.1281
  H  H54  1  0.181700  0.390600  0.328800  1.0  0.121
  H  H55  1  0.355500  0.599300  0.401200  1.0  0.1182
  H  H56  1  0.346600  0.603000  0.476400  1.0  0.0797
  H  H57  1  0.259200  0.345500  0.475600  1.0  0.0765
  H  H58  1  0.254900  0.338700  0.399400  1.0  0.1162
  H  H59  1  0.663200  0.015200  0.115500  1.0  0.0886
  H  H60  1  0.658400  0.999300  0.190700  1.0  0.124
  H  H61  1  0.944000  0.004700  0.206100  1.0  0.1179
  H  H62  1  0.941500  0.019700  0.130200  1.0  0.0836
  H  H63  1  0.676900  0.907700  0.252300  1.0  0.1281
  H  H64  1  0.681700  0.890600  0.328800  1.0  0.121
  H  H65  1  0.855500  0.099300  0.401200  1.0  0.1182
  H  H66  1  0.846600  0.103000  0.476400  1.0  0.0797
  H  H67  1  0.759200  0.845500  0.475600  1.0  0.0765
  H  H68  1  0.754900  0.838700  0.399400  1.0  0.1162
  H  H69  1  0.163200  0.484800  0.615500  1.0  0.0885
  H  H70  1  0.158400  0.500700  0.690700  1.0  0.1238
  H  H71  1  0.444000  0.495300  0.706100  1.0  0.1179
  H  H72  1  0.441500  0.480300  0.630200  1.0  0.0838
  H  H73  1  0.176900  0.592300  0.752300  1.0  0.1282
  H  H74  1  0.181700  0.609400  0.828800  1.0  0.1207
  H  H75  1  0.355500  0.400700  0.901200  1.0  0.1186
  H  H76  1  0.346600  0.397000  0.976400  1.0  0.0795
  H  H77  1  0.259200  0.654500  0.975600  1.0  0.0764
  H  H78  1  0.254900  0.661300  0.899400  1.0  0.1159
  H  H79  1  0.663200  0.984800  0.615500  1.0  0.0885
  H  H80  1  0.658400  0.000700  0.690700  1.0  0.1238
  H  H81  1  0.944000  0.995300  0.706100  1.0  0.1179
  H  H82  1  0.941500  0.980300  0.630200  1.0  0.0838
  H  H83  1  0.676900  0.092300  0.752300  1.0  0.1282
  H  H84  1  0.681700  0.109400  0.828800  1.0  0.1207
  H  H85  1  0.855500  0.900700  0.901200  1.0  0.1186
  H  H86  1  0.846600  0.897000  0.976400  1.0  0.0795
  H  H87  1  0.759200  0.154500  0.975600  1.0  0.0764
  H  H88  1  0.754900  0.161300  0.899400  1.0  0.1159
  Au  Au89  1  0.450180  0.768860  0.455990  1.0  0.1287
  Au  Au90  1  0.956040  0.763540  0.447350  1.0  0.1128
  Au  Au91  1  0.950180  0.268860  0.455990  1.0  0.1287
  Au  Au92  1  0.456040  0.263540  0.447350  1.0  0.1128
  Au  Au93  1  0.450180  0.231140  0.955990  1.0  0.1313
  Au  Au94  1  0.956040  0.236460  0.947350  1.0  0.1088
  Au  Au95  1  0.950180  0.731140  0.955990  1.0  0.1313
  Au  Au96  1  0.456040  0.736460  0.947350  1.0  0.1088
  Au  Au97  1  0.549820  0.768860  0.044010  1.0  0.1291
  Au  Au98  1  0.043960  0.763540  0.052650  1.0  0.1138
  Au  Au99  1  0.049820  0.268860  0.044010  1.0  0.1291
  Au  Au100  1  0.543960  0.263540  0.052650  1.0  0.1138
  Au  Au101  1  0.549820  0.231140  0.544010  1.0  0.1316
  Au  Au102  1  0.043960  0.236460  0.552650  1.0  0.1097
  Au  Au103  1  0.049820  0.731140  0.544010  1.0  0.1316
  Au  Au104  1  0.543960  0.736460  0.552650  1.0  0.1097
  C  C105  1  0.858900  0.665700  0.450400  1.0  0.1082
  C  C106  1  0.549000  0.674700  0.448800  1.0  0.1034
  C  C107  1  0.547700  0.365500  0.444100  1.0  0.0347
  C  C108  1  0.850300  0.364100  0.458700  1.0  0.0138
  C  C109  1  0.778900  0.511700  0.365900  1.0  0.1696
  C  C110  1  0.782400  0.502700  0.321000  1.0  -0.2101
  C  C111  1  0.698600  0.498600  0.293000  1.0  0.0054
  C  C112  1  0.614700  0.505700  0.311900  1.0  -0.1516
  C  C113  1  0.616700  0.514400  0.357300  1.0  0.1703
  C  C114  1  0.701300  0.485300  0.244700  1.0  0.2324
  C  C115  1  0.773900  0.434700  0.228400  1.0  -0.1184
  C  C116  1  0.771500  0.425500  0.183800  1.0  -0.1407
  C  C117  1  0.698800  0.468500  0.157400  1.0  0.2636
  C  C118  1  0.696200  0.468800  0.108500  1.0  0.0294
  C  C119  1  0.667100  0.546800  0.084400  1.0  -0.1711
  C  C120  1  0.671100  0.547900  0.039300  1.0  0.1619
  C  C121  1  0.723300  0.398900  0.039800  1.0  0.1607
  C  C122  1  0.724700  0.393700  0.085400  1.0  -0.227
  C  C123  1  0.358900  0.165700  0.450400  1.0  0.1082
  C  C124  1  0.049000  0.174700  0.448800  1.0  0.1034
  C  C125  1  0.047700  0.865500  0.444100  1.0  0.0347
  C  C126  1  0.350300  0.864100  0.458700  1.0  0.0138
  C  C127  1  0.278900  0.011700  0.365900  1.0  0.1696
  C  C128  1  0.282400  0.002700  0.321000  1.0  -0.2101
  C  C129  1  0.198600  0.998600  0.293000  1.0  0.0054
  C  C130  1  0.114700  0.005700  0.311900  1.0  -0.1516
  C  C131  1  0.116700  0.014400  0.357300  1.0  0.1703
  C  C132  1  0.201300  0.985300  0.244700  1.0  0.2324
  C  C133  1  0.273900  0.934700  0.228400  1.0  -0.1184
  C  C134  1  0.271500  0.925500  0.183800  1.0  -0.1407
  C  C135  1  0.198800  0.968500  0.157400  1.0  0.2636
  C  C136  1  0.196200  0.968800  0.108500  1.0  0.0294
  C  C137  1  0.167100  0.046800  0.084400  1.0  -0.1711
  C  C138  1  0.171100  0.047900  0.039300  1.0  0.1619
  C  C139  1  0.223300  0.898900  0.039800  1.0  0.1607
  C  C140  1  0.224700  0.893700  0.085400  1.0  -0.227
  C  C141  1  0.858900  0.334300  0.950400  1.0  0.1073
  C  C142  1  0.549000  0.325300  0.948800  1.0  0.1027
  C  C143  1  0.547700  0.634500  0.944100  1.0  0.0376
  C  C144  1  0.850300  0.635900  0.958700  1.0  0.0138
  C  C145  1  0.778900  0.488300  0.865900  1.0  0.1697
  C  C146  1  0.782400  0.497300  0.821000  1.0  -0.2102
  C  C147  1  0.698600  0.501400  0.793000  1.0  0.0054
  C  C148  1  0.614700  0.494300  0.811900  1.0  -0.1514
  C  C149  1  0.616700  0.485600  0.857300  1.0  0.1704
  C  C150  1  0.701300  0.514700  0.744700  1.0  0.2322
  C  C151  1  0.773900  0.565300  0.728400  1.0  -0.1186
  C  C152  1  0.771500  0.574500  0.683800  1.0  -0.1406
  C  C153  1  0.698800  0.531500  0.657400  1.0  0.2637
  C  C154  1  0.696200  0.531200  0.608500  1.0  0.0295
  C  C155  1  0.667100  0.453200  0.584400  1.0  -0.1715
  C  C156  1  0.671100  0.452100  0.539300  1.0  0.1624
  C  C157  1  0.723300  0.601100  0.539800  1.0  0.1611
  C  C158  1  0.724700  0.606300  0.585400  1.0  -0.2289
  C  C159  1  0.358900  0.834300  0.950400  1.0  0.1073
  C  C160  1  0.049000  0.825300  0.948800  1.0  0.1027
  C  C161  1  0.047700  0.134500  0.944100  1.0  0.0376
  C  C162  1  0.350300  0.135900  0.958700  1.0  0.0138
  C  C163  1  0.278900  0.988300  0.865900  1.0  0.1697
  C  C164  1  0.282400  0.997300  0.821000  1.0  -0.2102
  C  C165  1  0.198600  0.001400  0.793000  1.0  0.0054
  C  C166  1  0.114700  0.994300  0.811900  1.0  -0.1514
  C  C167  1  0.116700  0.985600  0.857300  1.0  0.1704
  C  C168  1  0.201300  0.014700  0.744700  1.0  0.2322
  C  C169  1  0.273900  0.065300  0.728400  1.0  -0.1186
  C  C170  1  0.271500  0.074500  0.683800  1.0  -0.1406
  C  C171  1  0.198800  0.031500  0.657400  1.0  0.2637
  C  C172  1  0.196200  0.031200  0.608500  1.0  0.0295
  C  C173  1  0.167100  0.953200  0.584400  1.0  -0.1715
  C  C174  1  0.171100  0.952100  0.539300  1.0  0.1624
  C  C175  1  0.223300  0.101100  0.539800  1.0  0.1611
  C  C176  1  0.224700  0.106300  0.585400  1.0  -0.2289
  C  C177  1  0.141100  0.665700  0.049600  1.0  0.1087
  C  C178  1  0.451000  0.674700  0.051200  1.0  0.1011
  C  C179  1  0.452300  0.365500  0.055900  1.0  0.0359
  C  C180  1  0.149700  0.364100  0.041300  1.0  0.0156
  C  C181  1  0.221100  0.511700  0.134100  1.0  0.1688
  C  C182  1  0.217600  0.502700  0.179000  1.0  -0.2128
  C  C183  1  0.301400  0.498600  0.207000  1.0  0.0046
  C  C184  1  0.385300  0.505700  0.188100  1.0  -0.1504
  C  C185  1  0.383300  0.514400  0.142700  1.0  0.1692
  C  C186  1  0.298700  0.485300  0.255300  1.0  0.231
  C  C187  1  0.226100  0.434700  0.271600  1.0  -0.1195
  C  C188  1  0.228500  0.425500  0.316200  1.0  -0.1421
  C  C189  1  0.301200  0.468500  0.342600  1.0  0.2641
  C  C190  1  0.303800  0.468800  0.391500  1.0  0.0282
  C  C191  1  0.332900  0.546800  0.415600  1.0  -0.1708
  C  C192  1  0.328900  0.547900  0.460700  1.0  0.1622
  C  C193  1  0.276700  0.398900  0.460200  1.0  0.1616
  C  C194  1  0.275300  0.393700  0.414600  1.0  -0.2279
  C  C195  1  0.641100  0.165700  0.049600  1.0  0.1087
  C  C196  1  0.951000  0.174700  0.051200  1.0  0.1011
  C  C197  1  0.952300  0.865500  0.055900  1.0  0.0359
  C  C198  1  0.649700  0.864100  0.041300  1.0  0.0156
  C  C199  1  0.721100  0.011700  0.134100  1.0  0.1688
  C  C200  1  0.717600  0.002700  0.179000  1.0  -0.2128
  C  C201  1  0.801400  0.998600  0.207000  1.0  0.0046
  C  C202  1  0.885300  0.005700  0.188100  1.0  -0.1504
  C  C203  1  0.883300  0.014400  0.142700  1.0  0.1692
  C  C204  1  0.798700  0.985300  0.255300  1.0  0.231
  C  C205  1  0.726100  0.934700  0.271600  1.0  -0.1195
  C  C206  1  0.728500  0.925500  0.316200  1.0  -0.1421
  C  C207  1  0.801200  0.968500  0.342600  1.0  0.2641
  C  C208  1  0.803800  0.968800  0.391500  1.0  0.0282
  C  C209  1  0.832900  0.046800  0.415600  1.0  -0.1708
  C  C210  1  0.828900  0.047900  0.460700  1.0  0.1622
  C  C211  1  0.776700  0.898900  0.460200  1.0  0.1616
  C  C212  1  0.775300  0.893700  0.414600  1.0  -0.2279
  C  C213  1  0.141100  0.334300  0.549600  1.0  0.1081
  C  C214  1  0.451000  0.325300  0.551200  1.0  0.1029
  C  C215  1  0.452300  0.634500  0.555900  1.0  0.0362
  C  C216  1  0.149700  0.635900  0.541300  1.0  0.015
  C  C217  1  0.221100  0.488300  0.634100  1.0  0.1687
  C  C218  1  0.217600  0.497300  0.679000  1.0  -0.2127
  C  C219  1  0.301400  0.501400  0.707000  1.0  0.0046
  C  C220  1  0.385300  0.494300  0.688100  1.0  -0.1502
  C  C221  1  0.383300  0.485600  0.642700  1.0  0.1692
  C  C222  1  0.298700  0.514700  0.755300  1.0  0.2308
  C  C223  1  0.226100  0.565300  0.771600  1.0  -0.119
  C  C224  1  0.228500  0.574500  0.816200  1.0  -0.1423
  C  C225  1  0.301200  0.531500  0.842600  1.0  0.2643
  C  C226  1  0.303800  0.531200  0.891500  1.0  0.0282
  C  C227  1  0.332900  0.453200  0.915600  1.0  -0.1709
  C  C228  1  0.328900  0.452100  0.960700  1.0  0.163
  C  C229  1  0.276700  0.601100  0.960200  1.0  0.1621
  C  C230  1  0.275300  0.606300  0.914600  1.0  -0.2286
  C  C231  1  0.641100  0.834300  0.549600  1.0  0.1081
  C  C232  1  0.951000  0.825300  0.551200  1.0  0.1029
  C  C233  1  0.952300  0.134500  0.555900  1.0  0.0362
  C  C234  1  0.649700  0.135900  0.541300  1.0  0.015
  C  C235  1  0.721100  0.988300  0.634100  1.0  0.1687
  C  C236  1  0.717600  0.997300  0.679000  1.0  -0.2127
  C  C237  1  0.801400  0.001400  0.707000  1.0  0.0046
  C  C238  1  0.885300  0.994300  0.688100  1.0  -0.1502
  C  C239  1  0.883300  0.985600  0.642700  1.0  0.1692
  C  C240  1  0.798700  0.014700  0.755300  1.0  0.2308
  C  C241  1  0.726100  0.065300  0.771600  1.0  -0.119
  C  C242  1  0.728500  0.074500  0.816200  1.0  -0.1423
  C  C243  1  0.801200  0.031500  0.842600  1.0  0.2643
  C  C244  1  0.803800  0.031200  0.891500  1.0  0.0282
  C  C245  1  0.832900  0.953200  0.915600  1.0  -0.1709
  C  C246  1  0.828900  0.952100  0.960700  1.0  0.163
  C  C247  1  0.776700  0.101100  0.960200  1.0  0.1621
  C  C248  1  0.775300  0.106300  0.914600  1.0  -0.2286
  N  N249  1  0.799800  0.611600  0.452030  1.0  -0.3323
  N  N250  1  0.605300  0.618000  0.446230  1.0  -0.3589
  N  N251  1  0.601200  0.426100  0.445760  1.0  -0.3415
  N  N252  1  0.793600  0.421000  0.456640  1.0  -0.3203
  N  N253  1  0.698000  0.515600  0.384510  1.0  -0.3183
  N  N254  1  0.630200  0.516100  0.174200  1.0  -0.2222
  N  N255  1  0.630700  0.522200  0.218300  1.0  -0.2201
  N  N256  1  0.698600  0.475100  0.016360  1.0  -0.311
  N  N257  1  0.299800  0.111600  0.452030  1.0  -0.3323
  N  N258  1  0.105300  0.118000  0.446230  1.0  -0.3589
  N  N259  1  0.101200  0.926100  0.445760  1.0  -0.3415
  N  N260  1  0.293600  0.921000  0.456640  1.0  -0.3203
  N  N261  1  0.198000  0.015600  0.384510  1.0  -0.3183
  N  N262  1  0.130200  0.016100  0.174200  1.0  -0.2222
  N  N263  1  0.130700  0.022200  0.218300  1.0  -0.2201
  N  N264  1  0.198600  0.975100  0.016360  1.0  -0.311
  N  N265  1  0.799800  0.388400  0.952030  1.0  -0.3322
  N  N266  1  0.605300  0.382000  0.946230  1.0  -0.3577
  N  N267  1  0.601200  0.573900  0.945760  1.0  -0.3447
  N  N268  1  0.793600  0.579000  0.956640  1.0  -0.3236
  N  N269  1  0.698000  0.484400  0.884510  1.0  -0.3182
  N  N270  1  0.630200  0.483900  0.674200  1.0  -0.2226
  N  N271  1  0.630700  0.477800  0.718300  1.0  -0.2198
  N  N272  1  0.698600  0.524900  0.516360  1.0  -0.3112
  N  N273  1  0.299800  0.888400  0.952030  1.0  -0.3322
  N  N274  1  0.105300  0.882000  0.946230  1.0  -0.3577
  N  N275  1  0.101200  0.073900  0.945760  1.0  -0.3447
  N  N276  1  0.293600  0.079000  0.956640  1.0  -0.3236
  N  N277  1  0.198000  0.984400  0.884510  1.0  -0.3182
  N  N278  1  0.130200  0.983900  0.674200  1.0  -0.2226
  N  N279  1  0.130700  0.977800  0.718300  1.0  -0.2198
  N  N280  1  0.198600  0.024900  0.516360  1.0  -0.3112
  N  N281  1  0.200200  0.611600  0.047970  1.0  -0.3361
  N  N282  1  0.394700  0.618000  0.053770  1.0  -0.3589
  N  N283  1  0.398800  0.426100  0.054240  1.0  -0.34
  N  N284  1  0.206400  0.421000  0.043360  1.0  -0.3207
  N  N285  1  0.302000  0.515600  0.115490  1.0  -0.3176
  N  N286  1  0.369800  0.516100  0.325800  1.0  -0.2233
  N  N287  1  0.369300  0.522200  0.281700  1.0  -0.2216
  N  N288  1  0.301400  0.475100  0.483640  1.0  -0.313
  N  N289  1  0.700200  0.111600  0.047970  1.0  -0.3361
  N  N290  1  0.894700  0.118000  0.053770  1.0  -0.3589
  N  N291  1  0.898800  0.926100  0.054240  1.0  -0.34
  N  N292  1  0.706400  0.921000  0.043360  1.0  -0.3207
  N  N293  1  0.802000  0.015600  0.115490  1.0  -0.3176
  N  N294  1  0.869800  0.016100  0.325800  1.0  -0.2233
  N  N295  1  0.869300  0.022200  0.281700  1.0  -0.2216
  N  N296  1  0.801400  0.975100  0.483640  1.0  -0.313
  N  N297  1  0.200200  0.388400  0.547970  1.0  -0.3367
  N  N298  1  0.394700  0.382000  0.553770  1.0  -0.3579
  N  N299  1  0.398800  0.573900  0.554240  1.0  -0.3414
  N  N300  1  0.206400  0.579000  0.543360  1.0  -0.3228
  N  N301  1  0.302000  0.484400  0.615490  1.0  -0.3176
  N  N302  1  0.369800  0.483900  0.825800  1.0  -0.2232
  N  N303  1  0.369300  0.477800  0.781700  1.0  -0.2209
  N  N304  1  0.301400  0.524900  0.983640  1.0  -0.3127
  N  N305  1  0.700200  0.888400  0.547970  1.0  -0.3367
  N  N306  1  0.894700  0.882000  0.553770  1.0  -0.3579
  N  N307  1  0.898800  0.073900  0.554240  1.0  -0.3414
  N  N308  1  0.706400  0.079000  0.543360  1.0  -0.3228
  N  N309  1  0.802000  0.984400  0.615490  1.0  -0.3176
  N  N310  1  0.869800  0.983900  0.825800  1.0  -0.2232
  N  N311  1  0.869300  0.977800  0.781700  1.0  -0.2209
  N  N312  1  0.801400  0.024900  0.983640  1.0  -0.3127
