# generated using pymatgen
data_FeH10Au2(C9N4)2
_symmetry_space_group_name_H-M   'P 1'
_cell_length_a   14.44440000
_cell_length_b   14.71160000
_cell_length_c   30.77200000
_cell_angle_alpha   90.00000000
_cell_angle_beta   96.96600000
_cell_angle_gamma   90.00000000
_symmetry_Int_Tables_number   1
_chemical_formula_structural   FeH10Au2(C9N4)2
_chemical_formula_sum   'Fe8 H80 Au16 C144 N64'
_cell_volume   6490.78784514
_cell_formula_units_Z   8
loop_
 _symmetry_equiv_pos_site_id
 _symmetry_equiv_pos_as_xyz
  1  'x, y, z'
loop_
 _atom_site_type_symbol
 _atom_site_label
 _atom_site_symmetry_multiplicity
 _atom_site_fract_x
 _atom_site_fract_y
 _atom_site_fract_z
 _atom_site_occupancy
 _atom_site_charge
  Fe  Fe1  1  0.302640  0.480660  0.549860  1.0  0.6304
  Fe  Fe2  1  0.302260  0.519160  0.049780  1.0  0.7353
  Fe  Fe3  1  0.802260  0.980840  0.549780  1.0  0.7346
  Fe  Fe4  1  0.802640  0.019340  0.049860  1.0  0.6302
  Fe  Fe5  1  0.197740  0.019160  0.450220  1.0  0.7296
  Fe  Fe6  1  0.197360  0.980660  0.950140  1.0  0.6254
  Fe  Fe7  1  0.697360  0.519340  0.450140  1.0  0.625
  Fe  Fe8  1  0.697740  0.480840  0.950220  1.0  0.729
  H  H9  1  0.248700  0.351500  0.470100  1.0  0.0871
  H  H10  1  0.371300  0.588600  0.473400  1.0  0.076
  H  H11  1  0.244500  0.345600  0.395200  1.0  0.1144
  H  H12  1  0.377500  0.586500  0.399300  1.0  0.1292
  H  H13  1  0.180300  0.398700  0.325300  1.0  0.1235
  H  H14  1  0.176300  0.415400  0.250000  1.0  0.1286
  H  H15  1  0.162200  0.497300  0.188500  1.0  0.1288
  H  H16  1  0.444100  0.501400  0.205600  1.0  0.1176
  H  H17  1  0.166700  0.513000  0.114400  1.0  0.0916
  H  H18  1  0.441100  0.516300  0.130700  1.0  0.0892
  H  H19  1  0.346800  0.400000  0.976900  1.0  0.0787
  H  H20  1  0.263000  0.652800  0.976400  1.0  0.0807
  H  H21  1  0.351000  0.401900  0.902900  1.0  0.1252
  H  H22  1  0.255800  0.659500  0.900600  1.0  0.1201
  H  H23  1  0.180100  0.608300  0.830300  1.0  0.1298
  H  H24  1  0.177800  0.593400  0.754600  1.0  0.1296
  H  H25  1  0.441100  0.502400  0.711000  1.0  0.1151
  H  H26  1  0.439400  0.486500  0.636500  1.0  0.0822
  H  H27  1  0.165800  0.485500  0.618800  1.0  0.0918
  H  H28  1  0.159500  0.502100  0.692800  1.0  0.1295
  H  H29  1  0.846800  0.100000  0.476900  1.0  0.0788
  H  H30  1  0.763000  0.847200  0.476400  1.0  0.0811
  H  H31  1  0.851000  0.098100  0.402900  1.0  0.1252
  H  H32  1  0.755800  0.840500  0.400600  1.0  0.1205
  H  H33  1  0.680100  0.891700  0.330300  1.0  0.1302
  H  H34  1  0.677800  0.906600  0.254600  1.0  0.1298
  H  H35  1  0.941100  0.997600  0.211000  1.0  0.1154
  H  H36  1  0.939400  0.013500  0.136500  1.0  0.0821
  H  H37  1  0.665800  0.014500  0.118800  1.0  0.0918
  H  H38  1  0.659500  0.997900  0.192800  1.0  0.1296
  H  H39  1  0.748700  0.148500  0.970100  1.0  0.0868
  H  H40  1  0.871300  0.911400  0.973400  1.0  0.0759
  H  H41  1  0.744500  0.154400  0.895200  1.0  0.1142
  H  H42  1  0.877500  0.913500  0.899300  1.0  0.1293
  H  H43  1  0.680300  0.101300  0.825300  1.0  0.1232
  H  H44  1  0.676300  0.084600  0.750000  1.0  0.1288
  H  H45  1  0.662200  0.002700  0.688500  1.0  0.1287
  H  H46  1  0.944100  0.998600  0.705600  1.0  0.1176
  H  H47  1  0.666667  0.987000  0.614400  1.0  0.0917
  H  H48  1  0.941100  0.983700  0.630700  1.0  0.0891
  H  H49  1  0.153200  0.900000  0.523100  1.0  0.0789
  H  H50  1  0.237000  0.152800  0.523600  1.0  0.0806
  H  H51  1  0.149000  0.901900  0.597100  1.0  0.125
  H  H52  1  0.244200  0.159500  0.599400  1.0  0.1205
  H  H53  1  0.319900  0.108300  0.669700  1.0  0.13
  H  H54  1  0.322200  0.093400  0.745400  1.0  0.1295
  H  H55  1  0.058900  0.002400  0.789000  1.0  0.1162
  H  H56  1  0.060600  0.986500  0.863500  1.0  0.0824
  H  H57  1  0.334200  0.985500  0.881200  1.0  0.0926
  H  H58  1  0.340500  0.002100  0.807200  1.0  0.13
  H  H59  1  0.251300  0.851500  0.029900  1.0  0.0874
  H  H60  1  0.128700  0.088600  0.026600  1.0  0.0763
  H  H61  1  0.255500  0.845600  0.104800  1.0  0.1148
  H  H62  1  0.122500  0.086500  0.100700  1.0  0.1295
  H  H63  1  0.319700  0.898700  0.174700  1.0  0.1233
  H  H64  1  0.323700  0.915400  0.250000  1.0  0.1286
  H  H65  1  0.337800  0.997300  0.311500  1.0  0.1283
  H  H66  1  0.055900  0.001400  0.294400  1.0  0.1187
  H  H67  1  0.333333  0.013000  0.385600  1.0  0.0924
  H  H68  1  0.058900  0.016300  0.369300  1.0  0.0895
  H  H69  1  0.751300  0.648500  0.529900  1.0  0.0873
  H  H70  1  0.628700  0.411400  0.526600  1.0  0.0763
  H  H71  1  0.755500  0.654400  0.604800  1.0  0.1146
  H  H72  1  0.622500  0.413500  0.600700  1.0  0.1293
  H  H73  1  0.819700  0.601300  0.674700  1.0  0.1236
  H  H74  1  0.823700  0.584600  0.750000  1.0  0.129
  H  H75  1  0.837800  0.502700  0.811500  1.0  0.1282
  H  H76  1  0.555900  0.498600  0.794400  1.0  0.1186
  H  H77  1  0.833300  0.487000  0.885600  1.0  0.0923
  H  H78  1  0.558900  0.483700  0.869300  1.0  0.0894
  H  H79  1  0.653200  0.600000  0.023100  1.0  0.0789
  H  H80  1  0.737000  0.347200  0.023600  1.0  0.0809
  H  H81  1  0.649000  0.598100  0.097100  1.0  0.1252
  H  H82  1  0.744200  0.340500  0.099400  1.0  0.1202
  H  H83  1  0.819900  0.391700  0.169700  1.0  0.1298
  H  H84  1  0.822200  0.406600  0.245400  1.0  0.1297
  H  H85  1  0.558900  0.497600  0.289000  1.0  0.1163
  H  H86  1  0.560600  0.513500  0.363500  1.0  0.0822
  H  H87  1  0.834200  0.514500  0.381200  1.0  0.0926
  H  H88  1  0.840500  0.497900  0.307200  1.0  0.1301
  Au  Au89  1  0.040990  0.233340  0.552680  1.0  0.1584
  Au  Au90  1  0.554080  0.225980  0.543510  1.0  0.1607
  Au  Au91  1  0.549890  0.741450  0.552680  1.0  0.154
  Au  Au92  1  0.547220  0.764140  0.044790  1.0  0.121
  Au  Au93  1  0.047220  0.735860  0.544790  1.0  0.123
  Au  Au94  1  0.540990  0.266660  0.052680  1.0  0.16
  Au  Au95  1  0.054080  0.274020  0.043510  1.0  0.1596
  Au  Au96  1  0.049890  0.758550  0.052680  1.0  0.1565
  Au  Au97  1  0.952780  0.264140  0.455210  1.0  0.1209
  Au  Au98  1  0.459010  0.733340  0.947320  1.0  0.1587
  Au  Au99  1  0.945920  0.725980  0.956490  1.0  0.16
  Au  Au100  1  0.950110  0.241450  0.947320  1.0  0.1537
  Au  Au101  1  0.959010  0.766660  0.447320  1.0  0.1602
  Au  Au102  1  0.445920  0.774020  0.456490  1.0  0.1589
  Au  Au103  1  0.450110  0.258550  0.447320  1.0  0.1561
  Au  Au104  1  0.452780  0.235860  0.955210  1.0  0.1232
  C  C105  1  0.134300  0.329400  0.549200  1.0  0.1145
  C  C106  1  0.459700  0.316900  0.552000  1.0  0.0806
  C  C107  1  0.458900  0.641600  0.556700  1.0  0.094
  C  C108  1  0.950400  0.132900  0.556200  1.0  0.0278
  C  C109  1  0.273100  0.401200  0.455400  1.0  0.1498
  C  C110  1  0.345000  0.538000  0.457200  1.0  0.1721
  C  C111  1  0.271800  0.396800  0.410700  1.0  -0.2033
  C  C112  1  0.348600  0.537900  0.412900  1.0  -0.1888
  C  C113  1  0.309100  0.465100  0.388200  1.0  0.0638
  C  C114  1  0.303800  0.466400  0.340100  1.0  0.238
  C  C115  1  0.229000  0.429500  0.313200  1.0  -0.1009
  C  C116  1  0.227100  0.438400  0.269400  1.0  -0.0953
  C  C117  1  0.300500  0.481600  0.253400  1.0  0.2513
  C  C118  1  0.303300  0.494800  0.205700  1.0  -0.0242
  C  C119  1  0.220600  0.500100  0.177300  1.0  -0.2169
  C  C120  1  0.386100  0.502400  0.187400  1.0  -0.1426
  C  C121  1  0.223900  0.509400  0.133200  1.0  0.1782
  C  C122  1  0.383700  0.511400  0.142700  1.0  0.1662
  C  C123  1  0.152500  0.367500  0.040100  1.0  -0.0002
  C  C124  1  0.147000  0.661600  0.049300  1.0  0.1006
  C  C125  1  0.451000  0.669700  0.052500  1.0  0.0937
  C  C126  1  0.645200  0.856700  0.041000  1.0  0.0369
  C  C127  1  0.328300  0.454000  0.961300  1.0  0.1592
  C  C128  1  0.278600  0.600000  0.961000  1.0  0.1648
  C  C129  1  0.330600  0.454200  0.917100  1.0  -0.1729
  C  C130  1  0.275900  0.605400  0.915700  1.0  -0.238
  C  C131  1  0.303000  0.530900  0.893100  1.0  0.0274
  C  C132  1  0.299900  0.532000  0.844700  1.0  0.2365
  C  C133  1  0.226900  0.574800  0.818100  1.0  -0.1432
  C  C134  1  0.225900  0.566200  0.774100  1.0  -0.0961
  C  C135  1  0.296300  0.516900  0.758100  1.0  0.2466
  C  C136  1  0.300500  0.504600  0.710300  1.0  0.0294
  C  C137  1  0.383300  0.499400  0.692600  1.0  -0.158
  C  C138  1  0.381600  0.490000  0.648200  1.0  0.1746
  C  C139  1  0.222700  0.489600  0.637800  1.0  0.1702
  C  C140  1  0.218200  0.499200  0.681800  1.0  -0.2146
  C  C141  1  0.652500  0.132500  0.540100  1.0  -0.0017
  C  C142  1  0.647000  0.838400  0.549300  1.0  0.101
  C  C143  1  0.951000  0.830300  0.552500  1.0  0.098
  C  C144  1  0.145200  0.643300  0.541000  1.0  0.0357
  C  C145  1  0.828300  0.046000  0.461300  1.0  0.1582
  C  C146  1  0.778600  0.900000  0.461000  1.0  0.1648
  C  C147  1  0.830600  0.045800  0.417100  1.0  -0.1722
  C  C148  1  0.775900  0.894600  0.415700  1.0  -0.2377
  C  C149  1  0.803000  0.969100  0.393100  1.0  0.0274
  C  C150  1  0.799900  0.968000  0.344700  1.0  0.2367
  C  C151  1  0.726900  0.925200  0.318100  1.0  -0.1429
  C  C152  1  0.725900  0.933800  0.274100  1.0  -0.0958
  C  C153  1  0.796300  0.983100  0.258100  1.0  0.247
  C  C154  1  0.800500  0.995400  0.210300  1.0  0.0294
  C  C155  1  0.883300  0.000600  0.192600  1.0  -0.1581
  C  C156  1  0.881600  0.010000  0.148200  1.0  0.1746
  C  C157  1  0.722700  0.010400  0.137800  1.0  0.1701
  C  C158  1  0.718200  0.000800  0.181800  1.0  -0.2147
  C  C159  1  0.634300  0.170600  0.049200  1.0  0.1145
  C  C160  1  0.959700  0.183100  0.052000  1.0  0.0806
  C  C161  1  0.958900  0.858400  0.056700  1.0  0.0989
  C  C162  1  0.450400  0.367100  0.056200  1.0  0.0287
  C  C163  1  0.773100  0.098800  0.955400  1.0  0.1496
  C  C164  1  0.845000  0.962000  0.957200  1.0  0.1737
  C  C165  1  0.771800  0.103200  0.910700  1.0  -0.2042
  C  C166  1  0.848600  0.962100  0.912900  1.0  -0.1891
  C  C167  1  0.809100  0.034900  0.888200  1.0  0.0636
  C  C168  1  0.803800  0.033600  0.840100  1.0  0.2375
  C  C169  1  0.729000  0.070500  0.813200  1.0  -0.1014
  C  C170  1  0.727100  0.061600  0.769400  1.0  -0.0963
  C  C171  1  0.800500  0.018400  0.753400  1.0  0.2511
  C  C172  1  0.803300  0.005200  0.705700  1.0  -0.0242
  C  C173  1  0.720600  0.999900  0.677300  1.0  -0.2167
  C  C174  1  0.886100  0.997600  0.687400  1.0  -0.1424
  C  C175  1  0.723900  0.990600  0.633200  1.0  0.1784
  C  C176  1  0.883700  0.988600  0.642700  1.0  0.1661
  C  C177  1  0.347500  0.867500  0.459900  1.0  -0.0014
  C  C178  1  0.353000  0.161600  0.450700  1.0  0.1101
  C  C179  1  0.049000  0.169700  0.447500  1.0  0.096
  C  C180  1  0.854800  0.356700  0.459000  1.0  0.036
  C  C181  1  0.171700  0.954000  0.538700  1.0  0.1579
  C  C182  1  0.221400  0.100000  0.539000  1.0  0.1642
  C  C183  1  0.169400  0.954200  0.582900  1.0  -0.1734
  C  C184  1  0.224100  0.105400  0.584300  1.0  -0.2377
  C  C185  1  0.197000  0.030900  0.606900  1.0  0.0282
  C  C186  1  0.200100  0.032000  0.655300  1.0  0.2368
  C  C187  1  0.273100  0.074800  0.681900  1.0  -0.1408
  C  C188  1  0.274100  0.066200  0.725900  1.0  -0.0948
  C  C189  1  0.203700  0.016900  0.741900  1.0  0.2483
  C  C190  1  0.199500  0.004600  0.789700  1.0  0.0312
  C  C191  1  0.116700  0.999400  0.807400  1.0  -0.1587
  C  C192  1  0.118400  0.990000  0.851800  1.0  0.1754
  C  C193  1  0.277300  0.989600  0.862200  1.0  0.171
  C  C194  1  0.281800  0.999200  0.818200  1.0  -0.2139
  C  C195  1  0.365700  0.829400  0.950800  1.0  0.1145
  C  C196  1  0.040300  0.816900  0.948000  1.0  0.0806
  C  C197  1  0.041100  0.141600  0.943300  1.0  0.0947
  C  C198  1  0.549600  0.632900  0.943800  1.0  0.0304
  C  C199  1  0.226900  0.901200  0.044600  1.0  0.1496
  C  C200  1  0.155000  0.038000  0.042800  1.0  0.1718
  C  C201  1  0.228200  0.896800  0.089300  1.0  -0.2035
  C  C202  1  0.151400  0.037900  0.087100  1.0  -0.19
  C  C203  1  0.190900  0.965100  0.111800  1.0  0.0622
  C  C204  1  0.196200  0.966400  0.159900  1.0  0.2378
  C  C205  1  0.271000  0.929500  0.186800  1.0  -0.0996
  C  C206  1  0.272900  0.938400  0.230600  1.0  -0.0945
  C  C207  1  0.199500  0.981600  0.246600  1.0  0.2522
  C  C208  1  0.196700  0.994800  0.294300  1.0  -0.023
  C  C209  1  0.279400  0.000100  0.322700  1.0  -0.2147
  C  C210  1  0.113900  0.002400  0.312600  1.0  -0.1416
  C  C211  1  0.276100  0.009400  0.366800  1.0  0.1784
  C  C212  1  0.116300  0.011400  0.357300  1.0  0.1673
  C  C213  1  0.865700  0.670600  0.450800  1.0  0.1145
  C  C214  1  0.540300  0.683100  0.448000  1.0  0.0826
  C  C215  1  0.541100  0.358400  0.443300  1.0  0.0968
  C  C216  1  0.049600  0.867100  0.443800  1.0  0.029
  C  C217  1  0.726900  0.598800  0.544600  1.0  0.1496
  C  C218  1  0.655000  0.462000  0.542800  1.0  0.1719
  C  C219  1  0.728200  0.603200  0.589300  1.0  -0.2052
  C  C220  1  0.651400  0.462100  0.587100  1.0  -0.1901
  C  C221  1  0.690900  0.534900  0.611800  1.0  0.0621
  C  C222  1  0.696200  0.533600  0.659900  1.0  0.2374
  C  C223  1  0.771000  0.570500  0.686800  1.0  -0.0997
  C  C224  1  0.772900  0.561600  0.730600  1.0  -0.0955
  C  C225  1  0.699500  0.518400  0.746600  1.0  0.2519
  C  C226  1  0.696700  0.505200  0.794300  1.0  -0.0227
  C  C227  1  0.779400  0.499900  0.822700  1.0  -0.2149
  C  C228  1  0.613900  0.497600  0.812600  1.0  -0.1416
  C  C229  1  0.776100  0.490600  0.866800  1.0  0.1782
  C  C230  1  0.616300  0.488600  0.857300  1.0  0.1673
  C  C231  1  0.847500  0.632500  0.959900  1.0  -0.0024
  C  C232  1  0.853000  0.338400  0.950700  1.0  0.1113
  C  C233  1  0.549000  0.330300  0.947500  1.0  0.0977
  C  C234  1  0.354800  0.143300  0.959000  1.0  0.0345
  C  C235  1  0.671700  0.546000  0.038700  1.0  0.1575
  C  C236  1  0.721400  0.400000  0.039000  1.0  0.1642
  C  C237  1  0.669400  0.545800  0.082900  1.0  -0.1731
  C  C238  1  0.724100  0.394600  0.084300  1.0  -0.2371
  C  C239  1  0.697000  0.469100  0.106900  1.0  0.0279
  C  C240  1  0.700100  0.468000  0.155300  1.0  0.237
  C  C241  1  0.773100  0.425200  0.181900  1.0  -0.1407
  C  C242  1  0.774100  0.433800  0.225900  1.0  -0.0943
  C  C243  1  0.703700  0.483100  0.241900  1.0  0.2486
  C  C244  1  0.699500  0.495400  0.289700  1.0  0.0312
  C  C245  1  0.616700  0.500600  0.307400  1.0  -0.1589
  C  C246  1  0.618400  0.510000  0.351800  1.0  0.1754
  C  C247  1  0.777300  0.510400  0.362200  1.0  0.1708
  C  C248  1  0.781800  0.500800  0.318200  1.0  -0.2136
  N  N249  1  0.193000  0.382000  0.547200  1.0  -0.4004
  N  N250  1  0.403700  0.372200  0.556200  1.0  -0.4159
  N  N251  1  0.408500  0.581900  0.556500  1.0  -0.4089
  N  N252  1  0.899000  0.073700  0.554400  1.0  -0.3144
  N  N253  1  0.307800  0.473200  0.479100  1.0  -0.3195
  N  N254  1  0.374100  0.508500  0.323500  1.0  -0.2226
  N  N255  1  0.372800  0.515300  0.280000  1.0  -0.231
  N  N256  1  0.303700  0.513500  0.115400  1.0  -0.3133
  N  N257  1  0.208000  0.423200  0.042600  1.0  -0.3256
  N  N258  1  0.203700  0.610300  0.047550  1.0  -0.3339
  N  N259  1  0.396000  0.615600  0.054500  1.0  -0.3517
  N  N260  1  0.701200  0.912900  0.040900  1.0  -0.3955
  N  N261  1  0.301800  0.524600  0.984160  1.0  -0.2985
  N  N262  1  0.367400  0.486600  0.828500  1.0  -0.231
  N  N263  1  0.367000  0.480300  0.784700  1.0  -0.2242
  N  N264  1  0.302500  0.485600  0.620300  1.0  -0.3374
  N  N265  1  0.708000  0.076800  0.542600  1.0  -0.3274
  N  N266  1  0.703700  0.889700  0.547550  1.0  -0.3336
  N  N267  1  0.896000  0.884400  0.554500  1.0  -0.3515
  N  N268  1  0.201200  0.587100  0.540900  1.0  -0.3955
  N  N269  1  0.801800  0.975400  0.484160  1.0  -0.2989
  N  N270  1  0.867400  0.013400  0.328500  1.0  -0.2314
  N  N271  1  0.867000  0.019700  0.284700  1.0  -0.2251
  N  N272  1  0.802500  0.014400  0.120300  1.0  -0.3375
  N  N273  1  0.693000  0.118000  0.047200  1.0  -0.4003
  N  N274  1  0.903700  0.127800  0.056200  1.0  -0.4193
  N  N275  1  0.908500  0.918100  0.056500  1.0  -0.4088
  N  N276  1  0.399000  0.426300  0.054400  1.0  -0.3154
  N  N277  1  0.807800  0.026800  0.979100  1.0  -0.3193
  N  N278  1  0.874100  0.991500  0.823500  1.0  -0.2222
  N  N279  1  0.872800  0.984700  0.780000  1.0  -0.2285
  N  N280  1  0.803700  0.986500  0.615400  1.0  -0.3129
  N  N281  1  0.292000  0.923200  0.457400  1.0  -0.3237
  N  N282  1  0.296300  0.110300  0.452450  1.0  -0.3318
  N  N283  1  0.104000  0.115600  0.445500  1.0  -0.3531
  N  N284  1  0.798800  0.412900  0.459100  1.0  -0.3974
  N  N285  1  0.198200  0.024600  0.515840  1.0  -0.2984
  N  N286  1  0.132600  0.986600  0.671500  1.0  -0.2293
  N  N287  1  0.133000  0.980300  0.715300  1.0  -0.224
  N  N288  1  0.197500  0.985600  0.879700  1.0  -0.3394
  N  N289  1  0.307000  0.882000  0.952800  1.0  -0.3979
  N  N290  1  0.096300  0.872200  0.943800  1.0  -0.417
  N  N291  1  0.091500  0.081900  0.943500  1.0  -0.4078
  N  N292  1  0.601000  0.573700  0.945600  1.0  -0.3171
  N  N293  1  0.192200  0.973200  0.020900  1.0  -0.3217
  N  N294  1  0.125900  0.008500  0.176500  1.0  -0.2212
  N  N295  1  0.127200  0.015300  0.220000  1.0  -0.2289
  N  N296  1  0.196300  0.013500  0.384600  1.0  -0.313
  N  N297  1  0.807000  0.618000  0.452800  1.0  -0.3983
  N  N298  1  0.596300  0.627800  0.443800  1.0  -0.4173
  N  N299  1  0.591500  0.418100  0.443500  1.0  -0.4073
  N  N300  1  0.101000  0.926300  0.445600  1.0  -0.3172
  N  N301  1  0.692200  0.526800  0.520900  1.0  -0.3219
  N  N302  1  0.625900  0.491500  0.676500  1.0  -0.2205
  N  N303  1  0.627200  0.484700  0.720000  1.0  -0.2283
  N  N304  1  0.696300  0.486500  0.884600  1.0  -0.3134
  N  N305  1  0.792000  0.576800  0.957400  1.0  -0.3262
  N  N306  1  0.796300  0.389700  0.952450  1.0  -0.3315
  N  N307  1  0.604000  0.384400  0.945500  1.0  -0.3524
  N  N308  1  0.298800  0.087100  0.959100  1.0  -0.3977
  N  N309  1  0.698200  0.475400  0.015840  1.0  -0.2987
  N  N310  1  0.632600  0.513400  0.171500  1.0  -0.2288
  N  N311  1  0.633000  0.519700  0.215300  1.0  -0.2234
  N  N312  1  0.697500  0.514400  0.379700  1.0  -0.3395
