# generated using pymatgen
data_FeH10Au2(C9N4)2
_symmetry_space_group_name_H-M   'P 1'
_cell_length_a   15.01350000
_cell_length_b   14.92450000
_cell_length_c   31.45570000
_cell_angle_alpha   90.00000000
_cell_angle_beta   98.20600000
_cell_angle_gamma   90.00000000
_symmetry_Int_Tables_number   1
_chemical_formula_structural   FeH10Au2(C9N4)2
_chemical_formula_sum   'Fe8 H80 Au16 C144 N64'
_cell_volume   6976.08168031
_cell_formula_units_Z   8
loop_
 _symmetry_equiv_pos_site_id
 _symmetry_equiv_pos_as_xyz
  1  'x, y, z'
loop_
 _atom_site_type_symbol
 _atom_site_label
 _atom_site_symmetry_multiplicity
 _atom_site_fract_x
 _atom_site_fract_y
 _atom_site_fract_z
 _atom_site_occupancy
 _atom_site_charge
  Fe  Fe1  1  0.691500  0.520660  0.450830  1.0  0.5547
  Fe  Fe2  1  0.191500  0.020660  0.450830  1.0  0.5547
  Fe  Fe3  1  0.691500  0.479340  0.950830  1.0  0.5546
  Fe  Fe4  1  0.191500  0.979340  0.950830  1.0  0.5546
  Fe  Fe5  1  0.308500  0.520660  0.049170  1.0  0.5611
  Fe  Fe6  1  0.808500  0.020660  0.049170  1.0  0.5611
  Fe  Fe7  1  0.308500  0.479340  0.549170  1.0  0.5607
  Fe  Fe8  1  0.808500  0.979340  0.549170  1.0  0.5607
  H  H9  1  0.821500  0.511800  0.383200  1.0  0.0958
  H  H10  1  0.830000  0.489200  0.311400  1.0  0.1273
  H  H11  1  0.558800  0.494200  0.289400  1.0  0.1241
  H  H12  1  0.559200  0.507500  0.362300  1.0  0.0824
  H  H13  1  0.822600  0.418800  0.248100  1.0  0.1333
  H  H14  1  0.819800  0.405100  0.174300  1.0  0.1303
  H  H15  1  0.614500  0.573400  0.100000  1.0  0.1308
  H  H16  1  0.616300  0.576900  0.027500  1.0  0.0862
  H  H17  1  0.754500  0.355700  0.031100  1.0  0.0877
  H  H18  1  0.763300  0.349500  0.104900  1.0  0.13
  H  H19  1  0.321500  0.011800  0.383200  1.0  0.0958
  H  H20  1  0.330000  0.989200  0.311400  1.0  0.1273
  H  H21  1  0.058800  0.994200  0.289400  1.0  0.1241
  H  H22  1  0.059200  0.007500  0.362300  1.0  0.0824
  H  H23  1  0.322600  0.918800  0.248100  1.0  0.1333
  H  H24  1  0.319800  0.905100  0.174300  1.0  0.1303
  H  H25  1  0.114500  0.073400  0.100000  1.0  0.1308
  H  H26  1  0.116300  0.076900  0.027500  1.0  0.0862
  H  H27  1  0.254500  0.855700  0.031100  1.0  0.0877
  H  H28  1  0.263300  0.849500  0.104900  1.0  0.13
  H  H29  1  0.821500  0.488200  0.883200  1.0  0.0959
  H  H30  1  0.830000  0.510800  0.811400  1.0  0.1274
  H  H31  1  0.558800  0.505800  0.789400  1.0  0.1241
  H  H32  1  0.559200  0.492500  0.862300  1.0  0.0825
  H  H33  1  0.822600  0.581200  0.748100  1.0  0.1335
  H  H34  1  0.819800  0.594900  0.674300  1.0  0.1307
  H  H35  1  0.614500  0.426600  0.600000  1.0  0.1304
  H  H36  1  0.616300  0.423100  0.527500  1.0  0.0862
  H  H37  1  0.754500  0.644300  0.531100  1.0  0.087
  H  H38  1  0.763300  0.650500  0.604900  1.0  0.1305
  H  H39  1  0.321500  0.988200  0.883200  1.0  0.0959
  H  H40  1  0.330000  0.010800  0.811400  1.0  0.1274
  H  H41  1  0.058800  0.005800  0.789400  1.0  0.1241
  H  H42  1  0.059200  0.992500  0.862300  1.0  0.0825
  H  H43  1  0.322600  0.081200  0.748100  1.0  0.1335
  H  H44  1  0.319800  0.094900  0.674300  1.0  0.1307
  H  H45  1  0.114500  0.926600  0.600000  1.0  0.1304
  H  H46  1  0.116300  0.923100  0.527500  1.0  0.0862
  H  H47  1  0.254500  0.144300  0.531100  1.0  0.087
  H  H48  1  0.263300  0.150500  0.604900  1.0  0.1305
  H  H49  1  0.178500  0.511800  0.116800  1.0  0.0954
  H  H50  1  0.170000  0.489200  0.188600  1.0  0.1274
  H  H51  1  0.441200  0.494200  0.210600  1.0  0.1238
  H  H52  1  0.440800  0.507500  0.137700  1.0  0.0846
  H  H53  1  0.177400  0.418800  0.251900  1.0  0.1329
  H  H54  1  0.180200  0.405100  0.325700  1.0  0.1307
  H  H55  1  0.385500  0.573400  0.400000  1.0  0.1305
  H  H56  1  0.383700  0.576900  0.472500  1.0  0.0863
  H  H57  1  0.245500  0.355700  0.468900  1.0  0.0876
  H  H58  1  0.236700  0.349500  0.395100  1.0  0.1302
  H  H59  1  0.678500  0.011800  0.116800  1.0  0.0954
  H  H60  1  0.670000  0.989200  0.188600  1.0  0.1274
  H  H61  1  0.941200  0.994200  0.210600  1.0  0.1238
  H  H62  1  0.940800  0.007500  0.137700  1.0  0.0846
  H  H63  1  0.677400  0.918800  0.251900  1.0  0.1329
  H  H64  1  0.680200  0.905100  0.325700  1.0  0.1307
  H  H65  1  0.885500  0.073400  0.400000  1.0  0.1305
  H  H66  1  0.883700  0.076900  0.472500  1.0  0.0863
  H  H67  1  0.745500  0.855700  0.468900  1.0  0.0876
  H  H68  1  0.736700  0.849500  0.395100  1.0  0.1302
  H  H69  1  0.178500  0.488200  0.616800  1.0  0.0953
  H  H70  1  0.170000  0.510800  0.688600  1.0  0.1275
  H  H71  1  0.441200  0.505800  0.710600  1.0  0.1238
  H  H72  1  0.440800  0.492500  0.637700  1.0  0.0846
  H  H73  1  0.177400  0.581200  0.751900  1.0  0.1331
  H  H74  1  0.180200  0.594900  0.825700  1.0  0.1304
  H  H75  1  0.385500  0.426600  0.900000  1.0  0.1303
  H  H76  1  0.383700  0.423100  0.972500  1.0  0.0865
  H  H77  1  0.245500  0.644300  0.968900  1.0  0.0867
  H  H78  1  0.236700  0.650500  0.895100  1.0  0.1303
  H  H79  1  0.678500  0.988200  0.616800  1.0  0.0953
  H  H80  1  0.670000  0.010800  0.688600  1.0  0.1275
  H  H81  1  0.941200  0.005800  0.710600  1.0  0.1238
  H  H82  1  0.940800  0.992500  0.637700  1.0  0.0846
  H  H83  1  0.677400  0.081200  0.751900  1.0  0.1331
  H  H84  1  0.680200  0.094900  0.825700  1.0  0.1304
  H  H85  1  0.885500  0.926600  0.900000  1.0  0.1303
  H  H86  1  0.883700  0.923100  0.972500  1.0  0.0865
  H  H87  1  0.745500  0.144300  0.968900  1.0  0.0867
  H  H88  1  0.736700  0.150500  0.895100  1.0  0.1303
  Au  Au89  1  0.446260  0.772610  0.456040  1.0  0.1229
  Au  Au90  1  0.949650  0.762550  0.447580  1.0  0.1665
  Au  Au91  1  0.946260  0.272610  0.456040  1.0  0.1229
  Au  Au92  1  0.449650  0.262550  0.447580  1.0  0.1665
  Au  Au93  1  0.446260  0.227390  0.956040  1.0  0.1253
  Au  Au94  1  0.949650  0.237450  0.947580  1.0  0.1649
  Au  Au95  1  0.946260  0.727390  0.956040  1.0  0.1253
  Au  Au96  1  0.449650  0.737450  0.947580  1.0  0.1649
  Au  Au97  1  0.553740  0.772610  0.043960  1.0  0.1229
  Au  Au98  1  0.050350  0.762550  0.052420  1.0  0.1651
  Au  Au99  1  0.053740  0.272610  0.043960  1.0  0.1229
  Au  Au100  1  0.550350  0.262550  0.052420  1.0  0.1651
  Au  Au101  1  0.553740  0.227390  0.543960  1.0  0.1252
  Au  Au102  1  0.050350  0.237450  0.552420  1.0  0.1639
  Au  Au103  1  0.053740  0.727390  0.543960  1.0  0.1252
  Au  Au104  1  0.550350  0.737450  0.552420  1.0  0.1639
  C  C105  1  0.856600  0.668200  0.450900  1.0  0.1071
  C  C106  1  0.540800  0.683800  0.446900  1.0  0.1035
  C  C107  1  0.537800  0.362500  0.444100  1.0  0.0955
  C  C108  1  0.849300  0.362600  0.460400  1.0  0.0441
  C  C109  1  0.767600  0.506200  0.364000  1.0  0.1827
  C  C110  1  0.773500  0.493900  0.320800  1.0  -0.1745
  C  C111  1  0.695200  0.488600  0.291500  1.0  0.0507
  C  C112  1  0.613700  0.495700  0.307900  1.0  -0.1299
  C  C113  1  0.614700  0.505000  0.351800  1.0  0.1788
  C  C114  1  0.698800  0.475600  0.244400  1.0  0.2079
  C  C115  1  0.772500  0.438500  0.229000  1.0  -0.1189
  C  C116  1  0.771300  0.430900  0.185800  1.0  -0.1216
  C  C117  1  0.696100  0.462500  0.159400  1.0  0.2458
  C  C118  1  0.690600  0.461600  0.110900  1.0  0.0438
  C  C119  1  0.645500  0.528900  0.086800  1.0  -0.1632
  C  C120  1  0.646700  0.530000  0.043500  1.0  0.175
  C  C121  1  0.728000  0.401900  0.045300  1.0  0.1621
  C  C122  1  0.732300  0.396800  0.089600  1.0  -0.2156
  C  C123  1  0.356600  0.168200  0.450900  1.0  0.1071
  C  C124  1  0.040800  0.183800  0.446900  1.0  0.1035
  C  C125  1  0.037800  0.862500  0.444100  1.0  0.0955
  C  C126  1  0.349300  0.862600  0.460400  1.0  0.0441
  C  C127  1  0.267600  0.006200  0.364000  1.0  0.1827
  C  C128  1  0.273500  0.993900  0.320800  1.0  -0.1745
  C  C129  1  0.195200  0.988600  0.291500  1.0  0.0507
  C  C130  1  0.113700  0.995700  0.307900  1.0  -0.1299
  C  C131  1  0.114700  0.005000  0.351800  1.0  0.1788
  C  C132  1  0.198800  0.975600  0.244400  1.0  0.2079
  C  C133  1  0.272500  0.938500  0.229000  1.0  -0.1189
  C  C134  1  0.271300  0.930900  0.185800  1.0  -0.1216
  C  C135  1  0.196100  0.962500  0.159400  1.0  0.2458
  C  C136  1  0.190600  0.961600  0.110900  1.0  0.0438
  C  C137  1  0.145500  0.028900  0.086800  1.0  -0.1632
  C  C138  1  0.146700  0.030000  0.043500  1.0  0.175
  C  C139  1  0.228000  0.901900  0.045300  1.0  0.1621
  C  C140  1  0.232300  0.896800  0.089600  1.0  -0.2156
  C  C141  1  0.856600  0.331800  0.950900  1.0  0.1068
  C  C142  1  0.540800  0.316200  0.946900  1.0  0.1029
  C  C143  1  0.537800  0.637500  0.944100  1.0  0.0945
  C  C144  1  0.849300  0.637400  0.960400  1.0  0.0426
  C  C145  1  0.767600  0.493800  0.864000  1.0  0.1828
  C  C146  1  0.773500  0.506100  0.820800  1.0  -0.1743
  C  C147  1  0.695200  0.511400  0.791500  1.0  0.0509
  C  C148  1  0.613700  0.504300  0.807900  1.0  -0.1299
  C  C149  1  0.614700  0.495000  0.851800  1.0  0.1787
  C  C150  1  0.698800  0.524400  0.744400  1.0  0.2079
  C  C151  1  0.772500  0.561500  0.729000  1.0  -0.119
  C  C152  1  0.771300  0.569100  0.685800  1.0  -0.1211
  C  C153  1  0.696100  0.537500  0.659400  1.0  0.2455
  C  C154  1  0.690600  0.538400  0.610900  1.0  0.0438
  C  C155  1  0.645500  0.471100  0.586800  1.0  -0.1643
  C  C156  1  0.646700  0.470000  0.543500  1.0  0.1755
  C  C157  1  0.728000  0.598100  0.545300  1.0  0.1626
  C  C158  1  0.732300  0.603200  0.589600  1.0  -0.2167
  C  C159  1  0.356600  0.831800  0.950900  1.0  0.1068
  C  C160  1  0.040800  0.816200  0.946900  1.0  0.1029
  C  C161  1  0.037800  0.137500  0.944100  1.0  0.0945
  C  C162  1  0.349300  0.137400  0.960400  1.0  0.0426
  C  C163  1  0.267600  0.993800  0.864000  1.0  0.1828
  C  C164  1  0.273500  0.006100  0.820800  1.0  -0.1743
  C  C165  1  0.195200  0.011400  0.791500  1.0  0.0509
  C  C166  1  0.113700  0.004300  0.807900  1.0  -0.1299
  C  C167  1  0.114700  0.995000  0.851800  1.0  0.1787
  C  C168  1  0.198800  0.024400  0.744400  1.0  0.2079
  C  C169  1  0.272500  0.061500  0.729000  1.0  -0.119
  C  C170  1  0.271300  0.069100  0.685800  1.0  -0.1211
  C  C171  1  0.196100  0.037500  0.659400  1.0  0.2455
  C  C172  1  0.190600  0.038400  0.610900  1.0  0.0438
  C  C173  1  0.145500  0.971100  0.586800  1.0  -0.1643
  C  C174  1  0.146700  0.970000  0.543500  1.0  0.1755
  C  C175  1  0.228000  0.098100  0.545300  1.0  0.1626
  C  C176  1  0.232300  0.103200  0.589600  1.0  -0.2167
  C  C177  1  0.143400  0.668200  0.049100  1.0  0.1062
  C  C178  1  0.459200  0.683800  0.053100  1.0  0.0986
  C  C179  1  0.462200  0.362500  0.055900  1.0  0.0956
  C  C180  1  0.150700  0.362600  0.039600  1.0  0.0449
  C  C181  1  0.232400  0.506200  0.136000  1.0  0.1816
  C  C182  1  0.226500  0.493900  0.179200  1.0  -0.1758
  C  C183  1  0.304800  0.488600  0.208500  1.0  0.049
  C  C184  1  0.386300  0.495700  0.192100  1.0  -0.1303
  C  C185  1  0.385300  0.505000  0.148200  1.0  0.1779
  C  C186  1  0.301200  0.475600  0.255600  1.0  0.2087
  C  C187  1  0.227500  0.438500  0.271000  1.0  -0.1196
  C  C188  1  0.228700  0.430900  0.314200  1.0  -0.1237
  C  C189  1  0.303900  0.462500  0.340600  1.0  0.2464
  C  C190  1  0.309400  0.461600  0.389100  1.0  0.0456
  C  C191  1  0.354500  0.528900  0.413200  1.0  -0.1635
  C  C192  1  0.353300  0.530000  0.456500  1.0  0.1741
  C  C193  1  0.272000  0.401900  0.454700  1.0  0.1631
  C  C194  1  0.267700  0.396800  0.410400  1.0  -0.2153
  C  C195  1  0.643400  0.168200  0.049100  1.0  0.1062
  C  C196  1  0.959200  0.183800  0.053100  1.0  0.0986
  C  C197  1  0.962200  0.862500  0.055900  1.0  0.0956
  C  C198  1  0.650700  0.862600  0.039600  1.0  0.0449
  C  C199  1  0.732400  0.006200  0.136000  1.0  0.1816
  C  C200  1  0.726500  0.993900  0.179200  1.0  -0.1758
  C  C201  1  0.804800  0.988600  0.208500  1.0  0.049
  C  C202  1  0.886300  0.995700  0.192100  1.0  -0.1303
  C  C203  1  0.885300  0.005000  0.148200  1.0  0.1779
  C  C204  1  0.801200  0.975600  0.255600  1.0  0.2087
  C  C205  1  0.727500  0.938500  0.271000  1.0  -0.1196
  C  C206  1  0.728700  0.930900  0.314200  1.0  -0.1237
  C  C207  1  0.803900  0.962500  0.340600  1.0  0.2464
  C  C208  1  0.809400  0.961600  0.389100  1.0  0.0456
  C  C209  1  0.854500  0.028900  0.413200  1.0  -0.1635
  C  C210  1  0.853300  0.030000  0.456500  1.0  0.1741
  C  C211  1  0.772000  0.901900  0.454700  1.0  0.1631
  C  C212  1  0.767700  0.896800  0.410400  1.0  -0.2153
  C  C213  1  0.143400  0.331800  0.549100  1.0  0.1062
  C  C214  1  0.459200  0.316200  0.553100  1.0  0.101
  C  C215  1  0.462200  0.637500  0.555900  1.0  0.093
  C  C216  1  0.150700  0.637400  0.539600  1.0  0.0439
  C  C217  1  0.232400  0.493800  0.636000  1.0  0.1816
  C  C218  1  0.226500  0.506100  0.679200  1.0  -0.1756
  C  C219  1  0.304800  0.511400  0.708500  1.0  0.049
  C  C220  1  0.386300  0.504300  0.692100  1.0  -0.1304
  C  C221  1  0.385300  0.495000  0.648200  1.0  0.1778
  C  C222  1  0.301200  0.524400  0.755600  1.0  0.2087
  C  C223  1  0.227500  0.561500  0.771000  1.0  -0.1193
  C  C224  1  0.228700  0.569100  0.814200  1.0  -0.1234
  C  C225  1  0.303900  0.537500  0.840600  1.0  0.2461
  C  C226  1  0.309400  0.538400  0.889100  1.0  0.0454
  C  C227  1  0.354500  0.471100  0.913200  1.0  -0.1643
  C  C228  1  0.353300  0.470000  0.956500  1.0  0.1759
  C  C229  1  0.272000  0.598100  0.954700  1.0  0.1628
  C  C230  1  0.267700  0.603200  0.910400  1.0  -0.2163
  C  C231  1  0.643400  0.831800  0.549100  1.0  0.1062
  C  C232  1  0.959200  0.816200  0.553100  1.0  0.101
  C  C233  1  0.962200  0.137500  0.555900  1.0  0.093
  C  C234  1  0.650700  0.137400  0.539600  1.0  0.0439
  C  C235  1  0.732400  0.993800  0.636000  1.0  0.1816
  C  C236  1  0.726500  0.006100  0.679200  1.0  -0.1756
  C  C237  1  0.804800  0.011400  0.708500  1.0  0.049
  C  C238  1  0.886300  0.004300  0.692100  1.0  -0.1304
  C  C239  1  0.885300  0.995000  0.648200  1.0  0.1778
  C  C240  1  0.801200  0.024400  0.755600  1.0  0.2087
  C  C241  1  0.727500  0.061500  0.771000  1.0  -0.1193
  C  C242  1  0.728700  0.069100  0.814200  1.0  -0.1234
  C  C243  1  0.803900  0.037500  0.840600  1.0  0.2461
  C  C244  1  0.809400  0.038400  0.889100  1.0  0.0454
  C  C245  1  0.854500  0.971100  0.913200  1.0  -0.1643
  C  C246  1  0.853300  0.970000  0.956500  1.0  0.1759
  C  C247  1  0.772000  0.098100  0.954700  1.0  0.1628
  C  C248  1  0.767700  0.103200  0.910400  1.0  -0.2163
  N  N249  1  0.799400  0.617300  0.452700  1.0  -0.3737
  N  N250  1  0.592800  0.628600  0.442800  1.0  -0.4016
  N  N251  1  0.588900  0.419300  0.444500  1.0  -0.4144
  N  N252  1  0.793200  0.415300  0.461000  1.0  -0.3934
  N  N253  1  0.690200  0.510500  0.380200  1.0  -0.3154
  N  N254  1  0.625400  0.498500  0.174600  1.0  -0.2046
  N  N255  1  0.626500  0.504000  0.217500  1.0  -0.2123
  N  N256  1  0.688800  0.468000  0.021900  1.0  -0.3228
  N  N257  1  0.299400  0.117300  0.452700  1.0  -0.3737
  N  N258  1  0.092800  0.128600  0.442800  1.0  -0.4016
  N  N259  1  0.088900  0.919300  0.444500  1.0  -0.4144
  N  N260  1  0.293200  0.915300  0.461000  1.0  -0.3934
  N  N261  1  0.190200  0.010500  0.380200  1.0  -0.3154
  N  N262  1  0.125400  0.998500  0.174600  1.0  -0.2046
  N  N263  1  0.126500  0.004000  0.217500  1.0  -0.2123
  N  N264  1  0.188800  0.968000  0.021900  1.0  -0.3228
  N  N265  1  0.799400  0.382700  0.952700  1.0  -0.3726
  N  N266  1  0.592800  0.371400  0.942800  1.0  -0.3988
  N  N267  1  0.588900  0.580700  0.944500  1.0  -0.4143
  N  N268  1  0.793200  0.584700  0.961000  1.0  -0.3963
  N  N269  1  0.690200  0.489500  0.880200  1.0  -0.315
  N  N270  1  0.625400  0.501500  0.674600  1.0  -0.2051
  N  N271  1  0.626500  0.496000  0.717500  1.0  -0.2133
  N  N272  1  0.688800  0.532000  0.521900  1.0  -0.3241
  N  N273  1  0.299400  0.882700  0.952700  1.0  -0.3726
  N  N274  1  0.092800  0.871400  0.942800  1.0  -0.3988
  N  N275  1  0.088900  0.080700  0.944500  1.0  -0.4143
  N  N276  1  0.293200  0.084700  0.961000  1.0  -0.3963
  N  N277  1  0.190200  0.989500  0.880200  1.0  -0.315
  N  N278  1  0.125400  0.001500  0.674600  1.0  -0.2051
  N  N279  1  0.126500  0.996000  0.717500  1.0  -0.2133
  N  N280  1  0.188800  0.032000  0.521900  1.0  -0.3241
  N  N281  1  0.200600  0.617300  0.047300  1.0  -0.3738
  N  N282  1  0.407200  0.628600  0.057200  1.0  -0.4018
  N  N283  1  0.411100  0.419300  0.055500  1.0  -0.4159
  N  N284  1  0.206800  0.415300  0.039000  1.0  -0.3939
  N  N285  1  0.309800  0.510500  0.119800  1.0  -0.3149
  N  N286  1  0.374600  0.498500  0.325400  1.0  -0.2071
  N  N287  1  0.373500  0.504000  0.282500  1.0  -0.2158
  N  N288  1  0.311200  0.468000  0.478100  1.0  -0.3242
  N  N289  1  0.700600  0.117300  0.047300  1.0  -0.3738
  N  N290  1  0.907200  0.128600  0.057200  1.0  -0.4018
  N  N291  1  0.911100  0.919300  0.055500  1.0  -0.4159
  N  N292  1  0.706800  0.915300  0.039000  1.0  -0.3939
  N  N293  1  0.809800  0.010500  0.119800  1.0  -0.3149
  N  N294  1  0.874600  0.998500  0.325400  1.0  -0.2071
  N  N295  1  0.873500  0.004000  0.282500  1.0  -0.2158
  N  N296  1  0.811200  0.968000  0.478100  1.0  -0.3242
  N  N297  1  0.200600  0.382700  0.547300  1.0  -0.3736
  N  N298  1  0.407200  0.371400  0.557200  1.0  -0.3981
  N  N299  1  0.411100  0.580700  0.555500  1.0  -0.4159
  N  N300  1  0.206800  0.584700  0.539000  1.0  -0.3957
  N  N301  1  0.309800  0.489500  0.619800  1.0  -0.3152
  N  N302  1  0.374600  0.501500  0.825400  1.0  -0.207
  N  N303  1  0.373500  0.496000  0.782500  1.0  -0.2156
  N  N304  1  0.311200  0.532000  0.978100  1.0  -0.3236
  N  N305  1  0.700600  0.882700  0.547300  1.0  -0.3736
  N  N306  1  0.907200  0.871400  0.557200  1.0  -0.3981
  N  N307  1  0.911100  0.080700  0.555500  1.0  -0.4159
  N  N308  1  0.706800  0.084700  0.539000  1.0  -0.3957
  N  N309  1  0.809800  0.989500  0.619800  1.0  -0.3152
  N  N310  1  0.874600  0.001500  0.825400  1.0  -0.207
  N  N311  1  0.873500  0.996000  0.782500  1.0  -0.2156
  N  N312  1  0.811200  0.032000  0.978100  1.0  -0.3236
