# generated using pymatgen
data_Cs2HC(SO3)3
_symmetry_space_group_name_H-M   'P 1'
_cell_length_a   8.10150000
_cell_length_b   12.94630000
_cell_length_c   12.42230000
_cell_angle_alpha   90.00000000
_cell_angle_beta   97.77800000
_cell_angle_gamma   90.00000000
_symmetry_Int_Tables_number   1
_chemical_formula_structural   Cs2HC(SO3)3
_chemical_formula_sum   'Cs8 H4 C4 S12 O36'
_cell_volume   1290.91920198
_cell_formula_units_Z   4
loop_
 _symmetry_equiv_pos_site_id
 _symmetry_equiv_pos_as_xyz
  1  'x, y, z'
loop_
 _atom_site_type_symbol
 _atom_site_label
 _atom_site_symmetry_multiplicity
 _atom_site_fract_x
 _atom_site_fract_y
 _atom_site_fract_z
 _atom_site_occupancy
 _atom_site_charge
  Cs  Cs1  1  0.969030  0.212170  0.728620  1.0  0.943
  Cs  Cs2  1  0.492020  0.134020  0.893150  1.0  0.9789
  Cs  Cs3  1  0.530970  0.712170  0.771380  1.0  0.9432
  Cs  Cs4  1  0.007980  0.634020  0.606850  1.0  0.9783
  Cs  Cs5  1  0.030970  0.787830  0.271380  1.0  0.9432
  Cs  Cs6  1  0.507980  0.865980  0.106850  1.0  0.9786
  Cs  Cs7  1  0.469030  0.287830  0.228620  1.0  0.9429
  Cs  Cs8  1  0.992020  0.365980  0.393150  1.0  0.9791
  H  H9  1  0.411000  0.407300  0.534500  1.0  0.3717
  H  H10  1  0.089000  0.907300  0.965500  1.0  0.3695
  H  H11  1  0.589000  0.592700  0.465500  1.0  0.3707
  H  H12  1  0.911000  0.092700  0.034500  1.0  0.3733
  C  C13  1  0.452500  0.372960  0.605130  1.0  -0.0089
  C  C14  1  0.047500  0.872960  0.894870  1.0  -0.0091
  C  C15  1  0.547500  0.627040  0.394870  1.0  -0.0091
  C  C16  1  0.952500  0.127040  0.105130  1.0  -0.0092
  S  S17  1  0.663000  0.420340  0.644210  1.0  1.4123
  S  S18  1  0.307690  0.409290  0.698770  1.0  1.4137
  S  S19  1  0.448250  0.234560  0.577560  1.0  1.4188
  S  S20  1  0.837000  0.920340  0.855790  1.0  1.4106
  S  S21  1  0.192310  0.909290  0.801230  1.0  1.4129
  S  S22  1  0.051750  0.734560  0.922440  1.0  1.4186
  S  S23  1  0.337000  0.579660  0.355790  1.0  1.4107
  S  S24  1  0.692310  0.590710  0.301230  1.0  1.413
  S  S25  1  0.551750  0.765440  0.422440  1.0  1.4198
  S  S26  1  0.163000  0.079660  0.144210  1.0  1.4122
  S  S27  1  0.807690  0.090710  0.198770  1.0  1.4133
  S  S28  1  0.948250  0.265440  0.077560  1.0  1.4203
  O  O29  1  0.760900  0.370090  0.570260  1.0  -0.7689
  O  O30  1  0.712500  0.388850  0.756860  1.0  -0.6962
  O  O31  1  0.653300  0.531530  0.630940  1.0  -0.7017
  O  O32  1  0.356300  0.511030  0.739210  1.0  -0.7527
  O  O33  1  0.325700  0.330820  0.784000  1.0  -0.7447
  O  O34  1  0.145700  0.407370  0.633190  1.0  -0.7095
  O  O35  1  0.557100  0.184750  0.663910  1.0  -0.753
  O  O36  1  0.272500  0.206350  0.572890  1.0  -0.7221
  O  O37  1  0.505100  0.223400  0.471980  1.0  -0.684
  O  O38  1  0.739100  0.870090  0.929740  1.0  -0.7676
  O  O39  1  0.787500  0.888850  0.743140  1.0  -0.6936
  O  O40  1  0.846700  0.031530  0.869060  1.0  -0.7031
  O  O41  1  0.143700  0.011030  0.760790  1.0  -0.7556
  O  O42  1  0.174300  0.830820  0.716000  1.0  -0.7401
  O  O43  1  0.354300  0.907370  0.866810  1.0  -0.7111
  O  O44  1  0.942900  0.684750  0.836090  1.0  -0.7505
  O  O45  1  0.227500  0.706350  0.927110  1.0  -0.7219
  O  O46  1  0.994900  0.723400  0.028020  1.0  -0.6839
  O  O47  1  0.239100  0.629910  0.429740  1.0  -0.7687
  O  O48  1  0.287500  0.611150  0.243140  1.0  -0.6934
  O  O49  1  0.346700  0.468470  0.369060  1.0  -0.7003
  O  O50  1  0.643700  0.488970  0.260790  1.0  -0.7539
  O  O51  1  0.674300  0.669180  0.216000  1.0  -0.7396
  O  O52  1  0.854300  0.592630  0.366810  1.0  -0.7109
  O  O53  1  0.442900  0.815250  0.336090  1.0  -0.7518
  O  O54  1  0.727500  0.793650  0.427110  1.0  -0.722
  O  O55  1  0.494900  0.776600  0.528020  1.0  -0.6835
  O  O56  1  0.260900  0.129910  0.070260  1.0  -0.7685
  O  O57  1  0.212500  0.111150  0.256860  1.0  -0.6961
  O  O58  1  0.153300  0.968470  0.130940  1.0  -0.6995
  O  O59  1  0.856300  0.988970  0.239210  1.0  -0.7526
  O  O60  1  0.825700  0.169180  0.284000  1.0  -0.744
  O  O61  1  0.645700  0.092630  0.133190  1.0  -0.7093
  O  O62  1  0.057100  0.315250  0.163910  1.0  -0.7527
  O  O63  1  0.772500  0.293650  0.072890  1.0  -0.7218
  O  O64  1  0.005100  0.276600  0.971980  1.0  -0.6838
