# generated using pymatgen
data_Zn4H36C36O13
_symmetry_space_group_name_H-M   'P 1'
_cell_length_a   18.11150000
_cell_length_b   18.11150000
_cell_length_c   18.11150000
_cell_angle_alpha   60.00000000
_cell_angle_beta   60.00000000
_cell_angle_gamma   60.00000000
_symmetry_Int_Tables_number   1
_chemical_formula_structural   Zn4H36C36O13
_chemical_formula_sum   'Zn8 H72 C72 O26'
_cell_volume   4200.95725693
_cell_formula_units_Z   2
loop_
 _symmetry_equiv_pos_site_id
 _symmetry_equiv_pos_as_xyz
  1  'x, y, z'
loop_
 _atom_site_type_symbol
 _atom_site_label
 _atom_site_symmetry_multiplicity
 _atom_site_fract_x
 _atom_site_fract_y
 _atom_site_fract_z
 _atom_site_occupancy
 _atom_site_charge
  Zn  Zn1  1  0.118750  0.293750  0.293750  1.0  1.1086
  Zn  Zn2  1  0.293740  0.118760  0.293750  1.0  1.113
  Zn  Zn3  1  0.293740  0.293750  0.118760  1.0  1.1171
  Zn  Zn4  1  0.293740  0.293750  0.293750  1.0  1.1162
  Zn  Zn5  1  0.706260  0.881240  0.706250  1.0  1.1055
  Zn  Zn6  1  0.881250  0.706250  0.706250  1.0  1.1159
  Zn  Zn7  1  0.706260  0.706250  0.881240  1.0  1.125
  Zn  Zn8  1  0.706260  0.706250  0.706250  1.0  1.1154
  H  H9  1  0.994420  0.629390  0.282030  1.0  0.1169
  H  H10  1  0.097680  0.528140  0.270680  1.0  0.1151
  H  H11  1  0.100180  0.623800  0.281400  1.0  0.1169
  H  H12  1  0.632890  0.090030  0.994660  1.0  0.1144
  H  H13  1  0.619950  0.995110  0.103970  1.0  0.1213
  H  H14  1  0.528480  0.107150  0.093650  1.0  0.1145
  H  H15  1  0.279950  0.997290  0.111890  1.0  0.1168
  H  H16  1  0.283240  0.080310  0.996270  1.0  0.1221
  H  H17  1  0.270920  0.114690  0.084120  1.0  0.1168
  H  H18  1  0.050610  0.272630  0.545540  1.0  0.118
  H  H19  1  0.011620  0.285070  0.656550  1.0  0.1259
  H  H20  1  0.130050  0.276410  0.579240  1.0  0.1256
  H  H21  1  0.044050  0.285150  0.013520  1.0  0.1255
  H  H22  1  0.016310  0.276120  0.130910  1.0  0.1264
  H  H23  1  0.131920  0.272840  0.047860  1.0  0.1216
  H  H24  1  0.528100  0.102790  0.270680  1.0  0.1177
  H  H25  1  0.624530  0.994550  0.281480  1.0  0.1238
  H  H26  1  0.628700  0.094950  0.281950  1.0  0.1222
  H  H27  1  0.283240  0.996270  0.640180  1.0  0.1245
  H  H28  1  0.270920  0.084120  0.530280  1.0  0.1196
  H  H29  1  0.279950  0.111890  0.610870  1.0  0.1222
  H  H30  1  0.101840  0.622160  0.994790  1.0  0.1274
  H  H31  1  0.095960  0.528250  0.105090  1.0  0.1155
  H  H32  1  0.994490  0.630920  0.092400  1.0  0.1152
  H  H33  1  0.105040  0.096020  0.528250  1.0  0.1128
  H  H34  1  0.092460  0.994480  0.630860  1.0  0.1226
  H  H35  1  0.994780  0.101780  0.622220  1.0  0.1173
  H  H36  1  0.585910  0.277150  0.009550  1.0  0.1203
  H  H37  1  0.541200  0.272150  0.128930  1.0  0.1227
  H  H38  1  0.654210  0.284810  0.053800  1.0  0.1172
  H  H39  1  0.270930  0.530340  0.114870  1.0  0.1149
  H  H40  1  0.279920  0.610620  0.997370  1.0  0.1233
  H  H41  1  0.283260  0.640360  0.080040  1.0  0.1116
  H  H42  1  0.999670  0.116830  0.279210  1.0  0.1269
  H  H43  1  0.073280  0.998270  0.283740  1.0  0.1226
  H  H44  1  0.119330  0.077180  0.271150  1.0  0.1181
  H  H45  1  0.436970  0.866360  0.725410  1.0  0.12
  H  H46  1  0.340550  0.974600  0.714610  1.0  0.1084
  H  H47  1  0.441150  0.966760  0.725880  1.0  0.1163
  H  H48  1  0.967770  0.340700  0.976910  1.0  0.1213
  H  H49  1  0.973650  0.434600  0.866600  1.0  0.1188
  H  H50  1  0.866300  0.443370  0.964210  1.0  0.1183
  H  H51  1  0.888120  0.720050  0.002720  1.0  0.1187
  H  H52  1  0.915860  0.729080  0.885330  1.0  0.1157
  H  H53  1  0.003730  0.716770  0.919670  1.0  0.1183
  H  H54  1  0.714850  0.955930  0.342720  1.0  0.1207
  H  H55  1  0.727160  0.868080  0.452630  1.0  0.1216
  H  H56  1  0.723880  0.983700  0.423320  1.0  0.1204
  H  H57  1  0.727160  0.952120  0.868080  1.0  0.1183
  H  H58  1  0.723880  0.869100  0.983700  1.0  0.1242
  H  H59  1  0.714850  0.986500  0.955930  1.0  0.1237
  H  H60  1  0.969490  0.340590  0.714610  1.0  0.1659
  H  H61  1  0.866230  0.441830  0.725950  1.0  0.1162
  H  H62  1  0.972000  0.436250  0.725330  1.0  0.1177
  H  H63  1  0.883430  0.729000  0.468990  1.0  0.1143
  H  H64  1  0.922420  0.716560  0.357990  1.0  0.1077
  H  H65  1  0.001860  0.720340  0.391690  1.0  0.1198
  H  H66  1  0.432400  0.866920  0.975790  1.0  0.1222
  H  H67  1  0.445340  0.961840  0.866470  1.0  0.1208
  H  H68  1  0.340930  0.978960  0.965460  1.0  0.1135
  H  H69  1  0.964280  0.866290  0.443310  1.0  0.1204
  H  H70  1  0.976850  0.967830  0.340700  1.0  0.1254
  H  H71  1  0.866590  0.973590  0.434670  1.0  0.1162
  H  H72  1  0.723850  0.423070  0.869180  1.0  0.121
  H  H73  1  0.714860  0.342790  0.986680  1.0  0.1486
  H  H74  1  0.727180  0.452810  0.951860  1.0  0.1193
  H  H75  1  0.353650  0.716070  0.000740  1.0  0.1111
  H  H76  1  0.398360  0.721080  0.881360  1.0  0.122
  H  H77  1  0.466660  0.728740  0.925610  1.0  0.1186
  H  H78  1  0.945090  0.870080  0.727670  1.0  0.1265
  H  H79  1  0.871480  0.988640  0.723140  1.0  0.1247
  H  H80  1  0.991140  0.948990  0.715080  1.0  0.1141
  C  C81  1  0.111300  0.388700  0.388700  1.0  0.737
  C  C82  1  0.053300  0.446700  0.446700  1.0  -0.1903
  C  C83  1  0.388700  0.111300  0.111300  1.0  0.7355
  C  C84  1  0.446700  0.053300  0.053300  1.0  -0.1963
  C  C85  1  0.111300  0.388700  0.111300  1.0  0.7421
  C  C86  1  0.053300  0.446700  0.053300  1.0  -0.1988
  C  C87  1  0.388700  0.111300  0.388700  1.0  0.7352
  C  C88  1  0.446700  0.053300  0.446700  1.0  -0.1968
  C  C89  1  0.111300  0.111300  0.388700  1.0  0.7299
  C  C90  1  0.053300  0.053300  0.446700  1.0  -0.1924
  C  C91  1  0.388700  0.388700  0.111300  1.0  0.744
  C  C92  1  0.446700  0.446700  0.053300  1.0  -0.1862
  C  C93  1  0.611300  0.888700  0.611300  1.0  0.7425
  C  C94  1  0.553300  0.946700  0.553300  1.0  -0.1902
  C  C95  1  0.888700  0.611300  0.888700  1.0  0.7507
  C  C96  1  0.946700  0.553300  0.946700  1.0  -0.2012
  C  C97  1  0.611300  0.888700  0.888700  1.0  0.7465
  C  C98  1  0.553300  0.946700  0.946700  1.0  -0.1965
  C  C99  1  0.888700  0.611300  0.611300  1.0  0.7484
  C  C100  1  0.946700  0.553300  0.553300  1.0  -0.199
  C  C101  1  0.888700  0.888700  0.611300  1.0  0.741
  C  C102  1  0.946700  0.946700  0.553300  1.0  -0.2
  C  C103  1  0.611300  0.611300  0.888700  1.0  0.7306
  C  C104  1  0.553300  0.553300  0.946700  1.0  -0.1982
  C  C105  1  0.027000  0.537960  0.408040  1.0  0.071
  C  C106  1  0.056800  0.582800  0.303600  1.0  -0.3772
  C  C107  1  0.537960  0.027000  0.027000  1.0  0.0886
  C  C108  1  0.582800  0.056800  0.056800  1.0  -0.3615
  C  C109  1  0.408040  0.027000  0.027000  1.0  0.0774
  C  C110  1  0.303600  0.056800  0.056800  1.0  -0.3571
  C  C111  1  0.027000  0.408040  0.537960  1.0  0.09
  C  C112  1  0.056800  0.303600  0.582800  1.0  -0.3712
  C  C113  1  0.027000  0.408040  0.027000  1.0  0.0892
  C  C114  1  0.056800  0.303600  0.056800  1.0  -0.3687
  C  C115  1  0.537960  0.027000  0.408040  1.0  0.0906
  C  C116  1  0.582800  0.056800  0.303600  1.0  -0.3649
  C  C117  1  0.408040  0.027000  0.537960  1.0  0.0762
  C  C118  1  0.303600  0.056800  0.582800  1.0  -0.3608
  C  C119  1  0.027000  0.537960  0.027000  1.0  0.0713
  C  C120  1  0.056800  0.582800  0.056800  1.0  -0.367
  C  C121  1  0.027000  0.027000  0.537960  1.0  0.0883
  C  C122  1  0.056800  0.056800  0.582800  1.0  -0.3671
  C  C123  1  0.537960  0.408040  0.027000  1.0  0.1027
  C  C124  1  0.582800  0.303600  0.056800  1.0  -0.3699
  C  C125  1  0.408040  0.537960  0.027000  1.0  0.0833
  C  C126  1  0.303600  0.582800  0.056800  1.0  -0.3686
  C  C127  1  0.027000  0.027000  0.408040  1.0  0.0828
  C  C128  1  0.056800  0.056800  0.303600  1.0  -0.3712
  C  C129  1  0.462040  0.973000  0.591960  1.0  0.0917
  C  C130  1  0.417200  0.943200  0.696400  1.0  -0.3808
  C  C131  1  0.973000  0.462040  0.973000  1.0  0.0974
  C  C132  1  0.943200  0.417200  0.943200  1.0  -0.3704
  C  C133  1  0.973000  0.591960  0.973000  1.0  0.0812
  C  C134  1  0.943200  0.696400  0.943200  1.0  -0.3697
  C  C135  1  0.591960  0.973000  0.462040  1.0  0.0937
  C  C136  1  0.696400  0.943200  0.417200  1.0  -0.3834
  C  C137  1  0.591960  0.973000  0.973000  1.0  0.0896
  C  C138  1  0.696400  0.943200  0.943200  1.0  -0.3798
  C  C139  1  0.973000  0.462040  0.591960  1.0  0.1009
  C  C140  1  0.943200  0.417200  0.696400  1.0  -0.3666
  C  C141  1  0.973000  0.591960  0.462040  1.0  0.084
  C  C142  1  0.943200  0.696400  0.417200  1.0  -0.376
  C  C143  1  0.462040  0.973000  0.973000  1.0  0.0929
  C  C144  1  0.417200  0.943200  0.943200  1.0  -0.3841
  C  C145  1  0.973000  0.973000  0.462040  1.0  0.0924
  C  C146  1  0.943200  0.943200  0.417200  1.0  -0.3825
  C  C147  1  0.591960  0.462040  0.973000  1.0  0.1042
  C  C148  1  0.696400  0.417200  0.943200  1.0  -0.3632
  C  C149  1  0.462040  0.591960  0.973000  1.0  0.0831
  C  C150  1  0.417200  0.696400  0.943200  1.0  -0.3703
  C  C151  1  0.973000  0.973000  0.591960  1.0  0.0893
  C  C152  1  0.943200  0.943200  0.696400  1.0  -0.381
  O  O153  1  0.250000  0.250000  0.250000  1.0  -1.2691
  O  O154  1  0.750000  0.750000  0.750000  1.0  -1.2798
  O  O155  1  0.071930  0.366650  0.366650  1.0  -0.6135
  O  O156  1  0.366650  0.071930  0.194770  1.0  -0.6096
  O  O157  1  0.366650  0.194770  0.071930  1.0  -0.6098
  O  O158  1  0.194770  0.366650  0.366650  1.0  -0.611
  O  O159  1  0.071930  0.366650  0.194770  1.0  -0.6095
  O  O160  1  0.366650  0.194770  0.366650  1.0  -0.6178
  O  O161  1  0.366650  0.071930  0.366650  1.0  -0.6137
  O  O162  1  0.194770  0.366650  0.071930  1.0  -0.6148
  O  O163  1  0.071930  0.194770  0.366650  1.0  -0.6153
  O  O164  1  0.366650  0.366650  0.071930  1.0  -0.6083
  O  O165  1  0.366650  0.366650  0.194770  1.0  -0.6182
  O  O166  1  0.194770  0.071930  0.366650  1.0  -0.6123
  O  O167  1  0.633350  0.928070  0.633350  1.0  -0.6226
  O  O168  1  0.928070  0.633350  0.805230  1.0  -0.6184
  O  O169  1  0.805230  0.633350  0.928070  1.0  -0.6121
  O  O170  1  0.633350  0.805230  0.633350  1.0  -0.6186
  O  O171  1  0.633350  0.928070  0.805230  1.0  -0.6208
  O  O172  1  0.805230  0.633350  0.633350  1.0  -0.6131
  O  O173  1  0.928070  0.633350  0.633350  1.0  -0.6176
  O  O174  1  0.633350  0.805230  0.928070  1.0  -0.624
  O  O175  1  0.805230  0.928070  0.633350  1.0  -0.6209
  O  O176  1  0.633350  0.633350  0.928070  1.0  -0.6191
  O  O177  1  0.633350  0.633350  0.805230  1.0  -0.6108
  O  O178  1  0.928070  0.805230  0.633350  1.0  -0.6188
