# generated using pymatgen
data_Ni3H19C30N3O13
_symmetry_space_group_name_H-M   'P 1'
_cell_length_a   18.76980000
_cell_length_b   18.76980000
_cell_length_c   18.76980000
_cell_angle_alpha   109.47100000
_cell_angle_beta   109.47100000
_cell_angle_gamma   109.47100000
_symmetry_Int_Tables_number   1
_chemical_formula_structural   Ni3H19C30N3O13
_chemical_formula_sum   'Ni12 H76 C120 N12 O52'
_cell_volume   5090.50176107
_cell_formula_units_Z   4
loop_
 _symmetry_equiv_pos_site_id
 _symmetry_equiv_pos_as_xyz
  1  'x, y, z'
loop_
 _atom_site_type_symbol
 _atom_site_label
 _atom_site_symmetry_multiplicity
 _atom_site_fract_x
 _atom_site_fract_y
 _atom_site_fract_z
 _atom_site_occupancy
 _atom_site_charge
  Ni  Ni1  1  0.535240  0.648250  0.648250  1.0  0.9074
  Ni  Ni2  1  0.000000  0.886990  0.351750  1.0  0.907
  Ni  Ni3  1  0.000000  0.351750  0.886990  1.0  0.906
  Ni  Ni4  1  0.464760  0.113010  0.113010  1.0  0.9059
  Ni  Ni5  1  0.886990  0.000000  0.351750  1.0  0.9078
  Ni  Ni6  1  0.113010  0.464760  0.113010  1.0  0.9059
  Ni  Ni7  1  0.648250  0.535240  0.648250  1.0  0.9069
  Ni  Ni8  1  0.351750  0.000000  0.886990  1.0  0.9061
  Ni  Ni9  1  0.886990  0.351750  0.000000  1.0  0.9072
  Ni  Ni10  1  0.648250  0.648250  0.535240  1.0  0.9061
  Ni  Ni11  1  0.113010  0.113010  0.464760  1.0  0.9062
  Ni  Ni12  1  0.351750  0.886990  0.000000  1.0  0.9068
  H  H13  1  0.628400  0.922700  0.758300  1.0  0.1118
  H  H14  1  0.304500  0.436200  0.597300  1.0  0.1346
  H  H15  1  0.180900  0.307300  0.546800  1.0  0.0986
  H  H16  1  0.164400  0.870100  0.241700  1.0  0.1104
  H  H17  1  0.838900  0.707200  0.402700  1.0  0.1347
  H  H18  1  0.760500  0.634100  0.453200  1.0  0.0969
  H  H19  1  0.835600  0.077300  0.705700  1.0  0.1114
  H  H20  1  0.161100  0.563800  0.868300  1.0  0.1363
  H  H21  1  0.239500  0.692700  0.873600  1.0  0.0981
  H  H22  1  0.371600  0.129900  0.294300  1.0  0.1101
  H  H23  1  0.695500  0.292800  0.131700  1.0  0.1341
  H  H24  1  0.819100  0.365900  0.126400  1.0  0.0962
  H  H25  1  0.705700  0.835600  0.077300  1.0  0.1107
  H  H26  1  0.868300  0.161100  0.563800  1.0  0.1365
  H  H27  1  0.873600  0.239500  0.692700  1.0  0.0981
  H  H28  1  0.294300  0.371600  0.129900  1.0  0.1096
  H  H29  1  0.131700  0.695500  0.292800  1.0  0.1341
  H  H30  1  0.126400  0.819100  0.365900  1.0  0.0961
  H  H31  1  0.758300  0.628400  0.922700  1.0  0.1113
  H  H32  1  0.597300  0.304500  0.436200  1.0  0.1344
  H  H33  1  0.546800  0.180900  0.307300  1.0  0.0982
  H  H34  1  0.241700  0.164400  0.870100  1.0  0.111
  H  H35  1  0.402700  0.838900  0.707200  1.0  0.1351
  H  H36  1  0.453200  0.760500  0.634100  1.0  0.0975
  H  H37  1  0.870100  0.241700  0.164400  1.0  0.1116
  H  H38  1  0.707200  0.402700  0.838900  1.0  0.1354
  H  H39  1  0.634100  0.453200  0.760500  1.0  0.0973
  H  H40  1  0.922700  0.758300  0.628400  1.0  0.1124
  H  H41  1  0.436200  0.597300  0.304500  1.0  0.1341
  H  H42  1  0.307300  0.546800  0.180900  1.0  0.0985
  H  H43  1  0.129900  0.294300  0.371600  1.0  0.1098
  H  H44  1  0.292800  0.131700  0.695500  1.0  0.1352
  H  H45  1  0.365900  0.126400  0.819100  1.0  0.0978
  H  H46  1  0.077300  0.705700  0.835600  1.0  0.1106
  H  H47  1  0.563800  0.868300  0.161100  1.0  0.137
  H  H48  1  0.692700  0.873600  0.239500  1.0  0.0983
  H  H49  1  0.870100  0.164400  0.241700  1.0  0.1107
  H  H50  1  0.707200  0.838900  0.402700  1.0  0.1356
  H  H51  1  0.634100  0.760500  0.453200  1.0  0.0981
  H  H52  1  0.922700  0.628400  0.758300  1.0  0.111
  H  H53  1  0.436200  0.304500  0.597300  1.0  0.1341
  H  H54  1  0.307300  0.180900  0.546800  1.0  0.0977
  H  H55  1  0.129900  0.371600  0.294300  1.0  0.1093
  H  H56  1  0.292800  0.695500  0.131700  1.0  0.1343
  H  H57  1  0.365900  0.819100  0.126400  1.0  0.0966
  H  H58  1  0.077300  0.835600  0.705700  1.0  0.1107
  H  H59  1  0.563800  0.161100  0.868300  1.0  0.1363
  H  H60  1  0.692700  0.239500  0.873600  1.0  0.0981
  H  H61  1  0.628400  0.758300  0.922700  1.0  0.1122
  H  H62  1  0.304500  0.597300  0.436200  1.0  0.1344
  H  H63  1  0.180900  0.546800  0.307300  1.0  0.0987
  H  H64  1  0.164400  0.241700  0.870100  1.0  0.1114
  H  H65  1  0.838900  0.402700  0.707200  1.0  0.1349
  H  H66  1  0.760500  0.453200  0.634100  1.0  0.0971
  H  H67  1  0.835600  0.705700  0.077300  1.0  0.1106
  H  H68  1  0.161100  0.868300  0.563800  1.0  0.1366
  H  H69  1  0.239500  0.873600  0.692700  1.0  0.0985
  H  H70  1  0.371600  0.294300  0.129900  1.0  0.1096
  H  H71  1  0.695500  0.131700  0.292800  1.0  0.1359
  H  H72  1  0.819100  0.126400  0.365900  1.0  0.0973
  H  H73  1  0.705700  0.077300  0.835600  1.0  0.1109
  H  H74  1  0.868300  0.563800  0.161100  1.0  0.1363
  H  H75  1  0.873600  0.692700  0.239500  1.0  0.0981
  H  H76  1  0.294300  0.129900  0.371600  1.0  0.11
  H  H77  1  0.131700  0.292800  0.695500  1.0  0.1341
  H  H78  1  0.126400  0.365900  0.819100  1.0  0.0967
  H  H79  1  0.758300  0.922700  0.628400  1.0  0.1123
  H  H80  1  0.597300  0.436200  0.304500  1.0  0.1346
  H  H81  1  0.546800  0.307300  0.180900  1.0  0.0986
  H  H82  1  0.241700  0.870100  0.164400  1.0  0.1109
  H  H83  1  0.402700  0.707200  0.838900  1.0  0.1345
  H  H84  1  0.453200  0.634100  0.760500  1.0  0.0972
  H  H85  1  0.554000  0.554000  0.554000  1.0  0.2444
  H  H86  1  0.000000  0.000000  0.446000  1.0  0.2464
  H  H87  1  0.000000  0.446000  0.000000  1.0  0.2452
  H  H88  1  0.446000  0.000000  0.000000  1.0  0.2444
  C  C89  1  0.677100  0.953700  0.754200  1.0  -0.0499
  C  C90  1  0.306800  0.383900  0.585100  1.0  -0.1386
  C  C91  1  0.233300  0.306400  0.555300  1.0  0.1624
  C  C92  1  0.199500  0.922900  0.245800  1.0  -0.0484
  C  C93  1  0.798800  0.721700  0.414900  1.0  -0.1391
  C  C94  1  0.751100  0.678000  0.444700  1.0  0.1625
  C  C95  1  0.800500  0.046300  0.723400  1.0  -0.05
  C  C96  1  0.201200  0.616100  0.922900  1.0  -0.1385
  C  C97  1  0.248900  0.693600  0.926900  1.0  0.1684
  C  C98  1  0.322900  0.077100  0.276600  1.0  -0.0493
  C  C99  1  0.693200  0.278300  0.077100  1.0  -0.1404
  C  C100  1  0.766700  0.322000  0.073100  1.0  0.1672
  C  C101  1  0.723400  0.800500  0.046300  1.0  -0.0476
  C  C102  1  0.922900  0.201200  0.616100  1.0  -0.1386
  C  C103  1  0.926900  0.248900  0.693600  1.0  0.1689
  C  C104  1  0.276600  0.322900  0.077100  1.0  -0.0495
  C  C105  1  0.077100  0.693200  0.278300  1.0  -0.142
  C  C106  1  0.073100  0.766700  0.322000  1.0  0.169
  C  C107  1  0.754200  0.677100  0.953700  1.0  -0.0456
  C  C108  1  0.585100  0.306800  0.383900  1.0  -0.1379
  C  C109  1  0.555300  0.233300  0.306400  1.0  0.1637
  C  C110  1  0.245800  0.199500  0.922900  1.0  -0.0507
  C  C111  1  0.414900  0.798800  0.721700  1.0  -0.1373
  C  C112  1  0.444700  0.751100  0.678000  1.0  0.1656
  C  C113  1  0.922900  0.245800  0.199500  1.0  -0.0505
  C  C114  1  0.721700  0.414900  0.798800  1.0  -0.1375
  C  C115  1  0.678000  0.444700  0.751100  1.0  0.1635
  C  C116  1  0.953700  0.754200  0.677100  1.0  -0.0474
  C  C117  1  0.383900  0.585100  0.306800  1.0  -0.1374
  C  C118  1  0.306400  0.555300  0.233300  1.0  0.1646
  C  C119  1  0.077100  0.276600  0.322900  1.0  -0.0491
  C  C120  1  0.278300  0.077100  0.693200  1.0  -0.1433
  C  C121  1  0.322000  0.073100  0.766700  1.0  0.17
  C  C122  1  0.046300  0.723400  0.800500  1.0  -0.0491
  C  C123  1  0.616100  0.922900  0.201200  1.0  -0.1395
  C  C124  1  0.693600  0.926900  0.248900  1.0  0.1668
  C  C125  1  0.922900  0.199500  0.245800  1.0  -0.0488
  C  C126  1  0.721700  0.798800  0.414900  1.0  -0.1389
  C  C127  1  0.678000  0.751100  0.444700  1.0  0.1635
  C  C128  1  0.953700  0.677100  0.754200  1.0  -0.0481
  C  C129  1  0.383900  0.306800  0.585100  1.0  -0.1399
  C  C130  1  0.306400  0.233300  0.555300  1.0  0.1635
  C  C131  1  0.077100  0.322900  0.276600  1.0  -0.0472
  C  C132  1  0.278300  0.693200  0.077100  1.0  -0.1416
  C  C133  1  0.322000  0.766700  0.073100  1.0  0.169
  C  C134  1  0.046300  0.800500  0.723400  1.0  -0.0486
  C  C135  1  0.616100  0.201200  0.922900  1.0  -0.1378
  C  C136  1  0.693600  0.248900  0.926900  1.0  0.1699
  C  C137  1  0.677100  0.754200  0.953700  1.0  -0.0478
  C  C138  1  0.306800  0.585100  0.383900  1.0  -0.1388
  C  C139  1  0.233300  0.555300  0.306400  1.0  0.1636
  C  C140  1  0.199500  0.245800  0.922900  1.0  -0.0491
  C  C141  1  0.798800  0.414900  0.721700  1.0  -0.1376
  C  C142  1  0.751100  0.444700  0.678000  1.0  0.1642
  C  C143  1  0.800500  0.723400  0.046300  1.0  -0.0479
  C  C144  1  0.201200  0.922900  0.616100  1.0  -0.1402
  C  C145  1  0.248900  0.926900  0.693600  1.0  0.1683
  C  C146  1  0.322900  0.276600  0.077100  1.0  -0.0503
  C  C147  1  0.693200  0.077100  0.278300  1.0  -0.1446
  C  C148  1  0.766700  0.073100  0.322000  1.0  0.1663
  C  C149  1  0.723400  0.046300  0.800500  1.0  -0.0506
  C  C150  1  0.922900  0.616100  0.201200  1.0  -0.1386
  C  C151  1  0.926900  0.693600  0.248900  1.0  0.1671
  C  C152  1  0.276600  0.077100  0.322900  1.0  -0.0481
  C  C153  1  0.077100  0.278300  0.693200  1.0  -0.1425
  C  C154  1  0.073100  0.322000  0.766700  1.0  0.1691
  C  C155  1  0.754200  0.953700  0.677100  1.0  -0.0496
  C  C156  1  0.585100  0.383900  0.306800  1.0  -0.1383
  C  C157  1  0.555300  0.306400  0.233300  1.0  0.1643
  C  C158  1  0.245800  0.922900  0.199500  1.0  -0.0494
  C  C159  1  0.414900  0.721700  0.798800  1.0  -0.1373
  C  C160  1  0.444700  0.678000  0.751100  1.0  0.1627
  C  C161  1  0.461100  0.461100  0.615400  1.0  0.7454
  C  C162  1  0.383200  0.383200  0.596600  1.0  -0.0734
  C  C163  1  0.845700  0.845700  0.384600  1.0  0.746
  C  C164  1  0.786600  0.786600  0.403400  1.0  -0.0749
  C  C165  1  0.154300  0.538900  0.000000  1.0  0.7448
  C  C166  1  0.213400  0.616800  0.000000  1.0  -0.0739
  C  C167  1  0.538900  0.154300  0.000000  1.0  0.7455
  C  C168  1  0.616800  0.213400  0.000000  1.0  -0.0724
  C  C169  1  0.000000  0.154300  0.538900  1.0  0.7452
  C  C170  1  0.000000  0.213400  0.616800  1.0  -0.0721
  C  C171  1  0.000000  0.538900  0.154300  1.0  0.7451
  C  C172  1  0.000000  0.616800  0.213400  1.0  -0.0703
  C  C173  1  0.615400  0.461100  0.461100  1.0  0.7451
  C  C174  1  0.596600  0.383200  0.383200  1.0  -0.0767
  C  C175  1  0.384600  0.845700  0.845700  1.0  0.7464
  C  C176  1  0.403400  0.786600  0.786600  1.0  -0.0753
  C  C177  1  0.845700  0.384600  0.845700  1.0  0.7453
  C  C178  1  0.786600  0.403400  0.786600  1.0  -0.0763
  C  C179  1  0.461100  0.615400  0.461100  1.0  0.7458
  C  C180  1  0.383200  0.596600  0.383200  1.0  -0.076
  C  C181  1  0.154300  0.000000  0.538900  1.0  0.7458
  C  C182  1  0.213400  0.000000  0.616800  1.0  -0.0745
  C  C183  1  0.538900  0.000000  0.154300  1.0  0.7469
  C  C184  1  0.616800  0.000000  0.213400  1.0  -0.0725
  C  C185  1  0.660900  0.811000  0.660900  1.0  0.7524
  C  C186  1  0.702800  0.908400  0.702800  1.0  -0.065
  C  C187  1  0.150100  0.000000  0.339100  1.0  0.7543
  C  C188  1  0.205600  0.000000  0.297200  1.0  -0.0536
  C  C189  1  0.849900  0.189000  0.849900  1.0  0.7518
  C  C190  1  0.794400  0.091600  0.794400  1.0  -0.05
  C  C191  1  0.339100  0.000000  0.150100  1.0  0.7546
  C  C192  1  0.297200  0.000000  0.205600  1.0  -0.0536
  C  C193  1  0.849900  0.849900  0.189000  1.0  0.754
  C  C194  1  0.794400  0.794400  0.091600  1.0  -0.0488
  C  C195  1  0.150100  0.339100  0.000000  1.0  0.7552
  C  C196  1  0.205600  0.297200  0.000000  1.0  -0.0552
  C  C197  1  0.660900  0.660900  0.811000  1.0  0.7542
  C  C198  1  0.702800  0.702800  0.908400  1.0  -0.0647
  C  C199  1  0.339100  0.150100  0.000000  1.0  0.7548
  C  C200  1  0.297200  0.205600  0.000000  1.0  -0.0528
  C  C201  1  0.000000  0.339100  0.150100  1.0  0.7541
  C  C202  1  0.000000  0.297200  0.205600  1.0  -0.0554
  C  C203  1  0.811000  0.660900  0.660900  1.0  0.7552
  C  C204  1  0.908400  0.702800  0.702800  1.0  -0.0641
  C  C205  1  0.000000  0.150100  0.339100  1.0  0.7538
  C  C206  1  0.000000  0.205600  0.297200  1.0  -0.0528
  C  C207  1  0.189000  0.849900  0.849900  1.0  0.7548
  C  C208  1  0.091600  0.794400  0.794400  1.0  -0.0493
  N  N209  1  0.232100  0.232100  0.538400  1.0  -0.2817
  N  N210  1  0.693700  0.693700  0.461600  1.0  -0.2856
  N  N211  1  0.306300  0.767900  0.000000  1.0  -0.3032
  N  N212  1  0.767900  0.306300  0.000000  1.0  -0.3014
  N  N213  1  0.000000  0.306300  0.767900  1.0  -0.3045
  N  N214  1  0.000000  0.767900  0.306300  1.0  -0.3006
  N  N215  1  0.538400  0.232100  0.232100  1.0  -0.2851
  N  N216  1  0.461600  0.693700  0.693700  1.0  -0.2823
  N  N217  1  0.693700  0.461600  0.693700  1.0  -0.2837
  N  N218  1  0.232100  0.538400  0.232100  1.0  -0.2837
  N  N219  1  0.306300  0.000000  0.767900  1.0  -0.3006
  N  N220  1  0.767900  0.000000  0.306300  1.0  -0.2976
  O  O221  1  0.609200  0.775050  0.681450  1.0  -0.6161
  O  O222  1  0.451920  0.525430  0.620510  1.0  -0.6051
  O  O223  1  0.093600  0.927750  0.318550  1.0  -0.6122
  O  O224  1  0.904920  0.831410  0.379490  1.0  -0.606
  O  O225  1  0.906400  0.224950  0.834150  1.0  -0.6047
  O  O226  1  0.095080  0.474570  0.926490  1.0  -0.6033
  O  O227  1  0.390800  0.072250  0.165850  1.0  -0.6088
  O  O228  1  0.548080  0.168590  0.073510  1.0  -0.6056
  O  O229  1  0.834150  0.906400  0.224950  1.0  -0.6045
  O  O230  1  0.926490  0.095080  0.474570  1.0  -0.6034
  O  O231  1  0.165850  0.390800  0.072250  1.0  -0.6084
  O  O232  1  0.073510  0.548080  0.168590  1.0  -0.6061
  O  O233  1  0.681450  0.609200  0.775050  1.0  -0.6153
  O  O234  1  0.620510  0.451920  0.525430  1.0  -0.6049
  O  O235  1  0.318550  0.093600  0.927750  1.0  -0.611
  O  O236  1  0.379490  0.904920  0.831410  1.0  -0.6072
  O  O237  1  0.927750  0.318550  0.093600  1.0  -0.6077
  O  O238  1  0.831410  0.379490  0.904920  1.0  -0.6063
  O  O239  1  0.775050  0.681450  0.609200  1.0  -0.6128
  O  O240  1  0.525430  0.620510  0.451920  1.0  -0.605
  O  O241  1  0.072250  0.165850  0.390800  1.0  -0.6072
  O  O242  1  0.168590  0.073510  0.548080  1.0  -0.6074
  O  O243  1  0.224950  0.834150  0.906400  1.0  -0.6048
  O  O244  1  0.474570  0.926490  0.095080  1.0  -0.6077
  O  O245  1  0.927750  0.093600  0.318550  1.0  -0.6099
  O  O246  1  0.831410  0.904920  0.379490  1.0  -0.6052
  O  O247  1  0.775050  0.609200  0.681450  1.0  -0.6178
  O  O248  1  0.525430  0.451920  0.620510  1.0  -0.6062
  O  O249  1  0.072250  0.390800  0.165850  1.0  -0.6069
  O  O250  1  0.168590  0.548080  0.073510  1.0  -0.6051
  O  O251  1  0.224950  0.906400  0.834150  1.0  -0.6059
  O  O252  1  0.474570  0.095080  0.926490  1.0  -0.6049
  O  O253  1  0.609200  0.681450  0.775050  1.0  -0.6128
  O  O254  1  0.451920  0.620510  0.525430  1.0  -0.6057
  O  O255  1  0.093600  0.318550  0.927750  1.0  -0.6081
  O  O256  1  0.904920  0.379490  0.831410  1.0  -0.6056
  O  O257  1  0.906400  0.834150  0.224950  1.0  -0.6053
  O  O258  1  0.095080  0.926490  0.474570  1.0  -0.6059
  O  O259  1  0.390800  0.165850  0.072250  1.0  -0.6071
  O  O260  1  0.548080  0.073510  0.168590  1.0  -0.6086
  O  O261  1  0.834150  0.224950  0.906400  1.0  -0.6038
  O  O262  1  0.926490  0.474570  0.095080  1.0  -0.6037
  O  O263  1  0.165850  0.072250  0.390800  1.0  -0.6086
  O  O264  1  0.073510  0.168590  0.548080  1.0  -0.6063
  O  O265  1  0.681450  0.775050  0.609200  1.0  -0.6145
  O  O266  1  0.620510  0.525430  0.451920  1.0  -0.6048
  O  O267  1  0.318550  0.927750  0.093600  1.0  -0.6125
  O  O268  1  0.379490  0.831410  0.904920  1.0  -0.6061
  O  O269  1  0.607200  0.607200  0.607200  1.0  -0.8321
  O  O270  1  0.000000  0.000000  0.392800  1.0  -0.8363
  O  O271  1  0.000000  0.392800  0.000000  1.0  -0.8362
  O  O272  1  0.392800  0.000000  0.000000  1.0  -0.8381
