# generated using pymatgen
data_KCo(CN)6
_symmetry_space_group_name_H-M   'P 1'
_cell_length_a   11.46600000
_cell_length_b   11.46600000
_cell_length_c   11.46600000
_cell_angle_alpha   90.00000000
_cell_angle_beta   90.00000000
_cell_angle_gamma   90.00000000
_symmetry_Int_Tables_number   1
_chemical_formula_structural   KCo(CN)6
_chemical_formula_sum   'K4 Co4 C24 N24'
_cell_volume   1507.42534270
_cell_formula_units_Z   4
loop_
 _symmetry_equiv_pos_site_id
 _symmetry_equiv_pos_as_xyz
  1  'x, y, z'
loop_
 _atom_site_type_symbol
 _atom_site_label
 _atom_site_symmetry_multiplicity
 _atom_site_fract_x
 _atom_site_fract_y
 _atom_site_fract_z
 _atom_site_occupancy
 _atom_site_charge
  K  K1  1  0.000000  0.000000  0.500000  1.0  0.8932
  K  K2  1  0.500000  0.500000  0.500000  1.0  0.8932
  K  K3  1  0.000000  0.500000  0.000000  1.0  0.8932
  K  K4  1  0.500000  0.000000  0.000000  1.0  0.8932
  Co  Co5  1  0.000000  0.000000  0.000000  1.0  -0.2991
  Co  Co6  1  0.000000  0.500000  0.500000  1.0  -0.2991
  Co  Co7  1  0.500000  0.000000  0.500000  1.0  -0.2991
  Co  Co8  1  0.500000  0.500000  0.000000  1.0  -0.2991
  C  C9  1  0.000000  0.000000  0.163700  1.0  0.2438
  C  C10  1  0.000000  0.500000  0.663700  1.0  0.2421
  C  C11  1  0.500000  0.000000  0.663700  1.0  0.2421
  C  C12  1  0.500000  0.500000  0.163700  1.0  0.2438
  C  C13  1  0.000000  0.000000  0.836300  1.0  0.2405
  C  C14  1  0.000000  0.500000  0.336300  1.0  0.2405
  C  C15  1  0.500000  0.000000  0.336300  1.0  0.2405
  C  C16  1  0.500000  0.500000  0.836300  1.0  0.2405
  C  C17  1  0.163700  0.000000  0.000000  1.0  0.2405
  C  C18  1  0.163700  0.500000  0.500000  1.0  0.2405
  C  C19  1  0.663700  0.000000  0.500000  1.0  0.2388
  C  C20  1  0.663700  0.500000  0.000000  1.0  0.2405
  C  C21  1  0.836300  0.000000  0.000000  1.0  0.2416
  C  C22  1  0.836300  0.500000  0.500000  1.0  0.2406
  C  C23  1  0.336300  0.000000  0.500000  1.0  0.2416
  C  C24  1  0.336300  0.500000  0.000000  1.0  0.2416
  C  C25  1  0.000000  0.163700  0.000000  1.0  0.2414
  C  C26  1  0.000000  0.663700  0.500000  1.0  0.2401
  C  C27  1  0.500000  0.163700  0.500000  1.0  0.2401
  C  C28  1  0.500000  0.663700  0.000000  1.0  0.2401
  C  C29  1  0.000000  0.836300  0.000000  1.0  0.2428
  C  C30  1  0.000000  0.336300  0.500000  1.0  0.2428
  C  C31  1  0.500000  0.836300  0.500000  1.0  0.2428
  C  C32  1  0.500000  0.336300  0.000000  1.0  0.2428
  N  N33  1  0.000000  0.000000  0.256700  1.0  -0.3392
  N  N34  1  0.000000  0.500000  0.756700  1.0  -0.3392
  N  N35  1  0.500000  0.000000  0.756700  1.0  -0.3392
  N  N36  1  0.500000  0.500000  0.256700  1.0  -0.3392
  N  N37  1  0.000000  0.000000  0.743300  1.0  -0.3407
  N  N38  1  0.000000  0.500000  0.243300  1.0  -0.3407
  N  N39  1  0.500000  0.000000  0.243300  1.0  -0.3407
  N  N40  1  0.500000  0.500000  0.743300  1.0  -0.3407
  N  N41  1  0.256700  0.000000  0.000000  1.0  -0.3392
  N  N42  1  0.256700  0.500000  0.500000  1.0  -0.3392
  N  N43  1  0.756700  0.000000  0.500000  1.0  -0.3392
  N  N44  1  0.756700  0.500000  0.000000  1.0  -0.3392
  N  N45  1  0.743300  0.000000  0.000000  1.0  -0.3408
  N  N46  1  0.743300  0.500000  0.500000  1.0  -0.3408
  N  N47  1  0.243300  0.000000  0.500000  1.0  -0.3408
  N  N48  1  0.243300  0.500000  0.000000  1.0  -0.3408
  N  N49  1  0.000000  0.256700  0.000000  1.0  -0.3426
  N  N50  1  0.000000  0.756700  0.500000  1.0  -0.3426
  N  N51  1  0.500000  0.256700  0.500000  1.0  -0.3426
  N  N52  1  0.500000  0.756700  0.000000  1.0  -0.3426
  N  N53  1  0.000000  0.743300  0.000000  1.0  -0.3396
  N  N54  1  0.000000  0.243300  0.500000  1.0  -0.3396
  N  N55  1  0.500000  0.743300  0.500000  1.0  -0.3396
  N  N56  1  0.500000  0.243300  0.000000  1.0  -0.3396
