# generated using pymatgen
data_Cd2H60C51S4NO12
_symmetry_space_group_name_H-M   'P 1'
_cell_length_a   14.99710000
_cell_length_b   20.34540000
_cell_length_c   22.46220000
_cell_angle_alpha   103.85200000
_cell_angle_beta   90.00000000
_cell_angle_gamma   90.00000000
_symmetry_Int_Tables_number   1
_chemical_formula_structural   Cd2H60C51S4NO12
_chemical_formula_sum   'Cd8 H240 C204 S16 N4 O48'
_cell_volume   6654.38756347
_cell_formula_units_Z   4
loop_
 _symmetry_equiv_pos_site_id
 _symmetry_equiv_pos_as_xyz
  1  'x, y, z'
loop_
 _atom_site_type_symbol
 _atom_site_label
 _atom_site_symmetry_multiplicity
 _atom_site_fract_x
 _atom_site_fract_y
 _atom_site_fract_z
 _atom_site_occupancy
 _atom_site_charge
  Cd  Cd1  1  0.771040  0.098590  0.206170  1.0  1.0794
  Cd  Cd2  1  0.715630  0.989830  0.313620  1.0  1.0141
  Cd  Cd3  1  0.271040  0.401410  0.293830  1.0  1.0794
  Cd  Cd4  1  0.215630  0.510170  0.186380  1.0  1.014
  Cd  Cd5  1  0.228960  0.901410  0.793830  1.0  1.0807
  Cd  Cd6  1  0.284370  0.010170  0.686380  1.0  1.0144
  Cd  Cd7  1  0.728960  0.598590  0.706170  1.0  1.081
  Cd  Cd8  1  0.784370  0.489830  0.813620  1.0  1.0135
  H  H9  1  0.419600  0.201800  0.375700  1.0  0.0982
  H  H10  1  0.452500  0.067300  0.477300  1.0  0.0954
  H  H11  1  0.801000  0.133800  0.532100  1.0  0.1028
  H  H12  1  0.745900  0.276300  0.685700  1.0  0.1071
  H  H13  1  0.383700  0.258900  0.688400  1.0  0.1054
  H  H14  1  0.334400  0.401500  0.596600  1.0  0.0943
  H  H15  1  0.667400  0.477700  0.536500  1.0  0.1037
  H  H16  1  0.727700  0.335100  0.384100  1.0  0.1083
  H  H17  1  0.816000  0.187000  0.410600  1.0  0.117
  H  H18  1  0.737700  0.237300  0.402300  1.0  0.0886
  H  H19  1  0.549900  0.111400  0.681800  1.0  0.0851
  H  H20  1  0.556800  0.051100  0.621300  1.0  0.0954
  H  H21  1  0.621600  0.451600  0.639800  1.0  0.0782
  H  H22  1  0.710900  0.413900  0.611900  1.0  0.1155
  H  H23  1  0.394700  0.411500  0.478800  1.0  0.0748
  H  H24  1  0.332000  0.347400  0.475400  1.0  0.1244
  H  H25  1  0.203100  0.156100  0.392800  1.0  0.11
  H  H26  1  0.285700  0.147700  0.346400  1.0  0.1165
  H  H27  1  0.281000  0.211500  0.404100  1.0  0.1136
  H  H28  1  0.227900  0.044500  0.405300  1.0  0.1075
  H  H29  1  0.321900  0.021700  0.427500  1.0  0.0969
  H  H30  1  0.312200  0.034800  0.360300  1.0  0.1167
  H  H31  1  0.225700  0.142500  0.498300  1.0  0.0974
  H  H32  1  0.306800  0.195100  0.509700  1.0  0.1137
  H  H33  1  0.320900  0.120300  0.519200  1.0  0.1216
  H  H34  1  0.917300  0.173800  0.681500  1.0  0.112
  H  H35  1  0.004500  0.188600  0.645800  1.0  0.1055
  H  H36  1  0.936400  0.130600  0.613200  1.0  0.1023
  H  H37  1  0.880300  0.289800  0.701700  1.0  0.1146
  H  H38  1  0.873900  0.330800  0.649300  1.0  0.1141
  H  H39  1  0.968200  0.302800  0.665700  1.0  0.1154
  H  H40  1  0.914500  0.184900  0.527900  1.0  0.0985
  H  H41  1  0.990300  0.236100  0.561000  1.0  0.1113
  H  H42  1  0.898700  0.264800  0.540800  1.0  0.1061
  H  H43  1  0.209800  0.291300  0.560500  1.0  0.1087
  H  H44  1  0.201200  0.371200  0.588300  1.0  0.1054
  H  H45  1  0.126000  0.321200  0.602400  1.0  0.1112
  H  H46  1  0.241800  0.215600  0.624700  1.0  0.114
  H  H47  1  0.157100  0.244300  0.666100  1.0  0.1039
  H  H48  1  0.252700  0.242500  0.697300  1.0  0.1084
  H  H49  1  0.223200  0.417200  0.700400  1.0  0.1107
  H  H50  1  0.241200  0.366400  0.743600  1.0  0.1107
  H  H51  1  0.145800  0.367500  0.711900  1.0  0.1127
  H  H52  1  0.856200  0.397500  0.524500  1.0  0.0999
  H  H53  1  0.815500  0.471200  0.551900  1.0  0.1074
  H  H54  1  0.909900  0.463200  0.517700  1.0  0.1057
  H  H55  1  0.772000  0.512400  0.415500  1.0  0.1051
  H  H56  1  0.862900  0.528600  0.453500  1.0  0.112
  H  H57  1  0.769100  0.538900  0.488500  1.0  0.1074
  H  H58  1  0.840500  0.400000  0.370500  1.0  0.1132
  H  H59  1  0.873300  0.355100  0.415900  1.0  0.1095
  H  H60  1  0.924800  0.423500  0.414000  1.0  0.1154
  H  H61  1  0.859800  0.037300  0.379600  1.0  0.3132
  H  H62  1  0.787200  0.035900  0.424500  1.0  0.2746
  H  H63  1  0.894400  0.929900  0.367600  1.0  0.0701
  H  H64  1  0.802100  0.915500  0.397700  1.0  0.0854
  H  H65  1  0.854100  0.975900  0.494300  1.0  0.0793
  H  H66  1  0.913200  0.910500  0.466100  1.0  0.0745
  H  H67  1  0.960100  0.044300  0.466100  1.0  0.0582
  H  H68  1  0.018700  0.979400  0.435200  1.0  0.0633
  H  H69  1  0.919600  0.298200  0.124300  1.0  0.0986
  H  H70  1  0.952500  0.432700  0.022700  1.0  0.0954
  H  H71  1  0.301000  0.366200  0.967900  1.0  0.1023
  H  H72  1  0.245900  0.223700  0.814300  1.0  0.107
  H  H73  1  0.883700  0.241100  0.811600  1.0  0.1058
  H  H74  1  0.834400  0.098500  0.903400  1.0  0.0946
  H  H75  1  0.167400  0.022300  0.963500  1.0  0.1037
  H  H76  1  0.227700  0.164900  0.115900  1.0  0.1081
  H  H77  1  0.316000  0.313000  0.089400  1.0  0.1163
  H  H78  1  0.237700  0.262700  0.097700  1.0  0.0882
  H  H79  1  0.049900  0.388600  0.818200  1.0  0.0865
  H  H80  1  0.056800  0.448900  0.878700  1.0  0.0937
  H  H81  1  0.121600  0.048400  0.860200  1.0  0.0768
  H  H82  1  0.210900  0.086100  0.888100  1.0  0.1162
  H  H83  1  0.894700  0.088500  0.021200  1.0  0.0753
  H  H84  1  0.832000  0.152600  0.024600  1.0  0.1251
  H  H85  1  0.703100  0.343900  0.107200  1.0  0.1101
  H  H86  1  0.785700  0.352300  0.153600  1.0  0.1165
  H  H87  1  0.781000  0.288500  0.095900  1.0  0.1135
  H  H88  1  0.727900  0.455500  0.094700  1.0  0.1086
  H  H89  1  0.821900  0.478300  0.072500  1.0  0.0974
  H  H90  1  0.812200  0.465200  0.139700  1.0  0.1173
  H  H91  1  0.725700  0.357500  0.001700  1.0  0.0971
  H  H92  1  0.806800  0.304900  0.990300  1.0  0.1141
  H  H93  1  0.820900  0.379700  0.980800  1.0  0.1216
  H  H94  1  0.417300  0.326200  0.818500  1.0  0.112
  H  H95  1  0.504500  0.311400  0.854200  1.0  0.1057
  H  H96  1  0.436400  0.369400  0.886800  1.0  0.1014
  H  H97  1  0.380300  0.210200  0.798300  1.0  0.1147
  H  H98  1  0.373900  0.169200  0.850700  1.0  0.1131
  H  H99  1  0.468200  0.197200  0.834300  1.0  0.1149
  H  H100  1  0.414500  0.315100  0.972100  1.0  0.1002
  H  H101  1  0.490300  0.263900  0.939000  1.0  0.1109
  H  H102  1  0.398700  0.235200  0.959200  1.0  0.1054
  H  H103  1  0.709800  0.208700  0.939500  1.0  0.1089
  H  H104  1  0.701200  0.128800  0.911700  1.0  0.1053
  H  H105  1  0.626000  0.178800  0.897600  1.0  0.1103
  H  H106  1  0.741800  0.284400  0.875300  1.0  0.1134
  H  H107  1  0.657100  0.255700  0.833900  1.0  0.104
  H  H108  1  0.752700  0.257500  0.802700  1.0  0.1069
  H  H109  1  0.723200  0.082800  0.799600  1.0  0.1102
  H  H110  1  0.741200  0.133600  0.756400  1.0  0.1113
  H  H111  1  0.645800  0.132500  0.788100  1.0  0.1128
  H  H112  1  0.356200  0.102500  0.975500  1.0  0.1006
  H  H113  1  0.315500  0.028800  0.948100  1.0  0.1076
  H  H114  1  0.409900  0.036800  0.982300  1.0  0.1059
  H  H115  1  0.272000  0.987600  0.084500  1.0  0.105
  H  H116  1  0.362900  0.971400  0.046500  1.0  0.1116
  H  H117  1  0.269100  0.961100  0.011500  1.0  0.1073
  H  H118  1  0.340500  0.100000  0.129500  1.0  0.1122
  H  H119  1  0.373300  0.144900  0.084100  1.0  0.1092
  H  H120  1  0.424800  0.076500  0.086000  1.0  0.1138
  H  H121  1  0.359800  0.462700  0.120400  1.0  0.3127
  H  H122  1  0.287200  0.464100  0.075500  1.0  0.2747
  H  H123  1  0.394400  0.570100  0.132400  1.0  0.0698
  H  H124  1  0.302100  0.584500  0.102300  1.0  0.0858
  H  H125  1  0.354100  0.524100  0.005700  1.0  0.0802
  H  H126  1  0.413200  0.589500  0.033900  1.0  0.0798
  H  H127  1  0.460100  0.455700  0.033900  1.0  0.0577
  H  H128  1  0.518700  0.520600  0.064800  1.0  0.0625
  H  H129  1  0.580400  0.798200  0.624300  1.0  0.0991
  H  H130  1  0.547500  0.932700  0.522700  1.0  0.0945
  H  H131  1  0.199000  0.866200  0.467900  1.0  0.1023
  H  H132  1  0.254100  0.723700  0.314300  1.0  0.1069
  H  H133  1  0.616300  0.741100  0.311600  1.0  0.1059
  H  H134  1  0.665600  0.598500  0.403400  1.0  0.0943
  H  H135  1  0.332600  0.522300  0.463500  1.0  0.1036
  H  H136  1  0.272300  0.664900  0.615900  1.0  0.108
  H  H137  1  0.184000  0.813000  0.589400  1.0  0.1164
  H  H138  1  0.262300  0.762700  0.597700  1.0  0.0883
  H  H139  1  0.450100  0.888600  0.318200  1.0  0.087
  H  H140  1  0.443200  0.948900  0.378700  1.0  0.0942
  H  H141  1  0.378400  0.548400  0.360200  1.0  0.0776
  H  H142  1  0.289100  0.586100  0.388100  1.0  0.1162
  H  H143  1  0.605300  0.588500  0.521200  1.0  0.0764
  H  H144  1  0.668000  0.652600  0.524600  1.0  0.1252
  H  H145  1  0.796900  0.843900  0.607200  1.0  0.1082
  H  H146  1  0.714300  0.852300  0.653600  1.0  0.1157
  H  H147  1  0.719000  0.788500  0.595900  1.0  0.1147
  H  H148  1  0.772100  0.955500  0.594700  1.0  0.1076
  H  H149  1  0.678100  0.978300  0.572500  1.0  0.0975
  H  H150  1  0.687800  0.965200  0.639700  1.0  0.1168
  H  H151  1  0.774300  0.857500  0.501700  1.0  0.0978
  H  H152  1  0.693200  0.804900  0.490300  1.0  0.114
  H  H153  1  0.679100  0.879700  0.480800  1.0  0.1222
  H  H154  1  0.082700  0.826200  0.318500  1.0  0.112
  H  H155  1  0.995500  0.811400  0.354200  1.0  0.0992
  H  H156  1  0.063600  0.869400  0.386800  1.0  0.1019
  H  H157  1  0.119700  0.710200  0.298300  1.0  0.1146
  H  H158  1  0.126100  0.669200  0.350700  1.0  0.113
  H  H159  1  0.031800  0.697200  0.334300  1.0  0.1143
  H  H160  1  0.085500  0.815100  0.472100  1.0  0.0998
  H  H161  1  0.009700  0.763900  0.439000  1.0  0.1111
  H  H162  1  0.101300  0.735200  0.459200  1.0  0.1059
  H  H163  1  0.790200  0.708700  0.439500  1.0  0.1086
  H  H164  1  0.798800  0.628800  0.411700  1.0  0.105
  H  H165  1  0.874000  0.678800  0.397600  1.0  0.1106
  H  H166  1  0.758200  0.784400  0.375300  1.0  0.1133
  H  H167  1  0.842900  0.755700  0.333900  1.0  0.105
  H  H168  1  0.747300  0.757500  0.302700  1.0  0.1062
  H  H169  1  0.776800  0.582800  0.299600  1.0  0.11
  H  H170  1  0.758800  0.633600  0.256400  1.0  0.1108
  H  H171  1  0.854200  0.632500  0.288100  1.0  0.1124
  H  H172  1  0.143800  0.602500  0.475500  1.0  0.1007
  H  H173  1  0.184500  0.528800  0.448100  1.0  0.1072
  H  H174  1  0.090100  0.536800  0.482300  1.0  0.1048
  H  H175  1  0.228000  0.487600  0.584500  1.0  0.1051
  H  H176  1  0.137100  0.471400  0.546500  1.0  0.1114
  H  H177  1  0.230900  0.461100  0.511500  1.0  0.1068
  H  H178  1  0.159500  0.600000  0.629500  1.0  0.1115
  H  H179  1  0.126700  0.644900  0.584100  1.0  0.109
  H  H180  1  0.075200  0.576500  0.586000  1.0  0.1152
  H  H181  1  0.140200  0.962700  0.620400  1.0  0.3139
  H  H182  1  0.212800  0.964100  0.575500  1.0  0.2741
  H  H183  1  0.105600  0.070100  0.632400  1.0  0.0698
  H  H184  1  0.197900  0.084500  0.602300  1.0  0.086
  H  H185  1  0.145900  0.024100  0.505700  1.0  0.0793
  H  H186  1  0.086800  0.089500  0.533900  1.0  0.0801
  H  H187  1  0.039900  0.955700  0.533900  1.0  0.0583
  H  H188  1  0.981300  0.020600  0.564800  1.0  0.0624
  H  H189  1  0.080400  0.701800  0.875700  1.0  0.0983
  H  H190  1  0.047500  0.567300  0.977300  1.0  0.0947
  H  H191  1  0.699000  0.633800  0.032100  1.0  0.1026
  H  H192  1  0.754100  0.776300  0.185700  1.0  0.107
  H  H193  1  0.116300  0.758900  0.188400  1.0  0.1056
  H  H194  1  0.165600  0.901500  0.096600  1.0  0.094
  H  H195  1  0.832600  0.977700  0.036500  1.0  0.1037
  H  H196  1  0.772300  0.835100  0.884100  1.0  0.1081
  H  H197  1  0.684000  0.687000  0.910600  1.0  0.1155
  H  H198  1  0.762300  0.737300  0.902300  1.0  0.089
  H  H199  1  0.950100  0.611400  0.181800  1.0  0.0855
  H  H200  1  0.943200  0.551100  0.121300  1.0  0.0958
  H  H201  1  0.878400  0.951600  0.139800  1.0  0.0779
  H  H202  1  0.789100  0.913900  0.111900  1.0  0.1158
  H  H203  1  0.105300  0.911500  0.978800  1.0  0.076
  H  H204  1  0.168000  0.847400  0.975400  1.0  0.1241
  H  H205  1  0.296900  0.656100  0.892800  1.0  0.1111
  H  H206  1  0.214300  0.647700  0.846400  1.0  0.1177
  H  H207  1  0.219000  0.711500  0.904100  1.0  0.1139
  H  H208  1  0.272100  0.544500  0.905300  1.0  0.1087
  H  H209  1  0.178100  0.521700  0.927500  1.0  0.0971
  H  H210  1  0.187800  0.534800  0.860300  1.0  0.1168
  H  H211  1  0.274300  0.642500  0.998300  1.0  0.0971
  H  H212  1  0.193200  0.695100  0.009700  1.0  0.1138
  H  H213  1  0.179100  0.620300  0.019200  1.0  0.1221
  H  H214  1  0.582700  0.673800  0.181500  1.0  0.1126
  H  H215  1  0.495500  0.688600  0.145800  1.0  0.0989
  H  H216  1  0.563600  0.630600  0.113200  1.0  0.1019
  H  H217  1  0.619700  0.789800  0.201700  1.0  0.1147
  H  H218  1  0.626100  0.830800  0.149300  1.0  0.1136
  H  H219  1  0.531800  0.802800  0.165700  1.0  0.1137
  H  H220  1  0.585500  0.684900  0.027900  1.0  0.0988
  H  H221  1  0.509700  0.736100  0.061000  1.0  0.1104
  H  H222  1  0.601300  0.764800  0.040800  1.0  0.1057
  H  H223  1  0.290200  0.791300  0.060500  1.0  0.1087
  H  H224  1  0.298800  0.871200  0.088300  1.0  0.1052
  H  H225  1  0.374000  0.821200  0.102400  1.0  0.1122
  H  H226  1  0.258200  0.715600  0.124700  1.0  0.1143
  H  H227  1  0.342900  0.744300  0.166100  1.0  0.105
  H  H228  1  0.247300  0.742500  0.197300  1.0  0.1082
  H  H229  1  0.276800  0.917200  0.200400  1.0  0.1106
  H  H230  1  0.258800  0.866400  0.243600  1.0  0.1105
  H  H231  1  0.354200  0.867500  0.211900  1.0  0.1115
  H  H232  1  0.643800  0.897500  0.024500  1.0  0.0996
  H  H233  1  0.684500  0.971200  0.051900  1.0  0.1071
  H  H234  1  0.590100  0.963200  0.017700  1.0  0.1052
  H  H235  1  0.728000  0.012400  0.915500  1.0  0.1044
  H  H236  1  0.637100  0.028600  0.953500  1.0  0.111
  H  H237  1  0.730900  0.038900  0.988500  1.0  0.1071
  H  H238  1  0.659500  0.900000  0.870500  1.0  0.1117
  H  H239  1  0.626700  0.855100  0.915900  1.0  0.1081
  H  H240  1  0.575200  0.923500  0.914000  1.0  0.1145
  H  H241  1  0.640200  0.537300  0.879600  1.0  0.3131
  H  H242  1  0.712800  0.535900  0.924500  1.0  0.2748
  H  H243  1  0.605600  0.429900  0.867600  1.0  0.0699
  H  H244  1  0.697900  0.415500  0.897700  1.0  0.0857
  H  H245  1  0.645900  0.475900  0.994300  1.0  0.0788
  H  H246  1  0.586800  0.410500  0.966100  1.0  0.0753
  H  H247  1  0.539900  0.544300  0.966100  1.0  0.0578
  H  H248  1  0.481300  0.479400  0.935200  1.0  0.064
  C  C249  1  0.605200  0.155600  0.427200  1.0  0.2096
  C  C250  1  0.549100  0.191000  0.396700  1.0  -0.0583
  C  C251  1  0.457500  0.177800  0.397000  1.0  -0.1019
  C  C252  1  0.418500  0.132900  0.425700  1.0  0.004
  C  C253  1  0.476300  0.098900  0.456600  1.0  -0.0815
  C  C254  1  0.567800  0.110000  0.457900  1.0  -0.0497
  C  C255  1  0.613200  0.163300  0.604400  1.0  0.2062
  C  C256  1  0.672600  0.132100  0.559100  1.0  -0.0391
  C  C257  1  0.760000  0.154900  0.563100  1.0  -0.127
  C  C258  1  0.789900  0.207300  0.610400  1.0  0.0027
  C  C259  1  0.727800  0.239300  0.653600  1.0  -0.1217
  C  C260  1  0.639800  0.217900  0.650300  1.0  -0.0391
  C  C261  1  0.528200  0.351500  0.635900  1.0  0.1893
  C  C262  1  0.495100  0.303900  0.665900  1.0  -0.0187
  C  C263  1  0.404200  0.292700  0.669000  1.0  -0.1219
  C  C264  1  0.342600  0.329400  0.644400  1.0  0.0141
  C  C265  1  0.375500  0.375800  0.613900  1.0  -0.1178
  C  C266  1  0.467000  0.386300  0.607500  1.0  -0.0572
  C  C267  1  0.540300  0.353900  0.460400  1.0  0.1864
  C  C268  1  0.567200  0.410200  0.508100  1.0  -0.0602
  C  C269  1  0.651200  0.438700  0.505800  1.0  -0.1323
  C  C270  1  0.712300  0.411500  0.459800  1.0  0.0157
  C  C271  1  0.686600  0.354600  0.415600  1.0  -0.149
  C  C272  1  0.603500  0.325200  0.415600  1.0  -0.0364
  C  C273  1  0.753900  0.189000  0.396100  1.0  -0.0679
  C  C274  1  0.750200  0.156100  0.329100  1.0  0.6372
  C  C275  1  0.521900  0.091600  0.641500  1.0  -0.0729
  C  C276  1  0.428600  0.070400  0.651800  1.0  0.6836
  C  C277  1  0.664500  0.415900  0.643700  1.0  -0.0841
  C  C278  1  0.707900  0.437000  0.704500  1.0  0.681
  C  C279  1  0.382400  0.364800  0.455100  1.0  -0.0748
  C  C280  1  0.352800  0.367900  0.392300  1.0  0.6674
  C  C281  1  0.317800  0.123100  0.428100  1.0  0.2349
  C  C282  1  0.267400  0.163200  0.389400  1.0  -0.3913
  C  C283  1  0.292700  0.049500  0.403100  1.0  -0.3824
  C  C284  1  0.290400  0.147400  0.494700  1.0  -0.3876
  C  C285  1  0.888000  0.228500  0.615000  1.0  0.2415
  C  C286  1  0.941600  0.175400  0.641300  1.0  -0.383
  C  C287  1  0.904000  0.293700  0.662000  1.0  -0.3858
  C  C288  1  0.925900  0.228600  0.556600  1.0  -0.3852
  C  C289  1  0.241200  0.319800  0.652800  1.0  0.2297
  C  C290  1  0.189900  0.326500  0.595900  1.0  -0.3843
  C  C291  1  0.221400  0.249300  0.660900  1.0  -0.3881
  C  C292  1  0.210200  0.372200  0.706700  1.0  -0.3783
  C  C293  1  0.805600  0.440600  0.460100  1.0  0.243
  C  C294  1  0.850500  0.443400  0.518300  1.0  -0.3848
  C  C295  1  0.802100  0.511000  0.453900  1.0  -0.3961
  C  C296  1  0.866400  0.401400  0.410800  1.0  -0.3866
  C  C297  1  0.851100  0.948700  0.400600  1.0  0.0769
  C  C298  1  0.896800  0.956100  0.461300  1.0  -0.1923
  C  C299  1  0.976500  0.998100  0.468900  1.0  -0.1079
  C  C300  1  0.105200  0.344400  0.072800  1.0  0.2106
  C  C301  1  0.049100  0.309000  0.103300  1.0  -0.0573
  C  C302  1  0.957500  0.322200  0.103000  1.0  -0.1019
  C  C303  1  0.918500  0.367100  0.074300  1.0  0.0046
  C  C304  1  0.976300  0.401100  0.043400  1.0  -0.0813
  C  C305  1  0.067800  0.390000  0.042100  1.0  -0.0505
  C  C306  1  0.113200  0.336700  0.895600  1.0  0.206
  C  C307  1  0.172600  0.367900  0.940900  1.0  -0.0396
  C  C308  1  0.260000  0.345100  0.936900  1.0  -0.1264
  C  C309  1  0.289900  0.292700  0.889600  1.0  0.0028
  C  C310  1  0.227800  0.260700  0.846400  1.0  -0.1213
  C  C311  1  0.139800  0.282100  0.849700  1.0  -0.0376
  C  C312  1  0.028200  0.148500  0.864100  1.0  0.189
  C  C313  1  0.995100  0.196100  0.834100  1.0  -0.0183
  C  C314  1  0.904200  0.207300  0.831000  1.0  -0.1219
  C  C315  1  0.842600  0.170600  0.855600  1.0  0.0139
  C  C316  1  0.875500  0.124200  0.886100  1.0  -0.1187
  C  C317  1  0.967000  0.113700  0.892500  1.0  -0.0581
  C  C318  1  0.040300  0.146100  0.039600  1.0  0.1869
  C  C319  1  0.067200  0.089800  0.991900  1.0  -0.0599
  C  C320  1  0.151200  0.061300  0.994200  1.0  -0.1328
  C  C321  1  0.212300  0.088500  0.040200  1.0  0.016
  C  C322  1  0.186600  0.145400  0.084400  1.0  -0.1458
  C  C323  1  0.103500  0.174800  0.084400  1.0  -0.034
  C  C324  1  0.253900  0.311000  0.103900  1.0  -0.0692
  C  C325  1  0.250200  0.343900  0.170900  1.0  0.6372
  C  C326  1  0.021900  0.408400  0.858500  1.0  -0.0757
  C  C327  1  0.928600  0.429600  0.848200  1.0  0.6837
  C  C328  1  0.164500  0.084100  0.856300  1.0  -0.0825
  C  C329  1  0.207900  0.063000  0.795500  1.0  0.6854
  C  C330  1  0.882400  0.135200  0.044900  1.0  -0.0808
  C  C331  1  0.852800  0.132100  0.107700  1.0  0.664
  C  C332  1  0.817800  0.376900  0.071900  1.0  0.2336
  C  C333  1  0.767400  0.336800  0.110600  1.0  -0.391
  C  C334  1  0.792700  0.450500  0.096900  1.0  -0.3822
  C  C335  1  0.790400  0.352600  0.005300  1.0  -0.3867
  C  C336  1  0.388000  0.271500  0.885000  1.0  0.241
  C  C337  1  0.441600  0.324600  0.858700  1.0  -0.3822
  C  C338  1  0.404000  0.206300  0.838000  1.0  -0.3857
  C  C339  1  0.425900  0.271400  0.943400  1.0  -0.3857
  C  C340  1  0.741200  0.180200  0.847200  1.0  0.2304
  C  C341  1  0.689900  0.173500  0.904100  1.0  -0.385
  C  C342  1  0.721400  0.250700  0.839100  1.0  -0.3872
  C  C343  1  0.710200  0.127800  0.793300  1.0  -0.3774
  C  C344  1  0.305600  0.059400  0.039900  1.0  0.2438
  C  C345  1  0.350500  0.056600  0.981700  1.0  -0.3859
  C  C346  1  0.302100  0.989000  0.046100  1.0  -0.3953
  C  C347  1  0.366400  0.098600  0.089200  1.0  -0.3857
  C  C348  1  0.351100  0.551300  0.099400  1.0  0.0744
  C  C349  1  0.396800  0.543900  0.038700  1.0  -0.1919
  C  C350  1  0.476500  0.501900  0.031100  1.0  -0.1085
  C  C351  1  0.394800  0.844400  0.572800  1.0  0.2103
  C  C352  1  0.450900  0.809000  0.603300  1.0  -0.0586
  C  C353  1  0.542500  0.822200  0.603000  1.0  -0.1032
  C  C354  1  0.581500  0.867100  0.574300  1.0  0.0058
  C  C355  1  0.523700  0.901100  0.543400  1.0  -0.0824
  C  C356  1  0.432200  0.890000  0.542100  1.0  -0.0512
  C  C357  1  0.386800  0.836700  0.395600  1.0  0.2058
  C  C358  1  0.327400  0.867900  0.440900  1.0  -0.0391
  C  C359  1  0.240000  0.845100  0.436900  1.0  -0.1268
  C  C360  1  0.210100  0.792700  0.389600  1.0  0.0022
  C  C361  1  0.272200  0.760700  0.346400  1.0  -0.1228
  C  C362  1  0.360200  0.782100  0.349700  1.0  -0.033
  C  C363  1  0.471800  0.648500  0.364100  1.0  0.189
  C  C364  1  0.504900  0.696100  0.334100  1.0  -0.0191
  C  C365  1  0.595800  0.707300  0.331000  1.0  -0.1225
  C  C366  1  0.657400  0.670600  0.355600  1.0  0.0142
  C  C367  1  0.624500  0.624200  0.386100  1.0  -0.1195
  C  C368  1  0.533000  0.613700  0.392500  1.0  -0.0579
  C  C369  1  0.459700  0.646100  0.539600  1.0  0.1871
  C  C370  1  0.432800  0.589800  0.491900  1.0  -0.061
  C  C371  1  0.348800  0.561300  0.494200  1.0  -0.1348
  C  C372  1  0.287700  0.588500  0.540200  1.0  0.0165
  C  C373  1  0.313400  0.645400  0.584400  1.0  -0.145
  C  C374  1  0.396500  0.674800  0.584400  1.0  -0.0328
  C  C375  1  0.246100  0.811000  0.603900  1.0  -0.0698
  C  C376  1  0.249800  0.843900  0.670900  1.0  0.6362
  C  C377  1  0.478100  0.908400  0.358500  1.0  -0.0741
  C  C378  1  0.571400  0.929600  0.348200  1.0  0.6838
  C  C379  1  0.335500  0.584100  0.356300  1.0  -0.0818
  C  C380  1  0.292100  0.563000  0.295500  1.0  0.6864
  C  C381  1  0.617600  0.635200  0.544900  1.0  -0.0794
  C  C382  1  0.647200  0.632100  0.607700  1.0  0.6657
  C  C383  1  0.682200  0.876900  0.571900  1.0  0.2345
  C  C384  1  0.732600  0.836800  0.610600  1.0  -0.3907
  C  C385  1  0.707300  0.950500  0.596900  1.0  -0.3822
  C  C386  1  0.709600  0.852600  0.505300  1.0  -0.3871
  C  C387  1  0.112000  0.771500  0.385000  1.0  0.2415
  C  C388  1  0.058400  0.824600  0.358700  1.0  -0.382
  C  C389  1  0.096000  0.706300  0.338000  1.0  -0.3854
  C  C390  1  0.074100  0.771400  0.443400  1.0  -0.3851
  C  C391  1  0.758800  0.680200  0.347200  1.0  0.2301
  C  C392  1  0.810100  0.673500  0.404100  1.0  -0.3843
  C  C393  1  0.778600  0.750700  0.339100  1.0  -0.3874
  C  C394  1  0.789800  0.627800  0.293300  1.0  -0.3785
  C  C395  1  0.194400  0.559400  0.539900  1.0  0.244
  C  C396  1  0.149500  0.556600  0.481700  1.0  -0.3863
  C  C397  1  0.197900  0.489000  0.546100  1.0  -0.3955
  C  C398  1  0.133600  0.598600  0.589200  1.0  -0.3862
  C  C399  1  0.148900  0.051300  0.599400  1.0  0.0738
  C  C400  1  0.103200  0.043900  0.538700  1.0  -0.1917
  C  C401  1  0.023500  0.001900  0.531100  1.0  -0.1104
  C  C402  1  0.894800  0.655600  0.927200  1.0  0.2094
  C  C403  1  0.950900  0.691000  0.896700  1.0  -0.0595
  C  C404  1  0.042500  0.677800  0.897000  1.0  -0.1021
  C  C405  1  0.081500  0.632900  0.925700  1.0  0.005
  C  C406  1  0.023700  0.598900  0.956600  1.0  -0.0824
  C  C407  1  0.932200  0.610000  0.957900  1.0  -0.0503
  C  C408  1  0.886800  0.663300  0.104400  1.0  0.2058
  C  C409  1  0.827400  0.632100  0.059100  1.0  -0.0385
  C  C410  1  0.740000  0.654900  0.063100  1.0  -0.1266
  C  C411  1  0.710100  0.707300  0.110400  1.0  0.0021
  C  C412  1  0.772200  0.739300  0.153600  1.0  -0.1233
  C  C413  1  0.860200  0.717900  0.150300  1.0  -0.0344
  C  C414  1  0.971800  0.851500  0.135900  1.0  0.1894
  C  C415  1  0.004900  0.803900  0.165900  1.0  -0.0191
  C  C416  1  0.095800  0.792700  0.169000  1.0  -0.1219
  C  C417  1  0.157400  0.829400  0.144400  1.0  0.0139
  C  C418  1  0.124500  0.875800  0.113900  1.0  -0.1179
  C  C419  1  0.033000  0.886300  0.107500  1.0  -0.057
  C  C420  1  0.959700  0.853900  0.960400  1.0  0.1866
  C  C421  1  0.932800  0.910200  0.008100  1.0  -0.061
  C  C422  1  0.848800  0.938700  0.005800  1.0  -0.1341
  C  C423  1  0.787700  0.911500  0.959800  1.0  0.0162
  C  C424  1  0.813400  0.854600  0.915600  1.0  -0.1484
  C  C425  1  0.896500  0.825200  0.915600  1.0  -0.0374
  C  C426  1  0.746100  0.689000  0.896100  1.0  -0.0679
  C  C427  1  0.749800  0.656100  0.829100  1.0  0.6387
  C  C428  1  0.978100  0.591600  0.141500  1.0  -0.0721
  C  C429  1  0.071400  0.570400  0.151800  1.0  0.6844
  C  C430  1  0.835500  0.915900  0.143700  1.0  -0.0837
  C  C431  1  0.792100  0.937000  0.204500  1.0  0.6806
  C  C432  1  0.117600  0.864800  0.955100  1.0  -0.0745
  C  C433  1  0.147200  0.867900  0.892300  1.0  0.6655
  C  C434  1  0.182200  0.623100  0.928100  1.0  0.2351
  C  C435  1  0.232600  0.663200  0.889400  1.0  -0.3907
  C  C436  1  0.207300  0.549500  0.903100  1.0  -0.3837
  C  C437  1  0.209600  0.647400  0.994700  1.0  -0.3869
  C  C438  1  0.612000  0.728500  0.115000  1.0  0.2416
  C  C439  1  0.558400  0.675400  0.141300  1.0  -0.3831
  C  C440  1  0.596000  0.793700  0.162000  1.0  -0.3864
  C  C441  1  0.574100  0.728600  0.056600  1.0  -0.3842
  C  C442  1  0.258800  0.819800  0.152800  1.0  0.2295
  C  C443  1  0.310100  0.826500  0.095900  1.0  -0.3847
  C  C444  1  0.278600  0.749300  0.160900  1.0  -0.3881
  C  C445  1  0.289800  0.872200  0.206700  1.0  -0.378
  C  C446  1  0.694400  0.940600  0.960100  1.0  0.2429
  C  C447  1  0.649500  0.943400  0.018300  1.0  -0.3857
  C  C448  1  0.697900  0.011000  0.953900  1.0  -0.3963
  C  C449  1  0.633600  0.901400  0.910800  1.0  -0.3862
  C  C450  1  0.648900  0.448700  0.900600  1.0  0.0761
  C  C451  1  0.603200  0.456100  0.961300  1.0  -0.1918
  C  C452  1  0.523500  0.498100  0.968900  1.0  -0.1089
  S  S453  1  0.636890  0.064580  0.498460  1.0  -0.033
  S  S454  1  0.565480  0.260910  0.707930  1.0  -0.0465
  S  S455  1  0.496260  0.450350  0.569140  1.0  -0.0184
  S  S456  1  0.581390  0.252070  0.356520  1.0  -0.0297
  S  S457  1  0.136890  0.435420  0.001540  1.0  -0.0327
  S  S458  1  0.065480  0.239090  0.792070  1.0  -0.0456
  S  S459  1  0.996260  0.049650  0.930860  1.0  -0.0183
  S  S460  1  0.081390  0.247930  0.143480  1.0  -0.0301
  S  S461  1  0.363110  0.935420  0.501540  1.0  -0.0321
  S  S462  1  0.434520  0.739090  0.292070  1.0  -0.0459
  S  S463  1  0.503740  0.549650  0.430860  1.0  -0.0182
  S  S464  1  0.418610  0.747930  0.643480  1.0  -0.03
  S  S465  1  0.863110  0.564580  0.998460  1.0  -0.0325
  S  S466  1  0.934520  0.760910  0.207930  1.0  -0.0467
  S  S467  1  0.003740  0.950350  0.069140  1.0  -0.0181
  S  S468  1  0.918610  0.752070  0.856520  1.0  -0.0296
  N  N469  1  0.814200  0.011500  0.389400  1.0  -0.6635
  N  N470  1  0.314200  0.488500  0.110600  1.0  -0.6611
  N  N471  1  0.185800  0.988500  0.610600  1.0  -0.6611
  N  N472  1  0.685800  0.511500  0.889400  1.0  -0.665
  O  O473  1  0.696900  0.159000  0.432500  1.0  -0.2445
  O  O474  1  0.709800  0.102300  0.310000  1.0  -0.6335
  O  O475  1  0.789400  0.185400  0.293700  1.0  -0.5867
  O  O476  1  0.525800  0.139800  0.604900  1.0  -0.2731
  O  O477  1  0.364000  0.086500  0.627200  1.0  -0.5839
  O  O478  1  0.425500  0.031000  0.687600  1.0  -0.6333
  O  O479  1  0.619300  0.353700  0.630600  1.0  -0.2136
  O  O480  1  0.696100  0.407000  0.745300  1.0  -0.5631
  O  O481  1  0.760600  0.486400  0.710600  1.0  -0.668
  O  O482  1  0.459000  0.324300  0.459100  1.0  -0.2271
  O  O483  1  0.375000  0.327500  0.346700  1.0  -0.5742
  O  O484  1  0.300200  0.415700  0.392100  1.0  -0.6218
  O  O485  1  0.196900  0.341000  0.067500  1.0  -0.244
  O  O486  1  0.209800  0.397700  0.190000  1.0  -0.6374
  O  O487  1  0.289400  0.314600  0.206300  1.0  -0.5877
  O  O488  1  0.025800  0.360200  0.895100  1.0  -0.2745
  O  O489  1  0.864000  0.413500  0.872800  1.0  -0.5845
  O  O490  1  0.925500  0.469000  0.812400  1.0  -0.6342
  O  O491  1  0.119300  0.146300  0.869400  1.0  -0.2109
  O  O492  1  0.196100  0.093000  0.754700  1.0  -0.5635
  O  O493  1  0.260600  0.013600  0.789400  1.0  -0.6687
  O  O494  1  0.959000  0.175700  0.040900  1.0  -0.2271
  O  O495  1  0.875000  0.172500  0.153300  1.0  -0.5736
  O  O496  1  0.800200  0.084300  0.107900  1.0  -0.6235
  O  O497  1  0.303100  0.841000  0.567500  1.0  -0.2443
  O  O498  1  0.290200  0.897700  0.690000  1.0  -0.6352
  O  O499  1  0.210600  0.814600  0.706300  1.0  -0.5881
  O  O500  1  0.474200  0.860200  0.395100  1.0  -0.2731
  O  O501  1  0.636000  0.913500  0.372800  1.0  -0.5849
  O  O502  1  0.574500  0.969000  0.312400  1.0  -0.6345
  O  O503  1  0.380700  0.646300  0.369400  1.0  -0.2104
  O  O504  1  0.303900  0.593000  0.254700  1.0  -0.563
  O  O505  1  0.239400  0.513600  0.289400  1.0  -0.6687
  O  O506  1  0.541000  0.675700  0.540900  1.0  -0.2267
  O  O507  1  0.625000  0.672500  0.653300  1.0  -0.5742
  O  O508  1  0.699800  0.584300  0.607900  1.0  -0.624
  O  O509  1  0.803100  0.659000  0.932500  1.0  -0.2443
  O  O510  1  0.790200  0.602300  0.810000  1.0  -0.6342
  O  O511  1  0.710600  0.685400  0.793700  1.0  -0.5851
  O  O512  1  0.974200  0.639800  0.104900  1.0  -0.2728
  O  O513  1  0.136000  0.586500  0.127200  1.0  -0.5843
  O  O514  1  0.074500  0.531000  0.187600  1.0  -0.634
  O  O515  1  0.880700  0.853700  0.130600  1.0  -0.2129
  O  O516  1  0.803900  0.907000  0.245300  1.0  -0.5633
  O  O517  1  0.739400  0.986400  0.210600  1.0  -0.6687
  O  O518  1  0.041000  0.824300  0.959100  1.0  -0.2267
  O  O519  1  0.125000  0.827500  0.846700  1.0  -0.5742
  O  O520  1  0.199800  0.915700  0.892100  1.0  -0.6228
