# generated using pymatgen
data_CoH34C34S2(NO3)2
_symmetry_space_group_name_H-M   'P 1'
_cell_length_a   22.61290000
_cell_length_b   22.61290000
_cell_length_c   27.69470000
_cell_angle_alpha   114.09500000
_cell_angle_beta   114.09500000
_cell_angle_gamma   90.00000000
_symmetry_Int_Tables_number   1
_chemical_formula_structural   CoH34C34S2(NO3)2
_chemical_formula_sum   'Co8 H272 C272 S16 N16 O48'
_cell_volume   11562.77901467
_cell_formula_units_Z   8
loop_
 _symmetry_equiv_pos_site_id
 _symmetry_equiv_pos_as_xyz
  1  'x, y, z'
loop_
 _atom_site_type_symbol
 _atom_site_label
 _atom_site_symmetry_multiplicity
 _atom_site_fract_x
 _atom_site_fract_y
 _atom_site_fract_z
 _atom_site_occupancy
 _atom_site_charge
  Co  Co1  1  0.750000  0.692070  0.500000  1.0  0.9133
  Co  Co2  1  0.250000  0.807930  0.500000  1.0  0.9124
  Co  Co3  1  0.692070  0.250000  0.000000  1.0  0.9146
  Co  Co4  1  0.807930  0.750000  0.000000  1.0  0.9138
  Co  Co5  1  0.250000  0.307930  0.500000  1.0  0.9111
  Co  Co6  1  0.750000  0.192070  0.500000  1.0  0.9115
  Co  Co7  1  0.307930  0.750000  0.000000  1.0  0.9123
  Co  Co8  1  0.192070  0.250000  0.000000  1.0  0.9135
  H  H9  1  0.083100  0.819700  0.869400  1.0  0.1201
  H  H10  1  0.046000  0.994300  0.871800  1.0  0.1086
  H  H11  1  0.891500  0.839600  0.682200  1.0  0.106
  H  H12  1  0.905100  0.775400  0.692800  1.0  0.1013
  H  H13  1  0.063400  0.028100  0.960600  1.0  0.0889
  H  H14  1  0.141500  0.034400  0.983000  1.0  0.1068
  H  H15  1  0.108400  0.024700  0.021200  1.0  0.087
  H  H16  1  0.139700  0.865100  0.953800  1.0  0.1158
  H  H17  1  0.157300  0.924500  0.017400  1.0  0.1072
  H  H18  1  0.190200  0.931600  0.978200  1.0  0.1112
  H  H19  1  0.033600  0.862700  0.941200  1.0  0.1001
  H  H20  1  0.998300  0.924700  0.944800  1.0  0.1096
  H  H21  1  0.056400  0.926800  0.003400  1.0  0.1056
  H  H22  1  0.676700  0.255300  0.420000  1.0  0.0946
  H  H23  1  0.673400  0.356600  0.417800  1.0  0.1336
  H  H24  1  0.650800  0.463400  0.454200  1.0  0.1229
  H  H25  1  0.653500  0.566300  0.456000  1.0  0.0762
  H  H26  1  0.286300  0.049700  0.869400  1.0  0.1193
  H  H27  1  0.325800  0.877500  0.871800  1.0  0.1059
  H  H28  1  0.290700  0.842600  0.682200  1.0  0.1055
  H  H29  1  0.287700  0.917400  0.692800  1.0  0.1012
  H  H30  1  0.397200  0.932500  0.960600  1.0  0.0913
  H  H31  1  0.341500  0.948600  0.983000  1.0  0.1096
  H  H32  1  0.412800  0.996500  0.021200  1.0  0.0882
  H  H33  1  0.314100  0.088700  0.953800  1.0  0.1077
  H  H34  1  0.360100  0.092900  0.017400  1.0  0.1049
  H  H35  1  0.288000  0.046600  0.978200  1.0  0.1065
  H  H36  1  0.407600  0.078500  0.941200  1.0  0.1025
  H  H37  1  0.446500  0.020100  0.944800  1.0  0.1086
  H  H38  1  0.447000  0.076600  0.003400  1.0  0.1014
  H  H39  1  0.243300  0.164700  0.420000  1.0  0.0951
  H  H40  1  0.244400  0.061200  0.417800  1.0  0.1337
  H  H41  1  0.303400  0.990800  0.454200  1.0  0.1232
  H  H42  1  0.302500  0.889700  0.456000  1.0  0.0763
  H  H43  1  0.819700  0.286300  0.369400  1.0  0.12
  H  H44  1  0.994300  0.325800  0.371800  1.0  0.1066
  H  H45  1  0.839600  0.290700  0.182200  1.0  0.1051
  H  H46  1  0.775400  0.287700  0.192800  1.0  0.1017
  H  H47  1  0.028100  0.397200  0.460600  1.0  0.093
  H  H48  1  0.034400  0.341500  0.483000  1.0  0.1083
  H  H49  1  0.024700  0.412800  0.521200  1.0  0.0884
  H  H50  1  0.865100  0.314100  0.453800  1.0  0.1072
  H  H51  1  0.924500  0.360100  0.517400  1.0  0.1063
  H  H52  1  0.931600  0.288000  0.478200  1.0  0.1089
  H  H53  1  0.862700  0.407600  0.441200  1.0  0.1019
  H  H54  1  0.924700  0.446500  0.444800  1.0  0.1077
  H  H55  1  0.926800  0.447000  0.503400  1.0  0.1017
  H  H56  1  0.255300  0.243300  0.920000  1.0  0.0942
  H  H57  1  0.356600  0.244400  0.917800  1.0  0.1341
  H  H58  1  0.463400  0.303400  0.954200  1.0  0.1231
  H  H59  1  0.566300  0.302500  0.956000  1.0  0.0766
  H  H60  1  0.049700  0.083100  0.369400  1.0  0.12
  H  H61  1  0.877500  0.046000  0.371800  1.0  0.1069
  H  H62  1  0.842600  0.891500  0.182200  1.0  0.1061
  H  H63  1  0.917400  0.905100  0.192800  1.0  0.0935
  H  H64  1  0.932500  0.063400  0.460600  1.0  0.0906
  H  H65  1  0.948600  0.141500  0.483000  1.0  0.1091
  H  H66  1  0.996500  0.108400  0.521200  1.0  0.0872
  H  H67  1  0.088700  0.139700  0.453800  1.0  0.1061
  H  H68  1  0.092900  0.157300  0.517400  1.0  0.1048
  H  H69  1  0.046600  0.190200  0.478200  1.0  0.1103
  H  H70  1  0.078500  0.033600  0.441200  1.0  0.1
  H  H71  1  0.020100  0.998300  0.444800  1.0  0.1053
  H  H72  1  0.076600  0.056400  0.503400  1.0  0.1024
  H  H73  1  0.164700  0.676700  0.920000  1.0  0.0933
  H  H74  1  0.061200  0.673400  0.917800  1.0  0.1337
  H  H75  1  0.990800  0.650800  0.954200  1.0  0.1231
  H  H76  1  0.889700  0.653500  0.956000  1.0  0.0764
  H  H77  1  0.213700  0.680300  0.130600  1.0  0.118
  H  H78  1  0.174200  0.505700  0.128200  1.0  0.1072
  H  H79  1  0.209300  0.660400  0.317800  1.0  0.1054
  H  H80  1  0.212300  0.724600  0.307200  1.0  0.1009
  H  H81  1  0.102800  0.471900  0.039400  1.0  0.0918
  H  H82  1  0.158500  0.465600  0.017000  1.0  0.1052
  H  H83  1  0.087200  0.475300  0.978800  1.0  0.0866
  H  H84  1  0.185900  0.634900  0.046200  1.0  0.1104
  H  H85  1  0.139900  0.575500  0.982600  1.0  0.1054
  H  H86  1  0.212000  0.568400  0.021800  1.0  0.107
  H  H87  1  0.092400  0.637300  0.058800  1.0  0.1004
  H  H88  1  0.053500  0.575300  0.055200  1.0  0.1073
  H  H89  1  0.053000  0.573200  0.996600  1.0  0.1012
  H  H90  1  0.256700  0.244700  0.580000  1.0  0.0944
  H  H91  1  0.255600  0.143400  0.582200  1.0  0.1339
  H  H92  1  0.196600  0.036600  0.545800  1.0  0.1228
  H  H93  1  0.197500  0.933700  0.544000  1.0  0.0764
  H  H94  1  0.416900  0.450300  0.130600  1.0  0.1199
  H  H95  1  0.454000  0.622500  0.128200  1.0  0.1073
  H  H96  1  0.608500  0.657400  0.317800  1.0  0.1047
  H  H97  1  0.594900  0.582600  0.307200  1.0  0.1017
  H  H98  1  0.436600  0.567500  0.039400  1.0  0.0921
  H  H99  1  0.358500  0.551400  0.017000  1.0  0.1057
  H  H100  1  0.391600  0.503500  0.978800  1.0  0.0878
  H  H101  1  0.360300  0.411300  0.046200  1.0  0.1068
  H  H102  1  0.342700  0.407100  0.982600  1.0  0.1052
  H  H103  1  0.309800  0.453400  0.021800  1.0  0.1095
  H  H104  1  0.466400  0.421500  0.058800  1.0  0.1006
  H  H105  1  0.501700  0.479900  0.055200  1.0  0.1078
  H  H106  1  0.443600  0.423400  0.996600  1.0  0.1033
  H  H107  1  0.823300  0.335300  0.580000  1.0  0.0944
  H  H108  1  0.826600  0.438800  0.582200  1.0  0.134
  H  H109  1  0.849200  0.509200  0.545800  1.0  0.1227
  H  H110  1  0.846500  0.610300  0.544000  1.0  0.0765
  H  H111  1  0.450300  0.213700  0.630600  1.0  0.121
  H  H112  1  0.622500  0.174200  0.628200  1.0  0.1076
  H  H113  1  0.657400  0.209300  0.817800  1.0  0.1045
  H  H114  1  0.582600  0.212300  0.807200  1.0  0.1003
  H  H115  1  0.567500  0.102800  0.539400  1.0  0.0892
  H  H116  1  0.551400  0.158500  0.517000  1.0  0.1096
  H  H117  1  0.503500  0.087200  0.478800  1.0  0.0868
  H  H118  1  0.411300  0.185900  0.546200  1.0  0.107
  H  H119  1  0.407100  0.139900  0.482600  1.0  0.1048
  H  H120  1  0.453400  0.212000  0.521800  1.0  0.1091
  H  H121  1  0.421500  0.092400  0.558800  1.0  0.1007
  H  H122  1  0.479900  0.053500  0.555200  1.0  0.1082
  H  H123  1  0.423400  0.053000  0.496600  1.0  0.1016
  H  H124  1  0.335300  0.256700  0.080000  1.0  0.0946
  H  H125  1  0.438800  0.255600  0.082200  1.0  0.1344
  H  H126  1  0.509200  0.196600  0.045800  1.0  0.123
  H  H127  1  0.610300  0.197500  0.044000  1.0  0.0764
  H  H128  1  0.680300  0.416900  0.630600  1.0  0.1205
  H  H129  1  0.505700  0.454000  0.628200  1.0  0.1074
  H  H130  1  0.660400  0.608500  0.817800  1.0  0.1
  H  H131  1  0.724600  0.594900  0.807200  1.0  0.1006
  H  H132  1  0.471900  0.436600  0.539400  1.0  0.0915
  H  H133  1  0.465600  0.358500  0.517000  1.0  0.1077
  H  H134  1  0.475300  0.391600  0.478800  1.0  0.0873
  H  H135  1  0.634900  0.360300  0.546200  1.0  0.1096
  H  H136  1  0.575500  0.342700  0.482600  1.0  0.1053
  H  H137  1  0.568400  0.309800  0.521800  1.0  0.1073
  H  H138  1  0.637300  0.466400  0.558800  1.0  0.1024
  H  H139  1  0.575300  0.501700  0.555200  1.0  0.1062
  H  H140  1  0.573200  0.443600  0.496600  1.0  0.1042
  H  H141  1  0.244700  0.823300  0.080000  1.0  0.0939
  H  H142  1  0.143400  0.826600  0.082200  1.0  0.1343
  H  H143  1  0.036600  0.849200  0.045800  1.0  0.1242
  H  H144  1  0.933700  0.846500  0.044000  1.0  0.0764
  H  H145  1  0.916900  0.180300  0.130600  1.0  0.1183
  H  H146  1  0.954000  0.005700  0.128200  1.0  0.1078
  H  H147  1  0.108500  0.160400  0.317800  1.0  0.1047
  H  H148  1  0.094900  0.224600  0.307200  1.0  0.0995
  H  H149  1  0.936600  0.971900  0.039400  1.0  0.089
  H  H150  1  0.858500  0.965600  0.017000  1.0  0.106
  H  H151  1  0.891600  0.975300  0.978800  1.0  0.088
  H  H152  1  0.860300  0.134900  0.046200  1.0  0.113
  H  H153  1  0.842700  0.075500  0.982600  1.0  0.1069
  H  H154  1  0.809800  0.068400  0.021800  1.0  0.1103
  H  H155  1  0.966400  0.137300  0.058800  1.0  0.1007
  H  H156  1  0.001700  0.075300  0.055200  1.0  0.1075
  H  H157  1  0.943600  0.073200  0.996600  1.0  0.1056
  H  H158  1  0.323300  0.744700  0.580000  1.0  0.0945
  H  H159  1  0.326600  0.643400  0.582200  1.0  0.1341
  H  H160  1  0.349200  0.536600  0.545800  1.0  0.1236
  H  H161  1  0.346500  0.433700  0.544000  1.0  0.0764
  H  H162  1  0.713700  0.950300  0.130600  1.0  0.1201
  H  H163  1  0.674200  0.122500  0.128200  1.0  0.1071
  H  H164  1  0.709300  0.157400  0.317800  1.0  0.1073
  H  H165  1  0.712300  0.082600  0.307200  1.0  0.1013
  H  H166  1  0.602800  0.067500  0.039400  1.0  0.0915
  H  H167  1  0.658500  0.051400  0.017000  1.0  0.1099
  H  H168  1  0.587200  0.003500  0.978800  1.0  0.0874
  H  H169  1  0.685900  0.911300  0.046200  1.0  0.1066
  H  H170  1  0.639900  0.907100  0.982600  1.0  0.1038
  H  H171  1  0.712000  0.953400  0.021800  1.0  0.1085
  H  H172  1  0.592400  0.921500  0.058800  1.0  0.102
  H  H173  1  0.553500  0.979900  0.055200  1.0  0.1086
  H  H174  1  0.553000  0.923400  0.996600  1.0  0.1018
  H  H175  1  0.756700  0.835300  0.580000  1.0  0.0947
  H  H176  1  0.755600  0.938800  0.582200  1.0  0.1341
  H  H177  1  0.696600  0.009200  0.545800  1.0  0.1229
  H  H178  1  0.697500  0.110300  0.544000  1.0  0.0758
  H  H179  1  0.180300  0.713700  0.630600  1.0  0.1197
  H  H180  1  0.005700  0.674200  0.628200  1.0  0.107
  H  H181  1  0.160400  0.709300  0.817800  1.0  0.1051
  H  H182  1  0.224600  0.712300  0.807200  1.0  0.1011
  H  H183  1  0.971900  0.602800  0.539400  1.0  0.0923
  H  H184  1  0.965600  0.658500  0.517000  1.0  0.1074
  H  H185  1  0.975300  0.587200  0.478800  1.0  0.0861
  H  H186  1  0.134900  0.685900  0.546200  1.0  0.1093
  H  H187  1  0.075500  0.639900  0.482600  1.0  0.1061
  H  H188  1  0.068400  0.712000  0.521800  1.0  0.1089
  H  H189  1  0.137300  0.592400  0.558800  1.0  0.1007
  H  H190  1  0.075300  0.553500  0.555200  1.0  0.107
  H  H191  1  0.073200  0.553000  0.496600  1.0  0.1018
  H  H192  1  0.744700  0.756700  0.080000  1.0  0.0943
  H  H193  1  0.643400  0.755600  0.082200  1.0  0.1335
  H  H194  1  0.536600  0.696600  0.045800  1.0  0.1235
  H  H195  1  0.433700  0.697500  0.044000  1.0  0.0764
  H  H196  1  0.950300  0.916900  0.630600  1.0  0.1198
  H  H197  1  0.122500  0.954000  0.628200  1.0  0.1077
  H  H198  1  0.157400  0.108500  0.817800  1.0  0.1041
  H  H199  1  0.082600  0.094900  0.807200  1.0  0.0993
  H  H200  1  0.067500  0.936600  0.539400  1.0  0.092
  H  H201  1  0.051400  0.858500  0.517000  1.0  0.1076
  H  H202  1  0.003500  0.891600  0.478800  1.0  0.0878
  H  H203  1  0.911300  0.860300  0.546200  1.0  0.1058
  H  H204  1  0.907100  0.842700  0.482600  1.0  0.1036
  H  H205  1  0.953400  0.809800  0.521800  1.0  0.1078
  H  H206  1  0.921500  0.966400  0.558800  1.0  0.0984
  H  H207  1  0.979900  0.001700  0.555200  1.0  0.107
  H  H208  1  0.923400  0.943600  0.496600  1.0  0.1024
  H  H209  1  0.835300  0.323300  0.080000  1.0  0.0943
  H  H210  1  0.938800  0.326600  0.082200  1.0  0.1338
  H  H211  1  0.009200  0.349200  0.045800  1.0  0.1234
  H  H212  1  0.110300  0.346500  0.044000  1.0  0.0765
  H  H213  1  0.786300  0.319700  0.869400  1.0  0.1204
  H  H214  1  0.825800  0.494300  0.871800  1.0  0.1082
  H  H215  1  0.790700  0.339600  0.682200  1.0  0.1049
  H  H216  1  0.787700  0.275400  0.692800  1.0  0.1003
  H  H217  1  0.897200  0.528100  0.960600  1.0  0.0918
  H  H218  1  0.841500  0.534400  0.983000  1.0  0.1053
  H  H219  1  0.912800  0.524700  0.021200  1.0  0.0883
  H  H220  1  0.814100  0.365100  0.953800  1.0  0.1121
  H  H221  1  0.860100  0.424500  0.017400  1.0  0.1052
  H  H222  1  0.788000  0.431600  0.978200  1.0  0.1056
  H  H223  1  0.907600  0.362700  0.941200  1.0  0.1016
  H  H224  1  0.946500  0.424700  0.944800  1.0  0.1067
  H  H225  1  0.947000  0.426800  0.003400  1.0  0.1019
  H  H226  1  0.743300  0.755300  0.420000  1.0  0.0941
  H  H227  1  0.744400  0.856600  0.417800  1.0  0.1343
  H  H228  1  0.803400  0.963400  0.454200  1.0  0.1223
  H  H229  1  0.802500  0.066300  0.456000  1.0  0.0768
  H  H230  1  0.583100  0.549700  0.869400  1.0  0.1195
  H  H231  1  0.546000  0.377500  0.871800  1.0  0.1071
  H  H232  1  0.391500  0.342600  0.682200  1.0  0.1061
  H  H233  1  0.405100  0.417400  0.692800  1.0  0.1018
  H  H234  1  0.563400  0.432500  0.960600  1.0  0.0906
  H  H235  1  0.641500  0.448600  0.983000  1.0  0.1072
  H  H236  1  0.608400  0.496500  0.021200  1.0  0.0879
  H  H237  1  0.639700  0.588700  0.953800  1.0  0.1077
  H  H238  1  0.657300  0.592900  0.017400  1.0  0.1054
  H  H239  1  0.690200  0.546600  0.978200  1.0  0.1109
  H  H240  1  0.533600  0.578500  0.941200  1.0  0.1004
  H  H241  1  0.498300  0.520100  0.944800  1.0  0.1094
  H  H242  1  0.556400  0.576600  0.003400  1.0  0.1028
  H  H243  1  0.176700  0.664700  0.420000  1.0  0.0944
  H  H244  1  0.173400  0.561200  0.417800  1.0  0.1335
  H  H245  1  0.150800  0.490800  0.454200  1.0  0.1225
  H  H246  1  0.153500  0.389700  0.456000  1.0  0.0766
  H  H247  1  0.549700  0.786300  0.369400  1.0  0.1208
  H  H248  1  0.377500  0.825800  0.371800  1.0  0.1068
  H  H249  1  0.342600  0.790700  0.182200  1.0  0.1049
  H  H250  1  0.417400  0.787700  0.192800  1.0  0.1021
  H  H251  1  0.432500  0.897200  0.460600  1.0  0.091
  H  H252  1  0.448600  0.841500  0.483000  1.0  0.1095
  H  H253  1  0.496500  0.912800  0.521200  1.0  0.088
  H  H254  1  0.588700  0.814100  0.453800  1.0  0.1069
  H  H255  1  0.592900  0.860100  0.517400  1.0  0.1058
  H  H256  1  0.546600  0.788000  0.478200  1.0  0.1087
  H  H257  1  0.578500  0.907600  0.441200  1.0  0.1019
  H  H258  1  0.520100  0.946500  0.444800  1.0  0.1088
  H  H259  1  0.576600  0.947000  0.503400  1.0  0.1004
  H  H260  1  0.664700  0.743300  0.920000  1.0  0.0951
  H  H261  1  0.561200  0.744400  0.917800  1.0  0.1343
  H  H262  1  0.490800  0.803400  0.954200  1.0  0.1233
  H  H263  1  0.389700  0.802500  0.956000  1.0  0.0761
  H  H264  1  0.319700  0.583100  0.369400  1.0  0.1204
  H  H265  1  0.494300  0.546000  0.371800  1.0  0.1073
  H  H266  1  0.339600  0.391500  0.182200  1.0  0.0986
  H  H267  1  0.275400  0.405100  0.192800  1.0  0.1018
  H  H268  1  0.528100  0.563400  0.460600  1.0  0.0913
  H  H269  1  0.534400  0.641500  0.483000  1.0  0.1083
  H  H270  1  0.524700  0.608400  0.521200  1.0  0.0876
  H  H271  1  0.365100  0.639700  0.453800  1.0  0.1056
  H  H272  1  0.424500  0.657300  0.517400  1.0  0.1057
  H  H273  1  0.431600  0.690200  0.478200  1.0  0.11
  H  H274  1  0.362700  0.533600  0.441200  1.0  0.1006
  H  H275  1  0.424700  0.498300  0.444800  1.0  0.1046
  H  H276  1  0.426800  0.556400  0.503400  1.0  0.1044
  H  H277  1  0.755300  0.176700  0.920000  1.0  0.0934
  H  H278  1  0.856600  0.173400  0.917800  1.0  0.1334
  H  H279  1  0.963400  0.150800  0.954200  1.0  0.1238
  H  H280  1  0.066300  0.153500  0.956000  1.0  0.0767
  C  C281  1  0.011200  0.852670  0.757180  1.0  0.1919
  C  C282  1  0.037550  0.815540  0.787760  1.0  -0.0618
  C  C283  1  0.064620  0.845310  0.849080  1.0  -0.1145
  C  C284  1  0.065490  0.911120  0.881360  1.0  0.0235
  C  C285  1  0.042820  0.948260  0.850460  1.0  -0.0732
  C  C286  1  0.080150  0.726450  0.710960  1.0  -0.0644
  C  C287  1  0.912560  0.800720  0.673200  1.0  -0.1519
  C  C288  1  0.880740  0.758060  0.607540  1.0  0.7132
  C  C289  1  0.093070  0.942100  0.948860  1.0  0.2012
  C  C290  1  0.102300  0.013000  0.981000  1.0  -0.3858
  C  C291  1  0.150140  0.913340  0.977080  1.0  -0.3804
  C  C292  1  0.040240  0.911140  0.960680  1.0  -0.3353
  C  C293  1  0.707260  0.293420  0.453540  1.0  0.1691
  C  C294  1  0.705160  0.353580  0.451720  1.0  -0.2067
  C  C295  1  0.691950  0.493050  0.473260  1.0  -0.2279
  C  C296  1  0.694020  0.554380  0.474360  1.0  0.1711
  C  C297  1  0.245980  0.904510  0.757180  1.0  0.1909
  C  C298  1  0.250210  0.972220  0.787760  1.0  -0.0645
  C  C299  1  0.284460  0.003770  0.849080  1.0  -0.1097
  C  C300  1  0.315870  0.970240  0.881360  1.0  0.0167
  C  C301  1  0.307640  0.902200  0.850460  1.0  -0.0803
  C  C302  1  0.130810  0.984510  0.710960  1.0  -0.062
  C  C303  1  0.260640  0.872480  0.673200  1.0  -0.1496
  C  C304  1  0.226800  0.849480  0.607540  1.0  0.7151
  C  C305  1  0.355790  0.006760  0.948860  1.0  0.2034
  C  C306  1  0.378700  0.968000  0.981000  1.0  -0.385
  C  C307  1  0.326940  0.063740  0.977080  1.0  -0.3828
  C  C308  1  0.420440  0.049540  0.960680  1.0  -0.3312
  C  C309  1  0.246280  0.160120  0.453540  1.0  0.1753
  C  C310  1  0.246560  0.098140  0.451720  1.0  -0.2069
  C  C311  1  0.281310  0.980210  0.473260  1.0  -0.2262
  C  C312  1  0.280340  0.919980  0.474360  1.0  0.17
  C  C313  1  0.852670  0.245980  0.257180  1.0  0.1902
  C  C314  1  0.815540  0.250210  0.287760  1.0  -0.0622
  C  C315  1  0.845310  0.284460  0.349080  1.0  -0.1126
  C  C316  1  0.911120  0.315870  0.381360  1.0  0.0186
  C  C317  1  0.948260  0.307640  0.350460  1.0  -0.0743
  C  C318  1  0.726450  0.130810  0.210960  1.0  -0.0636
  C  C319  1  0.800720  0.260640  0.173200  1.0  -0.1503
  C  C320  1  0.758060  0.226800  0.107540  1.0  0.7127
  C  C321  1  0.942100  0.355790  0.448860  1.0  0.2039
  C  C322  1  0.013000  0.378700  0.481000  1.0  -0.3805
  C  C323  1  0.913340  0.326940  0.477080  1.0  -0.3815
  C  C324  1  0.911140  0.420440  0.460680  1.0  -0.3346
  C  C325  1  0.293420  0.246280  0.953540  1.0  0.1681
  C  C326  1  0.353580  0.246560  0.951720  1.0  -0.2045
  C  C327  1  0.493050  0.281310  0.973260  1.0  -0.2262
  C  C328  1  0.554380  0.280340  0.974360  1.0  0.1699
  C  C329  1  0.904510  0.011200  0.257180  1.0  0.1906
  C  C330  1  0.972220  0.037550  0.287760  1.0  -0.063
  C  C331  1  0.003770  0.064620  0.349080  1.0  -0.1106
  C  C332  1  0.970240  0.065490  0.381360  1.0  0.0181
  C  C333  1  0.902200  0.042820  0.350460  1.0  -0.078
  C  C334  1  0.984510  0.080150  0.210960  1.0  -0.0623
  C  C335  1  0.872480  0.912560  0.173200  1.0  -0.1509
  C  C336  1  0.849480  0.880740  0.107540  1.0  0.7141
  C  C337  1  0.006760  0.093070  0.448860  1.0  0.2033
  C  C338  1  0.968000  0.102300  0.481000  1.0  -0.386
  C  C339  1  0.063740  0.150140  0.477080  1.0  -0.3799
  C  C340  1  0.049540  0.040240  0.460680  1.0  -0.3336
  C  C341  1  0.160120  0.707260  0.953540  1.0  0.1692
  C  C342  1  0.098140  0.705160  0.951720  1.0  -0.2072
  C  C343  1  0.980210  0.691950  0.973260  1.0  -0.2278
  C  C344  1  0.919980  0.694020  0.974360  1.0  0.1703
  C  C345  1  0.254020  0.647330  0.242820  1.0  0.1911
  C  C346  1  0.249790  0.684460  0.212240  1.0  -0.0615
  C  C347  1  0.215540  0.654690  0.150920  1.0  -0.1153
  C  C348  1  0.184130  0.588880  0.118640  1.0  0.0222
  C  C349  1  0.192360  0.551740  0.149540  1.0  -0.0785
  C  C350  1  0.369190  0.773550  0.289040  1.0  -0.0634
  C  C351  1  0.239360  0.699280  0.326800  1.0  -0.1517
  C  C352  1  0.273200  0.741940  0.392460  1.0  0.7141
  C  C353  1  0.144210  0.557900  0.051140  1.0  0.2057
  C  C354  1  0.121300  0.487000  0.019000  1.0  -0.3852
  C  C355  1  0.173060  0.586660  0.022920  1.0  -0.3823
  C  C356  1  0.079560  0.588860  0.039320  1.0  -0.3347
  C  C357  1  0.253720  0.206580  0.546460  1.0  0.173
  C  C358  1  0.253440  0.146420  0.548280  1.0  -0.2073
  C  C359  1  0.218690  0.006950  0.526740  1.0  -0.2263
  C  C360  1  0.219660  0.945620  0.525640  1.0  0.1724
  C  C361  1  0.488800  0.595490  0.242820  1.0  0.1911
  C  C362  1  0.462450  0.527780  0.212240  1.0  -0.0633
  C  C363  1  0.435380  0.496230  0.150920  1.0  -0.1116
  C  C364  1  0.434510  0.529760  0.118640  1.0  0.0187
  C  C365  1  0.457180  0.597800  0.149540  1.0  -0.0803
  C  C366  1  0.419850  0.515490  0.289040  1.0  -0.0614
  C  C367  1  0.587440  0.627520  0.326800  1.0  -0.1504
  C  C368  1  0.619260  0.650520  0.392460  1.0  0.7143
  C  C369  1  0.406930  0.493240  0.051140  1.0  0.2042
  C  C370  1  0.397700  0.532000  0.019000  1.0  -0.3853
  C  C371  1  0.349860  0.436260  0.022920  1.0  -0.3827
  C  C372  1  0.459760  0.450460  0.039320  1.0  -0.3294
  C  C373  1  0.792740  0.339880  0.546460  1.0  0.1757
  C  C374  1  0.794840  0.401860  0.548280  1.0  -0.206
  C  C375  1  0.808050  0.519790  0.526740  1.0  -0.2258
  C  C376  1  0.805980  0.580020  0.525640  1.0  0.1747
  C  C377  1  0.595490  0.254020  0.742820  1.0  0.1906
  C  C378  1  0.527780  0.249790  0.712240  1.0  -0.0647
  C  C379  1  0.496230  0.215540  0.650920  1.0  -0.1111
  C  C380  1  0.529760  0.184130  0.618640  1.0  0.0193
  C  C381  1  0.597800  0.192360  0.649540  1.0  -0.0773
  C  C382  1  0.515490  0.369190  0.789040  1.0  -0.0601
  C  C383  1  0.627520  0.239360  0.826800  1.0  -0.151
  C  C384  1  0.650520  0.273200  0.892460  1.0  0.7126
  C  C385  1  0.493240  0.144210  0.551140  1.0  0.2051
  C  C386  1  0.532000  0.121300  0.519000  1.0  -0.3845
  C  C387  1  0.436260  0.173060  0.522920  1.0  -0.3829
  C  C388  1  0.450460  0.079560  0.539320  1.0  -0.3304
  C  C389  1  0.339880  0.253720  0.046460  1.0  0.1766
  C  C390  1  0.401860  0.253440  0.048280  1.0  -0.206
  C  C391  1  0.519790  0.218690  0.026740  1.0  -0.2263
  C  C392  1  0.580020  0.219660  0.025640  1.0  0.1729
  C  C393  1  0.647330  0.488800  0.742820  1.0  0.1908
  C  C394  1  0.684460  0.462450  0.712240  1.0  -0.0604
  C  C395  1  0.654690  0.435380  0.650920  1.0  -0.1118
  C  C396  1  0.588880  0.434510  0.618640  1.0  0.0246
  C  C397  1  0.551740  0.457180  0.649540  1.0  -0.0816
  C  C398  1  0.773550  0.419850  0.789040  1.0  -0.0656
  C  C399  1  0.699280  0.587440  0.826800  1.0  -0.1525
  C  C400  1  0.741940  0.619260  0.892460  1.0  0.7112
  C  C401  1  0.557900  0.406930  0.551140  1.0  0.2033
  C  C402  1  0.487000  0.397700  0.519000  1.0  -0.3824
  C  C403  1  0.586660  0.349860  0.522920  1.0  -0.3807
  C  C404  1  0.588860  0.459760  0.539320  1.0  -0.3315
  C  C405  1  0.206580  0.792740  0.046460  1.0  0.1754
  C  C406  1  0.146420  0.794840  0.048280  1.0  -0.21
  C  C407  1  0.006950  0.808050  0.026740  1.0  -0.2286
  C  C408  1  0.945620  0.805980  0.025640  1.0  0.1736
  C  C409  1  0.988800  0.147330  0.242820  1.0  0.1923
  C  C410  1  0.962450  0.184460  0.212240  1.0  -0.0615
  C  C411  1  0.935380  0.154690  0.150920  1.0  -0.115
  C  C412  1  0.934510  0.088880  0.118640  1.0  0.0234
  C  C413  1  0.957180  0.051740  0.149540  1.0  -0.076
  C  C414  1  0.919850  0.273550  0.289040  1.0  -0.0645
  C  C415  1  0.087440  0.199280  0.326800  1.0  -0.1488
  C  C416  1  0.119260  0.241940  0.392460  1.0  0.7131
  C  C417  1  0.906930  0.057900  0.051140  1.0  0.203
  C  C418  1  0.897700  0.987000  0.019000  1.0  -0.385
  C  C419  1  0.849860  0.086660  0.022920  1.0  -0.3807
  C  C420  1  0.959760  0.088860  0.039320  1.0  -0.3333
  C  C421  1  0.292740  0.706580  0.546460  1.0  0.1702
  C  C422  1  0.294840  0.646420  0.548280  1.0  -0.2062
  C  C423  1  0.308050  0.506950  0.526740  1.0  -0.2277
  C  C424  1  0.305980  0.445620  0.525640  1.0  0.17
  C  C425  1  0.754020  0.095490  0.242820  1.0  0.1905
  C  C426  1  0.749790  0.027780  0.212240  1.0  -0.0657
  C  C427  1  0.715540  0.996230  0.150920  1.0  -0.1128
  C  C428  1  0.684130  0.029760  0.118640  1.0  0.019
  C  C429  1  0.692360  0.097800  0.149540  1.0  -0.0795
  C  C430  1  0.869190  0.015490  0.289040  1.0  -0.0623
  C  C431  1  0.739360  0.127520  0.326800  1.0  -0.1502
  C  C432  1  0.773200  0.150520  0.392460  1.0  0.7143
  C  C433  1  0.644210  0.993240  0.051140  1.0  0.2055
  C  C434  1  0.621300  0.032000  0.019000  1.0  -0.3845
  C  C435  1  0.673060  0.936260  0.022920  1.0  -0.3838
  C  C436  1  0.579560  0.950460  0.039320  1.0  -0.3337
  C  C437  1  0.753720  0.839880  0.546460  1.0  0.173
  C  C438  1  0.753440  0.901860  0.548280  1.0  -0.2083
  C  C439  1  0.718690  0.019790  0.526740  1.0  -0.2262
  C  C440  1  0.719660  0.080020  0.525640  1.0  0.1702
  C  C441  1  0.147330  0.754020  0.742820  1.0  0.1907
  C  C442  1  0.184460  0.749790  0.712240  1.0  -0.0596
  C  C443  1  0.154690  0.715540  0.650920  1.0  -0.1126
  C  C444  1  0.088880  0.684130  0.618640  1.0  0.0206
  C  C445  1  0.051740  0.692360  0.649540  1.0  -0.0773
  C  C446  1  0.273550  0.869190  0.789040  1.0  -0.0588
  C  C447  1  0.199280  0.739360  0.826800  1.0  -0.1495
  C  C448  1  0.241940  0.773200  0.892460  1.0  0.7117
  C  C449  1  0.057900  0.644210  0.551140  1.0  0.2057
  C  C450  1  0.987000  0.621300  0.519000  1.0  -0.3822
  C  C451  1  0.086660  0.673060  0.522920  1.0  -0.3818
  C  C452  1  0.088860  0.579560  0.539320  1.0  -0.3354
  C  C453  1  0.706580  0.753720  0.046460  1.0  0.1686
  C  C454  1  0.646420  0.753440  0.048280  1.0  -0.2064
  C  C455  1  0.506950  0.718690  0.026740  1.0  -0.226
  C  C456  1  0.445620  0.719660  0.025640  1.0  0.1698
  C  C457  1  0.095490  0.988800  0.742820  1.0  0.1895
  C  C458  1  0.027780  0.962450  0.712240  1.0  -0.0609
  C  C459  1  0.996230  0.935380  0.650920  1.0  -0.1114
  C  C460  1  0.029760  0.934510  0.618640  1.0  0.0206
  C  C461  1  0.097800  0.957180  0.649540  1.0  -0.0799
  C  C462  1  0.015490  0.919850  0.789040  1.0  -0.0647
  C  C463  1  0.127520  0.087440  0.826800  1.0  -0.1497
  C  C464  1  0.150520  0.119260  0.892460  1.0  0.7141
  C  C465  1  0.993240  0.906930  0.551140  1.0  0.2046
  C  C466  1  0.032000  0.897700  0.519000  1.0  -0.387
  C  C467  1  0.936260  0.849860  0.522920  1.0  -0.3801
  C  C468  1  0.950460  0.959760  0.539320  1.0  -0.3321
  C  C469  1  0.839880  0.292740  0.046460  1.0  0.1684
  C  C470  1  0.901860  0.294840  0.048280  1.0  -0.2074
  C  C471  1  0.019790  0.308050  0.026740  1.0  -0.2294
  C  C472  1  0.080020  0.305980  0.025640  1.0  0.1688
  C  C473  1  0.745980  0.352670  0.757180  1.0  0.1911
  C  C474  1  0.750210  0.315540  0.787760  1.0  -0.0616
  C  C475  1  0.784460  0.345310  0.849080  1.0  -0.1164
  C  C476  1  0.815870  0.411120  0.881360  1.0  0.0197
  C  C477  1  0.807640  0.448260  0.850460  1.0  -0.077
  C  C478  1  0.630810  0.226450  0.710960  1.0  -0.0613
  C  C479  1  0.760640  0.300720  0.673200  1.0  -0.1506
  C  C480  1  0.726800  0.258060  0.607540  1.0  0.7148
  C  C481  1  0.855790  0.442100  0.948860  1.0  0.2033
  C  C482  1  0.878700  0.513000  0.981000  1.0  -0.3858
  C  C483  1  0.826940  0.413340  0.977080  1.0  -0.3833
  C  C484  1  0.920440  0.411140  0.960680  1.0  -0.3337
  C  C485  1  0.746280  0.793420  0.453540  1.0  0.1714
  C  C486  1  0.746560  0.853580  0.451720  1.0  -0.2048
  C  C487  1  0.781310  0.993050  0.473260  1.0  -0.2258
  C  C488  1  0.780340  0.054380  0.474360  1.0  0.1727
  C  C489  1  0.511200  0.404510  0.757180  1.0  0.1914
  C  C490  1  0.537550  0.472220  0.787760  1.0  -0.0646
  C  C491  1  0.564620  0.503770  0.849080  1.0  -0.1105
  C  C492  1  0.565490  0.470240  0.881360  1.0  0.018
  C  C493  1  0.542820  0.402200  0.850460  1.0  -0.0789
  C  C494  1  0.580150  0.484510  0.710960  1.0  -0.0633
  C  C495  1  0.412560  0.372480  0.673200  1.0  -0.1507
  C  C496  1  0.380740  0.349480  0.607540  1.0  0.7148
  C  C497  1  0.593070  0.506760  0.948860  1.0  0.2032
  C  C498  1  0.602300  0.468000  0.981000  1.0  -0.3852
  C  C499  1  0.650140  0.563740  0.977080  1.0  -0.3817
  C  C500  1  0.540240  0.549540  0.960680  1.0  -0.3318
  C  C501  1  0.207260  0.660120  0.453540  1.0  0.1753
  C  C502  1  0.205160  0.598140  0.451720  1.0  -0.2064
  C  C503  1  0.191950  0.480210  0.473260  1.0  -0.2273
  C  C504  1  0.194020  0.419980  0.474360  1.0  0.1751
  C  C505  1  0.404510  0.745980  0.257180  1.0  0.1908
  C  C506  1  0.472220  0.750210  0.287760  1.0  -0.063
  C  C507  1  0.503770  0.784460  0.349080  1.0  -0.1086
  C  C508  1  0.470240  0.815870  0.381360  1.0  0.0157
  C  C509  1  0.402200  0.807640  0.350460  1.0  -0.0751
  C  C510  1  0.484510  0.630810  0.210960  1.0  -0.0619
  C  C511  1  0.372480  0.760640  0.173200  1.0  -0.1519
  C  C512  1  0.349480  0.726800  0.107540  1.0  0.7135
  C  C513  1  0.506760  0.855790  0.448860  1.0  0.2039
  C  C514  1  0.468000  0.878700  0.481000  1.0  -0.3832
  C  C515  1  0.563740  0.826940  0.477080  1.0  -0.3841
  C  C516  1  0.549540  0.920440  0.460680  1.0  -0.3311
  C  C517  1  0.660120  0.746280  0.953540  1.0  0.1789
  C  C518  1  0.598140  0.746560  0.951720  1.0  -0.2052
  C  C519  1  0.480210  0.781310  0.973260  1.0  -0.2259
  C  C520  1  0.419980  0.780340  0.974360  1.0  0.1743
  C  C521  1  0.352670  0.511200  0.257180  1.0  0.1908
  C  C522  1  0.315540  0.537550  0.287760  1.0  -0.0629
  C  C523  1  0.345310  0.564620  0.349080  1.0  -0.1124
  C  C524  1  0.411120  0.565490  0.381360  1.0  0.0236
  C  C525  1  0.448260  0.542820  0.350460  1.0  -0.0777
  C  C526  1  0.226450  0.580150  0.210960  1.0  -0.0649
  C  C527  1  0.300720  0.412560  0.173200  1.0  -0.1543
  C  C528  1  0.258060  0.380740  0.107540  1.0  0.7118
  C  C529  1  0.442100  0.593070  0.448860  1.0  0.2006
  C  C530  1  0.513000  0.602300  0.481000  1.0  -0.381
  C  C531  1  0.413340  0.650140  0.477080  1.0  -0.38
  C  C532  1  0.411140  0.540240  0.460680  1.0  -0.3315
  C  C533  1  0.793420  0.207260  0.953540  1.0  0.176
  C  C534  1  0.853580  0.205160  0.951720  1.0  -0.2078
  C  C535  1  0.993050  0.191950  0.973260  1.0  -0.2286
  C  C536  1  0.054380  0.194020  0.974360  1.0  0.1739
  C  C537  1  0.750000  0.409380  0.500000  1.0  0.0655
  C  C538  1  0.750000  0.475050  0.500000  1.0  0.0927
  C  C539  1  0.250000  0.090620  0.500000  1.0  0.0645
  C  C540  1  0.250000  0.024950  0.500000  1.0  0.0931
  C  C541  1  0.409380  0.250000  0.000000  1.0  0.0644
  C  C542  1  0.475050  0.250000  0.000000  1.0  0.0923
  C  C543  1  0.090620  0.750000  0.000000  1.0  0.0619
  C  C544  1  0.024950  0.750000  0.000000  1.0  0.0915
  C  C545  1  0.250000  0.590620  0.500000  1.0  0.0645
  C  C546  1  0.250000  0.524950  0.500000  1.0  0.0931
  C  C547  1  0.750000  0.909380  0.500000  1.0  0.0655
  C  C548  1  0.750000  0.975050  0.500000  1.0  0.0927
  C  C549  1  0.590620  0.750000  0.000000  1.0  0.0619
  C  C550  1  0.524950  0.750000  0.000000  1.0  0.0916
  C  C551  1  0.909380  0.250000  0.000000  1.0  0.0644
  C  C552  1  0.975050  0.250000  0.000000  1.0  0.0923
  S  S553  1  0.031280  0.729240  0.748200  1.0  -0.0111
  S  S554  1  0.216920  0.018960  0.748200  1.0  -0.0126
  S  S555  1  0.729240  0.216920  0.248200  1.0  -0.0092
  S  S556  1  0.018960  0.031280  0.248200  1.0  -0.0105
  S  S557  1  0.283080  0.770760  0.251800  1.0  -0.0068
  S  S558  1  0.468720  0.481040  0.251800  1.0  -0.0101
  S  S559  1  0.481040  0.283080  0.751800  1.0  -0.0133
  S  S560  1  0.770760  0.468720  0.751800  1.0  -0.0145
  S  S561  1  0.968720  0.270760  0.251800  1.0  -0.0116
  S  S562  1  0.783080  0.981040  0.251800  1.0  -0.0131
  S  S563  1  0.270760  0.783080  0.751800  1.0  -0.0109
  S  S564  1  0.981040  0.968720  0.751800  1.0  -0.0096
  S  S565  1  0.716920  0.229240  0.748200  1.0  -0.0076
  S  S566  1  0.531280  0.518960  0.748200  1.0  -0.0082
  S  S567  1  0.518960  0.716920  0.248200  1.0  -0.0137
  S  S568  1  0.229240  0.531280  0.248200  1.0  -0.0133
  N  N569  1  0.750000  0.286300  0.500000  1.0  -0.3183
  N  N570  1  0.750000  0.598050  0.500000  1.0  -0.3189
  N  N571  1  0.250000  0.213700  0.500000  1.0  -0.3192
  N  N572  1  0.250000  0.901950  0.500000  1.0  -0.3182
  N  N573  1  0.286300  0.250000  0.000000  1.0  -0.3153
  N  N574  1  0.598050  0.250000  0.000000  1.0  -0.3154
  N  N575  1  0.213700  0.750000  0.000000  1.0  -0.3152
  N  N576  1  0.901950  0.750000  0.000000  1.0  -0.3156
  N  N577  1  0.250000  0.713700  0.500000  1.0  -0.3192
  N  N578  1  0.250000  0.401950  0.500000  1.0  -0.3182
  N  N579  1  0.750000  0.786300  0.500000  1.0  -0.3183
  N  N580  1  0.750000  0.098050  0.500000  1.0  -0.3189
  N  N581  1  0.713700  0.750000  0.000000  1.0  -0.3152
  N  N582  1  0.401950  0.750000  0.000000  1.0  -0.3156
  N  N583  1  0.786300  0.250000  0.000000  1.0  -0.3153
  N  N584  1  0.098050  0.250000  0.000000  1.0  -0.3154
  O  O585  1  0.981930  0.822820  0.696460  1.0  -0.2998
  O  O586  1  0.819490  0.735820  0.586720  1.0  -0.606
  O  O587  1  0.913350  0.747920  0.579980  1.0  -0.5533
  O  O588  1  0.214530  0.873640  0.696460  1.0  -0.2997
  O  O589  1  0.267230  0.850900  0.586720  1.0  -0.6082
  O  O590  1  0.166630  0.832060  0.579980  1.0  -0.5524
  O  O591  1  0.822820  0.214530  0.196460  1.0  -0.3051
  O  O592  1  0.735820  0.267230  0.086720  1.0  -0.6079
  O  O593  1  0.747920  0.166630  0.079980  1.0  -0.5514
  O  O594  1  0.873640  0.981930  0.196460  1.0  -0.3011
  O  O595  1  0.850900  0.819490  0.086720  1.0  -0.6096
  O  O596  1  0.832060  0.913350  0.079980  1.0  -0.5523
  O  O597  1  0.285470  0.677180  0.303540  1.0  -0.3004
  O  O598  1  0.232770  0.764180  0.413280  1.0  -0.6058
  O  O599  1  0.333370  0.752080  0.420020  1.0  -0.5546
  O  O600  1  0.518070  0.626360  0.303540  1.0  -0.2995
  O  O601  1  0.680510  0.649100  0.413280  1.0  -0.6077
  O  O602  1  0.586650  0.667940  0.420020  1.0  -0.5537
  O  O603  1  0.626360  0.285470  0.803540  1.0  -0.303
  O  O604  1  0.649100  0.232770  0.913280  1.0  -0.6076
  O  O605  1  0.667940  0.333370  0.920020  1.0  -0.551
  O  O606  1  0.677180  0.518070  0.803540  1.0  -0.3016
  O  O607  1  0.764180  0.680510  0.913280  1.0  -0.6074
  O  O608  1  0.752080  0.586650  0.920020  1.0  -0.5499
  O  O609  1  0.018070  0.177180  0.303540  1.0  -0.299
  O  O610  1  0.180510  0.264180  0.413280  1.0  -0.6072
  O  O611  1  0.086650  0.252080  0.420020  1.0  -0.5523
  O  O612  1  0.785470  0.126360  0.303540  1.0  -0.2993
  O  O613  1  0.732770  0.149100  0.413280  1.0  -0.6082
  O  O614  1  0.833370  0.167940  0.420020  1.0  -0.5523
  O  O615  1  0.177180  0.785470  0.803540  1.0  -0.304
  O  O616  1  0.264180  0.732770  0.913280  1.0  -0.6068
  O  O617  1  0.252080  0.833370  0.920020  1.0  -0.5509
  O  O618  1  0.126360  0.018070  0.803540  1.0  -0.3015
  O  O619  1  0.149100  0.180510  0.913280  1.0  -0.6103
  O  O620  1  0.167940  0.086650  0.920020  1.0  -0.5533
  O  O621  1  0.714530  0.322820  0.696460  1.0  -0.3002
  O  O622  1  0.767230  0.235820  0.586720  1.0  -0.6048
  O  O623  1  0.666667  0.247920  0.579980  1.0  -0.5521
  O  O624  1  0.481930  0.373640  0.696460  1.0  -0.302
  O  O625  1  0.319490  0.350900  0.586720  1.0  -0.6061
  O  O626  1  0.413350  0.332060  0.579980  1.0  -0.5533
  O  O627  1  0.373640  0.714530  0.196460  1.0  -0.3054
  O  O628  1  0.350900  0.767230  0.086720  1.0  -0.6077
  O  O629  1  0.332060  0.666667  0.079980  1.0  -0.5487
  O  O630  1  0.322820  0.481930  0.196460  1.0  -0.3007
  O  O631  1  0.235820  0.319490  0.086720  1.0  -0.6067
  O  O632  1  0.247920  0.413350  0.079980  1.0  -0.5526
