# generated using pymatgen
data_Na2Co3H132C132S8(N2O7)4
_symmetry_space_group_name_H-M   'P 1'
_cell_length_a   12.72590000
_cell_length_b   18.74860000
_cell_length_c   36.79320000
_cell_angle_alpha   90.00000000
_cell_angle_beta   90.00000000
_cell_angle_gamma   101.45200000
_symmetry_Int_Tables_number   1
_chemical_formula_structural   Na2Co3H132C132S8(N2O7)4
_chemical_formula_sum   'Na4 Co6 H264 C264 S16 N16 O56'
_cell_volume   8603.82328447
_cell_formula_units_Z   2
loop_
 _symmetry_equiv_pos_site_id
 _symmetry_equiv_pos_as_xyz
  1  'x, y, z'
loop_
 _atom_site_type_symbol
 _atom_site_label
 _atom_site_symmetry_multiplicity
 _atom_site_fract_x
 _atom_site_fract_y
 _atom_site_fract_z
 _atom_site_occupancy
 _atom_site_charge
  Na  Na1  1  0.034060  0.019260  0.846110  1.0  0.9291
  Na  Na2  1  0.465940  0.480740  0.346110  1.0  0.9285
  Na  Na3  1  0.965940  0.980740  0.153890  1.0  0.9286
  Na  Na4  1  0.534060  0.519260  0.653890  1.0  0.9292
  Co  Co5  1  0.580530  0.828910  0.710690  1.0  0.9397
  Co  Co6  1  0.919470  0.671090  0.210690  1.0  0.9356
  Co  Co7  1  0.419470  0.171090  0.289310  1.0  0.936
  Co  Co8  1  0.080530  0.328910  0.789310  1.0  0.9395
  Co  Co9  1  0.000000  0.000000  0.000000  1.0  0.7979
  Co  Co10  1  0.500000  0.500000  0.500000  1.0  0.7979
  H  H11  1  0.978000  0.702100  0.796600  1.0  0.1069
  H  H12  1  0.293900  0.783700  0.807600  1.0  0.1031
  H  H13  1  0.309600  0.020500  0.898900  1.0  0.1068
  H  H14  1  0.301700  0.176300  0.824000  1.0  0.1117
  H  H15  1  0.271800  0.019000  0.695400  1.0  0.12
  H  H16  1  0.953700  0.945400  0.685600  1.0  0.099
  H  H17  1  0.765400  0.044800  0.804200  1.0  0.0944
  H  H18  1  0.773700  0.885200  0.877000  1.0  0.1034
  H  H19  1  0.010600  0.841500  0.908100  1.0  0.1091
  H  H20  1  0.137100  0.872800  0.910600  1.0  0.0962
  H  H21  1  0.455800  0.990100  0.771400  1.0  0.1049
  H  H22  1  0.433500  0.922100  0.798600  1.0  0.1131
  H  H23  1  0.123800  0.179300  0.773000  1.0  0.1027
  H  H24  1  0.998800  0.155200  0.763500  1.0  0.1052
  H  H25  1  0.931500  0.785800  0.736800  1.0  0.1113
  H  H26  1  0.850400  0.766400  0.770200  1.0  0.1092
  H  H27  1  0.316800  0.676700  0.783200  1.0  0.108
  H  H28  1  0.293400  0.653500  0.741700  1.0  0.1047
  H  H29  1  0.313600  0.737600  0.753000  1.0  0.1028
  H  H30  1  0.145900  0.591900  0.800800  1.0  0.1084
  H  H31  1  0.036600  0.598800  0.780900  1.0  0.1021
  H  H32  1  0.128800  0.570500  0.758900  1.0  0.0979
  H  H33  1  0.123100  0.664300  0.713000  1.0  0.0963
  H  H34  1  0.032200  0.692200  0.735900  1.0  0.097
  H  H35  1  0.139300  0.748100  0.724600  1.0  0.1121
  H  H36  1  0.161900  0.147200  0.912600  1.0  0.1105
  H  H37  1  0.227600  0.094100  0.932600  1.0  0.1032
  H  H38  1  0.242200  0.177200  0.945100  1.0  0.1128
  H  H39  1  0.464400  0.122600  0.908900  1.0  0.0965
  H  H40  1  0.479900  0.207000  0.919300  1.0  0.1102
  H  H41  1  0.410600  0.146600  0.945000  1.0  0.095
  H  H42  1  0.407400  0.262700  0.882200  1.0  0.1045
  H  H43  1  0.294500  0.241300  0.861800  1.0  0.1029
  H  H44  1  0.298900  0.267100  0.903300  1.0  0.0903
  H  H45  1  0.253600  0.013600  0.627200  1.0  0.1152
  H  H46  1  0.295200  0.955200  0.652300  1.0  0.1035
  H  H47  1  0.251900  0.933200  0.612200  1.0  0.1079
  H  H48  1  0.041400  0.839800  0.667900  1.0  0.1102
  H  H49  1  0.122300  0.828600  0.636000  1.0  0.1033
  H  H50  1  0.166800  0.848700  0.676200  1.0  0.1114
  H  H51  1  0.058700  0.000200  0.614800  1.0  0.1135
  H  H52  1  0.059400  0.921200  0.598500  1.0  0.1033
  H  H53  1  0.976800  0.930700  0.630000  1.0  0.1029
  H  H54  1  0.548200  0.936300  0.866800  1.0  0.1165
  H  H55  1  0.621700  0.913900  0.898500  1.0  0.0991
  H  H56  1  0.559200  0.979100  0.904700  1.0  0.1059
  H  H57  1  0.605200  0.055000  0.835100  1.0  0.102
  H  H58  1  0.615400  0.095000  0.873700  1.0  0.1042
  H  H59  1  0.714900  0.108000  0.846200  1.0  0.0916
  H  H60  1  0.732900  0.061400  0.921200  1.0  0.1059
  H  H61  1  0.794200  0.995700  0.914800  1.0  0.1016
  H  H62  1  0.832100  0.071100  0.893700  1.0  0.1148
  H  H63  1  0.475000  0.201700  0.048700  1.0  0.2994
  H  H64  1  0.902400  0.404800  0.091800  1.0  0.299
  H  H65  1  0.405000  0.029700  0.005600  1.0  0.1212
  H  H66  1  0.229600  0.975900  0.994300  1.0  0.0701
  H  H67  1  0.125700  0.146500  0.029400  1.0  0.0829
  H  H68  1  0.294700  0.205100  0.043100  1.0  0.1175
  H  H69  1  0.765500  0.151400  0.005300  1.0  0.0972
  H  H70  1  0.924300  0.228200  0.021100  1.0  0.109
  H  H71  1  0.924900  0.319500  0.063500  1.0  0.1267
  H  H72  1  0.602400  0.261200  0.071700  1.0  0.1025
  H  H73  1  0.699600  0.476900  0.133800  1.0  0.1184
  H  H74  1  0.733800  0.578000  0.170500  1.0  0.07
  H  H75  1  0.042500  0.581900  0.167900  1.0  0.0854
  H  H76  1  0.018200  0.485500  0.127900  1.0  0.1167
  H  H77  1  0.522000  0.797900  0.296600  1.0  0.1067
  H  H78  1  0.206100  0.716300  0.307600  1.0  0.1037
  H  H79  1  0.190400  0.479500  0.398900  1.0  0.1066
  H  H80  1  0.198300  0.323700  0.324000  1.0  0.1108
  H  H81  1  0.228200  0.481000  0.195400  1.0  0.1199
  H  H82  1  0.546300  0.554600  0.185600  1.0  0.0994
  H  H83  1  0.734600  0.455200  0.304200  1.0  0.0938
  H  H84  1  0.726300  0.614800  0.377000  1.0  0.1037
  H  H85  1  0.489400  0.658500  0.408100  1.0  0.1082
  H  H86  1  0.362900  0.627200  0.410600  1.0  0.0956
  H  H87  1  0.044200  0.509900  0.271400  1.0  0.1046
  H  H88  1  0.066500  0.577900  0.298600  1.0  0.1133
  H  H89  1  0.376200  0.320700  0.273000  1.0  0.1026
  H  H90  1  0.501200  0.344800  0.263500  1.0  0.1042
  H  H91  1  0.568500  0.714200  0.236800  1.0  0.1113
  H  H92  1  0.649600  0.733600  0.270200  1.0  0.1087
  H  H93  1  0.183200  0.823300  0.283200  1.0  0.1078
  H  H94  1  0.206600  0.846500  0.241700  1.0  0.1051
  H  H95  1  0.186400  0.762400  0.253000  1.0  0.1042
  H  H96  1  0.354100  0.908100  0.300800  1.0  0.1084
  H  H97  1  0.463400  0.901200  0.280900  1.0  0.1016
  H  H98  1  0.371200  0.929500  0.258900  1.0  0.0975
  H  H99  1  0.376900  0.835700  0.213000  1.0  0.0956
  H  H100  1  0.467800  0.807800  0.235900  1.0  0.0996
  H  H101  1  0.360700  0.751900  0.224600  1.0  0.1108
  H  H102  1  0.338100  0.352800  0.412600  1.0  0.1107
  H  H103  1  0.272400  0.405900  0.432600  1.0  0.1039
  H  H104  1  0.257800  0.322800  0.445100  1.0  0.1122
  H  H105  1  0.035600  0.377400  0.408900  1.0  0.0965
  H  H106  1  0.020100  0.293000  0.419300  1.0  0.1121
  H  H107  1  0.089400  0.353400  0.445000  1.0  0.0963
  H  H108  1  0.092600  0.237300  0.382200  1.0  0.1051
  H  H109  1  0.205500  0.258700  0.361800  1.0  0.1015
  H  H110  1  0.201100  0.232900  0.403300  1.0  0.0912
  H  H111  1  0.246400  0.486400  0.127200  1.0  0.1137
  H  H112  1  0.204800  0.544800  0.152300  1.0  0.1027
  H  H113  1  0.248100  0.566800  0.112200  1.0  0.1072
  H  H114  1  0.458600  0.660200  0.167900  1.0  0.111
  H  H115  1  0.377700  0.671400  0.136000  1.0  0.1032
  H  H116  1  0.333200  0.651300  0.176200  1.0  0.1113
  H  H117  1  0.441300  0.499800  0.114800  1.0  0.1123
  H  H118  1  0.440600  0.578800  0.098500  1.0  0.104
  H  H119  1  0.523200  0.569300  0.130000  1.0  0.1052
  H  H120  1  0.951800  0.563700  0.366800  1.0  0.1172
  H  H121  1  0.878300  0.586100  0.398500  1.0  0.0979
  H  H122  1  0.940800  0.520900  0.404700  1.0  0.1061
  H  H123  1  0.894800  0.445000  0.335100  1.0  0.1017
  H  H124  1  0.884600  0.405000  0.373700  1.0  0.1041
  H  H125  1  0.785100  0.392000  0.346200  1.0  0.091
  H  H126  1  0.767100  0.438600  0.421200  1.0  0.1067
  H  H127  1  0.705800  0.504300  0.414800  1.0  0.1014
  H  H128  1  0.667900  0.428900  0.393700  1.0  0.1143
  H  H129  1  0.025000  0.298300  0.548700  1.0  0.3003
  H  H130  1  0.597600  0.095200  0.591800  1.0  0.2995
  H  H131  1  0.095000  0.470300  0.505600  1.0  0.1213
  H  H132  1  0.270400  0.524100  0.494300  1.0  0.0699
  H  H133  1  0.374300  0.353500  0.529400  1.0  0.0836
  H  H134  1  0.205300  0.294900  0.543100  1.0  0.1187
  H  H135  1  0.734500  0.348600  0.505300  1.0  0.0966
  H  H136  1  0.575700  0.271800  0.521100  1.0  0.109
  H  H137  1  0.575100  0.180500  0.563500  1.0  0.1259
  H  H138  1  0.897600  0.238800  0.571700  1.0  0.1006
  H  H139  1  0.800400  0.023100  0.633800  1.0  0.1174
  H  H140  1  0.766200  0.922000  0.670500  1.0  0.0702
  H  H141  1  0.457500  0.918100  0.667900  1.0  0.0858
  H  H142  1  0.481800  0.014500  0.627900  1.0  0.1173
  H  H143  1  0.022000  0.297900  0.203400  1.0  0.1073
  H  H144  1  0.706100  0.216300  0.192400  1.0  0.1038
  H  H145  1  0.690400  0.979500  0.101100  1.0  0.1071
  H  H146  1  0.698300  0.823700  0.176000  1.0  0.1115
  H  H147  1  0.728200  0.981000  0.304600  1.0  0.1203
  H  H148  1  0.046300  0.054600  0.314400  1.0  0.099
  H  H149  1  0.234600  0.955200  0.195800  1.0  0.0938
  H  H150  1  0.226300  0.114800  0.123000  1.0  0.1044
  H  H151  1  0.989400  0.158500  0.091900  1.0  0.1081
  H  H152  1  0.862900  0.127200  0.089400  1.0  0.0957
  H  H153  1  0.544200  0.009900  0.228600  1.0  0.1045
  H  H154  1  0.566500  0.077900  0.201400  1.0  0.1116
  H  H155  1  0.876200  0.820700  0.227000  1.0  0.1027
  H  H156  1  0.001200  0.844800  0.236500  1.0  0.1052
  H  H157  1  0.068500  0.214200  0.263200  1.0  0.1117
  H  H158  1  0.149600  0.233600  0.229800  1.0  0.1088
  H  H159  1  0.683200  0.323300  0.216800  1.0  0.1078
  H  H160  1  0.706600  0.346500  0.258300  1.0  0.1054
  H  H161  1  0.686400  0.262400  0.247000  1.0  0.1048
  H  H162  1  0.854100  0.408100  0.199200  1.0  0.1077
  H  H163  1  0.963400  0.401200  0.219100  1.0  0.1011
  H  H164  1  0.871200  0.429500  0.241100  1.0  0.0975
  H  H165  1  0.876900  0.335700  0.287000  1.0  0.0959
  H  H166  1  0.967800  0.307800  0.264100  1.0  0.0998
  H  H167  1  0.860700  0.251900  0.275400  1.0  0.111
  H  H168  1  0.838100  0.852800  0.087400  1.0  0.1105
  H  H169  1  0.772400  0.905900  0.067400  1.0  0.1028
  H  H170  1  0.757800  0.822800  0.054900  1.0  0.1122
  H  H171  1  0.535600  0.877400  0.091100  1.0  0.0961
  H  H172  1  0.520100  0.793000  0.080700  1.0  0.1115
  H  H173  1  0.589400  0.853400  0.055000  1.0  0.0959
  H  H174  1  0.592600  0.737300  0.117800  1.0  0.1041
  H  H175  1  0.705500  0.758700  0.138200  1.0  0.1034
  H  H176  1  0.701100  0.732900  0.096700  1.0  0.0902
  H  H177  1  0.746400  0.986400  0.372800  1.0  0.1141
  H  H178  1  0.704800  0.044800  0.347700  1.0  0.1027
  H  H179  1  0.748100  0.066800  0.387800  1.0  0.1063
  H  H180  1  0.958600  0.160200  0.332100  1.0  0.1106
  H  H181  1  0.877700  0.171400  0.364000  1.0  0.103
  H  H182  1  0.833200  0.151300  0.323800  1.0  0.1115
  H  H183  1  0.941300  0.999800  0.385200  1.0  0.1134
  H  H184  1  0.940600  0.078800  0.401500  1.0  0.1038
  H  H185  1  0.023200  0.069300  0.370000  1.0  0.1036
  H  H186  1  0.451800  0.063700  0.133200  1.0  0.1163
  H  H187  1  0.378300  0.086100  0.101500  1.0  0.0984
  H  H188  1  0.440800  0.020900  0.095300  1.0  0.1057
  H  H189  1  0.394800  0.945000  0.164900  1.0  0.1023
  H  H190  1  0.384600  0.905000  0.126300  1.0  0.1036
  H  H191  1  0.285100  0.892000  0.153800  1.0  0.0911
  H  H192  1  0.267100  0.938600  0.078800  1.0  0.1062
  H  H193  1  0.205800  0.004300  0.085200  1.0  0.1015
  H  H194  1  0.167900  0.928900  0.106300  1.0  0.1145
  H  H195  1  0.525000  0.798300  0.951300  1.0  0.3008
  H  H196  1  0.097600  0.595200  0.908200  1.0  0.298
  H  H197  1  0.595000  0.970300  0.994400  1.0  0.1213
  H  H198  1  0.770400  0.024100  0.005700  1.0  0.0698
  H  H199  1  0.874300  0.853500  0.970600  1.0  0.0836
  H  H200  1  0.705300  0.794900  0.956900  1.0  0.119
  H  H201  1  0.234500  0.848600  0.994700  1.0  0.0968
  H  H202  1  0.075700  0.771800  0.978900  1.0  0.1096
  H  H203  1  0.075100  0.680500  0.936500  1.0  0.1258
  H  H204  1  0.397600  0.738800  0.928300  1.0  0.1014
  H  H205  1  0.300400  0.523100  0.866200  1.0  0.1188
  H  H206  1  0.266200  0.422000  0.829500  1.0  0.0706
  H  H207  1  0.957500  0.418100  0.832100  1.0  0.0857
  H  H208  1  0.981800  0.514500  0.872100  1.0  0.117
  H  H209  1  0.478000  0.202100  0.703400  1.0  0.1065
  H  H210  1  0.793900  0.283700  0.692400  1.0  0.1036
  H  H211  1  0.809600  0.520500  0.601100  1.0  0.1067
  H  H212  1  0.801700  0.676300  0.676000  1.0  0.1117
  H  H213  1  0.771800  0.519000  0.804600  1.0  0.1201
  H  H214  1  0.453700  0.445400  0.814400  1.0  0.0986
  H  H215  1  0.265400  0.544800  0.695800  1.0  0.0934
  H  H216  1  0.273700  0.385200  0.623000  1.0  0.1038
  H  H217  1  0.510600  0.341500  0.591900  1.0  0.1085
  H  H218  1  0.637100  0.372800  0.589400  1.0  0.0951
  H  H219  1  0.955800  0.490100  0.728600  1.0  0.1048
  H  H220  1  0.933500  0.422100  0.701400  1.0  0.1114
  H  H221  1  0.623800  0.679300  0.727000  1.0  0.1029
  H  H222  1  0.498800  0.655200  0.736500  1.0  0.1051
  H  H223  1  0.431500  0.285800  0.763200  1.0  0.1125
  H  H224  1  0.350400  0.266400  0.729800  1.0  0.1082
  H  H225  1  0.816800  0.176700  0.716800  1.0  0.1092
  H  H226  1  0.793400  0.153500  0.758300  1.0  0.105
  H  H227  1  0.813600  0.237600  0.747000  1.0  0.1028
  H  H228  1  0.645900  0.091900  0.699200  1.0  0.1075
  H  H229  1  0.536600  0.098800  0.719100  1.0  0.1013
  H  H230  1  0.628800  0.070500  0.741100  1.0  0.0989
  H  H231  1  0.623100  0.164300  0.787000  1.0  0.0972
  H  H232  1  0.532200  0.192200  0.764100  1.0  0.0971
  H  H233  1  0.639300  0.248100  0.775400  1.0  0.1118
  H  H234  1  0.661900  0.647200  0.587400  1.0  0.1099
  H  H235  1  0.727600  0.594100  0.567400  1.0  0.1017
  H  H236  1  0.742200  0.677200  0.554900  1.0  0.1131
  H  H237  1  0.964400  0.622600  0.591100  1.0  0.0964
  H  H238  1  0.979900  0.707000  0.580700  1.0  0.1108
  H  H239  1  0.910600  0.646600  0.555000  1.0  0.0957
  H  H240  1  0.907400  0.762700  0.617800  1.0  0.1043
  H  H241  1  0.794500  0.741300  0.638200  1.0  0.1042
  H  H242  1  0.798900  0.767100  0.596700  1.0  0.09
  H  H243  1  0.753600  0.513600  0.872800  1.0  0.1146
  H  H244  1  0.795200  0.455200  0.847700  1.0  0.1033
  H  H245  1  0.751900  0.433200  0.887800  1.0  0.106
  H  H246  1  0.541400  0.339800  0.832100  1.0  0.1109
  H  H247  1  0.622300  0.328600  0.864000  1.0  0.1039
  H  H248  1  0.666800  0.348700  0.823800  1.0  0.1114
  H  H249  1  0.558700  0.500200  0.885200  1.0  0.1122
  H  H250  1  0.559400  0.421200  0.901500  1.0  0.1033
  H  H251  1  0.476800  0.430700  0.870000  1.0  0.1026
  H  H252  1  0.048200  0.436300  0.633200  1.0  0.1164
  H  H253  1  0.121700  0.413900  0.601500  1.0  0.0988
  H  H254  1  0.059200  0.479100  0.595300  1.0  0.1058
  H  H255  1  0.105200  0.555000  0.664900  1.0  0.102
  H  H256  1  0.115400  0.595000  0.626300  1.0  0.1053
  H  H257  1  0.214900  0.608000  0.653800  1.0  0.091
  H  H258  1  0.232900  0.561400  0.578800  1.0  0.107
  H  H259  1  0.294200  0.495700  0.585200  1.0  0.1017
  H  H260  1  0.332100  0.571100  0.606300  1.0  0.1152
  H  H261  1  0.975000  0.701700  0.451300  1.0  0.3002
  H  H262  1  0.402400  0.904800  0.408200  1.0  0.2978
  H  H263  1  0.905000  0.529700  0.494400  1.0  0.1214
  H  H264  1  0.729600  0.475900  0.505700  1.0  0.0701
  H  H265  1  0.625700  0.646500  0.470600  1.0  0.0827
  H  H266  1  0.794700  0.705100  0.456900  1.0  0.1187
  H  H267  1  0.265500  0.651400  0.494700  1.0  0.0975
  H  H268  1  0.424300  0.728200  0.478900  1.0  0.109
  H  H269  1  0.424900  0.819500  0.436500  1.0  0.1263
  H  H270  1  0.102400  0.761200  0.428300  1.0  0.1032
  H  H271  1  0.199600  0.976900  0.366200  1.0  0.1178
  H  H272  1  0.233800  0.078000  0.329500  1.0  0.0708
  H  H273  1  0.542500  0.081900  0.332100  1.0  0.0857
  H  H274  1  0.518200  0.985500  0.372100  1.0  0.1168
  C  C275  1  0.094070  0.842870  0.843880  1.0  0.1974
  C  C276  1  0.010780  0.791080  0.829380  1.0  -0.0835
  C  C277  1  0.035020  0.737720  0.806140  1.0  -0.0927
  C  C278  1  0.140230  0.734930  0.796480  1.0  0.0541
  C  C279  1  0.221300  0.785400  0.812820  1.0  -0.1096
  C  C280  1  0.199080  0.838280  0.836510  1.0  -0.0051
  C  C281  1  0.300840  0.004140  0.810750  1.0  0.199
  C  C282  1  0.302330  0.983430  0.846910  1.0  -0.0745
  C  C283  1  0.308100  0.035400  0.874230  1.0  -0.0712
  C  C284  1  0.311600  0.108300  0.866560  1.0  0.003
  C  C285  1  0.303400  0.127300  0.830100  1.0  -0.0638
  C  C286  1  0.297700  0.076300  0.802610  1.0  -0.0732
  C  C287  1  0.080960  0.044460  0.750590  1.0  0.2247
  C  C288  1  0.184230  0.049630  0.736940  1.0  -0.0568
  C  C289  1  0.200700  0.015800  0.704140  1.0  -0.0816
  C  C290  1  0.115700  0.977700  0.684100  1.0  0.0165
  C  C291  1  0.013100  0.972600  0.698450  1.0  -0.1292
  C  C292  1  0.995260  0.005660  0.730490  1.0  -0.0754
  C  C293  1  0.867960  0.899860  0.794230  1.0  0.2229
  C  C294  1  0.840150  0.966150  0.785800  1.0  -0.0279
  C  C295  1  0.783900  0.999800  0.810620  1.0  -0.1071
  C  C296  1  0.753700  0.970000  0.844610  1.0  0.0513
  C  C297  1  0.788800  0.905600  0.853460  1.0  -0.0844
  C  C298  1  0.844990  0.870790  0.828950  1.0  -0.0691
  C  C299  1  0.067800  0.884400  0.902970  1.0  -0.0469
  C  C300  1  0.047400  0.948100  0.924050  1.0  0.7261
  C  C301  1  0.407400  0.942900  0.776390  1.0  -0.061
  C  C302  1  0.411900  0.891800  0.744740  1.0  0.7202
  C  C303  1  0.054710  0.149810  0.781380  1.0  -0.0872
  C  C304  1  0.026400  0.176400  0.817920  1.0  0.7161
  C  C305  1  0.876700  0.803500  0.751450  1.0  -0.0701
  C  C306  1  0.784460  0.811660  0.727050  1.0  0.7312
  C  C307  1  0.162900  0.681300  0.767210  1.0  0.2011
  C  C308  1  0.282300  0.687900  0.760700  1.0  -0.3922
  C  C309  1  0.114300  0.603800  0.777890  1.0  -0.3806
  C  C310  1  0.109700  0.698000  0.732080  1.0  -0.3725
  C  C311  1  0.322100  0.165400  0.896780  1.0  0.0983
  C  C312  1  0.230100  0.144000  0.924300  1.0  -0.3387
  C  C313  1  0.430100  0.159900  0.919800  1.0  -0.3369
  C  C314  1  0.331500  0.240200  0.885100  1.0  -0.3565
  C  C315  1  0.130400  0.937100  0.648770  1.0  0.2037
  C  C316  1  0.242800  0.962000  0.633810  1.0  -0.3886
  C  C317  1  0.113700  0.856300  0.658040  1.0  -0.3798
  C  C318  1  0.049200  0.948300  0.620560  1.0  -0.3799
  C  C319  1  0.693200  0.008700  0.871990  1.0  0.1814
  C  C320  1  0.597000  0.954700  0.886830  1.0  -0.3788
  C  C321  1  0.653700  0.072300  0.855270  1.0  -0.3879
  C  C322  1  0.770100  0.036800  0.903240  1.0  -0.3725
  C  C323  1  0.349000  0.054900  0.010890  1.0  -0.2547
  C  C324  1  0.243900  0.023600  0.004260  1.0  0.1621
  C  C325  1  0.183400  0.122400  0.024760  1.0  0.1742
  C  C326  1  0.283500  0.157800  0.032710  1.0  -0.2557
  C  C327  1  0.371400  0.125100  0.025660  1.0  0.2299
  C  C328  1  0.568400  0.148400  0.023910  1.0  0.538
  C  C329  1  0.668000  0.199200  0.036290  1.0  -0.1303
  C  C330  1  0.764400  0.189800  0.022100  1.0  -0.0624
  C  C331  1  0.858800  0.234800  0.031670  1.0  -0.1351
  C  C332  1  0.859100  0.289100  0.056410  1.0  -0.0884
  C  C333  1  0.761500  0.300000  0.071370  1.0  -0.0986
  C  C334  1  0.668300  0.254700  0.061330  1.0  -0.1141
  C  C335  1  0.755400  0.358900  0.097580  1.0  0.5098
  C  C336  1  0.855500  0.469600  0.126910  1.0  0.2647
  C  C337  1  0.771500  0.498300  0.140100  1.0  -0.2175
  C  C338  1  0.792700  0.558000  0.162400  1.0  0.1753
  C  C339  1  0.971700  0.560800  0.160400  1.0  0.1644
  C  C340  1  0.957900  0.502700  0.137040  1.0  -0.2644
  C  C341  1  0.405930  0.657130  0.343880  1.0  0.1977
  C  C342  1  0.489220  0.708920  0.329380  1.0  -0.0849
  C  C343  1  0.464980  0.762280  0.306140  1.0  -0.0919
  C  C344  1  0.359770  0.765070  0.296480  1.0  0.053
  C  C345  1  0.278700  0.714600  0.312820  1.0  -0.1109
  C  C346  1  0.300920  0.661720  0.336510  1.0  -0.0053
  C  C347  1  0.199160  0.495860  0.310750  1.0  0.1994
  C  C348  1  0.197670  0.516570  0.346910  1.0  -0.0753
  C  C349  1  0.191900  0.464600  0.374230  1.0  -0.071
  C  C350  1  0.188400  0.391700  0.366560  1.0  0.0034
  C  C351  1  0.196600  0.372700  0.330100  1.0  -0.0627
  C  C352  1  0.202300  0.423700  0.302610  1.0  -0.0728
  C  C353  1  0.419040  0.455540  0.250590  1.0  0.2251
  C  C354  1  0.315770  0.450370  0.236940  1.0  -0.0566
  C  C355  1  0.299300  0.484200  0.204140  1.0  -0.0819
  C  C356  1  0.384300  0.522300  0.184100  1.0  0.0172
  C  C357  1  0.486900  0.527400  0.198450  1.0  -0.1273
  C  C358  1  0.504740  0.494340  0.230490  1.0  -0.0761
  C  C359  1  0.632040  0.600140  0.294230  1.0  0.222
  C  C360  1  0.659850  0.533850  0.285800  1.0  -0.0275
  C  C361  1  0.716100  0.500200  0.310620  1.0  -0.1054
  C  C362  1  0.746300  0.530000  0.344610  1.0  0.0512
  C  C363  1  0.711200  0.594400  0.353460  1.0  -0.0858
  C  C364  1  0.655010  0.629210  0.328950  1.0  -0.0701
  C  C365  1  0.432200  0.615600  0.402970  1.0  -0.0474
  C  C366  1  0.452600  0.551900  0.424050  1.0  0.7263
  C  C367  1  0.092600  0.557100  0.276390  1.0  -0.0625
  C  C368  1  0.088100  0.608200  0.244740  1.0  0.7197
  C  C369  1  0.445290  0.350190  0.281380  1.0  -0.0862
  C  C370  1  0.473600  0.323600  0.317920  1.0  0.7152
  C  C371  1  0.623300  0.696500  0.251450  1.0  -0.0709
  C  C372  1  0.715540  0.688340  0.227050  1.0  0.7316
  C  C373  1  0.337100  0.818700  0.267210  1.0  0.2017
  C  C374  1  0.217700  0.812100  0.260700  1.0  -0.3926
  C  C375  1  0.385700  0.896200  0.277890  1.0  -0.3796
  C  C376  1  0.390300  0.802000  0.232080  1.0  -0.3732
  C  C377  1  0.177900  0.334600  0.396780  1.0  0.0984
  C  C378  1  0.269900  0.356000  0.424300  1.0  -0.3356
  C  C379  1  0.069900  0.340100  0.419800  1.0  -0.3392
  C  C380  1  0.168500  0.259800  0.385100  1.0  -0.358
  C  C381  1  0.369600  0.562900  0.148770  1.0  0.2046
  C  C382  1  0.257200  0.538000  0.133810  1.0  -0.3891
  C  C383  1  0.386300  0.643700  0.158040  1.0  -0.3783
  C  C384  1  0.450800  0.551700  0.120560  1.0  -0.3818
  C  C385  1  0.806800  0.491300  0.371990  1.0  0.1828
  C  C386  1  0.903000  0.545300  0.386830  1.0  -0.3789
  C  C387  1  0.846300  0.427700  0.355270  1.0  -0.3882
  C  C388  1  0.729900  0.463200  0.403240  1.0  -0.372
  C  C389  1  0.151000  0.445100  0.510890  1.0  -0.255
  C  C390  1  0.256100  0.476400  0.504260  1.0  0.1636
  C  C391  1  0.316600  0.377600  0.524760  1.0  0.1732
  C  C392  1  0.216500  0.342200  0.532710  1.0  -0.2607
  C  C393  1  0.128600  0.374900  0.525660  1.0  0.2301
  C  C394  1  0.931600  0.351600  0.523910  1.0  0.5387
  C  C395  1  0.832000  0.300800  0.536290  1.0  -0.1292
  C  C396  1  0.735600  0.310200  0.522100  1.0  -0.0623
  C  C397  1  0.641200  0.265200  0.531670  1.0  -0.1356
  C  C398  1  0.640900  0.210900  0.556410  1.0  -0.0895
  C  C399  1  0.738500  0.200000  0.571370  1.0  -0.0991
  C  C400  1  0.831700  0.245300  0.561330  1.0  -0.1133
  C  C401  1  0.744600  0.141100  0.597580  1.0  0.5107
  C  C402  1  0.644500  0.030400  0.626910  1.0  0.2637
  C  C403  1  0.728500  0.001700  0.640100  1.0  -0.2174
  C  C404  1  0.707300  0.942000  0.662400  1.0  0.1753
  C  C405  1  0.528300  0.939200  0.660400  1.0  0.1624
  C  C406  1  0.542100  0.997300  0.637040  1.0  -0.2678
  C  C407  1  0.905930  0.157130  0.156120  1.0  0.1971
  C  C408  1  0.989220  0.208920  0.170620  1.0  -0.0833
  C  C409  1  0.964980  0.262280  0.193860  1.0  -0.0935
  C  C410  1  0.859770  0.265070  0.203520  1.0  0.0531
  C  C411  1  0.778700  0.214600  0.187180  1.0  -0.1102
  C  C412  1  0.800920  0.161720  0.163490  1.0  -0.0052
  C  C413  1  0.699160  0.995860  0.189250  1.0  0.1993
  C  C414  1  0.697670  0.016570  0.153090  1.0  -0.0754
  C  C415  1  0.691900  0.964600  0.125770  1.0  -0.0715
  C  C416  1  0.688400  0.891700  0.133440  1.0  0.0025
  C  C417  1  0.696600  0.872700  0.169900  1.0  -0.0628
  C  C418  1  0.702300  0.923700  0.197390  1.0  -0.0732
  C  C419  1  0.919040  0.955540  0.249410  1.0  0.2252
  C  C420  1  0.815770  0.950370  0.263060  1.0  -0.0561
  C  C421  1  0.799300  0.984200  0.295860  1.0  -0.0818
  C  C422  1  0.884300  0.022300  0.315900  1.0  0.0164
  C  C423  1  0.986900  0.027400  0.301550  1.0  -0.1276
  C  C424  1  0.004740  0.994340  0.269510  1.0  -0.0768
  C  C425  1  0.132040  0.100140  0.205770  1.0  0.2217
  C  C426  1  0.159850  0.033850  0.214200  1.0  -0.0273
  C  C427  1  0.216100  0.000200  0.189380  1.0  -0.1069
  C  C428  1  0.246300  0.030000  0.155390  1.0  0.0491
  C  C429  1  0.211200  0.094400  0.146540  1.0  -0.0885
  C  C430  1  0.155010  0.129210  0.171050  1.0  -0.0705
  C  C431  1  0.932200  0.115600  0.097030  1.0  -0.0472
  C  C432  1  0.952600  0.051900  0.075950  1.0  0.726
  C  C433  1  0.592600  0.057100  0.223610  1.0  -0.0625
  C  C434  1  0.588100  0.108200  0.255260  1.0  0.7199
  C  C435  1  0.945290  0.850190  0.218620  1.0  -0.0875
  C  C436  1  0.973600  0.823600  0.182080  1.0  0.7148
  C  C437  1  0.123300  0.196500  0.248550  1.0  -0.0717
  C  C438  1  0.215540  0.188340  0.272950  1.0  0.7329
  C  C439  1  0.837100  0.318700  0.232790  1.0  0.201
  C  C440  1  0.717700  0.312100  0.239300  1.0  -0.393
  C  C441  1  0.885700  0.396200  0.222110  1.0  -0.3796
  C  C442  1  0.890300  0.302000  0.267920  1.0  -0.374
  C  C443  1  0.677900  0.834600  0.103220  1.0  0.0988
  C  C444  1  0.769900  0.856000  0.075700  1.0  -0.3373
  C  C445  1  0.569900  0.840100  0.080200  1.0  -0.339
  C  C446  1  0.668500  0.759800  0.114900  1.0  -0.359
  C  C447  1  0.869600  0.062900  0.351230  1.0  0.2043
  C  C448  1  0.757200  0.038000  0.366190  1.0  -0.3888
  C  C449  1  0.886300  0.143700  0.341960  1.0  -0.3776
  C  C450  1  0.950800  0.051700  0.379440  1.0  -0.38
  C  C451  1  0.306800  0.991300  0.128010  1.0  0.1826
  C  C452  1  0.403000  0.045300  0.113170  1.0  -0.3784
  C  C453  1  0.346300  0.927700  0.144730  1.0  -0.3883
  C  C454  1  0.229900  0.963200  0.096760  1.0  -0.3717
  C  C455  1  0.651000  0.945100  0.989110  1.0  -0.2547
  C  C456  1  0.756100  0.976400  0.995740  1.0  0.1636
  C  C457  1  0.816600  0.877600  0.975240  1.0  0.1731
  C  C458  1  0.716500  0.842200  0.967290  1.0  -0.2602
  C  C459  1  0.628600  0.874900  0.974340  1.0  0.2302
  C  C460  1  0.431600  0.851600  0.976090  1.0  0.5377
  C  C461  1  0.332000  0.800800  0.963710  1.0  -0.1291
  C  C462  1  0.235600  0.810200  0.977900  1.0  -0.0634
  C  C463  1  0.141200  0.765200  0.968330  1.0  -0.1374
  C  C464  1  0.140900  0.710900  0.943590  1.0  -0.0908
  C  C465  1  0.238500  0.700000  0.928630  1.0  -0.0974
  C  C466  1  0.331700  0.745300  0.938670  1.0  -0.113
  C  C467  1  0.244600  0.641100  0.902420  1.0  0.5101
  C  C468  1  0.144500  0.530400  0.873090  1.0  0.2643
  C  C469  1  0.228500  0.501700  0.859900  1.0  -0.2166
  C  C470  1  0.207300  0.442000  0.837600  1.0  0.176
  C  C471  1  0.028300  0.439200  0.839600  1.0  0.1626
  C  C472  1  0.042100  0.497300  0.862960  1.0  -0.2673
  C  C473  1  0.594070  0.342870  0.656120  1.0  0.197
  C  C474  1  0.510780  0.291080  0.670620  1.0  -0.0825
  C  C475  1  0.535020  0.237720  0.693860  1.0  -0.0935
  C  C476  1  0.640230  0.234930  0.703520  1.0  0.0535
  C  C477  1  0.721300  0.285400  0.687180  1.0  -0.1099
  C  C478  1  0.699080  0.338280  0.663490  1.0  -0.0057
  C  C479  1  0.800840  0.504140  0.689250  1.0  0.199
  C  C480  1  0.802330  0.483430  0.653090  1.0  -0.0744
  C  C481  1  0.808100  0.535400  0.625770  1.0  -0.0716
  C  C482  1  0.811600  0.608300  0.633440  1.0  0.0016
  C  C483  1  0.803400  0.627300  0.669900  1.0  -0.0639
  C  C484  1  0.797700  0.576300  0.697390  1.0  -0.0735
  C  C485  1  0.580960  0.544460  0.749410  1.0  0.2247
  C  C486  1  0.684230  0.549630  0.763060  1.0  -0.0563
  C  C487  1  0.700700  0.515800  0.795860  1.0  -0.0818
  C  C488  1  0.615700  0.477700  0.815900  1.0  0.0169
  C  C489  1  0.513100  0.472600  0.801550  1.0  -0.1285
  C  C490  1  0.495260  0.505660  0.769510  1.0  -0.0759
  C  C491  1  0.367960  0.399860  0.705770  1.0  0.2225
  C  C492  1  0.340150  0.466150  0.714200  1.0  -0.0271
  C  C493  1  0.283900  0.499800  0.689380  1.0  -0.1071
  C  C494  1  0.253700  0.470000  0.655390  1.0  0.05
  C  C495  1  0.288800  0.405600  0.646540  1.0  -0.0858
  C  C496  1  0.344990  0.370790  0.671050  1.0  -0.0693
  C  C497  1  0.567800  0.384400  0.597030  1.0  -0.0466
  C  C498  1  0.547400  0.448100  0.575950  1.0  0.7267
  C  C499  1  0.907400  0.442900  0.723610  1.0  -0.0612
  C  C500  1  0.911900  0.391800  0.755260  1.0  0.721
  C  C501  1  0.554710  0.649810  0.718620  1.0  -0.0881
  C  C502  1  0.526400  0.676400  0.682080  1.0  0.7161
  C  C503  1  0.376700  0.303500  0.748550  1.0  -0.071
  C  C504  1  0.284460  0.311660  0.772950  1.0  0.7321
  C  C505  1  0.662900  0.181300  0.732790  1.0  0.2006
  C  C506  1  0.782300  0.187900  0.739300  1.0  -0.3927
  C  C507  1  0.614300  0.103800  0.722110  1.0  -0.3802
  C  C508  1  0.609700  0.198000  0.767920  1.0  -0.3736
  C  C509  1  0.822100  0.665400  0.603220  1.0  0.0978
  C  C510  1  0.730100  0.644000  0.575700  1.0  -0.3393
  C  C511  1  0.930100  0.659900  0.580200  1.0  -0.3381
  C  C512  1  0.831500  0.740200  0.614900  1.0  -0.3577
  C  C513  1  0.630400  0.437100  0.851230  1.0  0.2034
  C  C514  1  0.742800  0.462000  0.866190  1.0  -0.3894
  C  C515  1  0.613700  0.356300  0.841960  1.0  -0.379
  C  C516  1  0.549200  0.448300  0.879440  1.0  -0.3814
  C  C517  1  0.193200  0.508700  0.628010  1.0  0.1812
  C  C518  1  0.097000  0.454700  0.613170  1.0  -0.3782
  C  C519  1  0.153700  0.572300  0.644730  1.0  -0.3888
  C  C520  1  0.270100  0.536800  0.596760  1.0  -0.3728
  C  C521  1  0.849000  0.554900  0.489110  1.0  -0.2546
  C  C522  1  0.743900  0.523600  0.495740  1.0  0.1625
  C  C523  1  0.683400  0.622400  0.475240  1.0  0.1746
  C  C524  1  0.783500  0.657800  0.467290  1.0  -0.2563
  C  C525  1  0.871400  0.625100  0.474340  1.0  0.2301
  C  C526  1  0.068400  0.648400  0.476090  1.0  0.5373
  C  C527  1  0.168000  0.699200  0.463710  1.0  -0.1293
  C  C528  1  0.264400  0.689800  0.477900  1.0  -0.0623
  C  C529  1  0.358800  0.734800  0.468330  1.0  -0.1357
  C  C530  1  0.359100  0.789100  0.443590  1.0  -0.0893
  C  C531  1  0.261500  0.800000  0.428630  1.0  -0.0968
  C  C532  1  0.168300  0.754700  0.438670  1.0  -0.114
  C  C533  1  0.255400  0.858900  0.402420  1.0  0.5104
  C  C534  1  0.355500  0.969600  0.373090  1.0  0.2631
  C  C535  1  0.271500  0.998300  0.359900  1.0  -0.2181
  C  C536  1  0.292700  0.058000  0.337600  1.0  0.1757
  C  C537  1  0.471700  0.060800  0.339600  1.0  0.1636
  C  C538  1  0.457900  0.002700  0.362960  1.0  -0.2625
  S  S539  1  0.308090  0.893180  0.860060  1.0  -0.0338
  S  S540  1  0.298010  0.106170  0.757080  1.0  -0.0355
  S  S541  1  0.859810  0.005090  0.742120  1.0  -0.0156
  S  S542  1  0.875480  0.786400  0.842670  1.0  -0.036
  S  S543  1  0.191910  0.606820  0.360060  1.0  -0.0341
  S  S544  1  0.201990  0.393830  0.257080  1.0  -0.0366
  S  S545  1  0.640190  0.494910  0.242120  1.0  -0.0175
  S  S546  1  0.624520  0.713600  0.342670  1.0  -0.0369
  S  S547  1  0.691910  0.106820  0.139940  1.0  -0.0322
  S  S548  1  0.701990  0.893830  0.242920  1.0  -0.0382
  S  S549  1  0.140190  0.994910  0.257880  1.0  -0.0184
  S  S550  1  0.124520  0.213600  0.157330  1.0  -0.0365
  S  S551  1  0.808090  0.393180  0.639940  1.0  -0.0317
  S  S552  1  0.798010  0.606170  0.742920  1.0  -0.0373
  S  S553  1  0.359810  0.505090  0.757880  1.0  -0.0171
  S  S554  1  0.375480  0.286400  0.657330  1.0  -0.0358
  N  N555  1  0.160080  0.054680  0.010670  1.0  -0.349
  N  N556  1  0.472400  0.163500  0.034600  1.0  -0.3124
  N  N557  1  0.844500  0.409900  0.103790  1.0  -0.4031
  N  N558  1  0.889760  0.589660  0.173350  1.0  -0.3237
  N  N559  1  0.339920  0.445320  0.510670  1.0  -0.347
  N  N560  1  0.027600  0.336500  0.534600  1.0  -0.3124
  N  N561  1  0.655500  0.090100  0.603790  1.0  -0.4033
  N  N562  1  0.610240  0.910340  0.673350  1.0  -0.3259
  N  N563  1  0.839920  0.945320  0.989330  1.0  -0.347
  N  N564  1  0.527600  0.836500  0.965400  1.0  -0.3123
  N  N565  1  0.155500  0.590100  0.896210  1.0  -0.4045
  N  N566  1  0.110240  0.410340  0.826650  1.0  -0.3246
  N  N567  1  0.660080  0.554680  0.489330  1.0  -0.3486
  N  N568  1  0.972400  0.663500  0.465400  1.0  -0.3123
  N  N569  1  0.344500  0.909900  0.396210  1.0  -0.404
  N  N570  1  0.389760  0.089660  0.326650  1.0  -0.3229
  O  O571  1  0.070420  0.899620  0.864560  1.0  -0.4079
  O  O572  1  0.051350  0.940250  0.957900  1.0  -0.608
  O  O573  1  0.027260  0.002260  0.907840  1.0  -0.6126
  O  O574  1  0.301610  0.954910  0.782770  1.0  -0.3238
  O  O575  1  0.493730  0.862530  0.747340  1.0  -0.6067
  O  O576  1  0.345700  0.883500  0.720580  1.0  -0.5293
  O  O577  1  0.063130  0.074030  0.783930  1.0  -0.4324
  O  O578  1  0.023550  0.244050  0.818920  1.0  -0.628
  O  O579  1  0.005810  0.134610  0.843710  1.0  -0.6069
  O  O580  1  0.926040  0.870140  0.769180  1.0  -0.2735
  O  O581  1  0.700510  0.821610  0.742850  1.0  -0.5971
  O  O582  1  0.793890  0.807390  0.693970  1.0  -0.5583
  O  O583  1  0.572800  0.098000  0.003130  1.0  -0.542
  O  O584  1  0.669400  0.361800  0.112650  1.0  -0.5046
  O  O585  1  0.429580  0.600380  0.364560  1.0  -0.4076
  O  O586  1  0.448650  0.559750  0.457900  1.0  -0.6082
  O  O587  1  0.472740  0.497740  0.407840  1.0  -0.6123
  O  O588  1  0.198390  0.545090  0.282770  1.0  -0.3236
  O  O589  1  0.006270  0.637470  0.247340  1.0  -0.6063
  O  O590  1  0.154300  0.616500  0.220580  1.0  -0.5283
  O  O591  1  0.436870  0.425970  0.283930  1.0  -0.4336
  O  O592  1  0.476450  0.255950  0.318920  1.0  -0.6267
  O  O593  1  0.494190  0.365390  0.343710  1.0  -0.606
  O  O594  1  0.573960  0.629860  0.269180  1.0  -0.2723
  O  O595  1  0.799490  0.678390  0.242850  1.0  -0.5961
  O  O596  1  0.706110  0.692610  0.193970  1.0  -0.5581
  O  O597  1  0.927200  0.402000  0.503130  1.0  -0.5435
  O  O598  1  0.830600  0.138200  0.612650  1.0  -0.5087
  O  O599  1  0.929580  0.100380  0.135440  1.0  -0.4087
  O  O600  1  0.948650  0.059750  0.042100  1.0  -0.6092
  O  O601  1  0.972740  0.997740  0.092160  1.0  -0.6129
  O  O602  1  0.698390  0.045090  0.217230  1.0  -0.3234
  O  O603  1  0.506270  0.137470  0.252660  1.0  -0.606
  O  O604  1  0.654300  0.116500  0.279420  1.0  -0.528
  O  O605  1  0.936870  0.925970  0.216070  1.0  -0.4343
  O  O606  1  0.976450  0.755950  0.181080  1.0  -0.6251
  O  O607  1  0.994190  0.865390  0.156290  1.0  -0.6043
  O  O608  1  0.073960  0.129860  0.230820  1.0  -0.2729
  O  O609  1  0.299490  0.178390  0.257150  1.0  -0.5966
  O  O610  1  0.206110  0.192610  0.306030  1.0  -0.5578
  O  O611  1  0.427200  0.902000  0.996870  1.0  -0.5431
  O  O612  1  0.330600  0.638200  0.887350  1.0  -0.5087
  O  O613  1  0.570420  0.399620  0.635440  1.0  -0.4093
  O  O614  1  0.551350  0.440250  0.542100  1.0  -0.61
  O  O615  1  0.527260  0.502260  0.592160  1.0  -0.6132
  O  O616  1  0.801610  0.454910  0.717230  1.0  -0.3237
  O  O617  1  0.993730  0.362530  0.752660  1.0  -0.607
  O  O618  1  0.845700  0.383500  0.779420  1.0  -0.5284
  O  O619  1  0.563130  0.574030  0.716070  1.0  -0.4338
  O  O620  1  0.523550  0.744050  0.681080  1.0  -0.6267
  O  O621  1  0.505810  0.634610  0.656290  1.0  -0.6058
  O  O622  1  0.426040  0.370140  0.730820  1.0  -0.2738
  O  O623  1  0.200510  0.321610  0.757150  1.0  -0.5972
  O  O624  1  0.293890  0.307390  0.806030  1.0  -0.5581
  O  O625  1  0.072800  0.598000  0.496870  1.0  -0.5415
  O  O626  1  0.169400  0.861800  0.387350  1.0  -0.5054
