# generated using pymatgen
data_MnAl3(PO4)4
_symmetry_space_group_name_H-M   'P 1'
_cell_length_a   9.51210000
_cell_length_b   9.88190000
_cell_length_c   12.11720000
_cell_angle_alpha   70.53300000
_cell_angle_beta   73.47300000
_cell_angle_gamma   82.32800000
_symmetry_Int_Tables_number   1
_chemical_formula_structural   MnAl3(PO4)4
_chemical_formula_sum   'Mn2 Al6 P8 O32'
_cell_volume   1028.56575710
_cell_formula_units_Z   2
loop_
 _symmetry_equiv_pos_site_id
 _symmetry_equiv_pos_as_xyz
  1  'x, y, z'
loop_
 _atom_site_type_symbol
 _atom_site_label
 _atom_site_symmetry_multiplicity
 _atom_site_fract_x
 _atom_site_fract_y
 _atom_site_fract_z
 _atom_site_occupancy
 _atom_site_charge
  Mn  Mn1  1  0.146710  0.306050  0.641210  1.0  1.1365
  Mn  Mn2  1  0.853290  0.693950  0.358790  1.0  1.1363
  Al  Al3  1  0.230500  0.974740  0.430510  1.0  1.9945
  Al  Al4  1  0.483600  0.524280  0.680640  1.0  1.9809
  Al  Al5  1  0.933390  0.671640  0.850390  1.0  2.0134
  Al  Al6  1  0.769500  0.025260  0.569490  1.0  1.9937
  Al  Al7  1  0.516400  0.475720  0.319360  1.0  1.9811
  Al  Al8  1  0.066610  0.328360  0.149610  1.0  2.0124
  P  P9  1  0.188230  0.422390  0.867570  1.0  1.8374
  P  P10  1  0.032410  0.979950  0.684370  1.0  2.0683
  P  P11  1  0.245600  0.306830  0.340840  1.0  1.9686
  P  P12  1  0.533750  0.283180  0.567890  1.0  1.8978
  P  P13  1  0.811770  0.577610  0.132430  1.0  1.8586
  P  P14  1  0.967590  0.020050  0.315630  1.0  2.0685
  P  P15  1  0.754400  0.693170  0.659160  1.0  1.968
  P  P16  1  0.466250  0.716820  0.432110  1.0  1.8999
  O  O17  1  0.085500  0.556400  0.852600  1.0  -1.0127
  O  O18  1  0.294500  0.148200  0.365300  1.0  -0.9758
  O  O19  1  0.622900  0.141900  0.599800  1.0  -0.9911
  O  O20  1  0.345800  0.476300  0.813400  1.0  -0.9468
  O  O21  1  0.996800  0.844900  0.795000  1.0  -0.9877
  O  O22  1  0.158000  0.320500  0.811000  1.0  -0.7939
  O  O23  1  0.888500  0.044300  0.650400  1.0  -0.9833
  O  O24  1  0.131500  0.929300  0.580700  1.0  -1.0434
  O  O25  1  0.176100  0.350300  0.003100  1.0  -0.9492
  O  O26  1  0.374400  0.262700  0.593300  1.0  -0.8345
  O  O27  1  0.171700  0.350600  0.236700  1.0  -0.9968
  O  O28  1  0.565200  0.373600  0.639500  1.0  -0.9276
  O  O29  1  0.599300  0.361900  0.431300  1.0  -0.8688
  O  O30  1  0.142600  0.335800  0.450700  1.0  -0.868
  O  O31  1  0.386600  0.391300  0.293100  1.0  -0.989
  O  O32  1  0.101400  0.085100  0.714800  1.0  -0.7403
  O  O33  1  0.914500  0.443600  0.147400  1.0  -1.012
  O  O34  1  0.705500  0.851800  0.634700  1.0  -0.9719
  O  O35  1  0.377100  0.858100  0.400200  1.0  -0.9928
  O  O36  1  0.654200  0.523700  0.186600  1.0  -0.9496
  O  O37  1  0.003200  0.155100  0.205000  1.0  -0.9852
  O  O38  1  0.842000  0.679500  0.189000  1.0  -0.7946
  O  O39  1  0.111500  0.955700  0.349600  1.0  -0.9859
  O  O40  1  0.868500  0.070700  0.419300  1.0  -1.0444
  O  O41  1  0.823900  0.649700  0.996900  1.0  -0.9474
  O  O42  1  0.625600  0.737300  0.406700  1.0  -0.8365
  O  O43  1  0.828300  0.649400  0.763300  1.0  -0.9957
  O  O44  1  0.434800  0.626400  0.360500  1.0  -0.9251
  O  O45  1  0.400700  0.638100  0.568700  1.0  -0.8693
  O  O46  1  0.857400  0.664200  0.549300  1.0  -0.8678
  O  O47  1  0.613400  0.608700  0.706900  1.0  -0.9893
  O  O48  1  0.898600  0.914900  0.285200  1.0  -0.7394
