# generated using pymatgen
data_MnH18C18S(N3O2)2
_symmetry_space_group_name_H-M   'P 1'
_cell_length_a   8.85470000
_cell_length_b   9.96890000
_cell_length_c   12.97210000
_cell_angle_alpha   97.00500000
_cell_angle_beta   97.88500000
_cell_angle_gamma   90.92900000
_symmetry_Int_Tables_number   1
_chemical_formula_structural   MnH18C18S(N3O2)2
_chemical_formula_sum   'Mn2 H36 C36 S2 N12 O8'
_cell_volume   1125.14338254
_cell_formula_units_Z   2
loop_
 _symmetry_equiv_pos_site_id
 _symmetry_equiv_pos_as_xyz
  1  'x, y, z'
loop_
 _atom_site_type_symbol
 _atom_site_label
 _atom_site_symmetry_multiplicity
 _atom_site_fract_x
 _atom_site_fract_y
 _atom_site_fract_z
 _atom_site_occupancy
 _atom_site_charge
  Mn  Mn1  1  0.000000  0.000000  0.000000  1.0  0.8162
  Mn  Mn2  1  0.000000  0.000000  0.500000  1.0  1.0746
  H  H3  1  0.363900  0.686700  0.184200  1.0  0.1049
  H  H4  1  0.817200  0.668800  0.193100  1.0  0.0972
  H  H5  1  0.585900  0.373700  0.293800  1.0  0.1075
  H  H6  1  0.323100  0.406900  0.320500  1.0  0.1105
  H  H7  1  0.239600  0.535500  0.287100  1.0  0.0926
  H  H8  1  0.606700  0.904700  0.195900  1.0  0.1212
  H  H9  1  0.690500  0.837700  0.104800  1.0  0.1152
  H  H10  1  0.955700  0.515600  0.291300  1.0  0.0966
  H  H11  1  0.897000  0.388000  0.212100  1.0  0.0896
  H  H12  1  0.160600  0.514500  0.064900  1.0  0.1186
  H  H13  1  0.031100  0.319900  0.952300  1.0  0.1072
  H  H14  1  0.210900  0.190700  0.213200  1.0  0.1047
  H  H15  1  0.504000  0.748400  0.921400  1.0  0.1245
  H  H16  1  0.252800  0.822900  0.852800  1.0  0.1018
  H  H17  1  0.333500  0.968700  0.148400  1.0  0.1003
  H  H18  1  0.812400  0.492500  0.483400  1.0  0.1286
  H  H19  1  0.860800  0.303900  0.586100  1.0  0.1019
  H  H20  1  0.950800  0.183900  0.303300  1.0  0.0902
  H  H21  1  0.636100  0.313300  0.815800  1.0  0.1037
  H  H22  1  0.182800  0.331200  0.806900  1.0  0.0964
  H  H23  1  0.414100  0.626300  0.706200  1.0  0.1069
  H  H24  1  0.676900  0.593100  0.679500  1.0  0.1093
  H  H25  1  0.760400  0.464500  0.712900  1.0  0.0948
  H  H26  1  0.393300  0.095300  0.804100  1.0  0.1213
  H  H27  1  0.309500  0.162300  0.895200  1.0  0.1153
  H  H28  1  0.044300  0.484400  0.708700  1.0  0.0972
  H  H29  1  0.103000  0.612000  0.787900  1.0  0.0902
  H  H30  1  0.839400  0.485500  0.935100  1.0  0.1194
  H  H31  1  0.968900  0.680100  0.047700  1.0  0.1075
  H  H32  1  0.789100  0.809300  0.786800  1.0  0.1052
  H  H33  1  0.496000  0.251600  0.078600  1.0  0.126
  H  H34  1  0.747200  0.177100  0.147200  1.0  0.101
  H  H35  1  0.666500  0.031300  0.851600  1.0  0.1003
  H  H36  1  0.187600  0.507500  0.516600  1.0  0.1285
  H  H37  1  0.139200  0.696100  0.413900  1.0  0.1015
  H  H38  1  0.049200  0.816100  0.696700  1.0  0.0916
  C  C39  1  0.451700  0.520980  0.242360  1.0  0.0886
  C  C40  1  0.454300  0.642300  0.199620  1.0  -0.1421
  C  C41  1  0.590900  0.697700  0.179730  1.0  0.0776
  C  C42  1  0.725200  0.631670  0.205230  1.0  -0.1804
  C  C43  1  0.724400  0.511110  0.248580  1.0  0.0822
  C  C44  1  0.587400  0.455350  0.266090  1.0  -0.097
  C  C45  1  0.302700  0.462300  0.263970  1.0  -0.0852
  C  C46  1  0.599000  0.832700  0.137800  1.0  -0.0685
  C  C47  1  0.875700  0.445600  0.273950  1.0  -0.0996
  C  C48  1  0.155300  0.426300  0.081070  1.0  -0.1497
  C  C49  1  0.083500  0.318300  0.019380  1.0  0.008
  C  C50  1  0.181900  0.246670  0.162080  1.0  0.1467
  C  C51  1  0.439600  0.801700  0.958800  1.0  -0.1669
  C  C52  1  0.300300  0.843000  0.921680  1.0  0.0278
  C  C53  1  0.343500  0.923100  0.082850  1.0  0.1356
  C  C54  1  0.846400  0.408000  0.459790  1.0  -0.1543
  C  C55  1  0.873200  0.303200  0.516040  1.0  0.0438
  C  C56  1  0.923000  0.237100  0.361240  1.0  0.1295
  C  C57  1  0.548300  0.479020  0.757640  1.0  0.0899
  C  C58  1  0.545700  0.357700  0.800380  1.0  -0.1428
  C  C59  1  0.409100  0.302300  0.820270  1.0  0.078
  C  C60  1  0.274800  0.368330  0.794770  1.0  -0.1816
  C  C61  1  0.275600  0.488890  0.751420  1.0  0.082
  C  C62  1  0.412600  0.544650  0.733910  1.0  -0.0961
  C  C63  1  0.697300  0.537700  0.736030  1.0  -0.084
  C  C64  1  0.401000  0.167300  0.862200  1.0  -0.0672
  C  C65  1  0.124300  0.554400  0.726050  1.0  -0.0976
  C  C66  1  0.844700  0.573700  0.918930  1.0  -0.1487
  C  C67  1  0.916500  0.681700  0.980620  1.0  0.0074
  C  C68  1  0.818100  0.753330  0.837920  1.0  0.1464
  C  C69  1  0.560400  0.198300  0.041200  1.0  -0.1675
  C  C70  1  0.699700  0.157000  0.078320  1.0  0.0291
  C  C71  1  0.656500  0.076900  0.917150  1.0  0.1369
  C  C72  1  0.153600  0.592000  0.540210  1.0  -0.1556
  C  C73  1  0.126800  0.696800  0.483960  1.0  0.0449
  C  C74  1  0.077000  0.762900  0.638760  1.0  0.1294
  S  S75  1  0.932290  0.101380  0.746670  1.0  1.5929
  S  S76  1  0.067710  0.898620  0.253330  1.0  1.5935
  N  N77  1  0.099870  0.205920  0.070830  1.0  -0.4009
  N  N78  1  0.218680  0.380170  0.172160  1.0  0.0335
  N  N79  1  0.238860  0.919070  0.000460  1.0  -0.4182
  N  N80  1  0.466790  0.853780  0.061800  1.0  0.0443
  N  N81  1  0.921600  0.195780  0.454100  1.0  -0.3957
  N  N82  1  0.879360  0.364930  0.360950  1.0  0.0483
  N  N83  1  0.900130  0.794080  0.929170  1.0  -0.4021
  N  N84  1  0.781320  0.619830  0.827840  1.0  0.033
  N  N85  1  0.761140  0.080930  0.999540  1.0  -0.4183
  N  N86  1  0.533210  0.146220  0.938200  1.0  0.0441
  N  N87  1  0.078400  0.804220  0.545900  1.0  -0.3989
  N  N88  1  0.120640  0.635070  0.639050  1.0  0.049
  O  O89  1  0.011760  0.046050  0.839030  1.0  -0.7974
  O  O90  1  0.030520  0.085030  0.662670  1.0  -0.8143
  O  O91  1  0.788260  0.021690  0.709400  1.0  -0.7102
  O  O92  1  0.901870  0.243210  0.773190  1.0  -0.6387
  O  O93  1  0.988240  0.953950  0.160970  1.0  -0.7952
  O  O94  1  0.969480  0.914970  0.337330  1.0  -0.8144
  O  O95  1  0.211740  0.978310  0.290600  1.0  -0.7143
  O  O96  1  0.098130  0.756790  0.226810  1.0  -0.6395
