# generated using pymatgen
data_CoH16C18(NO2)2
_symmetry_space_group_name_H-M   'P 1'
_cell_length_a   35.52200000
_cell_length_b   13.84600000
_cell_length_c   9.54800000
_cell_angle_alpha   90.00000000
_cell_angle_beta   103.20000000
_cell_angle_gamma   90.00000000
_symmetry_Int_Tables_number   1
_chemical_formula_structural   CoH16C18(NO2)2
_chemical_formula_sum   'Co8 H128 C144 N16 O32'
_cell_volume   4571.99031617
_cell_formula_units_Z   8
loop_
 _symmetry_equiv_pos_site_id
 _symmetry_equiv_pos_as_xyz
  1  'x, y, z'
loop_
 _atom_site_type_symbol
 _atom_site_label
 _atom_site_symmetry_multiplicity
 _atom_site_fract_x
 _atom_site_fract_y
 _atom_site_fract_z
 _atom_site_occupancy
 _atom_site_charge
  Co  Co1  1  0.364500  0.206810  0.172260  1.0  0.8573
  Co  Co2  1  0.864500  0.706810  0.172260  1.0  0.8573
  Co  Co3  1  0.635500  0.206810  0.327740  1.0  0.8586
  Co  Co4  1  0.135500  0.706810  0.327740  1.0  0.8586
  Co  Co5  1  0.635500  0.793190  0.827740  1.0  0.8508
  Co  Co6  1  0.135500  0.293190  0.827740  1.0  0.8508
  Co  Co7  1  0.364500  0.793190  0.672260  1.0  0.8534
  Co  Co8  1  0.864500  0.293190  0.672260  1.0  0.8534
  H  H9  1  0.248200  0.275400  0.772300  1.0  0.1133
  H  H10  1  0.275500  0.419100  0.158600  1.0  0.0918
  H  H11  1  0.209100  0.474500  0.071700  1.0  0.104
  H  H12  1  0.244400  0.546800  0.335100  1.0  0.0881
  H  H13  1  0.284300  0.256900  0.001900  1.0  0.079
  H  H14  1  0.340800  0.193900  0.629600  1.0  0.1295
  H  H15  1  0.374100  0.179400  0.862900  1.0  0.0799
  H  H16  1  0.311700  0.482400  0.426600  1.0  0.0919
  H  H17  1  0.279400  0.301300  0.479900  1.0  0.0747
  H  H18  1  0.275500  0.189600  0.470000  1.0  0.0765
  H  H19  1  0.450100  0.202100  0.148800  1.0  0.0845
  H  H20  1  0.375900  0.411000  0.074500  1.0  0.0781
  H  H21  1  0.419300  0.507400  0.996100  1.0  0.1101
  H  H22  1  0.495200  0.296000  0.077600  1.0  0.1274
  H  H23  1  0.507900  0.424800  0.911400  1.0  0.0843
  H  H24  1  0.475900  0.504400  0.860500  1.0  0.0786
  H  H25  1  0.748200  0.775400  0.772300  1.0  0.1133
  H  H26  1  0.775500  0.919100  0.158600  1.0  0.0918
  H  H27  1  0.709100  0.974500  0.071700  1.0  0.104
  H  H28  1  0.744400  0.046800  0.335100  1.0  0.0881
  H  H29  1  0.784300  0.756900  0.001900  1.0  0.079
  H  H30  1  0.840800  0.693900  0.629600  1.0  0.1295
  H  H31  1  0.874100  0.679400  0.862900  1.0  0.0799
  H  H32  1  0.811700  0.982400  0.426600  1.0  0.0919
  H  H33  1  0.779400  0.801300  0.479900  1.0  0.0747
  H  H34  1  0.775500  0.689600  0.470000  1.0  0.0765
  H  H35  1  0.950100  0.702100  0.148800  1.0  0.0845
  H  H36  1  0.875900  0.911000  0.074500  1.0  0.0781
  H  H37  1  0.919300  0.007400  0.996100  1.0  0.1101
  H  H38  1  0.995200  0.796000  0.077600  1.0  0.1274
  H  H39  1  0.007900  0.924800  0.911400  1.0  0.0843
  H  H40  1  0.975900  0.004400  0.860500  1.0  0.0786
  H  H41  1  0.751800  0.275400  0.727700  1.0  0.1141
  H  H42  1  0.724500  0.419100  0.341400  1.0  0.0912
  H  H43  1  0.790900  0.474500  0.428300  1.0  0.1027
  H  H44  1  0.755600  0.546800  0.164900  1.0  0.0887
  H  H45  1  0.715700  0.256900  0.498100  1.0  0.0788
  H  H46  1  0.659200  0.193900  0.870400  1.0  0.1296
  H  H47  1  0.625900  0.179400  0.637100  1.0  0.0807
  H  H48  1  0.688300  0.482400  0.073400  1.0  0.0921
  H  H49  1  0.720600  0.301300  0.020100  1.0  0.0742
  H  H50  1  0.724500  0.189600  0.030000  1.0  0.0748
  H  H51  1  0.549900  0.202100  0.351200  1.0  0.0846
  H  H52  1  0.624100  0.411000  0.425500  1.0  0.0785
  H  H53  1  0.580700  0.507400  0.503900  1.0  0.1097
  H  H54  1  0.504800  0.296000  0.422400  1.0  0.1285
  H  H55  1  0.492100  0.424800  0.588600  1.0  0.0851
  H  H56  1  0.524100  0.504400  0.639500  1.0  0.0779
  H  H57  1  0.251800  0.775400  0.727700  1.0  0.1141
  H  H58  1  0.224500  0.919100  0.341400  1.0  0.0912
  H  H59  1  0.290900  0.974500  0.428300  1.0  0.1027
  H  H60  1  0.255600  0.046800  0.164900  1.0  0.0887
  H  H61  1  0.215700  0.756900  0.498100  1.0  0.0788
  H  H62  1  0.159200  0.693900  0.870400  1.0  0.1296
  H  H63  1  0.125900  0.679400  0.637100  1.0  0.0807
  H  H64  1  0.188300  0.982400  0.073400  1.0  0.0921
  H  H65  1  0.220600  0.801300  0.020100  1.0  0.0742
  H  H66  1  0.224500  0.689600  0.030000  1.0  0.0748
  H  H67  1  0.049900  0.702100  0.351200  1.0  0.0846
  H  H68  1  0.124100  0.911000  0.425500  1.0  0.0785
  H  H69  1  0.080700  0.007400  0.503900  1.0  0.1097
  H  H70  1  0.004800  0.796000  0.422400  1.0  0.1285
  H  H71  1  0.992100  0.924800  0.588600  1.0  0.0851
  H  H72  1  0.024100  0.004400  0.639500  1.0  0.0779
  H  H73  1  0.751800  0.724600  0.227700  1.0  0.1143
  H  H74  1  0.724500  0.580900  0.841400  1.0  0.0913
  H  H75  1  0.790900  0.525500  0.928300  1.0  0.1023
  H  H76  1  0.755600  0.453200  0.664900  1.0  0.0889
  H  H77  1  0.715700  0.743100  0.998100  1.0  0.0788
  H  H78  1  0.659200  0.806100  0.370400  1.0  0.1294
  H  H79  1  0.625900  0.820600  0.137100  1.0  0.0806
  H  H80  1  0.688300  0.517600  0.573400  1.0  0.0916
  H  H81  1  0.720600  0.698700  0.520100  1.0  0.0734
  H  H82  1  0.724500  0.810400  0.530000  1.0  0.0732
  H  H83  1  0.549900  0.797900  0.851200  1.0  0.0837
  H  H84  1  0.624100  0.589000  0.925500  1.0  0.0784
  H  H85  1  0.580700  0.492600  0.003900  1.0  0.1096
  H  H86  1  0.504800  0.704000  0.922400  1.0  0.1281
  H  H87  1  0.492100  0.575200  0.088600  1.0  0.0845
  H  H88  1  0.524100  0.495600  0.139500  1.0  0.0781
  H  H89  1  0.251800  0.224600  0.227700  1.0  0.1143
  H  H90  1  0.224500  0.080900  0.841400  1.0  0.0913
  H  H91  1  0.290900  0.025500  0.928300  1.0  0.1023
  H  H92  1  0.255600  0.953200  0.664900  1.0  0.0889
  H  H93  1  0.215700  0.243100  0.998100  1.0  0.0788
  H  H94  1  0.159200  0.306100  0.370400  1.0  0.1294
  H  H95  1  0.125900  0.320600  0.137100  1.0  0.0806
  H  H96  1  0.188300  0.017600  0.573400  1.0  0.0916
  H  H97  1  0.220600  0.198700  0.520100  1.0  0.0734
  H  H98  1  0.224500  0.310400  0.530000  1.0  0.0732
  H  H99  1  0.049900  0.297900  0.851200  1.0  0.0837
  H  H100  1  0.124100  0.089000  0.925500  1.0  0.0784
  H  H101  1  0.080700  0.992600  0.003900  1.0  0.1096
  H  H102  1  0.004800  0.204000  0.922400  1.0  0.1281
  H  H103  1  0.992100  0.075200  0.088600  1.0  0.0845
  H  H104  1  0.024100  0.995600  0.139500  1.0  0.0781
  H  H105  1  0.248200  0.724600  0.272300  1.0  0.1133
  H  H106  1  0.275500  0.580900  0.658600  1.0  0.0919
  H  H107  1  0.209100  0.525500  0.571700  1.0  0.1032
  H  H108  1  0.244400  0.453200  0.835100  1.0  0.0882
  H  H109  1  0.284300  0.743100  0.501900  1.0  0.079
  H  H110  1  0.340800  0.806100  0.129600  1.0  0.1294
  H  H111  1  0.374100  0.820600  0.362900  1.0  0.0804
  H  H112  1  0.311700  0.517600  0.926600  1.0  0.092
  H  H113  1  0.279400  0.698700  0.979900  1.0  0.0735
  H  H114  1  0.275500  0.810400  0.970000  1.0  0.0747
  H  H115  1  0.450100  0.797900  0.648800  1.0  0.0833
  H  H116  1  0.375900  0.589000  0.574500  1.0  0.0782
  H  H117  1  0.419300  0.492600  0.496100  1.0  0.1098
  H  H118  1  0.495200  0.704000  0.577600  1.0  0.1279
  H  H119  1  0.507900  0.575200  0.411400  1.0  0.0845
  H  H120  1  0.475900  0.495600  0.360500  1.0  0.0784
  H  H121  1  0.748200  0.224600  0.272300  1.0  0.1133
  H  H122  1  0.775500  0.080900  0.658600  1.0  0.0919
  H  H123  1  0.709100  0.025500  0.571700  1.0  0.1032
  H  H124  1  0.744400  0.953200  0.835100  1.0  0.0882
  H  H125  1  0.784300  0.243100  0.501900  1.0  0.079
  H  H126  1  0.840800  0.306100  0.129600  1.0  0.1294
  H  H127  1  0.874100  0.320600  0.362900  1.0  0.0804
  H  H128  1  0.811700  0.017600  0.926600  1.0  0.092
  H  H129  1  0.779400  0.198700  0.979900  1.0  0.0735
  H  H130  1  0.775500  0.310400  0.970000  1.0  0.0747
  H  H131  1  0.950100  0.297900  0.648800  1.0  0.0833
  H  H132  1  0.875900  0.089000  0.574500  1.0  0.0782
  H  H133  1  0.919300  0.992600  0.496100  1.0  0.1098
  H  H134  1  0.995200  0.204000  0.577600  1.0  0.1279
  H  H135  1  0.007900  0.075200  0.411400  1.0  0.0845
  H  H136  1  0.975900  0.995600  0.360500  1.0  0.0784
  C  C137  1  0.273830  0.255700  0.788000  1.0  -0.2318
  C  C138  1  0.276550  0.452300  0.244100  1.0  -0.0702
  C  C139  1  0.210470  0.511000  0.154500  1.0  -0.1891
  C  C140  1  0.242870  0.509100  0.253300  1.0  -0.0699
  C  C141  1  0.295760  0.244200  0.925500  1.0  0.174
  C  C142  1  0.290700  0.237300  0.672700  1.0  0.085
  C  C143  1  0.176050  0.567200  0.166200  1.0  0.7275
  C  C144  1  0.339430  0.373400  0.334800  1.0  0.6974
  C  C145  1  0.328570  0.207700  0.703700  1.0  -0.2235
  C  C146  1  0.348340  0.198600  0.844000  1.0  0.179
  C  C147  1  0.308410  0.443400  0.345300  1.0  -0.1512
  C  C148  1  0.268730  0.245800  0.519600  1.0  -0.1495
  C  C149  1  0.443300  0.264400  0.116000  1.0  0.1466
  C  C150  1  0.399980  0.386000  0.072000  1.0  0.168
  C  C151  1  0.425850  0.443900  0.022800  1.0  -0.1786
  C  C152  1  0.470320  0.319700  0.069800  1.0  -0.1959
  C  C153  1  0.460920  0.408600  0.013200  1.0  0.1163
  C  C154  1  0.489800  0.467600  0.942600  1.0  -0.1938
  C  C155  1  0.773830  0.755700  0.788000  1.0  -0.2318
  C  C156  1  0.776550  0.952300  0.244100  1.0  -0.0702
  C  C157  1  0.710470  0.011000  0.154500  1.0  -0.1891
  C  C158  1  0.742870  0.009100  0.253300  1.0  -0.0699
  C  C159  1  0.795760  0.744200  0.925500  1.0  0.174
  C  C160  1  0.790700  0.737300  0.672700  1.0  0.085
  C  C161  1  0.676050  0.067200  0.166200  1.0  0.7275
  C  C162  1  0.839430  0.873400  0.334800  1.0  0.6974
  C  C163  1  0.828570  0.707700  0.703700  1.0  -0.2235
  C  C164  1  0.848340  0.698600  0.844000  1.0  0.179
  C  C165  1  0.808410  0.943400  0.345300  1.0  -0.1512
  C  C166  1  0.768730  0.745800  0.519600  1.0  -0.1495
  C  C167  1  0.943300  0.764400  0.116000  1.0  0.1466
  C  C168  1  0.899980  0.886000  0.072000  1.0  0.168
  C  C169  1  0.925850  0.943900  0.022800  1.0  -0.1786
  C  C170  1  0.970320  0.819700  0.069800  1.0  -0.1959
  C  C171  1  0.960920  0.908600  0.013200  1.0  0.1163
  C  C172  1  0.989800  0.967600  0.942600  1.0  -0.1938
  C  C173  1  0.726170  0.255700  0.712000  1.0  -0.2331
  C  C174  1  0.723450  0.452300  0.255900  1.0  -0.0698
  C  C175  1  0.789530  0.511000  0.345500  1.0  -0.1889
  C  C176  1  0.757130  0.509100  0.246700  1.0  -0.07
  C  C177  1  0.704240  0.244200  0.574500  1.0  0.1741
  C  C178  1  0.709300  0.237300  0.827300  1.0  0.0837
  C  C179  1  0.823950  0.567200  0.333800  1.0  0.7268
  C  C180  1  0.660570  0.373400  0.165200  1.0  0.701
  C  C181  1  0.671430  0.207700  0.796300  1.0  -0.2243
  C  C182  1  0.651660  0.198600  0.656000  1.0  0.1781
  C  C183  1  0.691590  0.443400  0.154700  1.0  -0.1509
  C  C184  1  0.731270  0.245800  0.980400  1.0  -0.1479
  C  C185  1  0.556700  0.264400  0.384000  1.0  0.1466
  C  C186  1  0.600020  0.386000  0.428000  1.0  0.1682
  C  C187  1  0.574150  0.443900  0.477200  1.0  -0.1791
  C  C188  1  0.529680  0.319700  0.430200  1.0  -0.194
  C  C189  1  0.539080  0.408600  0.486800  1.0  0.1165
  C  C190  1  0.510200  0.467600  0.557400  1.0  -0.1924
  C  C191  1  0.226170  0.755700  0.712000  1.0  -0.2331
  C  C192  1  0.223450  0.952300  0.255900  1.0  -0.0698
  C  C193  1  0.289530  0.011000  0.345500  1.0  -0.1889
  C  C194  1  0.257130  0.009100  0.246700  1.0  -0.07
  C  C195  1  0.204240  0.744200  0.574500  1.0  0.1741
  C  C196  1  0.209300  0.737300  0.827300  1.0  0.0837
  C  C197  1  0.323950  0.067200  0.333800  1.0  0.7268
  C  C198  1  0.160570  0.873400  0.165200  1.0  0.701
  C  C199  1  0.171430  0.707700  0.796300  1.0  -0.2243
  C  C200  1  0.151660  0.698600  0.656000  1.0  0.1781
  C  C201  1  0.191590  0.943400  0.154700  1.0  -0.1509
  C  C202  1  0.231270  0.745800  0.980400  1.0  -0.1479
  C  C203  1  0.056700  0.764400  0.384000  1.0  0.1466
  C  C204  1  0.100020  0.886000  0.428000  1.0  0.1682
  C  C205  1  0.074150  0.943900  0.477200  1.0  -0.1791
  C  C206  1  0.029680  0.819700  0.430200  1.0  -0.194
  C  C207  1  0.039080  0.908600  0.486800  1.0  0.1165
  C  C208  1  0.010200  0.967600  0.557400  1.0  -0.1924
  C  C209  1  0.726170  0.744300  0.212000  1.0  -0.2335
  C  C210  1  0.723450  0.547700  0.755900  1.0  -0.0687
  C  C211  1  0.789530  0.489000  0.845500  1.0  -0.1885
  C  C212  1  0.757130  0.490900  0.746700  1.0  -0.0705
  C  C213  1  0.704240  0.755800  0.074500  1.0  0.1736
  C  C214  1  0.709300  0.762700  0.327300  1.0  0.0835
  C  C215  1  0.823950  0.432800  0.833800  1.0  0.7269
  C  C216  1  0.660570  0.626600  0.665200  1.0  0.7009
  C  C217  1  0.671430  0.792300  0.296300  1.0  -0.224
  C  C218  1  0.651660  0.801400  0.156000  1.0  0.1779
  C  C219  1  0.691590  0.556600  0.654700  1.0  -0.1507
  C  C220  1  0.731270  0.754200  0.480400  1.0  -0.1491
  C  C221  1  0.556700  0.735600  0.884000  1.0  0.1466
  C  C222  1  0.600020  0.614000  0.928000  1.0  0.1685
  C  C223  1  0.574150  0.556100  0.977200  1.0  -0.1772
  C  C224  1  0.529680  0.680300  0.930200  1.0  -0.1956
  C  C225  1  0.539080  0.591400  0.986800  1.0  0.1162
  C  C226  1  0.510200  0.532400  0.057400  1.0  -0.193
  C  C227  1  0.226170  0.244300  0.212000  1.0  -0.2335
  C  C228  1  0.223450  0.047700  0.755900  1.0  -0.0687
  C  C229  1  0.289530  0.989000  0.845500  1.0  -0.1885
  C  C230  1  0.257130  0.990900  0.746700  1.0  -0.0705
  C  C231  1  0.204240  0.255800  0.074500  1.0  0.1736
  C  C232  1  0.209300  0.262700  0.327300  1.0  0.0835
  C  C233  1  0.323950  0.932800  0.833800  1.0  0.7269
  C  C234  1  0.160570  0.126600  0.665200  1.0  0.7009
  C  C235  1  0.171430  0.292300  0.296300  1.0  -0.224
  C  C236  1  0.151660  0.301400  0.156000  1.0  0.1779
  C  C237  1  0.191590  0.056600  0.654700  1.0  -0.1507
  C  C238  1  0.231270  0.254200  0.480400  1.0  -0.1491
  C  C239  1  0.056700  0.235600  0.884000  1.0  0.1466
  C  C240  1  0.100020  0.114000  0.928000  1.0  0.1685
  C  C241  1  0.074150  0.056100  0.977200  1.0  -0.1772
  C  C242  1  0.029680  0.180300  0.930200  1.0  -0.1956
  C  C243  1  0.039080  0.091400  0.986800  1.0  0.1162
  C  C244  1  0.010200  0.032400  0.057400  1.0  -0.193
  C  C245  1  0.273830  0.744300  0.288000  1.0  -0.2315
  C  C246  1  0.276550  0.547700  0.744100  1.0  -0.0689
  C  C247  1  0.210470  0.489000  0.654500  1.0  -0.1883
  C  C248  1  0.242870  0.490900  0.753300  1.0  -0.0703
  C  C249  1  0.295760  0.755800  0.425500  1.0  0.174
  C  C250  1  0.290700  0.762700  0.172700  1.0  0.0852
  C  C251  1  0.176050  0.432800  0.666200  1.0  0.7273
  C  C252  1  0.339430  0.626600  0.834800  1.0  0.6973
  C  C253  1  0.328570  0.792300  0.203700  1.0  -0.2234
  C  C254  1  0.348340  0.801400  0.344000  1.0  0.1791
  C  C255  1  0.308410  0.556600  0.845300  1.0  -0.151
  C  C256  1  0.268730  0.754200  0.019600  1.0  -0.1505
  C  C257  1  0.443300  0.735600  0.616000  1.0  0.1476
  C  C258  1  0.399980  0.614000  0.572000  1.0  0.1684
  C  C259  1  0.425850  0.556100  0.522800  1.0  -0.1784
  C  C260  1  0.470320  0.680300  0.569800  1.0  -0.1949
  C  C261  1  0.460920  0.591400  0.513200  1.0  0.1168
  C  C262  1  0.489800  0.532400  0.442600  1.0  -0.1957
  C  C263  1  0.773830  0.244300  0.288000  1.0  -0.2315
  C  C264  1  0.776550  0.047700  0.744100  1.0  -0.0689
  C  C265  1  0.710470  0.989000  0.654500  1.0  -0.1883
  C  C266  1  0.742870  0.990900  0.753300  1.0  -0.0703
  C  C267  1  0.795760  0.255800  0.425500  1.0  0.174
  C  C268  1  0.790700  0.262700  0.172700  1.0  0.0852
  C  C269  1  0.676050  0.932800  0.666200  1.0  0.7273
  C  C270  1  0.839430  0.126600  0.834800  1.0  0.6973
  C  C271  1  0.828570  0.292300  0.203700  1.0  -0.2234
  C  C272  1  0.848340  0.301400  0.344000  1.0  0.1791
  C  C273  1  0.808410  0.056600  0.845300  1.0  -0.151
  C  C274  1  0.768730  0.254200  0.019600  1.0  -0.1505
  C  C275  1  0.943300  0.235600  0.616000  1.0  0.1476
  C  C276  1  0.899980  0.114000  0.572000  1.0  0.1684
  C  C277  1  0.925850  0.056100  0.522800  1.0  -0.1784
  C  C278  1  0.970320  0.180300  0.569800  1.0  -0.1949
  C  C279  1  0.960920  0.091400  0.513200  1.0  0.1168
  C  C280  1  0.989800  0.032400  0.442600  1.0  -0.1957
  N  N281  1  0.332280  0.216000  0.955100  1.0  -0.3209
  N  N282  1  0.408210  0.296000  0.115800  1.0  -0.3246
  N  N283  1  0.832280  0.716000  0.955100  1.0  -0.3209
  N  N284  1  0.908210  0.796000  0.115800  1.0  -0.3246
  N  N285  1  0.667720  0.216000  0.544900  1.0  -0.3259
  N  N286  1  0.591790  0.296000  0.384200  1.0  -0.3265
  N  N287  1  0.167720  0.716000  0.544900  1.0  -0.3259
  N  N288  1  0.091790  0.796000  0.384200  1.0  -0.3265
  N  N289  1  0.667720  0.784000  0.044900  1.0  -0.3254
  N  N290  1  0.591790  0.704000  0.884200  1.0  -0.3231
  N  N291  1  0.167720  0.284000  0.044900  1.0  -0.3254
  N  N292  1  0.091790  0.204000  0.884200  1.0  -0.3231
  N  N293  1  0.332280  0.784000  0.455100  1.0  -0.3217
  N  N294  1  0.408210  0.704000  0.615800  1.0  -0.3212
  N  N295  1  0.832280  0.284000  0.455100  1.0  -0.3217
  N  N296  1  0.908210  0.204000  0.615800  1.0  -0.3212
  O  O297  1  0.146110  0.558410  0.066700  1.0  -0.5528
  O  O298  1  0.335460  0.326910  0.219200  1.0  -0.6
  O  O299  1  0.178770  0.622030  0.274000  1.0  -0.5883
  O  O300  1  0.366670  0.363200  0.442400  1.0  -0.5984
  O  O301  1  0.646110  0.058410  0.066700  1.0  -0.5528
  O  O302  1  0.835460  0.826910  0.219200  1.0  -0.6
  O  O303  1  0.678770  0.122030  0.274000  1.0  -0.5883
  O  O304  1  0.866670  0.863200  0.442400  1.0  -0.5984
  O  O305  1  0.853890  0.558410  0.433300  1.0  -0.5543
  O  O306  1  0.664540  0.326910  0.280800  1.0  -0.5986
  O  O307  1  0.821230  0.622030  0.226000  1.0  -0.5894
  O  O308  1  0.633330  0.363200  0.057600  1.0  -0.597
  O  O309  1  0.353890  0.058410  0.433300  1.0  -0.5543
  O  O310  1  0.164540  0.826910  0.280800  1.0  -0.5986
  O  O311  1  0.321230  0.122030  0.226000  1.0  -0.5894
  O  O312  1  0.133330  0.863200  0.057600  1.0  -0.597
  O  O313  1  0.853890  0.441590  0.933300  1.0  -0.5545
  O  O314  1  0.664540  0.673090  0.780800  1.0  -0.5986
  O  O315  1  0.821230  0.377970  0.726000  1.0  -0.5895
  O  O316  1  0.633330  0.636800  0.557600  1.0  -0.5969
  O  O317  1  0.353890  0.941590  0.933300  1.0  -0.5545
  O  O318  1  0.164540  0.173090  0.780800  1.0  -0.5986
  O  O319  1  0.321230  0.877970  0.726000  1.0  -0.5895
  O  O320  1  0.133330  0.136800  0.557600  1.0  -0.5969
  O  O321  1  0.146110  0.441590  0.566700  1.0  -0.5529
  O  O322  1  0.335460  0.673090  0.719200  1.0  -0.6001
  O  O323  1  0.178770  0.377970  0.774000  1.0  -0.5884
  O  O324  1  0.366670  0.636800  0.942400  1.0  -0.5986
  O  O325  1  0.646110  0.941590  0.566700  1.0  -0.5529
  O  O326  1  0.835460  0.173090  0.719200  1.0  -0.6001
  O  O327  1  0.678770  0.877970  0.774000  1.0  -0.5884
  O  O328  1  0.866670  0.136800  0.942400  1.0  -0.5986
