# generated using pymatgen
data_Ni5H66C84(N5O4)4
_symmetry_space_group_name_H-M   'P 1'
_cell_length_a   10.05240000
_cell_length_b   12.50760000
_cell_length_c   19.20830000
_cell_angle_alpha   90.33700000
_cell_angle_beta   103.34300000
_cell_angle_gamma   99.92600000
_symmetry_Int_Tables_number   1
_chemical_formula_structural   Ni5H66C84(N5O4)4
_chemical_formula_sum   'Ni5 H66 C84 N20 O16'
_cell_volume   2312.08988471
_cell_formula_units_Z   1
loop_
 _symmetry_equiv_pos_site_id
 _symmetry_equiv_pos_as_xyz
  1  'x, y, z'
loop_
 _atom_site_type_symbol
 _atom_site_label
 _atom_site_symmetry_multiplicity
 _atom_site_fract_x
 _atom_site_fract_y
 _atom_site_fract_z
 _atom_site_occupancy
 _atom_site_charge
  Ni  Ni1  1  0.264040  0.221510  0.321370  1.0  0.8081
  Ni  Ni2  1  0.342510  0.308880  0.147920  1.0  0.6195
  Ni  Ni3  1  0.735960  0.778490  0.678630  1.0  0.8072
  Ni  Ni4  1  0.657490  0.691120  0.852080  1.0  0.6175
  Ni  Ni5  1  0.000000  0.000000  0.500000  1.0  0.5387
  H  H6  1  0.721900  0.698000  0.401200  1.0  0.0968
  H  H7  1  0.540000  0.515700  0.435500  1.0  0.0818
  H  H8  1  0.961000  0.214500  0.319900  1.0  0.0773
  H  H9  1  0.800900  0.325200  0.316500  1.0  0.0968
  H  H10  1  0.865700  0.511200  0.311700  1.0  0.1202
  H  H11  1  0.247100  0.463200  0.313100  1.0  0.0658
  H  H12  1  0.054700  0.673100  0.312400  1.0  0.0796
  H  H13  1  0.619100  0.552000  0.309400  1.0  0.1009
  H  H14  1  0.329900  0.550300  0.152800  1.0  0.086
  H  H15  1  0.936300  0.594100  0.097900  1.0  0.111
  H  H16  1  0.866900  0.406300  0.089300  1.0  0.1232
  H  H17  1  0.033200  0.298300  0.111500  1.0  0.0662
  H  H18  1  0.127500  0.757500  0.129800  1.0  0.0768
  H  H19  1  0.524100  0.851100  0.132900  1.0  0.0782
  H  H20  1  0.720600  0.006900  0.150000  1.0  0.1074
  H  H21  1  0.802500  0.191200  0.165300  1.0  0.0964
  H  H22  1  0.651500  0.308700  0.168200  1.0  0.0797
  H  H23  1  0.339300  0.067800  0.137200  1.0  0.0658
  H  H24  1  0.070700  0.099900  0.094100  1.0  0.0852
  H  H25  1  0.969200  0.947700  0.180000  1.0  0.095
  H  H26  1  0.913700  0.934700  0.027200  1.0  0.0814
  H  H27  1  0.823500  0.786900  0.117500  1.0  0.0996
  H  H28  1  0.572200  0.221300  0.330500  1.0  0.065
  H  H29  1  0.725100  0.105300  0.333200  1.0  0.1119
  H  H30  1  0.647600  0.919600  0.329400  1.0  0.1247
  H  H31  1  0.265300  0.978900  0.320100  1.0  0.0836
  H  H32  1  0.453200  0.763800  0.317000  1.0  0.0687
  H  H33  1  0.639000  0.664000  0.527400  1.0  0.0933
  H  H34  1  0.009100  0.756900  0.497000  1.0  0.0664
  H  H35  1  0.385800  0.700300  0.494500  1.0  0.1133
  H  H36  1  0.457400  0.886500  0.489400  1.0  0.1065
  H  H37  1  0.302200  0.999900  0.489000  1.0  0.0624
  H  H38  1  0.197100  0.544200  0.494900  1.0  0.0732
  H  H39  1  0.278100  0.302000  0.598800  1.0  0.0963
  H  H40  1  0.460000  0.484300  0.564500  1.0  0.0824
  H  H41  1  0.039000  0.785500  0.680100  1.0  0.0776
  H  H42  1  0.199100  0.674800  0.683500  1.0  0.0971
  H  H43  1  0.134300  0.488800  0.688300  1.0  0.1201
  H  H44  1  0.752900  0.536800  0.686900  1.0  0.0654
  H  H45  1  0.945300  0.326900  0.687600  1.0  0.0798
  H  H46  1  0.380900  0.448000  0.690600  1.0  0.102
  H  H47  1  0.670100  0.449700  0.847200  1.0  0.0865
  H  H48  1  0.063700  0.405900  0.902100  1.0  0.1116
  H  H49  1  0.133100  0.593700  0.910700  1.0  0.124
  H  H50  1  0.966800  0.701700  0.888500  1.0  0.0668
  H  H51  1  0.872500  0.242500  0.870200  1.0  0.0768
  H  H52  1  0.475900  0.148900  0.867100  1.0  0.0786
  H  H53  1  0.279400  0.993100  0.850000  1.0  0.1075
  H  H54  1  0.197500  0.808800  0.834700  1.0  0.0964
  H  H55  1  0.348500  0.691300  0.831800  1.0  0.081
  H  H56  1  0.660700  0.932200  0.862800  1.0  0.066
  H  H57  1  0.929300  0.900100  0.905900  1.0  0.0857
  H  H58  1  0.030800  0.052300  0.820000  1.0  0.0948
  H  H59  1  0.086300  0.065300  0.972800  1.0  0.0802
  H  H60  1  0.176500  0.213100  0.882500  1.0  0.0993
  H  H61  1  0.427800  0.778700  0.669500  1.0  0.0646
  H  H62  1  0.274900  0.894700  0.666800  1.0  0.1111
  H  H63  1  0.352400  0.080400  0.670600  1.0  0.1246
  H  H64  1  0.734700  0.021100  0.679900  1.0  0.0832
  H  H65  1  0.546800  0.236200  0.683000  1.0  0.0684
  H  H66  1  0.361000  0.336000  0.472600  1.0  0.094
  H  H67  1  0.990900  0.243100  0.503000  1.0  0.0664
  H  H68  1  0.614200  0.299700  0.505500  1.0  0.1132
  H  H69  1  0.542600  0.113500  0.510600  1.0  0.1063
  H  H70  1  0.697800  0.000100  0.511000  1.0  0.0625
  H  H71  1  0.802900  0.455800  0.505100  1.0  0.0746
  C  C72  1  0.131100  0.129400  0.205640  1.0  0.6353
  C  C73  1  0.673100  0.659400  0.431470  1.0  -0.0722
  C  C74  1  0.586400  0.555300  0.404650  1.0  -0.0967
  C  C75  1  0.988400  0.289100  0.317900  1.0  0.1467
  C  C76  1  0.891900  0.355100  0.315900  1.0  -0.1164
  C  C77  1  0.930100  0.465600  0.313000  1.0  -0.0218
  C  C78  1  0.064900  0.507300  0.312100  1.0  -0.0896
  C  C79  1  0.155700  0.435200  0.314000  1.0  0.194
  C  C80  1  0.115700  0.625100  0.312300  1.0  0.141
  C  C81  1  0.753800  0.741200  0.008650  1.0  0.6958
  C  C82  1  0.477100  0.409000  0.309390  1.0  0.6462
  C  C83  1  0.569400  0.513300  0.339230  1.0  -0.1748
  C  C84  1  0.235600  0.521200  0.139400  1.0  0.1827
  C  C85  1  0.140500  0.591800  0.124500  1.0  -0.0585
  C  C86  1  0.002000  0.548800  0.106700  1.0  0.0035
  C  C87  1  0.960600  0.437400  0.101800  1.0  -0.1739
  C  C88  1  0.061100  0.373400  0.115800  1.0  0.1685
  C  C89  1  0.189500  0.710800  0.128100  1.0  0.1882
  C  C90  1  0.464400  0.899500  0.135300  1.0  0.1707
  C  C91  1  0.519400  0.017200  0.142400  1.0  -0.0804
  C  C92  1  0.660000  0.055100  0.150700  1.0  -0.0186
  C  C93  1  0.708400  0.164200  0.160000  1.0  -0.1193
  C  C94  1  0.617200  0.234500  0.161600  1.0  0.1554
  C  C95  1  0.434200  0.092800  0.143700  1.0  0.1814
  C  C96  1  0.059400  0.069900  0.136980  1.0  -0.2235
  C  C97  1  0.979700  0.974600  0.136170  1.0  -0.0563
  C  C98  1  0.906100  0.907900  0.071430  1.0  -0.0926
  C  C99  1  0.830300  0.812500  0.072870  1.0  -0.1701
  C  C100  1  0.539500  0.146900  0.328890  1.0  0.1556
  C  C101  1  0.631900  0.077700  0.330400  1.0  -0.1418
  C  C102  1  0.585900  0.967600  0.327800  1.0  -0.0259
  C  C103  1  0.446800  0.929300  0.322600  1.0  -0.0477
  C  C104  1  0.358800  0.004400  0.322350  1.0  0.1942
  C  C105  1  0.392700  0.812100  0.317600  1.0  0.1601
  C  C106  1  0.775100  0.809900  0.523170  1.0  0.6658
  C  C107  1  0.686900  0.702700  0.496760  1.0  -0.2019
  C  C108  1  0.100900  0.783400  0.495900  1.0  0.1855
  C  C109  1  0.188700  0.709400  0.496200  1.0  -0.0652
  C  C110  1  0.324000  0.747800  0.494100  1.0  -0.0232
  C  C111  1  0.366500  0.858200  0.491300  1.0  -0.1578
  C  C112  1  0.272500  0.925700  0.491200  1.0  0.1688
  C  C113  1  0.137600  0.592900  0.496800  1.0  0.1544
  C  C114  1  0.868900  0.870600  0.794360  1.0  0.6348
  C  C115  1  0.326900  0.340600  0.568530  1.0  -0.0764
  C  C116  1  0.413600  0.444700  0.595350  1.0  -0.0934
  C  C117  1  0.011600  0.710900  0.682100  1.0  0.1479
  C  C118  1  0.108100  0.644900  0.684100  1.0  -0.1163
  C  C119  1  0.069900  0.534400  0.687000  1.0  -0.0222
  C  C120  1  0.935100  0.492700  0.687900  1.0  -0.0894
  C  C121  1  0.844300  0.564800  0.686000  1.0  0.1961
  C  C122  1  0.884300  0.374900  0.687700  1.0  0.142
  C  C123  1  0.246200  0.258800  0.991350  1.0  0.6974
  C  C124  1  0.522900  0.591000  0.690610  1.0  0.6465
  C  C125  1  0.430600  0.486700  0.660770  1.0  -0.1737
  C  C126  1  0.764400  0.478800  0.860600  1.0  0.1841
  C  C127  1  0.859500  0.408200  0.875500  1.0  -0.056
  C  C128  1  0.998000  0.451200  0.893300  1.0  0.0041
  C  C129  1  0.039400  0.562600  0.898200  1.0  -0.1731
  C  C130  1  0.938900  0.626600  0.884200  1.0  0.1684
  C  C131  1  0.810500  0.289200  0.871900  1.0  0.1893
  C  C132  1  0.535600  0.100500  0.864700  1.0  0.1721
  C  C133  1  0.480600  0.982800  0.857600  1.0  -0.0779
  C  C134  1  0.340000  0.944900  0.849300  1.0  -0.0196
  C  C135  1  0.291600  0.835800  0.840000  1.0  -0.1195
  C  C136  1  0.382800  0.765500  0.838400  1.0  0.1554
  C  C137  1  0.565800  0.907200  0.856300  1.0  0.1835
  C  C138  1  0.940600  0.930100  0.863020  1.0  -0.2244
  C  C139  1  0.020300  0.025400  0.863830  1.0  -0.0567
  C  C140  1  0.093900  0.092100  0.928570  1.0  -0.0925
  C  C141  1  0.169700  0.187500  0.927130  1.0  -0.1708
  C  C142  1  0.460500  0.853100  0.671110  1.0  0.1557
  C  C143  1  0.368100  0.922300  0.669600  1.0  -0.142
  C  C144  1  0.414100  0.032400  0.672200  1.0  -0.0261
  C  C145  1  0.553200  0.070700  0.677400  1.0  -0.0458
  C  C146  1  0.641200  0.995600  0.677650  1.0  0.1941
  C  C147  1  0.607300  0.187900  0.682400  1.0  0.1596
  C  C148  1  0.224900  0.190100  0.476830  1.0  0.6651
  C  C149  1  0.313100  0.297300  0.503240  1.0  -0.202
  C  C150  1  0.899100  0.216600  0.504100  1.0  0.1853
  C  C151  1  0.811300  0.290600  0.503800  1.0  -0.065
  C  C152  1  0.676000  0.252200  0.505900  1.0  -0.0233
  C  C153  1  0.633500  0.141800  0.508700  1.0  -0.1596
  C  C154  1  0.727500  0.074300  0.508800  1.0  0.1662
  C  C155  1  0.862400  0.407100  0.503200  1.0  0.1528
  N  N156  1  0.267000  0.775500  0.314100  1.0  -0.2289
  N  N157  1  0.119600  0.327900  0.317030  1.0  -0.2997
  N  N158  1  0.239100  0.661100  0.312300  1.0  -0.2378
  N  N159  1  0.480300  0.198900  0.153780  1.0  -0.3334
  N  N160  1  0.196400  0.413800  0.135140  1.0  -0.304
  N  N161  1  0.312200  0.748900  0.128800  1.0  -0.2064
  N  N162  1  0.338500  0.863300  0.132500  1.0  -0.215
  N  N163  1  0.404100  0.112200  0.325200  1.0  -0.3418
  N  N164  1  0.140400  0.890600  0.494090  1.0  -0.3199
  N  N165  1  0.014000  0.557500  0.499700  1.0  -0.2418
  N  N166  1  0.733000  0.224500  0.685900  1.0  -0.2295
  N  N167  1  0.880400  0.672100  0.682970  1.0  -0.3015
  N  N168  1  0.760900  0.338900  0.687700  1.0  -0.2394
  N  N169  1  0.519700  0.801100  0.846220  1.0  -0.3307
  N  N170  1  0.803600  0.586200  0.864860  1.0  -0.3049
  N  N171  1  0.687800  0.251100  0.871200  1.0  -0.2052
  N  N172  1  0.661500  0.136700  0.867500  1.0  -0.2133
  N  N173  1  0.595900  0.887800  0.674800  1.0  -0.3393
  N  N174  1  0.859600  0.109400  0.505910  1.0  -0.3172
  N  N175  1  0.986000  0.442500  0.500300  1.0  -0.2414
  O  O176  1  0.102200  0.100790  0.263170  1.0  -0.5762
  O  O177  1  0.227800  0.212110  0.207150  1.0  -0.6865
  O  O178  1  0.764200  0.769290  0.948830  1.0  -0.5766
  O  O179  1  0.460300  0.390040  0.244040  1.0  -0.635
  O  O180  1  0.422000  0.349220  0.352140  1.0  -0.593
  O  O181  1  0.783100  0.840700  0.587240  1.0  -0.623
  O  O182  1  0.835800  0.865970  0.482040  1.0  -0.6373
  O  O183  1  0.689300  0.651600  0.021030  1.0  -0.554
  O  O184  1  0.897800  0.899210  0.736830  1.0  -0.578
  O  O185  1  0.772200  0.787890  0.792850  1.0  -0.687
  O  O186  1  0.235800  0.230710  0.051170  1.0  -0.5765
  O  O187  1  0.539700  0.609960  0.755960  1.0  -0.6364
  O  O188  1  0.578000  0.650780  0.647860  1.0  -0.592
  O  O189  1  0.216900  0.159300  0.412760  1.0  -0.6225
  O  O190  1  0.164200  0.134030  0.517960  1.0  -0.6368
  O  O191  1  0.310700  0.348400  0.978970  1.0  -0.5548
