# generated using pymatgen
data_CoH18C20(NO)4
_symmetry_space_group_name_H-M   'P 1'
_cell_length_a   12.49700000
_cell_length_b   12.56460000
_cell_length_c   15.16970000
_cell_angle_alpha   75.52300000
_cell_angle_beta   77.74800000
_cell_angle_gamma   85.43900000
_symmetry_Int_Tables_number   1
_chemical_formula_structural   CoH18C20(NO)4
_chemical_formula_sum   'Co4 H72 C80 N16 O16'
_cell_volume   2252.90075646
_cell_formula_units_Z   4
loop_
 _symmetry_equiv_pos_site_id
 _symmetry_equiv_pos_as_xyz
  1  'x, y, z'
loop_
 _atom_site_type_symbol
 _atom_site_label
 _atom_site_symmetry_multiplicity
 _atom_site_fract_x
 _atom_site_fract_y
 _atom_site_fract_z
 _atom_site_occupancy
 _atom_site_charge
  Co  Co1  1  0.523940  0.531480  0.623350  1.0  0.8872
  Co  Co2  1  0.011250  0.009650  0.126170  1.0  0.8745
  Co  Co3  1  0.476060  0.468520  0.376650  1.0  0.89
  Co  Co4  1  0.988750  0.990350  0.873830  1.0  0.8735
  H  H5  1  0.631500  0.557700  0.880500  1.0  0.1149
  H  H6  1  0.429700  0.462600  0.951600  1.0  0.0973
  H  H7  1  0.516700  0.783500  0.609500  1.0  0.0958
  H  H8  1  0.209300  0.905300  0.623200  1.0  0.11
  H  H9  1  0.152000  0.729400  0.639200  1.0  0.1297
  H  H10  1  0.278500  0.586000  0.641400  1.0  0.0828
  H  H11  1  0.782400  0.014600  0.656900  1.0  0.1151
  H  H12  1  0.684700  0.935800  0.704900  1.0  0.1536
  H  H13  1  0.726600  0.959100  0.597100  1.0  0.1322
  H  H14  1  0.763300  0.473300  0.616400  1.0  0.0973
  H  H15  1  0.832900  0.154000  0.634600  1.0  0.1184
  H  H16  1  0.528300  0.277500  0.634000  1.0  0.082
  H  H17  1  0.953300  0.249300  0.122000  1.0  0.0883
  H  H18  1  0.809100  0.375200  0.126100  1.0  0.1231
  H  H19  1  0.633800  0.317000  0.136500  1.0  0.1153
  H  H20  1  0.760500  0.014700  0.134300  1.0  0.0819
  H  H21  1  0.493500  0.260900  0.165600  1.0  0.1116
  H  H22  1  0.433400  0.210400  0.105300  1.0  0.1226
  H  H23  1  0.419900  0.158600  0.212300  1.0  0.1417
  H  H24  1  0.526900  0.753400  0.085500  1.0  0.1271
  H  H25  1  0.599900  0.856000  0.038300  1.0  0.1233
  H  H26  1  0.588400  0.803500  0.145000  1.0  0.1119
  H  H27  1  0.262900  0.001700  0.114000  1.0  0.0807
  H  H28  1  0.385900  0.697100  0.118300  1.0  0.1108
  H  H29  1  0.210800  0.642300  0.124500  1.0  0.1189
  H  H30  1  0.066500  0.768300  0.129300  1.0  0.0858
  H  H31  1  0.217100  0.284000  0.913200  1.0  0.1095
  H  H32  1  0.148400  0.203800  0.782100  1.0  0.0915
  H  H33  1  0.305800  0.369300  0.747000  1.0  0.0924
  H  H34  1  0.225500  0.284800  0.623700  1.0  0.0868
  H  H35  1  0.269100  0.048200  0.575200  1.0  0.1209
  H  H36  1  0.318700  0.108500  0.635600  1.0  0.1189
  H  H37  1  0.371800  0.121300  0.530300  1.0  0.1238
  H  H38  1  0.934400  0.886000  0.438300  1.0  0.1119
  H  H39  1  0.039200  0.077900  0.415800  1.0  0.1047
  H  H40  1  0.889200  0.328900  0.623700  1.0  0.1159
  H  H41  1  0.368500  0.442300  0.119500  1.0  0.1158
  H  H42  1  0.570300  0.537400  0.048400  1.0  0.097
  H  H43  1  0.483300  0.216500  0.390500  1.0  0.0969
  H  H44  1  0.790700  0.094700  0.376800  1.0  0.1125
  H  H45  1  0.848000  0.270600  0.360800  1.0  0.1303
  H  H46  1  0.721500  0.414000  0.358600  1.0  0.0831
  H  H47  1  0.217600  0.985400  0.343100  1.0  0.1159
  H  H48  1  0.315300  0.064200  0.295100  1.0  0.1553
  H  H49  1  0.273400  0.040900  0.402900  1.0  0.1321
  H  H50  1  0.236700  0.526700  0.383600  1.0  0.0968
  H  H51  1  0.167100  0.846000  0.365400  1.0  0.1168
  H  H52  1  0.471700  0.722500  0.366000  1.0  0.0816
  H  H53  1  0.046700  0.750700  0.878000  1.0  0.0886
  H  H54  1  0.190900  0.624800  0.873900  1.0  0.1238
  H  H55  1  0.366200  0.683000  0.863500  1.0  0.1162
  H  H56  1  0.239500  0.985300  0.865700  1.0  0.0816
  H  H57  1  0.506500  0.739100  0.834400  1.0  0.1114
  H  H58  1  0.566600  0.789600  0.894700  1.0  0.1211
  H  H59  1  0.580100  0.841400  0.787700  1.0  0.1412
  H  H60  1  0.473100  0.246600  0.914500  1.0  0.1286
  H  H61  1  0.400100  0.144000  0.961700  1.0  0.1232
  H  H62  1  0.411600  0.196500  0.855000  1.0  0.1113
  H  H63  1  0.737100  0.998300  0.886000  1.0  0.0809
  H  H64  1  0.614100  0.302900  0.881700  1.0  0.1108
  H  H65  1  0.789200  0.357700  0.875500  1.0  0.1179
  H  H66  1  0.933500  0.231700  0.870700  1.0  0.0859
  H  H67  1  0.782900  0.716000  0.086800  1.0  0.1106
  H  H68  1  0.851600  0.796200  0.217900  1.0  0.0916
  H  H69  1  0.694200  0.630700  0.253000  1.0  0.0917
  H  H70  1  0.774500  0.715200  0.376300  1.0  0.0862
  H  H71  1  0.730900  0.951800  0.424800  1.0  0.1196
  H  H72  1  0.681300  0.891500  0.364400  1.0  0.1187
  H  H73  1  0.628200  0.878700  0.469700  1.0  0.1239
  H  H74  1  0.065600  0.114000  0.561700  1.0  0.1115
  H  H75  1  0.960800  0.922100  0.584200  1.0  0.1054
  H  H76  1  0.110800  0.671100  0.376300  1.0  0.1147
  C  C77  1  0.546000  0.527200  0.784300  1.0  0.6547
  C  C78  1  0.566000  0.530300  0.876900  1.0  -0.1411
  C  C79  1  0.492600  0.494900  0.954900  1.0  -0.0817
  C  C80  1  0.442400  0.772800  0.615800  1.0  0.2276
  C  C81  1  0.370300  0.863400  0.616300  1.0  -0.0903
  C  C82  1  0.259700  0.846600  0.624200  1.0  -0.0802
  C  C83  1  0.225700  0.742200  0.633400  1.0  -0.1443
  C  C84  1  0.302300  0.656500  0.633900  1.0  0.1706
  C  C85  1  0.409000  0.974000  0.610800  1.0  0.2716
  C  C86  1  0.634900  0.086200  0.637100  1.0  0.2502
  C  C87  1  0.714300  0.990300  0.650200  1.0  -0.3564
  C  C88  1  0.739900  0.403200  0.621600  1.0  0.1707
  C  C89  1  0.782600  0.212800  0.631700  1.0  -0.0862
  C  C90  1  0.673200  0.196100  0.633800  1.0  -0.0674
  C  C91  1  0.601900  0.287600  0.631300  1.0  0.2099
  C  C92  1  0.883400  0.226100  0.125500  1.0  0.1816
  C  C93  1  0.797300  0.302400  0.128100  1.0  -0.1074
  C  C94  1  0.693200  0.267500  0.133800  1.0  -0.0879
  C  C95  1  0.677100  0.158400  0.135400  1.0  -0.0471
  C  C96  1  0.769700  0.087900  0.132600  1.0  0.2035
  C  C97  1  0.566900  0.119200  0.138900  1.0  0.1972
  C  C98  1  0.469700  0.194000  0.157200  1.0  -0.3501
  C  C99  1  0.453900  0.894800  0.113700  1.0  0.2803
  C  C100  1  0.551000  0.820200  0.093800  1.0  -0.3505
  C  C101  1  0.252600  0.928200  0.117200  1.0  0.2149
  C  C102  1  0.343700  0.857100  0.116900  1.0  -0.0632
  C  C103  1  0.327200  0.747500  0.119300  1.0  -0.195
  C  C104  1  0.223000  0.714800  0.123300  1.0  -0.1228
  C  C105  1  0.136600  0.791300  0.125400  1.0  0.1657
  C  C106  1  0.181500  0.235900  0.892100  1.0  -0.2294
  C  C107  1  0.191400  0.247200  0.801300  1.0  -0.0765
  C  C108  1  0.264400  0.322400  0.729800  1.0  -0.1315
  C  C109  1  0.273300  0.325500  0.640500  1.0  -0.1933
  C  C110  1  0.357000  0.391800  0.565800  1.0  0.6894
  C  C111  1  0.335600  0.071700  0.585800  1.0  -0.3486
  C  C112  1  0.986600  0.977100  0.301300  1.0  0.6529
  C  C113  1  0.970500  0.949900  0.404400  1.0  -0.1057
  C  C114  1  0.005500  0.012900  0.450100  1.0  -0.053
  C  C115  1  0.114200  0.147300  0.960800  1.0  0.6957
  C  C116  1  0.816300  0.316900  0.625400  1.0  -0.096
  C  C117  1  0.454000  0.472800  0.215700  1.0  0.6578
  C  C118  1  0.434000  0.469700  0.123100  1.0  -0.1395
  C  C119  1  0.507400  0.505100  0.045100  1.0  -0.0778
  C  C120  1  0.557600  0.227200  0.384200  1.0  0.2274
  C  C121  1  0.629700  0.136600  0.383700  1.0  -0.0928
  C  C122  1  0.740300  0.153400  0.375800  1.0  -0.0788
  C  C123  1  0.774300  0.257800  0.366600  1.0  -0.1425
  C  C124  1  0.697700  0.343500  0.366100  1.0  0.171
  C  C125  1  0.591000  0.026000  0.389200  1.0  0.272
  C  C126  1  0.365100  0.913800  0.362900  1.0  0.2482
  C  C127  1  0.285700  0.009700  0.349800  1.0  -0.3552
  C  C128  1  0.260100  0.596800  0.378400  1.0  0.1708
  C  C129  1  0.217400  0.787200  0.368300  1.0  -0.0877
  C  C130  1  0.326800  0.803900  0.366200  1.0  -0.0667
  C  C131  1  0.398100  0.712400  0.368700  1.0  0.2096
  C  C132  1  0.116600  0.773900  0.874500  1.0  0.1795
  C  C133  1  0.202700  0.697600  0.871900  1.0  -0.1085
  C  C134  1  0.306800  0.732500  0.866200  1.0  -0.0867
  C  C135  1  0.322900  0.841600  0.864600  1.0  -0.0455
  C  C136  1  0.230300  0.912100  0.867400  1.0  0.203
  C  C137  1  0.433100  0.880800  0.861100  1.0  0.1981
  C  C138  1  0.530300  0.806000  0.842800  1.0  -0.3532
  C  C139  1  0.546100  0.105200  0.886300  1.0  0.2822
  C  C140  1  0.449000  0.179800  0.906200  1.0  -0.3499
  C  C141  1  0.747400  0.071800  0.882800  1.0  0.2161
  C  C142  1  0.656300  0.142900  0.883100  1.0  -0.0633
  C  C143  1  0.672800  0.252500  0.880700  1.0  -0.194
  C  C144  1  0.777000  0.285200  0.876700  1.0  -0.1179
  C  C145  1  0.863400  0.208700  0.874600  1.0  0.1673
  C  C146  1  0.818500  0.764100  0.107900  1.0  -0.2285
  C  C147  1  0.808600  0.752800  0.198700  1.0  -0.0727
  C  C148  1  0.735600  0.677600  0.270200  1.0  -0.1333
  C  C149  1  0.726700  0.674500  0.359500  1.0  -0.1913
  C  C150  1  0.643000  0.608200  0.434200  1.0  0.6891
  C  C151  1  0.664400  0.928300  0.414200  1.0  -0.3494
  C  C152  1  0.013400  0.022900  0.698700  1.0  0.6535
  C  C153  1  0.029500  0.050100  0.595600  1.0  -0.1065
  C  C154  1  0.994500  0.987100  0.549900  1.0  -0.055
  C  C155  1  0.885800  0.852700  0.039200  1.0  0.6971
  C  C156  1  0.183700  0.683100  0.374600  1.0  -0.0983
  N  N157  1  0.409600  0.671200  0.624100  1.0  -0.3206
  N  N158  1  0.633400  0.389500  0.625000  1.0  -0.3151
  N  N159  1  0.150500  0.897400  0.121900  1.0  -0.3367
  N  N160  1  0.871200  0.120500  0.127800  1.0  -0.3241
  N  N161  1  0.536100  0.082200  0.626100  1.0  -0.3388
  N  N162  1  0.504700  0.976100  0.629400  1.0  -0.321
  N  N163  1  0.457700  0.990500  0.128200  1.0  -0.3438
  N  N164  1  0.563800  0.022400  0.124600  1.0  -0.3452
  N  N165  1  0.590400  0.328800  0.375900  1.0  -0.3225
  N  N166  1  0.366600  0.610500  0.375000  1.0  -0.3131
  N  N167  1  0.849500  0.102600  0.878100  1.0  -0.3354
  N  N168  1  0.128800  0.879500  0.872200  1.0  -0.3247
  N  N169  1  0.463900  0.917800  0.373900  1.0  -0.3369
  N  N170  1  0.495300  0.023900  0.370600  1.0  -0.3207
  N  N171  1  0.542300  0.009500  0.871800  1.0  -0.3414
  N  N172  1  0.436200  0.977600  0.875400  1.0  -0.3463
  O  O173  1  0.609000  0.583200  0.713500  1.0  -0.572
  O  O174  1  0.470100  0.473600  0.776400  1.0  -0.5625
  O  O175  1  0.411600  0.457800  0.586100  1.0  -0.621
  O  O176  1  0.367200  0.377400  0.485300  1.0  -0.5728
  O  O177  1  0.042300  0.057800  0.251300  1.0  -0.5579
  O  O178  1  0.945000  0.915000  0.264600  1.0  -0.5739
  O  O179  1  0.112400  0.137700  0.046100  1.0  -0.5839
  O  O180  1  0.062400  0.085300  0.933600  1.0  -0.6635
  O  O181  1  0.391000  0.416800  0.286500  1.0  -0.5714
  O  O182  1  0.529900  0.526400  0.223600  1.0  -0.5621
  O  O183  1  0.588400  0.542200  0.413900  1.0  -0.6207
  O  O184  1  0.632800  0.622600  0.514700  1.0  -0.5726
  O  O185  1  0.957700  0.942200  0.748700  1.0  -0.5602
  O  O186  1  0.055000  0.085000  0.735400  1.0  -0.5738
  O  O187  1  0.887600  0.862300  0.953900  1.0  -0.5827
  O  O188  1  0.937600  0.914700  0.066400  1.0  -0.6649
