# generated using pymatgen
data_Ni2S(OF)4
_symmetry_space_group_name_H-M   'P 1'
_cell_length_a   10.87220000
_cell_length_b   10.87220000
_cell_length_c   8.90980000
_cell_angle_alpha   90.00000000
_cell_angle_beta   90.00000000
_cell_angle_gamma   90.00000000
_symmetry_Int_Tables_number   1
_chemical_formula_structural   Ni2S(OF)4
_chemical_formula_sum   'Ni8 S4 O16 F16'
_cell_volume   1053.18052866
_cell_formula_units_Z   4
loop_
 _symmetry_equiv_pos_site_id
 _symmetry_equiv_pos_as_xyz
  1  'x, y, z'
loop_
 _atom_site_type_symbol
 _atom_site_label
 _atom_site_symmetry_multiplicity
 _atom_site_fract_x
 _atom_site_fract_y
 _atom_site_fract_z
 _atom_site_occupancy
 _atom_site_charge
  Ni  Ni1  1  0.100310  0.897260  0.099350  1.0  0.9586
  Ni  Ni2  1  0.442910  0.615270  0.921920  1.0  0.8595
  Ni  Ni3  1  0.899690  0.102740  0.599350  1.0  0.9603
  Ni  Ni4  1  0.557090  0.384730  0.421920  1.0  0.8597
  Ni  Ni5  1  0.102740  0.100310  0.349350  1.0  0.9573
  Ni  Ni6  1  0.384730  0.442910  0.171920  1.0  0.8596
  Ni  Ni7  1  0.897260  0.899690  0.849350  1.0  0.9557
  Ni  Ni8  1  0.615270  0.557090  0.671920  1.0  0.8596
  S  S9  1  0.160340  0.607550  0.032000  1.0  1.7482
  S  S10  1  0.839660  0.392450  0.532000  1.0  1.7489
  S  S11  1  0.392450  0.160340  0.282000  1.0  1.7501
  S  S12  1  0.607550  0.839660  0.782000  1.0  1.749
  O  O13  1  0.105700  0.708300  0.121200  1.0  -0.5308
  O  O14  1  0.261300  0.659100  0.938500  1.0  -0.5258
  O  O15  1  0.207100  0.512600  0.136300  1.0  -0.514
  O  O16  1  0.066000  0.554000  0.935300  1.0  -0.4457
  O  O17  1  0.894300  0.291700  0.621200  1.0  -0.5299
  O  O18  1  0.738700  0.340900  0.438500  1.0  -0.5268
  O  O19  1  0.792900  0.487400  0.636300  1.0  -0.5127
  O  O20  1  0.934000  0.446000  0.435300  1.0  -0.4455
  O  O21  1  0.291700  0.105700  0.371200  1.0  -0.5323
  O  O22  1  0.340900  0.261300  0.188500  1.0  -0.5258
  O  O23  1  0.487400  0.207100  0.386300  1.0  -0.5142
  O  O24  1  0.446000  0.066000  0.185300  1.0  -0.4465
  O  O25  1  0.708300  0.894300  0.871200  1.0  -0.5302
  O  O26  1  0.659100  0.738700  0.688500  1.0  -0.5253
  O  O27  1  0.512600  0.792900  0.886300  1.0  -0.5154
  O  O28  1  0.554000  0.934000  0.685300  1.0  -0.447
  F  F29  1  0.098100  0.083100  0.122900  1.0  -0.3961
  F  F30  1  0.095100  0.914800  0.327400  1.0  -0.3972
  F  F31  1  0.405100  0.434500  0.950500  1.0  -0.3797
  F  F32  1  0.440500  0.619900  0.149800  1.0  -0.3818
  F  F33  1  0.901900  0.916900  0.622900  1.0  -0.3965
  F  F34  1  0.904900  0.085200  0.827400  1.0  -0.3952
  F  F35  1  0.594900  0.565500  0.450500  1.0  -0.3764
  F  F36  1  0.559500  0.380100  0.649800  1.0  -0.3843
  F  F37  1  0.916900  0.098100  0.372900  1.0  -0.3928
  F  F38  1  0.085200  0.095100  0.577400  1.0  -0.3944
  F  F39  1  0.565500  0.405100  0.200500  1.0  -0.3768
  F  F40  1  0.380100  0.440500  0.399800  1.0  -0.381
  F  F41  1  0.083100  0.901900  0.872900  1.0  -0.3943
  F  F42  1  0.914800  0.904900  0.077400  1.0  -0.3933
  F  F43  1  0.434500  0.594900  0.700500  1.0  -0.3765
  F  F44  1  0.619900  0.559500  0.899800  1.0  -0.3823
