# generated using pymatgen
data_Na3H31C30S7O19
_symmetry_space_group_name_H-M   'P 1'
_cell_length_a   9.99800000
_cell_length_b   16.21600000
_cell_length_c   16.66300000
_cell_angle_alpha   94.89900000
_cell_angle_beta   102.41000000
_cell_angle_gamma   96.10100000
_symmetry_Int_Tables_number   1
_chemical_formula_structural   Na3H31C30S7O19
_chemical_formula_sum   'Na6 H62 C60 S14 O38'
_cell_volume   2607.11879441
_cell_formula_units_Z   2
loop_
 _symmetry_equiv_pos_site_id
 _symmetry_equiv_pos_as_xyz
  1  'x, y, z'
loop_
 _atom_site_type_symbol
 _atom_site_label
 _atom_site_symmetry_multiplicity
 _atom_site_fract_x
 _atom_site_fract_y
 _atom_site_fract_z
 _atom_site_occupancy
 _atom_site_charge
  Na  Na1  1  0.110600  0.946200  0.452500  1.0  0.9148
  Na  Na2  1  0.472700  0.104000  0.541800  1.0  0.929
  Na  Na3  1  0.252000  0.156100  0.863200  1.0  0.935
  Na  Na4  1  0.889400  0.053800  0.547500  1.0  0.9141
  Na  Na5  1  0.527300  0.896000  0.458200  1.0  0.9299
  Na  Na6  1  0.748000  0.843900  0.136800  1.0  0.9354
  H  H7  1  0.717000  0.501600  0.156700  1.0  0.11
  H  H8  1  0.344200  0.585500  0.153200  1.0  0.1054
  H  H9  1  0.941500  0.246100  0.233900  1.0  0.1052
  H  H10  1  0.118400  0.483400  0.205800  1.0  0.1195
  H  H11  1  0.288700  0.948900  0.117100  1.0  0.0924
  H  H12  1  0.959900  0.042200  0.182500  1.0  0.1144
  H  H13  1  0.504200  0.043300  0.170900  1.0  0.105
  H  H14  1  0.713300  0.287400  0.208100  1.0  0.1077
  H  H15  1  0.936100  0.507600  0.281400  1.0  0.1192
  H  H16  1  0.838900  0.438500  0.306800  1.0  0.1202
  H  H17  1  0.954200  0.502300  0.387300  1.0  0.095
  H  H18  1  0.165800  0.492000  0.413800  1.0  0.1189
  H  H19  1  0.249200  0.427900  0.380900  1.0  0.109
  H  H20  1  0.206600  0.501000  0.330900  1.0  0.1214
  H  H21  1  0.921300  0.313100  0.359300  1.0  0.1122
  H  H22  1  0.026200  0.376200  0.440500  1.0  0.1035
  H  H23  1  0.076900  0.302300  0.378500  1.0  0.1054
  H  H24  1  0.843800  0.257300  0.905000  1.0  0.1279
  H  H25  1  0.879100  0.357600  0.938400  1.0  0.1087
  H  H26  1  0.126200  0.334100  0.811700  1.0  0.3007
  H  H27  1  0.262100  0.352700  0.980700  1.0  0.339
  H  H28  1  0.070400  0.187500  0.985700  1.0  0.3569
  H  H29  1  0.481300  0.260600  0.958900  1.0  0.3023
  H  H30  1  0.894700  0.881800  0.547900  1.0  0.4586
  H  H31  1  0.036700  0.913900  0.611900  1.0  0.3886
  H  H32  1  0.290000  0.002100  0.602900  1.0  0.4524
  H  H33  1  0.223300  0.066100  0.585700  1.0  0.4597
  H  H34  1  0.357300  0.005200  0.375300  1.0  0.4613
  H  H35  1  0.471000  0.049100  0.373900  1.0  0.4471
  H  H36  1  0.262600  0.802700  0.447000  1.0  0.4657
  H  H37  1  0.293800  0.820700  0.530200  1.0  0.3836
  H  H38  1  0.283000  0.498400  0.843300  1.0  0.1101
  H  H39  1  0.655800  0.414500  0.846800  1.0  0.1062
  H  H40  1  0.058500  0.753900  0.766100  1.0  0.1043
  H  H41  1  0.881600  0.516600  0.794200  1.0  0.1196
  H  H42  1  0.711300  0.051100  0.882900  1.0  0.0925
  H  H43  1  0.040100  0.957800  0.817500  1.0  0.1157
  H  H44  1  0.495800  0.956700  0.829100  1.0  0.105
  H  H45  1  0.286700  0.712600  0.791900  1.0  0.1075
  H  H46  1  0.063900  0.492400  0.718600  1.0  0.12
  H  H47  1  0.161100  0.561500  0.693200  1.0  0.1212
  H  H48  1  0.045800  0.497700  0.612700  1.0  0.0941
  H  H49  1  0.834200  0.508000  0.586200  1.0  0.1196
  H  H50  1  0.750800  0.572100  0.619100  1.0  0.1108
  H  H51  1  0.793400  0.499000  0.669100  1.0  0.1213
  H  H52  1  0.078700  0.686900  0.640700  1.0  0.1148
  H  H53  1  0.973800  0.623800  0.559500  1.0  0.1033
  H  H54  1  0.923100  0.697700  0.621500  1.0  0.1057
  H  H55  1  0.156200  0.742700  0.095000  1.0  0.1277
  H  H56  1  0.120900  0.642400  0.061600  1.0  0.1055
  H  H57  1  0.873800  0.665900  0.188300  1.0  0.301
  H  H58  1  0.737900  0.647300  0.019300  1.0  0.3379
  H  H59  1  0.929600  0.812500  0.014300  1.0  0.3575
  H  H60  1  0.518700  0.739400  0.041100  1.0  0.2995
  H  H61  1  0.105300  0.118200  0.452100  1.0  0.4486
  H  H62  1  0.963300  0.086100  0.388100  1.0  0.3601
  H  H63  1  0.710000  0.997900  0.397100  1.0  0.4524
  H  H64  1  0.776700  0.933900  0.414300  1.0  0.4569
  H  H65  1  0.642700  0.994800  0.624700  1.0  0.4631
  H  H66  1  0.529000  0.950900  0.626100  1.0  0.4463
  H  H67  1  0.737400  0.197300  0.553000  1.0  0.464
  H  H68  1  0.706200  0.179300  0.469800  1.0  0.3862
  C  C69  1  0.406100  0.416400  0.057900  1.0  0.2762
  C  C70  1  0.549100  0.425200  0.088000  1.0  -0.0836
  C  C71  1  0.616100  0.496400  0.140400  1.0  -0.0233
  C  C72  1  0.539600  0.557700  0.163000  1.0  -0.2093
  C  C73  1  0.398000  0.548800  0.134600  1.0  0.0108
  C  C74  1  0.330300  0.478600  0.081300  1.0  -0.1307
  C  C75  1  0.030000  0.319600  0.070100  1.0  0.1841
  C  C76  1  0.982700  0.265100  0.121200  1.0  -0.0486
  C  C77  1  0.990800  0.292600  0.203900  1.0  -0.0777
  C  C78  1  0.039900  0.375600  0.235900  1.0  0.0334
  C  C79  1  0.085600  0.428700  0.183500  1.0  -0.0966
  C  C80  1  0.084200  0.401400  0.102100  1.0  -0.0476
  C  C81  1  0.126900  0.094900  0.045600  1.0  0.2895
  C  C82  1  0.222500  0.037700  0.057900  1.0  -0.0796
  C  C83  1  0.214800  0.979800  0.114600  1.0  -0.0257
  C  C84  1  0.115800  0.981100  0.160700  1.0  -0.2517
  C  C85  1  0.023300  0.039900  0.151400  1.0  0.0526
  C  C86  1  0.028300  0.096400  0.094600  1.0  -0.1092
  C  C87  1  0.512000  0.194400  0.037600  1.0  0.2917
  C  C88  1  0.475300  0.118600  0.066300  1.0  -0.0559
  C  C89  1  0.532500  0.104600  0.146800  1.0  -0.0545
  C  C90  1  0.622600  0.166700  0.199400  1.0  -0.2259
  C  C91  1  0.654700  0.243700  0.172700  1.0  -0.007
  C  C92  1  0.599900  0.257400  0.091800  1.0  -0.1117
  C  C93  1  0.920300  0.308800  0.926300  1.0  -0.1073
  C  C94  1  0.972000  0.329300  0.851300  1.0  0.6587
  C  C95  1  0.040700  0.410000  0.324600  1.0  0.2009
  C  C96  1  0.929600  0.467900  0.320800  1.0  -0.2368
  C  C97  1  0.178000  0.461800  0.366300  1.0  -0.3582
  C  C98  1  0.012000  0.342400  0.378100  1.0  -0.3544
  C  C99  1  0.593900  0.583600  0.942100  1.0  0.2747
  C  C100  1  0.450900  0.574800  0.912000  1.0  -0.0852
  C  C101  1  0.383900  0.503600  0.859600  1.0  -0.0231
  C  C102  1  0.460400  0.442300  0.837000  1.0  -0.2105
  C  C103  1  0.602000  0.451200  0.865400  1.0  0.0126
  C  C104  1  0.669700  0.521400  0.918700  1.0  -0.1293
  C  C105  1  0.970000  0.680400  0.929900  1.0  0.1837
  C  C106  1  0.017300  0.734900  0.878800  1.0  -0.0484
  C  C107  1  0.009200  0.707400  0.796100  1.0  -0.077
  C  C108  1  0.960100  0.624400  0.764100  1.0  0.0329
  C  C109  1  0.914400  0.571300  0.816500  1.0  -0.0972
  C  C110  1  0.915800  0.598600  0.897900  1.0  -0.0475
  C  C111  1  0.873100  0.905100  0.954400  1.0  0.29
  C  C112  1  0.777500  0.962300  0.942100  1.0  -0.0785
  C  C113  1  0.785200  0.020200  0.885400  1.0  -0.0296
  C  C114  1  0.884200  0.018900  0.839300  1.0  -0.2516
  C  C115  1  0.976700  0.960100  0.848600  1.0  0.0535
  C  C116  1  0.971700  0.903600  0.905400  1.0  -0.1076
  C  C117  1  0.488000  0.805600  0.962400  1.0  0.2916
  C  C118  1  0.524700  0.881400  0.933700  1.0  -0.0565
  C  C119  1  0.467500  0.895400  0.853200  1.0  -0.0533
  C  C120  1  0.377400  0.833300  0.800600  1.0  -0.2256
  C  C121  1  0.345300  0.756300  0.827300  1.0  -0.0083
  C  C122  1  0.400100  0.742600  0.908200  1.0  -0.112
  C  C123  1  0.079700  0.691200  0.073700  1.0  -0.1049
  C  C124  1  0.028000  0.670700  0.148700  1.0  0.6598
  C  C125  1  0.959300  0.590000  0.675400  1.0  0.2006
  C  C126  1  0.070400  0.532100  0.679200  1.0  -0.2812
  C  C127  1  0.822000  0.538200  0.633700  1.0  -0.36
  C  C128  1  0.988000  0.657600  0.621900  1.0  -0.3575
  S  S129  1  0.150800  0.470490  0.037550  1.0  -0.0299
  S  S130  1  0.896700  0.163520  0.076650  1.0  -0.0319
  S  S131  1  0.353900  0.038060  0.000840  1.0  -0.0802
  S  S132  1  0.653100  0.352810  0.054190  1.0  -0.0092
  S  S133  1  0.109000  0.908790  0.234850  1.0  1.4237
  S  S134  1  0.703000  0.146300  0.300270  1.0  1.3666
  S  S135  1  0.623300  0.650320  0.226910  1.0  1.383
  S  S136  1  0.849200  0.529510  0.962450  1.0  -0.0301
  S  S137  1  0.103300  0.836480  0.923350  1.0  -0.0314
  S  S138  1  0.646100  0.961940  0.999160  1.0  -0.0836
  S  S139  1  0.346900  0.647190  0.945810  1.0  -0.01
  S  S140  1  0.891000  0.091210  0.765150  1.0  1.4228
  S  S141  1  0.297000  0.853700  0.699730  1.0  1.3671
  S  S142  1  0.376700  0.349680  0.773090  1.0  1.3814
  O  O143  1  0.346300  0.347600  0.006800  1.0  -0.4661
  O  O144  1  0.031900  0.291000  0.989900  1.0  -0.2351
  O  O145  1  0.137600  0.148000  0.988500  1.0  -0.5408
  O  O146  1  0.461900  0.202500  0.956900  1.0  -0.5358
  O  O147  1  0.898100  0.354200  0.793600  1.0  -0.5143
  O  O148  1  0.101500  0.317400  0.855500  1.0  -0.5611
  O  O149  1  0.963800  0.875600  0.221500  1.0  -0.7995
  O  O150  1  0.160200  0.955500  0.316500  1.0  -0.776
  O  O151  1  0.194700  0.846300  0.216900  1.0  -0.6414
  O  O152  1  0.625200  0.068300  0.313400  1.0  -0.71
  O  O153  1  0.689000  0.215700  0.356400  1.0  -0.623
  O  O154  1  0.844400  0.135600  0.298300  1.0  -0.6586
  O  O155  1  0.766200  0.634700  0.257200  1.0  -0.6763
  O  O156  1  0.550800  0.661500  0.292200  1.0  -0.6651
  O  O157  1  0.615200  0.717000  0.174400  1.0  -0.7555
  O  O158  1  0.975800  0.918200  0.562200  1.0  -1.0015
  O  O159  1  0.264900  0.031700  0.564300  1.0  -0.9385
  O  O160  1  0.430200  0.022900  0.407300  1.0  -0.9728
  O  O161  1  0.292200  0.848000  0.479900  1.0  -0.903
  O  O162  1  0.653700  0.652400  0.993200  1.0  -0.4622
  O  O163  1  0.968100  0.709000  0.010100  1.0  -0.2358
  O  O164  1  0.862400  0.852000  0.011500  1.0  -0.5425
  O  O165  1  0.538100  0.797500  0.043100  1.0  -0.5382
  O  O166  1  0.101900  0.645800  0.206400  1.0  -0.5153
  O  O167  1  0.898500  0.682600  0.144500  1.0  -0.5624
  O  O168  1  0.036200  0.124400  0.778500  1.0  -0.8019
  O  O169  1  0.839800  0.044500  0.683500  1.0  -0.7767
  O  O170  1  0.805300  0.153700  0.783100  1.0  -0.6418
  O  O171  1  0.374800  0.931700  0.686600  1.0  -0.7107
  O  O172  1  0.311000  0.784300  0.643600  1.0  -0.6104
  O  O173  1  0.155600  0.864400  0.701700  1.0  -0.6586
  O  O174  1  0.233800  0.365300  0.742800  1.0  -0.6744
  O  O175  1  0.449200  0.338500  0.707800  1.0  -0.6748
  O  O176  1  0.384800  0.283000  0.825600  1.0  -0.7552
  O  O177  1  0.024200  0.081800  0.437800  1.0  -0.9976
  O  O178  1  0.735100  0.968300  0.435700  1.0  -0.9355
  O  O179  1  0.569800  0.977100  0.592700  1.0  -0.9745
  O  O180  1  0.707800  0.152000  0.520100  1.0  -0.9054
