# generated using pymatgen
data_CaH2C8(BrO2)2
_symmetry_space_group_name_H-M   'P 1'
_cell_length_a   7.78340000
_cell_length_b   10.13010000
_cell_length_c   10.32770000
_cell_angle_alpha   103.87300000
_cell_angle_beta   91.79700000
_cell_angle_gamma   90.93500000
_symmetry_Int_Tables_number   1
_chemical_formula_structural   CaH2C8(BrO2)2
_chemical_formula_sum   'Ca2 H4 C16 Br4 O8'
_cell_volume   789.92340517
_cell_formula_units_Z   2
loop_
 _symmetry_equiv_pos_site_id
 _symmetry_equiv_pos_as_xyz
  1  'x, y, z'
loop_
 _atom_site_type_symbol
 _atom_site_label
 _atom_site_symmetry_multiplicity
 _atom_site_fract_x
 _atom_site_fract_y
 _atom_site_fract_z
 _atom_site_occupancy
 _atom_site_charge
  Ca  Ca1  1  0.250160  0.532630  0.540320  1.0  1.5896
  Ca  Ca2  1  0.749840  0.467370  0.459680  1.0  1.5877
  H  H3  1  0.899200  0.299800  0.858000  1.0  0.1099
  H  H4  1  0.368100  0.796100  0.391300  1.0  0.101
  H  H5  1  0.100800  0.700200  0.142000  1.0  0.1097
  H  H6  1  0.631900  0.203900  0.608700  1.0  0.1014
  C  C7  1  0.997100  0.382800  0.043600  1.0  -0.029
  C  C8  1  0.057800  0.500600  0.129900  1.0  -0.1041
  C  C9  1  0.116500  0.510800  0.272900  1.0  0.7016
  C  C10  1  0.939600  0.380800  0.914700  1.0  -0.0101
  C  C11  1  0.437100  0.122800  0.477600  1.0  -0.098
  C  C12  1  0.421800  0.877900  0.435600  1.0  -0.0155
  C  C13  1  0.374400  0.260400  0.467200  1.0  0.7203
  C  C14  1  0.361000  0.998800  0.414900  1.0  -0.0296
  C  C15  1  0.002900  0.617200  0.956400  1.0  -0.0295
  C  C16  1  0.942200  0.499400  0.870100  1.0  -0.1031
  C  C17  1  0.883500  0.489200  0.727100  1.0  0.7002
  C  C18  1  0.060400  0.619200  0.085300  1.0  -0.0131
  C  C19  1  0.562900  0.877200  0.522400  1.0  -0.1003
  C  C20  1  0.578200  0.122100  0.564400  1.0  -0.0165
  C  C21  1  0.625600  0.739600  0.532800  1.0  0.7216
  C  C22  1  0.639000  0.001200  0.585100  1.0  -0.0282
  Br  Br23  1  0.003740  0.214830  0.093760  1.0  -0.0753
  Br  Br24  1  0.172850  0.986470  0.290750  1.0  -0.1001
  Br  Br25  1  0.996260  0.785170  0.906240  1.0  -0.0771
  Br  Br26  1  0.827150  0.013530  0.709250  1.0  -0.1022
  O  O27  1  0.010700  0.487300  0.354200  1.0  -0.7843
  O  O28  1  0.269200  0.546500  0.306400  1.0  -0.6016
  O  O29  1  0.484400  0.347000  0.451400  1.0  -0.7794
  O  O30  1  0.218900  0.284300  0.481900  1.0  -0.5919
  O  O31  1  0.989300  0.512700  0.645800  1.0  -0.7848
  O  O32  1  0.730800  0.453500  0.693600  1.0  -0.5996
  O  O33  1  0.515600  0.653000  0.548600  1.0  -0.7788
  O  O34  1  0.781100  0.715700  0.518100  1.0  -0.5911
