# generated using pymatgen
data_MgH13(C4O)6
_symmetry_space_group_name_H-M   'P 1'
_cell_length_a   11.85820000
_cell_length_b   28.06400000
_cell_length_c   16.73310000
_cell_angle_alpha   90.00000000
_cell_angle_beta   96.87600000
_cell_angle_gamma   90.00000000
_symmetry_Int_Tables_number   1
_chemical_formula_structural   MgH13(C4O)6
_chemical_formula_sum   'Mg8 H104 C192 O48'
_cell_volume   5528.53205864
_cell_formula_units_Z   8
loop_
 _symmetry_equiv_pos_site_id
 _symmetry_equiv_pos_as_xyz
  1  'x, y, z'
loop_
 _atom_site_type_symbol
 _atom_site_label
 _atom_site_symmetry_multiplicity
 _atom_site_fract_x
 _atom_site_fract_y
 _atom_site_fract_z
 _atom_site_occupancy
 _atom_site_charge
  Mg  Mg1  1  0.423800  0.312740  0.012400  1.0  1.553
  Mg  Mg2  1  0.374100  0.816890  0.490700  1.0  1.5265
  Mg  Mg3  1  0.076200  0.812740  0.487600  1.0  1.5527
  Mg  Mg4  1  0.125900  0.316890  0.009300  1.0  1.5461
  Mg  Mg5  1  0.576200  0.687260  0.987600  1.0  1.5535
  Mg  Mg6  1  0.625900  0.183110  0.509300  1.0  1.5455
  Mg  Mg7  1  0.923800  0.187260  0.512400  1.0  1.5535
  Mg  Mg8  1  0.874100  0.683110  0.990700  1.0  1.5264
  H  H9  1  0.257000  0.639000  0.923000  1.0  0.3574
  H  H10  1  0.225000  0.637500  0.062000  1.0  0.331
  H  H11  1  0.407300  0.434200  0.686500  1.0  0.0868
  H  H12  1  0.418700  0.391700  0.803500  1.0  0.0949
  H  H13  1  0.092800  0.354800  0.751000  1.0  0.1015
  H  H14  1  0.087000  0.393200  0.630900  1.0  0.1019
  H  H15  1  0.383200  0.555400  0.650600  1.0  0.0859
  H  H16  1  0.368800  0.593000  0.770500  1.0  0.1136
  H  H17  1  0.060700  0.536000  0.775300  1.0  0.1047
  H  H18  1  0.078000  0.497400  0.656500  1.0  0.0853
  H  H19  1  0.411300  0.585300  0.479900  1.0  0.1139
  H  H20  1  0.400600  0.666667  0.479100  1.0  0.093
  H  H21  1  0.071300  0.660900  0.498000  1.0  0.0839
  H  H22  1  0.080300  0.578600  0.504700  1.0  0.106
  H  H23  1  0.425000  0.497200  0.327500  1.0  0.0932
  H  H24  1  0.431600  0.533600  0.205800  1.0  0.097
  H  H25  1  0.122200  0.588200  0.217600  1.0  0.1047
  H  H26  1  0.114000  0.548300  0.334900  1.0  0.0851
  H  H27  1  0.432800  0.388500  0.391900  1.0  0.0971
  H  H28  1  0.464600  0.346000  0.279900  1.0  0.1014
  H  H29  1  0.166000  0.388700  0.169500  1.0  0.098
  H  H30  1  0.133500  0.431100  0.282200  1.0  0.0857
  H  H31  1  0.392700  0.348500  0.558600  1.0  0.105
  H  H32  1  0.364500  0.267200  0.555900  1.0  0.0979
  H  H33  1  0.056000  0.285200  0.437500  1.0  0.1055
  H  H34  1  0.091900  0.366200  0.429600  1.0  0.098
  H  H35  1  0.243000  0.139000  0.577000  1.0  0.3576
  H  H36  1  0.275000  0.137500  0.438000  1.0  0.3298
  H  H37  1  0.092700  0.934200  0.813500  1.0  0.0868
  H  H38  1  0.081300  0.891700  0.696500  1.0  0.0947
  H  H39  1  0.407200  0.854800  0.749000  1.0  0.1013
  H  H40  1  0.413000  0.893200  0.869100  1.0  0.1023
  H  H41  1  0.116800  0.055400  0.849400  1.0  0.0855
  H  H42  1  0.131200  0.093000  0.729500  1.0  0.1131
  H  H43  1  0.439300  0.036000  0.724700  1.0  0.1042
  H  H44  1  0.422000  0.997400  0.843500  1.0  0.0855
  H  H45  1  0.088700  0.085300  0.020100  1.0  0.1143
  H  H46  1  0.099400  0.166600  0.020900  1.0  0.0914
  H  H47  1  0.428700  0.160900  0.002000  1.0  0.0835
  H  H48  1  0.419700  0.078600  0.995300  1.0  0.1061
  H  H49  1  0.075000  0.997200  0.172500  1.0  0.0932
  H  H50  1  0.068400  0.033600  0.294200  1.0  0.0974
  H  H51  1  0.377800  0.088200  0.282400  1.0  0.105
  H  H52  1  0.386000  0.048300  0.165100  1.0  0.0849
  H  H53  1  0.067200  0.888500  0.108100  1.0  0.0966
  H  H54  1  0.035400  0.846000  0.220100  1.0  0.1021
  H  H55  1  0.334000  0.888700  0.330500  1.0  0.0982
  H  H56  1  0.366500  0.931100  0.217800  1.0  0.0861
  H  H57  1  0.107300  0.848500  0.941400  1.0  0.1043
  H  H58  1  0.135500  0.767200  0.944100  1.0  0.0978
  H  H59  1  0.444000  0.785200  0.062500  1.0  0.1055
  H  H60  1  0.408100  0.866200  0.070400  1.0  0.0982
  H  H61  1  0.743000  0.361000  0.077000  1.0  0.3577
  H  H62  1  0.775000  0.362500  0.938000  1.0  0.3301
  H  H63  1  0.592700  0.565800  0.313500  1.0  0.0871
  H  H64  1  0.581300  0.608300  0.196500  1.0  0.0948
  H  H65  1  0.907200  0.645200  0.249000  1.0  0.1016
  H  H66  1  0.913000  0.606800  0.369100  1.0  0.1022
  H  H67  1  0.616800  0.444600  0.349400  1.0  0.0854
  H  H68  1  0.631200  0.407000  0.229500  1.0  0.1129
  H  H69  1  0.939300  0.464000  0.224700  1.0  0.1041
  H  H70  1  0.922000  0.502600  0.343500  1.0  0.0853
  H  H71  1  0.588700  0.414700  0.520100  1.0  0.1141
  H  H72  1  0.599400  0.333400  0.520900  1.0  0.0915
  H  H73  1  0.928700  0.339100  0.502000  1.0  0.0837
  H  H74  1  0.919700  0.421400  0.495300  1.0  0.106
  H  H75  1  0.575000  0.502800  0.672500  1.0  0.0932
  H  H76  1  0.568400  0.466400  0.794200  1.0  0.0978
  H  H77  1  0.877800  0.411800  0.782400  1.0  0.105
  H  H78  1  0.886000  0.451700  0.665100  1.0  0.0849
  H  H79  1  0.567200  0.611500  0.608100  1.0  0.097
  H  H80  1  0.535400  0.654000  0.720100  1.0  0.1017
  H  H81  1  0.834000  0.611300  0.830500  1.0  0.0981
  H  H82  1  0.866500  0.568900  0.717800  1.0  0.0862
  H  H83  1  0.607300  0.651500  0.441400  1.0  0.1042
  H  H84  1  0.635500  0.732800  0.444100  1.0  0.0984
  H  H85  1  0.944000  0.714800  0.562500  1.0  0.1053
  H  H86  1  0.908100  0.633800  0.570400  1.0  0.0981
  H  H87  1  0.757000  0.861000  0.423000  1.0  0.3576
  H  H88  1  0.725000  0.862500  0.562000  1.0  0.3311
  H  H89  1  0.907300  0.065800  0.186500  1.0  0.0871
  H  H90  1  0.918700  0.108300  0.303500  1.0  0.0948
  H  H91  1  0.592800  0.145200  0.251000  1.0  0.1008
  H  H92  1  0.587000  0.106800  0.130900  1.0  0.102
  H  H93  1  0.883200  0.944600  0.150600  1.0  0.0857
  H  H94  1  0.868800  0.907000  0.270500  1.0  0.1136
  H  H95  1  0.560700  0.964000  0.275300  1.0  0.1045
  H  H96  1  0.578000  0.002600  0.156500  1.0  0.0856
  H  H97  1  0.911300  0.914700  0.979900  1.0  0.1132
  H  H98  1  0.900600  0.833400  0.979100  1.0  0.0916
  H  H99  1  0.571300  0.839100  0.998000  1.0  0.0839
  H  H100  1  0.580300  0.921400  0.004700  1.0  0.1061
  H  H101  1  0.925000  0.002800  0.827500  1.0  0.0928
  H  H102  1  0.931600  0.966400  0.705800  1.0  0.0973
  H  H103  1  0.622200  0.911800  0.717600  1.0  0.1043
  H  H104  1  0.614000  0.951700  0.834900  1.0  0.0853
  H  H105  1  0.932800  0.111500  0.891900  1.0  0.097
  H  H106  1  0.964600  0.154000  0.779900  1.0  0.1014
  H  H107  1  0.666000  0.111300  0.669500  1.0  0.0979
  H  H108  1  0.633500  0.068900  0.782200  1.0  0.0858
  H  H109  1  0.892700  0.151500  0.058600  1.0  0.1049
  H  H110  1  0.864500  0.232800  0.055900  1.0  0.0981
  H  H111  1  0.556000  0.214800  0.937500  1.0  0.1053
  H  H112  1  0.591900  0.133800  0.929600  1.0  0.0978
  C  C113  1  0.246600  0.444200  0.567600  1.0  -0.0214
  C  C114  1  0.245300  0.494200  0.564700  1.0  -0.0539
  C  C115  1  0.251800  0.518600  0.492700  1.0  -0.0322
  C  C116  1  0.260700  0.493300  0.421800  1.0  -0.0405
  C  C117  1  0.263800  0.443000  0.423700  1.0  -0.0691
  C  C118  1  0.254400  0.419700  0.495800  1.0  -0.0854
  C  C119  1  0.247300  0.418500  0.645700  1.0  0.0674
  C  C120  1  0.343900  0.417500  0.698800  1.0  -0.123
  C  C121  1  0.350500  0.392500  0.769700  1.0  -0.0676
  C  C122  1  0.257000  0.368500  0.791500  1.0  -0.0883
  C  C123  1  0.157600  0.370100  0.737800  1.0  -0.0599
  C  C124  1  0.153600  0.393700  0.666400  1.0  -0.1087
  C  C125  1  0.234900  0.520700  0.640800  1.0  0.0284
  C  C126  1  0.318400  0.550700  0.676000  1.0  -0.1085
  C  C127  1  0.309500  0.574000  0.747300  1.0  -0.0743
  C  C128  1  0.212300  0.569100  0.784000  1.0  -0.1886
  C  C129  1  0.126000  0.539900  0.750300  1.0  -0.0956
  C  C130  1  0.137200  0.516500  0.679400  1.0  -0.1058
  C  C131  1  0.246300  0.572300  0.490900  1.0  0.0737
  C  C132  1  0.342000  0.600000  0.484100  1.0  -0.1258
  C  C133  1  0.335400  0.648900  0.483600  1.0  -0.027
  C  C134  1  0.235000  0.672400  0.489700  1.0  -0.1384
  C  C135  1  0.140500  0.645700  0.495600  1.0  -0.0137
  C  C136  1  0.145300  0.595900  0.498100  1.0  -0.1259
  C  C137  1  0.267000  0.518900  0.344800  1.0  0.0593
  C  C138  1  0.363200  0.515100  0.304800  1.0  -0.1265
  C  C139  1  0.367600  0.537400  0.232300  1.0  -0.0432
  C  C140  1  0.278200  0.565800  0.197500  1.0  -0.197
  C  C141  1  0.183400  0.569500  0.238600  1.0  -0.0969
  C  C142  1  0.179500  0.545800  0.309500  1.0  -0.1259
  C  C143  1  0.280300  0.415100  0.350200  1.0  0.0376
  C  C144  1  0.378200  0.388900  0.347100  1.0  -0.1209
  C  C145  1  0.397600  0.363200  0.279700  1.0  -0.0381
  C  C146  1  0.319300  0.362900  0.212400  1.0  -0.1537
  C  C147  1  0.220500  0.388600  0.214400  1.0  -0.0564
  C  C148  1  0.201000  0.414200  0.282300  1.0  -0.1228
  C  C149  1  0.243000  0.365800  0.495700  1.0  -0.0029
  C  C150  1  0.325300  0.336000  0.533000  1.0  -0.126
  C  C151  1  0.307200  0.287200  0.532400  1.0  -0.0383
  C  C152  1  0.207800  0.267600  0.498200  1.0  -0.1015
  C  C153  1  0.125000  0.297600  0.460700  1.0  -0.1237
  C  C154  1  0.145600  0.346500  0.457900  1.0  -0.1406
  C  C155  1  0.266400  0.342700  0.870500  1.0  0.7347
  C  C156  1  0.197100  0.594700  0.859700  1.0  0.6528
  C  C157  1  0.228000  0.726200  0.490100  1.0  0.7231
  C  C158  1  0.289400  0.590300  0.120800  1.0  0.6479
  C  C159  1  0.346500  0.337600  0.138200  1.0  0.6666
  C  C160  1  0.185100  0.215400  0.501600  1.0  0.6883
  C  C161  1  0.253400  0.944200  0.932400  1.0  -0.0212
  C  C162  1  0.254700  0.994200  0.935300  1.0  -0.054
  C  C163  1  0.248200  0.018600  0.007300  1.0  -0.0322
  C  C164  1  0.239300  0.993300  0.078200  1.0  -0.0403
  C  C165  1  0.236200  0.943000  0.076300  1.0  -0.0692
  C  C166  1  0.245600  0.919700  0.004200  1.0  -0.0854
  C  C167  1  0.252700  0.918500  0.854300  1.0  0.0656
  C  C168  1  0.156100  0.917500  0.801200  1.0  -0.1217
  C  C169  1  0.149500  0.892500  0.730300  1.0  -0.066
  C  C170  1  0.243000  0.868500  0.708500  1.0  -0.0883
  C  C171  1  0.342400  0.870100  0.762200  1.0  -0.0615
  C  C172  1  0.346400  0.893700  0.833600  1.0  -0.1109
  C  C173  1  0.265100  0.020700  0.859200  1.0  0.0275
  C  C174  1  0.181600  0.050700  0.824000  1.0  -0.1081
  C  C175  1  0.190500  0.074000  0.752700  1.0  -0.074
  C  C176  1  0.287700  0.069100  0.716000  1.0  -0.1869
  C  C177  1  0.374000  0.039900  0.749700  1.0  -0.0946
  C  C178  1  0.362800  0.016500  0.820600  1.0  -0.1076
  C  C179  1  0.253700  0.072300  0.009100  1.0  0.0734
  C  C180  1  0.158000  0.100000  0.015900  1.0  -0.122
  C  C181  1  0.164600  0.148900  0.016400  1.0  -0.0359
  C  C182  1  0.265000  0.172400  0.010300  1.0  -0.1356
  C  C183  1  0.359500  0.145700  0.004400  1.0  -0.0133
  C  C184  1  0.354700  0.095900  0.001900  1.0  -0.1267
  C  C185  1  0.233000  0.018900  0.155200  1.0  0.0601
  C  C186  1  0.136800  0.015100  0.195200  1.0  -0.1251
  C  C187  1  0.132400  0.037400  0.267700  1.0  -0.0433
  C  C188  1  0.221800  0.065800  0.302500  1.0  -0.1959
  C  C189  1  0.316600  0.069500  0.261400  1.0  -0.0972
  C  C190  1  0.320500  0.045800  0.190500  1.0  -0.1281
  C  C191  1  0.219700  0.915100  0.149800  1.0  0.0379
  C  C192  1  0.121800  0.888900  0.152900  1.0  -0.118
  C  C193  1  0.102400  0.863200  0.220300  1.0  -0.037
  C  C194  1  0.180700  0.862900  0.287600  1.0  -0.1539
  C  C195  1  0.279500  0.888600  0.285600  1.0  -0.0579
  C  C196  1  0.299000  0.914200  0.217700  1.0  -0.1233
  C  C197  1  0.257000  0.865800  0.004300  1.0  -0.003
  C  C198  1  0.174700  0.836000  0.967000  1.0  -0.1244
  C  C199  1  0.192800  0.787200  0.967600  1.0  -0.0372
  C  C200  1  0.292200  0.767600  0.001800  1.0  -0.1013
  C  C201  1  0.375000  0.797600  0.039300  1.0  -0.1214
  C  C202  1  0.354400  0.846500  0.042100  1.0  -0.1405
  C  C203  1  0.233600  0.842700  0.629500  1.0  0.7331
  C  C204  1  0.302900  0.094700  0.640300  1.0  0.6504
  C  C205  1  0.272000  0.226200  0.009900  1.0  0.7235
  C  C206  1  0.210600  0.090300  0.379200  1.0  0.6497
  C  C207  1  0.153500  0.837600  0.361800  1.0  0.6678
  C  C208  1  0.314900  0.715400  0.998400  1.0  0.6872
  C  C209  1  0.753400  0.555800  0.432400  1.0  -0.0211
  C  C210  1  0.754700  0.505800  0.435300  1.0  -0.0539
  C  C211  1  0.748200  0.481400  0.507300  1.0  -0.0323
  C  C212  1  0.739300  0.506700  0.578200  1.0  -0.0403
  C  C213  1  0.736200  0.557000  0.576300  1.0  -0.0695
  C  C214  1  0.745600  0.580300  0.504200  1.0  -0.0854
  C  C215  1  0.752700  0.581500  0.354300  1.0  0.0653
  C  C216  1  0.656100  0.582500  0.301200  1.0  -0.122
  C  C217  1  0.649500  0.607500  0.230300  1.0  -0.0662
  C  C218  1  0.743000  0.631500  0.208500  1.0  -0.0864
  C  C219  1  0.842400  0.629900  0.262200  1.0  -0.0604
  C  C220  1  0.846400  0.606300  0.333600  1.0  -0.1105
  C  C221  1  0.765100  0.479300  0.359200  1.0  0.0282
  C  C222  1  0.681600  0.449300  0.324000  1.0  -0.108
  C  C223  1  0.690500  0.426000  0.252700  1.0  -0.0748
  C  C224  1  0.787700  0.430900  0.216000  1.0  -0.1882
  C  C225  1  0.874000  0.460100  0.249700  1.0  -0.0947
  C  C226  1  0.862800  0.483500  0.320600  1.0  -0.1073
  C  C227  1  0.753700  0.427700  0.509100  1.0  0.0735
  C  C228  1  0.658000  0.400000  0.515900  1.0  -0.122
  C  C229  1  0.664600  0.351100  0.516400  1.0  -0.035
  C  C230  1  0.765000  0.327600  0.510300  1.0  -0.1348
  C  C231  1  0.859500  0.354300  0.504400  1.0  -0.0138
  C  C232  1  0.854700  0.404100  0.501900  1.0  -0.1269
  C  C233  1  0.733000  0.481100  0.655200  1.0  0.0608
  C  C234  1  0.636800  0.484900  0.695200  1.0  -0.1243
  C  C235  1  0.632400  0.462600  0.767700  1.0  -0.0434
  C  C236  1  0.721800  0.434200  0.802500  1.0  -0.1957
  C  C237  1  0.816600  0.430500  0.761400  1.0  -0.0967
  C  C238  1  0.820500  0.454200  0.690500  1.0  -0.1282
  C  C239  1  0.719700  0.584900  0.649800  1.0  0.0382
  C  C240  1  0.621800  0.611100  0.652900  1.0  -0.1177
  C  C241  1  0.602400  0.636800  0.720300  1.0  -0.0377
  C  C242  1  0.680700  0.637100  0.787600  1.0  -0.1538
  C  C243  1  0.779500  0.611400  0.785600  1.0  -0.0579
  C  C244  1  0.799000  0.585800  0.717700  1.0  -0.1236
  C  C245  1  0.757000  0.634200  0.504300  1.0  -0.0038
  C  C246  1  0.674700  0.664000  0.467000  1.0  -0.1248
  C  C247  1  0.692800  0.712800  0.467600  1.0  -0.0366
  C  C248  1  0.792200  0.732400  0.501800  1.0  -0.1006
  C  C249  1  0.875000  0.702400  0.539300  1.0  -0.1217
  C  C250  1  0.854400  0.653500  0.542100  1.0  -0.1408
  C  C251  1  0.733600  0.657300  0.129500  1.0  0.7331
  C  C252  1  0.802900  0.405300  0.140300  1.0  0.6509
  C  C253  1  0.772000  0.273800  0.509900  1.0  0.7238
  C  C254  1  0.710600  0.409700  0.879200  1.0  0.6519
  C  C255  1  0.653500  0.662400  0.861800  1.0  0.6676
  C  C256  1  0.814900  0.784600  0.498400  1.0  0.6866
  C  C257  1  0.746600  0.055800  0.067600  1.0  -0.0213
  C  C258  1  0.745300  0.005800  0.064700  1.0  -0.0539
  C  C259  1  0.751800  0.981400  0.992700  1.0  -0.0324
  C  C260  1  0.760700  0.006700  0.921800  1.0  -0.0404
  C  C261  1  0.763800  0.057000  0.923700  1.0  -0.0694
  C  C262  1  0.754400  0.080300  0.995800  1.0  -0.0854
  C  C263  1  0.747300  0.081500  0.145700  1.0  0.0674
  C  C264  1  0.843900  0.082500  0.198800  1.0  -0.1231
  C  C265  1  0.850500  0.107500  0.269700  1.0  -0.0677
  C  C266  1  0.757000  0.131500  0.291500  1.0  -0.0876
  C  C267  1  0.657600  0.129900  0.237800  1.0  -0.0606
  C  C268  1  0.653600  0.106300  0.166400  1.0  -0.1087
  C  C269  1  0.734900  0.979300  0.140800  1.0  0.0284
  C  C270  1  0.818400  0.949300  0.176000  1.0  -0.1084
  C  C271  1  0.809500  0.926000  0.247300  1.0  -0.0747
  C  C272  1  0.712300  0.930900  0.284000  1.0  -0.1882
  C  C273  1  0.626000  0.960100  0.250300  1.0  -0.0956
  C  C274  1  0.637200  0.983500  0.179400  1.0  -0.1055
  C  C275  1  0.746300  0.927700  0.990900  1.0  0.0738
  C  C276  1  0.842000  0.900000  0.984100  1.0  -0.1254
  C  C277  1  0.835400  0.851100  0.983600  1.0  -0.0374
  C  C278  1  0.735000  0.827600  0.989700  1.0  -0.1351
  C  C279  1  0.640500  0.854300  0.995600  1.0  -0.0142
  C  C280  1  0.645300  0.904100  0.998100  1.0  -0.1262
  C  C281  1  0.767000  0.981100  0.844800  1.0  0.0596
  C  C282  1  0.863200  0.984900  0.804800  1.0  -0.1261
  C  C283  1  0.867600  0.962600  0.732300  1.0  -0.0435
  C  C284  1  0.778200  0.934200  0.697500  1.0  -0.1984
  C  C285  1  0.683400  0.930500  0.738600  1.0  -0.096
  C  C286  1  0.679500  0.954200  0.809500  1.0  -0.1261
  C  C287  1  0.780300  0.084900  0.850200  1.0  0.0376
  C  C288  1  0.878200  0.111100  0.847100  1.0  -0.1201
  C  C289  1  0.897600  0.136800  0.779700  1.0  -0.0381
  C  C290  1  0.819300  0.137100  0.712400  1.0  -0.1523
  C  C291  1  0.720500  0.111400  0.714400  1.0  -0.0565
  C  C292  1  0.701000  0.085800  0.782300  1.0  -0.1226
  C  C293  1  0.743000  0.134200  0.995700  1.0  -0.0037
  C  C294  1  0.825300  0.164000  0.033000  1.0  -0.1262
  C  C295  1  0.807200  0.212800  0.032400  1.0  -0.0374
  C  C296  1  0.707800  0.232400  0.998200  1.0  -0.1005
  C  C297  1  0.625000  0.202400  0.960700  1.0  -0.1243
  C  C298  1  0.645600  0.153500  0.957900  1.0  -0.1409
  C  C299  1  0.766400  0.157300  0.370500  1.0  0.7339
  C  C300  1  0.697100  0.905300  0.359700  1.0  0.6531
  C  C301  1  0.728000  0.773800  0.990100  1.0  0.7241
  C  C302  1  0.789400  0.909700  0.620800  1.0  0.6507
  C  C303  1  0.846500  0.162400  0.638200  1.0  0.6668
  C  C304  1  0.685100  0.284600  0.001600  1.0  0.6882
  O  O305  1  0.362600  0.329400  0.900200  1.0  -0.6082
  O  O306  1  0.176400  0.336500  0.902200  1.0  -0.6454
  O  O307  1  0.279600  0.623800  0.883500  1.0  -0.5117
  O  O308  1  0.114200  0.589500  0.894400  1.0  -0.4708
  O  O309  1  0.318400  0.748500  0.487000  1.0  -0.658
  O  O310  1  0.132300  0.744400  0.492800  1.0  -0.6153
  O  O311  1  0.371000  0.586300  0.085400  1.0  -0.4879
  O  O312  1  0.207400  0.620100  0.100500  1.0  -0.5364
  O  O313  1  0.441400  0.317900  0.139300  1.0  -0.5835
  O  O314  1  0.277200  0.339300  0.074000  1.0  -0.7266
  O  O315  1  0.268900  0.187300  0.511300  1.0  -0.6115
  O  O316  1  0.084600  0.201100  0.493000  1.0  -0.674
  O  O317  1  0.137400  0.829400  0.599800  1.0  -0.6076
  O  O318  1  0.323600  0.836500  0.597800  1.0  -0.6428
  O  O319  1  0.220400  0.123800  0.616500  1.0  -0.5109
  O  O320  1  0.385800  0.089500  0.605600  1.0  -0.4704
  O  O321  1  0.181600  0.248500  0.013000  1.0  -0.6592
  O  O322  1  0.367700  0.244400  0.007200  1.0  -0.6166
  O  O323  1  0.129000  0.086300  0.414600  1.0  -0.4882
  O  O324  1  0.292600  0.120100  0.399500  1.0  -0.5364
  O  O325  1  0.058600  0.817900  0.360700  1.0  -0.5836
  O  O326  1  0.222800  0.839300  0.426000  1.0  -0.7279
  O  O327  1  0.231100  0.687300  0.988700  1.0  -0.6114
  O  O328  1  0.415400  0.701100  0.007000  1.0  -0.6726
  O  O329  1  0.637400  0.670600  0.099800  1.0  -0.6074
  O  O330  1  0.823600  0.663500  0.097800  1.0  -0.643
  O  O331  1  0.720400  0.376200  0.116500  1.0  -0.5104
  O  O332  1  0.885800  0.410500  0.105600  1.0  -0.4706
  O  O333  1  0.681600  0.251500  0.513000  1.0  -0.6589
  O  O334  1  0.867700  0.255600  0.507200  1.0  -0.6166
  O  O335  1  0.629000  0.413700  0.914600  1.0  -0.4886
  O  O336  1  0.792600  0.379900  0.899500  1.0  -0.5368
  O  O337  1  0.558600  0.682100  0.860700  1.0  -0.5844
  O  O338  1  0.722800  0.660700  0.926000  1.0  -0.7285
  O  O339  1  0.731100  0.812700  0.488700  1.0  -0.6107
  O  O340  1  0.915400  0.798900  0.507000  1.0  -0.673
  O  O341  1  0.862600  0.170600  0.400200  1.0  -0.6088
  O  O342  1  0.676400  0.163500  0.402200  1.0  -0.6455
  O  O343  1  0.779600  0.876200  0.383500  1.0  -0.5115
  O  O344  1  0.614200  0.910500  0.394400  1.0  -0.4709
  O  O345  1  0.818400  0.751500  0.987000  1.0  -0.6583
  O  O346  1  0.632300  0.755600  0.992800  1.0  -0.6153
  O  O347  1  0.871000  0.913700  0.585400  1.0  -0.4884
  O  O348  1  0.707400  0.879900  0.600500  1.0  -0.536
  O  O349  1  0.941400  0.182100  0.639300  1.0  -0.5833
  O  O350  1  0.777200  0.160700  0.574000  1.0  -0.7269
  O  O351  1  0.768900  0.312700  0.011300  1.0  -0.6116
  O  O352  1  0.584600  0.298900  0.993000  1.0  -0.6742
