# generated using pymatgen
data_CuH8(C4O)4
_symmetry_space_group_name_H-M   'P 1'
_cell_length_a   11.54000000
_cell_length_b   16.77800000
_cell_length_c   28.46800000
_cell_angle_alpha   90.00000000
_cell_angle_beta   90.00000000
_cell_angle_gamma   90.00000000
_symmetry_Int_Tables_number   1
_chemical_formula_structural   CuH8(C4O)4
_chemical_formula_sum   'Cu12 H96 C192 O48'
_cell_volume   5511.92064016
_cell_formula_units_Z   12
loop_
 _symmetry_equiv_pos_site_id
 _symmetry_equiv_pos_as_xyz
  1  'x, y, z'
loop_
 _atom_site_type_symbol
 _atom_site_label
 _atom_site_symmetry_multiplicity
 _atom_site_fract_x
 _atom_site_fract_y
 _atom_site_fract_z
 _atom_site_occupancy
 _atom_site_charge
  Cu  Cu1  1  0.170100  0.735000  0.373300  1.0  0.9042
  Cu  Cu2  1  0.416100  0.256500  0.195660  1.0  0.5195
  Cu  Cu3  1  0.134800  0.268200  0.201400  1.0  1.0032
  Cu  Cu4  1  0.329900  0.265000  0.873300  1.0  0.9032
  Cu  Cu5  1  0.083900  0.743500  0.695660  1.0  0.5216
  Cu  Cu6  1  0.365200  0.731800  0.701400  1.0  1.0015
  Cu  Cu7  1  0.829900  0.235000  0.126700  1.0  0.9062
  Cu  Cu8  1  0.583900  0.756500  0.304340  1.0  0.5223
  Cu  Cu9  1  0.865200  0.768200  0.298600  1.0  1.0034
  Cu  Cu10  1  0.670100  0.765000  0.626700  1.0  0.9054
  Cu  Cu11  1  0.916100  0.243500  0.804340  1.0  0.5196
  Cu  Cu12  1  0.634800  0.231800  0.798600  1.0  1.0023
  H  H13  1  0.431300  0.274400  0.425600  1.0  0.1266
  H  H14  1  0.440700  0.275300  0.343300  1.0  0.1249
  H  H15  1  0.112400  0.189000  0.336800  1.0  0.1205
  H  H16  1  0.102900  0.188100  0.419000  1.0  0.1218
  H  H17  1  0.423700  0.105900  0.460700  1.0  0.1203
  H  H18  1  0.428500  0.995400  0.410500  1.0  0.1211
  H  H19  1  0.096700  0.941900  0.446000  1.0  0.1213
  H  H20  1  0.092000  0.052700  0.496400  1.0  0.1929
  H  H21  1  0.428400  0.064100  0.579000  1.0  0.1138
  H  H22  1  0.425900  0.942900  0.620000  1.0  0.1233
  H  H23  1  0.080700  0.968700  0.643100  1.0  0.1223
  H  H24  1  0.083200  0.089900  0.602100  1.0  0.1169
  H  H25  1  0.455800  0.212800  0.632500  1.0  0.1288
  H  H26  1  0.487400  0.215600  0.714000  1.0  0.121
  H  H27  1  0.150000  0.276400  0.734300  1.0  0.1067
  H  H28  1  0.119300  0.273600  0.653300  1.0  0.1191
  H  H29  1  0.451700  0.400200  0.588800  1.0  0.1189
  H  H30  1  0.449700  0.526600  0.624300  1.0  0.1165
  H  H31  1  0.098700  0.532000  0.613800  1.0  0.1206
  H  H32  1  0.101000  0.406100  0.578400  1.0  0.1234
  H  H33  1  0.437000  0.415100  0.495700  1.0  0.1467
  H  H34  1  0.440400  0.528500  0.447600  1.0  0.1209
  H  H35  1  0.101700  0.493800  0.415000  1.0  0.1195
  H  H36  1  0.098100  0.380400  0.463100  1.0  0.1182
  H  H37  1  0.068700  0.725600  0.925600  1.0  0.1271
  H  H38  1  0.059300  0.724700  0.843300  1.0  0.1245
  H  H39  1  0.387600  0.811000  0.836800  1.0  0.1206
  H  H40  1  0.397100  0.811900  0.919000  1.0  0.1219
  H  H41  1  0.076300  0.894100  0.960700  1.0  0.1206
  H  H42  1  0.071500  0.004600  0.910500  1.0  0.121
  H  H43  1  0.403300  0.058100  0.946000  1.0  0.1217
  H  H44  1  0.408000  0.947300  0.996400  1.0  0.1929
  H  H45  1  0.071600  0.935900  0.079000  1.0  0.1136
  H  H46  1  0.074100  0.057100  0.120000  1.0  0.1232
  H  H47  1  0.419300  0.031300  0.143100  1.0  0.1225
  H  H48  1  0.416800  0.910100  0.102100  1.0  0.1168
  H  H49  1  0.044200  0.787200  0.132500  1.0  0.1293
  H  H50  1  0.012600  0.784400  0.214000  1.0  0.1215
  H  H51  1  0.350000  0.723600  0.234300  1.0  0.1064
  H  H52  1  0.380700  0.726400  0.153300  1.0  0.1189
  H  H53  1  0.048300  0.599800  0.088800  1.0  0.1186
  H  H54  1  0.050300  0.473400  0.124300  1.0  0.1167
  H  H55  1  0.401300  0.468000  0.113800  1.0  0.1218
  H  H56  1  0.399000  0.593900  0.078400  1.0  0.1236
  H  H57  1  0.063000  0.584900  0.995700  1.0  0.1462
  H  H58  1  0.059600  0.471500  0.947600  1.0  0.1205
  H  H59  1  0.398300  0.506200  0.915000  1.0  0.1203
  H  H60  1  0.401900  0.619600  0.963100  1.0  0.1187
  H  H61  1  0.568700  0.774400  0.074400  1.0  0.127
  H  H62  1  0.559300  0.775300  0.156700  1.0  0.1239
  H  H63  1  0.887600  0.689000  0.163200  1.0  0.1213
  H  H64  1  0.897100  0.688100  0.081000  1.0  0.1221
  H  H65  1  0.576300  0.605900  0.039300  1.0  0.1205
  H  H66  1  0.571500  0.495400  0.089500  1.0  0.121
  H  H67  1  0.903300  0.441900  0.054000  1.0  0.1216
  H  H68  1  0.908000  0.552700  0.003600  1.0  0.1929
  H  H69  1  0.571600  0.564100  0.921000  1.0  0.1132
  H  H70  1  0.574100  0.442900  0.880000  1.0  0.1234
  H  H71  1  0.919300  0.468700  0.856900  1.0  0.1224
  H  H72  1  0.916800  0.589900  0.897900  1.0  0.1187
  H  H73  1  0.544200  0.712800  0.867500  1.0  0.1291
  H  H74  1  0.512600  0.715600  0.786000  1.0  0.1214
  H  H75  1  0.850000  0.776400  0.765700  1.0  0.1065
  H  H76  1  0.880700  0.773600  0.846700  1.0  0.1188
  H  H77  1  0.548300  0.900200  0.911200  1.0  0.1192
  H  H78  1  0.550300  0.026600  0.875700  1.0  0.1167
  H  H79  1  0.901300  0.032000  0.886200  1.0  0.1218
  H  H80  1  0.899000  0.906100  0.921600  1.0  0.1232
  H  H81  1  0.563000  0.915100  0.004300  1.0  0.1474
  H  H82  1  0.559600  0.028500  0.052400  1.0  0.1214
  H  H83  1  0.898300  0.993800  0.085000  1.0  0.1205
  H  H84  1  0.901900  0.880400  0.036900  1.0  0.1187
  H  H85  1  0.931300  0.225600  0.574400  1.0  0.1267
  H  H86  1  0.940700  0.224700  0.656700  1.0  0.1243
  H  H87  1  0.612400  0.311000  0.663200  1.0  0.1207
  H  H88  1  0.602900  0.311900  0.581000  1.0  0.1219
  H  H89  1  0.923700  0.394100  0.539300  1.0  0.1211
  H  H90  1  0.928500  0.504600  0.589500  1.0  0.1213
  H  H91  1  0.596700  0.558100  0.554000  1.0  0.1215
  H  H92  1  0.592000  0.447300  0.503600  1.0  0.1937
  H  H93  1  0.928400  0.435900  0.421000  1.0  0.1131
  H  H94  1  0.925900  0.557100  0.380000  1.0  0.1241
  H  H95  1  0.580700  0.531300  0.356900  1.0  0.1223
  H  H96  1  0.583200  0.410100  0.397900  1.0  0.1191
  H  H97  1  0.955800  0.287200  0.367500  1.0  0.1286
  H  H98  1  0.987400  0.284400  0.286000  1.0  0.1209
  H  H99  1  0.650000  0.223600  0.265700  1.0  0.1066
  H  H100  1  0.619300  0.226400  0.346700  1.0  0.1186
  H  H101  1  0.951700  0.099800  0.411200  1.0  0.1184
  H  H102  1  0.949700  0.973400  0.375700  1.0  0.1163
  H  H103  1  0.598700  0.968000  0.386200  1.0  0.1215
  H  H104  1  0.601000  0.093900  0.421600  1.0  0.1228
  H  H105  1  0.937000  0.084900  0.504300  1.0  0.1473
  H  H106  1  0.940400  0.971500  0.552400  1.0  0.1205
  H  H107  1  0.601700  0.006200  0.585000  1.0  0.1204
  H  H108  1  0.598100  0.119600  0.536900  1.0  0.1187
  C  C109  1  0.264900  0.308600  0.506240  1.0  0.0468
  C  C110  1  0.264100  0.312100  0.555180  1.0  -0.0708
  C  C111  1  0.263400  0.242000  0.581430  1.0  0.0103
  C  C112  1  0.263400  0.168300  0.558770  1.0  0.0093
  C  C113  1  0.264100  0.164800  0.509850  1.0  -0.0038
  C  C114  1  0.264900  0.234900  0.483550  1.0  -0.0575
  C  C115  1  0.266100  0.231500  0.430060  1.0  0.0467
  C  C116  1  0.366600  0.257200  0.407570  1.0  -0.087
  C  C117  1  0.372200  0.257900  0.358640  1.0  -0.0467
  C  C118  1  0.276500  0.232900  0.332210  1.0  -0.0979
  C  C119  1  0.176900  0.206600  0.354740  1.0  -0.104
  C  C120  1  0.171300  0.205900  0.403670  1.0  -0.0904
  C  C121  1  0.258500  0.089400  0.483590  1.0  0.0429
  C  C122  1  0.357600  0.072500  0.457940  1.0  -0.1702
  C  C123  1  0.360600  0.006600  0.428100  1.0  -0.0265
  C  C124  1  0.264300  0.957300  0.424200  1.0  -0.1243
  C  C125  1  0.163200  0.974800  0.449300  1.0  -0.0226
  C  C126  1  0.160300  0.040800  0.479140  1.0  -0.0752
  C  C127  1  0.256000  0.088500  0.586700  1.0  0.0202
  C  C128  1  0.357900  0.044800  0.592000  1.0  -0.0902
  C  C129  1  0.356400  0.972700  0.616400  1.0  -0.0363
  C  C130  1  0.253000  0.944300  0.635400  1.0  -0.1157
  C  C131  1  0.151100  0.988000  0.630100  1.0  -0.0326
  C  C132  1  0.152600  0.060100  0.605760  1.0  -0.0743
  C  C133  1  0.283800  0.242100  0.635560  1.0  0.0125
  C  C134  1  0.394100  0.225400  0.653250  1.0  -0.0981
  C  C135  1  0.413000  0.227500  0.701610  1.0  -0.0426
  C  C136  1  0.318300  0.248100  0.732810  1.0  -0.1419
  C  C137  1  0.212700  0.263700  0.713980  1.0  -0.0131
  C  C138  1  0.193800  0.261600  0.665610  1.0  -0.118
  C  C139  1  0.275100  0.391300  0.580600  1.0  0.0234
  C  C140  1  0.380300  0.427000  0.594010  1.0  -0.1111
  C  C141  1  0.379000  0.502100  0.615000  1.0  -0.0455
  C  C142  1  0.273800  0.541500  0.622500  1.0  -0.1029
  C  C143  1  0.170300  0.505400  0.608800  1.0  -0.0826
  C  C144  1  0.171600  0.430300  0.587790  1.0  -0.0931
  C  C145  1  0.267400  0.386100  0.483440  1.0  0.0505
  C  C146  1  0.369200  0.430800  0.479170  1.0  -0.0843
  C  C147  1  0.371100  0.498500  0.450700  1.0  -0.0557
  C  C148  1  0.271800  0.521900  0.427000  1.0  -0.1037
  C  C149  1  0.169600  0.477700  0.431370  1.0  -0.0844
  C  C150  1  0.167600  0.410100  0.459830  1.0  -0.1467
  C  C151  1  0.267700  0.225800  0.279620  1.0  0.6771
  C  C152  1  0.261300  0.880900  0.390600  1.0  0.6467
  C  C153  1  0.242700  0.867300  0.662400  1.0  0.7303
  C  C154  1  0.344500  0.259000  0.782300  1.0  0.6794
  C  C155  1  0.272700  0.619100  0.645800  1.0  0.6741
  C  C156  1  0.258700  0.603600  0.399600  1.0  0.6516
  C  C157  1  0.235100  0.691400  0.006240  1.0  0.0469
  C  C158  1  0.235900  0.687900  0.055180  1.0  -0.0706
  C  C159  1  0.236600  0.758000  0.081430  1.0  0.0098
  C  C160  1  0.236600  0.831700  0.058770  1.0  0.0093
  C  C161  1  0.235900  0.835200  0.009850  1.0  -0.0039
  C  C162  1  0.235100  0.765100  0.983550  1.0  -0.0576
  C  C163  1  0.233900  0.768500  0.930060  1.0  0.0462
  C  C164  1  0.133400  0.742800  0.907570  1.0  -0.0855
  C  C165  1  0.127800  0.742100  0.858640  1.0  -0.0452
  C  C166  1  0.223500  0.767100  0.832210  1.0  -0.0972
  C  C167  1  0.323100  0.793400  0.854740  1.0  -0.1049
  C  C168  1  0.328700  0.794100  0.903670  1.0  -0.0915
  C  C169  1  0.241500  0.910600  0.983590  1.0  0.0431
  C  C170  1  0.142400  0.927500  0.957940  1.0  -0.1703
  C  C171  1  0.139400  0.993400  0.928100  1.0  -0.0263
  C  C172  1  0.235700  0.042700  0.924200  1.0  -0.1246
  C  C173  1  0.336800  0.025200  0.949300  1.0  -0.0217
  C  C174  1  0.339700  0.959200  0.979140  1.0  -0.0751
  C  C175  1  0.244000  0.911500  0.086700  1.0  0.0198
  C  C176  1  0.142100  0.955200  0.092000  1.0  -0.0902
  C  C177  1  0.143600  0.027300  0.116400  1.0  -0.0356
  C  C178  1  0.247000  0.055700  0.135400  1.0  -0.1156
  C  C179  1  0.348900  0.012000  0.130100  1.0  -0.033
  C  C180  1  0.347400  0.939900  0.105760  1.0  -0.0756
  C  C181  1  0.216200  0.757900  0.135560  1.0  0.0132
  C  C182  1  0.105900  0.774600  0.153250  1.0  -0.0976
  C  C183  1  0.087000  0.772500  0.201610  1.0  -0.0432
  C  C184  1  0.181700  0.751900  0.232810  1.0  -0.1425
  C  C185  1  0.287300  0.736300  0.213980  1.0  -0.0121
  C  C186  1  0.306200  0.738400  0.165610  1.0  -0.1195
  C  C187  1  0.224900  0.608700  0.080600  1.0  0.0238
  C  C188  1  0.119700  0.573000  0.094010  1.0  -0.1112
  C  C189  1  0.121000  0.497900  0.115000  1.0  -0.0454
  C  C190  1  0.226200  0.458500  0.122500  1.0  -0.1036
  C  C191  1  0.329700  0.494600  0.108800  1.0  -0.0826
  C  C192  1  0.328400  0.569700  0.087790  1.0  -0.0939
  C  C193  1  0.232600  0.613900  0.983440  1.0  0.05
  C  C194  1  0.130800  0.569200  0.979170  1.0  -0.0845
  C  C195  1  0.128900  0.501500  0.950700  1.0  -0.0558
  C  C196  1  0.228200  0.478100  0.927000  1.0  -0.1046
  C  C197  1  0.330400  0.522300  0.931370  1.0  -0.083
  C  C198  1  0.332400  0.589900  0.959830  1.0  -0.1459
  C  C199  1  0.232300  0.774200  0.779620  1.0  0.6773
  C  C200  1  0.238700  0.119100  0.890600  1.0  0.6466
  C  C201  1  0.257300  0.132700  0.162400  1.0  0.7317
  C  C202  1  0.155500  0.741000  0.282300  1.0  0.6796
  C  C203  1  0.227300  0.380900  0.145800  1.0  0.6746
  C  C204  1  0.241300  0.396400  0.899600  1.0  0.6512
  C  C205  1  0.735100  0.808600  0.993760  1.0  0.0465
  C  C206  1  0.735900  0.812100  0.944820  1.0  -0.0703
  C  C207  1  0.736600  0.742000  0.918570  1.0  0.01
  C  C208  1  0.736600  0.668300  0.941230  1.0  0.0095
  C  C209  1  0.735900  0.664800  0.990150  1.0  -0.0039
  C  C210  1  0.735100  0.734900  0.016450  1.0  -0.0571
  C  C211  1  0.733900  0.731500  0.069940  1.0  0.0476
  C  C212  1  0.633400  0.757200  0.092430  1.0  -0.085
  C  C213  1  0.627800  0.757900  0.141360  1.0  -0.0473
  C  C214  1  0.723500  0.732900  0.167790  1.0  -0.0987
  C  C215  1  0.823100  0.706600  0.145260  1.0  -0.1049
  C  C216  1  0.828700  0.705900  0.096330  1.0  -0.0901
  C  C217  1  0.741500  0.589400  0.016410  1.0  0.0436
  C  C218  1  0.642400  0.572500  0.042060  1.0  -0.1701
  C  C219  1  0.639400  0.506600  0.071900  1.0  -0.025
  C  C220  1  0.735700  0.457300  0.075800  1.0  -0.1242
  C  C221  1  0.836800  0.474800  0.050700  1.0  -0.0231
  C  C222  1  0.839700  0.540800  0.020860  1.0  -0.0754
  C  C223  1  0.744000  0.588500  0.913300  1.0  0.0188
  C  C224  1  0.642100  0.544800  0.908000  1.0  -0.0903
  C  C225  1  0.643600  0.472700  0.883600  1.0  -0.0372
  C  C226  1  0.747000  0.444300  0.864600  1.0  -0.1161
  C  C227  1  0.848900  0.488000  0.869900  1.0  -0.0329
  C  C228  1  0.847400  0.560100  0.894240  1.0  -0.0758
  C  C229  1  0.716200  0.742100  0.864440  1.0  0.0129
  C  C230  1  0.605900  0.725400  0.846750  1.0  -0.0976
  C  C231  1  0.587000  0.727500  0.798390  1.0  -0.043
  C  C232  1  0.681700  0.748100  0.767190  1.0  -0.1434
  C  C233  1  0.787300  0.763700  0.786020  1.0  -0.013
  C  C234  1  0.806200  0.761600  0.834390  1.0  -0.1189
  C  C235  1  0.724900  0.891300  0.919400  1.0  0.0224
  C  C236  1  0.619700  0.927000  0.905990  1.0  -0.1125
  C  C237  1  0.621000  0.002100  0.885000  1.0  -0.0474
  C  C238  1  0.726200  0.041500  0.877500  1.0  -0.1032
  C  C239  1  0.829700  0.005400  0.891200  1.0  -0.0804
  C  C240  1  0.828400  0.930300  0.912210  1.0  -0.0939
  C  C241  1  0.732600  0.886100  0.016560  1.0  0.0498
  C  C242  1  0.630800  0.930800  0.020830  1.0  -0.0839
  C  C243  1  0.628900  0.998500  0.049300  1.0  -0.0576
  C  C244  1  0.728200  0.021900  0.073000  1.0  -0.1045
  C  C245  1  0.830400  0.977700  0.068630  1.0  -0.082
  C  C246  1  0.832400  0.910100  0.040170  1.0  -0.1458
  C  C247  1  0.732300  0.725800  0.220380  1.0  0.6782
  C  C248  1  0.738700  0.380900  0.109400  1.0  0.6471
  C  C249  1  0.757300  0.367300  0.837600  1.0  0.7309
  C  C250  1  0.655500  0.759000  0.717700  1.0  0.6806
  C  C251  1  0.727300  0.119100  0.854200  1.0  0.6745
  C  C252  1  0.741300  0.103600  0.100400  1.0  0.6513
  C  C253  1  0.764900  0.191400  0.493760  1.0  0.0467
  C  C254  1  0.764100  0.187900  0.444820  1.0  -0.0703
  C  C255  1  0.763400  0.258000  0.418570  1.0  0.0102
  C  C256  1  0.763400  0.331700  0.441230  1.0  0.0099
  C  C257  1  0.764100  0.335200  0.490150  1.0  -0.004
  C  C258  1  0.764900  0.265100  0.516450  1.0  -0.0575
  C  C259  1  0.766100  0.268500  0.569940  1.0  0.0477
  C  C260  1  0.866600  0.242800  0.592430  1.0  -0.0866
  C  C261  1  0.872200  0.242100  0.641360  1.0  -0.0471
  C  C262  1  0.776500  0.267100  0.667790  1.0  -0.0987
  C  C263  1  0.676900  0.293400  0.645260  1.0  -0.1065
  C  C264  1  0.671300  0.294100  0.596330  1.0  -0.0892
  C  C265  1  0.758500  0.410600  0.516410  1.0  0.0429
  C  C266  1  0.857600  0.427500  0.542060  1.0  -0.1695
  C  C267  1  0.860600  0.493400  0.571900  1.0  -0.0252
  C  C268  1  0.764300  0.542700  0.575800  1.0  -0.124
  C  C269  1  0.663200  0.525200  0.550700  1.0  -0.022
  C  C270  1  0.660300  0.459200  0.520860  1.0  -0.0746
  C  C271  1  0.756000  0.411500  0.413300  1.0  0.0183
  C  C272  1  0.857900  0.455200  0.408000  1.0  -0.0914
  C  C273  1  0.856400  0.527300  0.383600  1.0  -0.0351
  C  C274  1  0.753000  0.555700  0.364600  1.0  -0.1159
  C  C275  1  0.651100  0.512000  0.369900  1.0  -0.0334
  C  C276  1  0.652600  0.439900  0.394240  1.0  -0.0747
  C  C277  1  0.783800  0.257900  0.364440  1.0  0.0122
  C  C278  1  0.894100  0.274600  0.346750  1.0  -0.0979
  C  C279  1  0.913000  0.272500  0.298390  1.0  -0.0431
  C  C280  1  0.818300  0.251900  0.267190  1.0  -0.1421
  C  C281  1  0.712700  0.236300  0.286020  1.0  -0.0122
  C  C282  1  0.693800  0.238400  0.334390  1.0  -0.1172
  C  C283  1  0.775100  0.108700  0.419400  1.0  0.0232
  C  C284  1  0.880300  0.073000  0.405990  1.0  -0.1121
  C  C285  1  0.879000  0.997900  0.385000  1.0  -0.0471
  C  C286  1  0.773800  0.958500  0.377500  1.0  -0.104
  C  C287  1  0.670300  0.994600  0.391200  1.0  -0.0824
  C  C288  1  0.671600  0.069700  0.412210  1.0  -0.0929
  C  C289  1  0.767400  0.113900  0.516560  1.0  0.0493
  C  C290  1  0.869200  0.069200  0.520830  1.0  -0.0851
  C  C291  1  0.871100  0.001500  0.549300  1.0  -0.0559
  C  C292  1  0.771800  0.978100  0.573000  1.0  -0.1051
  C  C293  1  0.669600  0.022300  0.568630  1.0  -0.0824
  C  C294  1  0.667600  0.089900  0.540170  1.0  -0.1459
  C  C295  1  0.767700  0.274200  0.720380  1.0  0.6784
  C  C296  1  0.761300  0.619100  0.609400  1.0  0.6464
  C  C297  1  0.742700  0.632700  0.337600  1.0  0.7303
  C  C298  1  0.844500  0.241000  0.217700  1.0  0.6797
  C  C299  1  0.772700  0.880900  0.354200  1.0  0.6742
  C  C300  1  0.758700  0.896400  0.600400  1.0  0.6527
  O  O301  1  0.363500  0.250300  0.260500  1.0  -0.6202
  O  O302  1  0.177900  0.212100  0.258050  1.0  -0.5553
  O  O303  1  0.360900  0.873700  0.370000  1.0  -0.4935
  O  O304  1  0.173300  0.843100  0.386900  1.0  -0.55
  O  O305  1  0.336900  0.823800  0.661800  1.0  -0.5829
  O  O306  1  0.149300  0.843200  0.676900  1.0  -0.5837
  O  O307  1  0.449800  0.251700  0.798240  1.0  -0.7383
  O  O308  1  0.262500  0.263100  0.809540  1.0  -0.5429
  O  O309  1  0.371200  0.656900  0.648900  1.0  -0.5938
  O  O310  1  0.182200  0.648400  0.660400  1.0  -0.6727
  O  O311  1  0.346400  0.651100  0.407600  1.0  -0.579
  O  O312  1  0.174000  0.624000  0.377100  1.0  -0.5729
  O  O313  1  0.136500  0.749700  0.760500  1.0  -0.62
  O  O314  1  0.322100  0.787900  0.758050  1.0  -0.5542
  O  O315  1  0.139100  0.126300  0.870000  1.0  -0.4956
  O  O316  1  0.326700  0.156900  0.886900  1.0  -0.5505
  O  O317  1  0.163100  0.176200  0.161800  1.0  -0.5853
  O  O318  1  0.350700  0.156800  0.176900  1.0  -0.5837
  O  O319  1  0.050200  0.748300  0.298240  1.0  -0.7401
  O  O320  1  0.237500  0.736900  0.309540  1.0  -0.5451
  O  O321  1  0.128800  0.343100  0.148900  1.0  -0.5955
  O  O322  1  0.317800  0.351600  0.160400  1.0  -0.6703
  O  O323  1  0.153600  0.348900  0.907600  1.0  -0.5808
  O  O324  1  0.326000  0.376000  0.877100  1.0  -0.5733
  O  O325  1  0.636500  0.750300  0.239500  1.0  -0.6213
  O  O326  1  0.822100  0.712100  0.241950  1.0  -0.5556
  O  O327  1  0.639100  0.373700  0.130000  1.0  -0.4948
  O  O328  1  0.826700  0.343100  0.113100  1.0  -0.551
  O  O329  1  0.663100  0.323800  0.838200  1.0  -0.5849
  O  O330  1  0.850700  0.343200  0.823100  1.0  -0.5841
  O  O331  1  0.550200  0.751700  0.701760  1.0  -0.7394
  O  O332  1  0.737500  0.763100  0.690460  1.0  -0.5449
  O  O333  1  0.628800  0.156900  0.851100  1.0  -0.595
  O  O334  1  0.817800  0.148400  0.839600  1.0  -0.6704
  O  O335  1  0.653600  0.151100  0.092400  1.0  -0.5799
  O  O336  1  0.826000  0.124000  0.122900  1.0  -0.5734
  O  O337  1  0.863500  0.249700  0.739500  1.0  -0.6199
  O  O338  1  0.677900  0.287900  0.741950  1.0  -0.5544
  O  O339  1  0.860900  0.626300  0.630000  1.0  -0.4943
  O  O340  1  0.673300  0.656900  0.613100  1.0  -0.5503
  O  O341  1  0.836900  0.676200  0.338200  1.0  -0.5832
  O  O342  1  0.649300  0.656800  0.323100  1.0  -0.5838
  O  O343  1  0.949800  0.248300  0.201760  1.0  -0.7373
  O  O344  1  0.762500  0.236900  0.190460  1.0  -0.5431
  O  O345  1  0.871200  0.843100  0.351100  1.0  -0.5922
  O  O346  1  0.682200  0.851600  0.339600  1.0  -0.673
  O  O347  1  0.846400  0.848900  0.592400  1.0  -0.578
  O  O348  1  0.674000  0.876000  0.622900  1.0  -0.573
