# generated using pymatgen
data_NaU2C5O11
_symmetry_space_group_name_H-M   'P 1'
_cell_length_a   5.58500000
_cell_length_b   11.35900000
_cell_length_c   14.62400000
_cell_angle_alpha   98.03000000
_cell_angle_beta   99.00000000
_cell_angle_gamma   103.86000000
_symmetry_Int_Tables_number   1
_chemical_formula_structural   NaU2C5O11
_chemical_formula_sum   'Na2 U4 C10 O22'
_cell_volume   874.32964745
_cell_formula_units_Z   2
loop_
 _symmetry_equiv_pos_site_id
 _symmetry_equiv_pos_as_xyz
  1  'x, y, z'
loop_
 _atom_site_type_symbol
 _atom_site_label
 _atom_site_symmetry_multiplicity
 _atom_site_fract_x
 _atom_site_fract_y
 _atom_site_fract_z
 _atom_site_occupancy
 _atom_site_charge
  Na  Na1  1  0.882000  0.252200  0.865700  1.0  0.9179
  Na  Na2  1  0.118000  0.747800  0.134300  1.0  0.9099
  U  U3  1  0.261000  0.201180  0.425090  1.0  1.8022
  U  U4  1  0.459600  0.244860  0.076820  1.0  2.2194
  U  U5  1  0.739000  0.798820  0.574910  1.0  1.8027
  U  U6  1  0.540400  0.755140  0.923180  1.0  2.2176
  C  C7  1  0.046000  0.975000  0.042000  1.0  0.5782
  C  C8  1  0.913000  0.299000  0.271000  1.0  0.5127
  C  C9  1  0.861000  0.162000  0.233000  1.0  0.5162
  C  C10  1  0.623000  0.527000  0.031000  1.0  0.5456
  C  C11  1  0.558000  0.043000  0.546000  1.0  0.5326
  C  C12  1  0.954000  0.025000  0.958000  1.0  0.577
  C  C13  1  0.087000  0.701000  0.729000  1.0  0.5105
  C  C14  1  0.139000  0.838000  0.767000  1.0  0.5164
  C  C15  1  0.377000  0.473000  0.969000  1.0  0.5484
  C  C16  1  0.442000  0.957000  0.454000  1.0  0.5326
  O  O17  1  0.067000  0.339000  0.346000  1.0  -0.662
  O  O18  1  0.709000  0.119000  0.159000  1.0  -0.666
  O  O19  1  0.233000  0.035000  0.094900  1.0  -0.6283
  O  O20  1  0.636000  0.207000  0.994800  1.0  -0.8367
  O  O21  1  0.713000  0.458000  0.080600  1.0  -0.7206
  O  O22  1  0.990000  0.103000  0.280000  1.0  -0.6363
  O  O23  1  0.800000  0.357000  0.222800  1.0  -0.6885
  O  O24  1  0.907000  0.871000  0.047800  1.0  -0.7392
  O  O25  1  0.511000  0.146000  0.556800  1.0  -0.6865
  O  O26  1  0.737000  0.635000  0.029000  1.0  -0.6771
  O  O27  1  0.689000  0.006000  0.609300  1.0  -0.6814
  O  O28  1  0.933000  0.661000  0.654000  1.0  -0.6576
  O  O29  1  0.291000  0.881000  0.841000  1.0  -0.6657
  O  O30  1  0.767000  0.965000  0.905100  1.0  -0.628
  O  O31  1  0.364000  0.793000  0.005200  1.0  -0.836
  O  O32  1  0.287000  0.542000  0.919400  1.0  -0.7191
  O  O33  1  0.010000  0.897000  0.720000  1.0  -0.6384
  O  O34  1  0.200000  0.643000  0.777200  1.0  -0.6893
  O  O35  1  0.093000  0.129000  0.952200  1.0  -0.7392
  O  O36  1  0.489000  0.854000  0.443200  1.0  -0.6869
  O  O37  1  0.263000  0.365000  0.971000  1.0  -0.6786
  O  O38  1  0.311000  0.994000  0.390700  1.0  -0.6786
