# generated using pymatgen
data_Cu6H50C96O25
_symmetry_space_group_name_H-M   'P 1'
_cell_length_a   12.63250000
_cell_length_b   17.47260000
_cell_length_c   27.96670000
_cell_angle_alpha   91.27500000
_cell_angle_beta   92.43300000
_cell_angle_gamma   106.10000000
_symmetry_Int_Tables_number   1
_chemical_formula_structural   Cu6H50C96O25
_chemical_formula_sum   'Cu12 H100 C192 O50'
_cell_volume   5921.70803474
_cell_formula_units_Z   2
loop_
 _symmetry_equiv_pos_site_id
 _symmetry_equiv_pos_as_xyz
  1  'x, y, z'
loop_
 _atom_site_type_symbol
 _atom_site_label
 _atom_site_symmetry_multiplicity
 _atom_site_fract_x
 _atom_site_fract_y
 _atom_site_fract_z
 _atom_site_occupancy
 _atom_site_charge
  Cu  Cu1  1  0.031720  0.514140  0.149370  1.0  0.9395
  Cu  Cu2  1  0.453550  0.006420  0.682810  1.0  0.6298
  Cu  Cu3  1  0.319410  0.511000  0.824720  1.0  0.8994
  Cu  Cu4  1  0.895670  0.997210  0.354350  1.0  0.9202
  Cu  Cu5  1  0.573910  0.499650  0.816090  1.0  0.4356
  Cu  Cu6  1  0.684260  0.998590  0.666410  1.0  0.7953
  Cu  Cu7  1  0.968280  0.485860  0.850630  1.0  0.9377
  Cu  Cu8  1  0.546450  0.993580  0.317190  1.0  0.6291
  Cu  Cu9  1  0.680590  0.489000  0.175280  1.0  0.8973
  Cu  Cu10  1  0.104330  0.002790  0.645650  1.0  0.9212
  Cu  Cu11  1  0.426090  0.500350  0.183910  1.0  0.432
  Cu  Cu12  1  0.315740  0.001410  0.333590  1.0  0.7947
  H  H13  1  0.726300  0.153200  0.084700  1.0  0.1032
  H  H14  1  0.814800  0.277100  0.119300  1.0  0.1184
  H  H15  1  0.103000  0.256900  0.074900  1.0  0.1142
  H  H16  1  0.013100  0.135100  0.036800  1.0  0.1257
  H  H17  1  0.653600  0.156200  0.980600  1.0  0.1089
  H  H18  1  0.679300  0.274600  0.939900  1.0  0.1196
  H  H19  1  0.956400  0.242400  0.886000  1.0  0.1178
  H  H20  1  0.924000  0.119800  0.924900  1.0  0.109
  H  H21  1  0.546400  0.015900  0.912400  1.0  0.1188
  H  H22  1  0.496400  0.003700  0.829700  1.0  0.1222
  H  H23  1  0.754500  0.922300  0.804800  1.0  0.1263
  H  H24  1  0.801500  0.929200  0.887700  1.0  0.1185
  H  H25  1  0.475700  0.854300  0.953400  1.0  0.1054
  H  H26  1  0.381000  0.734600  0.913900  1.0  0.1233
  H  H27  1  0.661700  0.668000  0.915800  1.0  0.1212
  H  H28  1  0.751400  0.782800  0.961700  1.0  0.11
  H  H29  1  0.525200  0.824600  0.062600  1.0  0.112
  H  H30  1  0.478200  0.707900  0.105400  1.0  0.1196
  H  H31  1  0.795000  0.703800  0.110400  1.0  0.1148
  H  H32  1  0.842600  0.822100  0.070100  1.0  0.1229
  H  H33  1  0.671800  0.960800  0.137900  1.0  0.0921
  H  H34  1  0.740300  0.961100  0.219200  1.0  0.1284
  H  H35  1  0.048700  0.013800  0.173000  1.0  0.1181
  H  H36  1  0.979100  0.005500  0.093500  1.0  0.1248
  H  H37  1  0.007400  0.414000  0.419700  1.0  0.126
  H  H38  1  0.901500  0.301300  0.375700  1.0  0.1138
  H  H39  1  0.140700  0.192800  0.397000  1.0  0.1284
  H  H40  1  0.248400  0.306600  0.440300  1.0  0.1123
  H  H41  1  0.036400  0.343900  0.526200  1.0  0.1261
  H  H42  1  0.979600  0.224800  0.565300  1.0  0.1086
  H  H43  1  0.294000  0.223900  0.589400  1.0  0.118
  H  H44  1  0.352800  0.341900  0.548000  1.0  0.1159
  H  H45  1  0.167600  0.479500  0.614500  1.0  0.1021
  H  H46  1  0.206000  0.460500  0.694200  1.0  0.1195
  H  H47  1  0.526200  0.488600  0.665700  1.0  0.126
  H  H48  1  0.485100  0.505500  0.585000  1.0  0.1161
  H  H49  1  0.225100  0.665400  0.572100  1.0  0.1004
  H  H50  1  0.295200  0.787400  0.612000  1.0  0.124
  H  H51  1  0.602900  0.778600  0.586200  1.0  0.123
  H  H52  1  0.528700  0.660600  0.541200  1.0  0.1072
  H  H53  1  0.193400  0.705000  0.479200  1.0  0.1215
  H  H54  1  0.237100  0.829700  0.446100  1.0  0.1201
  H  H55  1  0.495700  0.782800  0.384700  1.0  0.1151
  H  H56  1  0.445700  0.655000  0.413600  1.0  0.1187
  H  H57  1  0.079200  0.584100  0.411400  1.0  0.1211
  H  H58  1  0.001400  0.585200  0.334500  1.0  0.1142
  H  H59  1  0.219400  0.480000  0.280800  1.0  0.1285
  H  H60  1  0.291700  0.474300  0.358200  1.0  0.1041
  H  H61  1  0.825000  0.490200  0.167300  1.0  0.3621
  H  H62  1  0.880600  0.551000  0.197700  1.0  0.4397
  H  H63  1  0.273700  0.846800  0.915300  1.0  0.1029
  H  H64  1  0.185200  0.722900  0.880700  1.0  0.1186
  H  H65  1  0.897000  0.743100  0.925100  1.0  0.1136
  H  H66  1  0.986900  0.864900  0.963200  1.0  0.1256
  H  H67  1  0.346400  0.843800  0.019400  1.0  0.1088
  H  H68  1  0.320700  0.725400  0.060100  1.0  0.1197
  H  H69  1  0.043600  0.757600  0.114000  1.0  0.1178
  H  H70  1  0.076000  0.880200  0.075100  1.0  0.1093
  H  H71  1  0.453600  0.984100  0.087600  1.0  0.1189
  H  H72  1  0.503600  0.996300  0.170300  1.0  0.1224
  H  H73  1  0.245500  0.077700  0.195200  1.0  0.1257
  H  H74  1  0.198500  0.070800  0.112300  1.0  0.1186
  H  H75  1  0.524300  0.145700  0.046600  1.0  0.1057
  H  H76  1  0.619000  0.265400  0.086100  1.0  0.123
  H  H77  1  0.338300  0.332000  0.084200  1.0  0.1212
  H  H78  1  0.248600  0.217200  0.038300  1.0  0.109
  H  H79  1  0.474800  0.175400  0.937400  1.0  0.1118
  H  H80  1  0.521800  0.292100  0.894600  1.0  0.1199
  H  H81  1  0.205000  0.296200  0.889600  1.0  0.1148
  H  H82  1  0.157400  0.177900  0.929900  1.0  0.1228
  H  H83  1  0.328200  0.039200  0.862100  1.0  0.0927
  H  H84  1  0.259700  0.038900  0.780800  1.0  0.1287
  H  H85  1  0.951300  0.986200  0.827000  1.0  0.1188
  H  H86  1  0.020900  0.994500  0.906500  1.0  0.1259
  H  H87  1  0.992600  0.586000  0.580300  1.0  0.1258
  H  H88  1  0.098500  0.698700  0.624300  1.0  0.1139
  H  H89  1  0.859300  0.807200  0.603000  1.0  0.1293
  H  H90  1  0.751600  0.693400  0.559700  1.0  0.113
  H  H91  1  0.963600  0.656100  0.473800  1.0  0.1267
  H  H92  1  0.020400  0.775200  0.434700  1.0  0.1082
  H  H93  1  0.706000  0.776100  0.410600  1.0  0.1181
  H  H94  1  0.647200  0.658100  0.452000  1.0  0.1152
  H  H95  1  0.832400  0.520500  0.385500  1.0  0.1014
  H  H96  1  0.794000  0.539500  0.305800  1.0  0.1197
  H  H97  1  0.473800  0.511400  0.334300  1.0  0.1264
  H  H98  1  0.514900  0.494500  0.415000  1.0  0.116
  H  H99  1  0.774900  0.334600  0.427900  1.0  0.0998
  H  H100  1  0.704800  0.212600  0.388000  1.0  0.1241
  H  H101  1  0.397100  0.221400  0.413800  1.0  0.1231
  H  H102  1  0.471300  0.339400  0.458800  1.0  0.1072
  H  H103  1  0.806600  0.295000  0.520800  1.0  0.1211
  H  H104  1  0.762900  0.170300  0.553900  1.0  0.1197
  H  H105  1  0.504300  0.217200  0.615300  1.0  0.1153
  H  H106  1  0.554300  0.345000  0.586400  1.0  0.1182
  H  H107  1  0.920800  0.415900  0.588600  1.0  0.1207
  H  H108  1  0.998600  0.414800  0.665500  1.0  0.1148
  H  H109  1  0.780600  0.520000  0.719200  1.0  0.1292
  H  H110  1  0.708300  0.525700  0.641800  1.0  0.1043
  H  H111  1  0.175000  0.509800  0.832700  1.0  0.3635
  H  H112  1  0.119400  0.449000  0.802300  1.0  0.4392
  C  C113  1  0.799100  0.053800  0.032400  1.0  -0.0075
  C  C114  1  0.766300  0.050000  0.983600  1.0  -0.0819
  C  C115  1  0.711400  0.978900  0.960700  1.0  -0.0601
  C  C116  1  0.683800  0.908300  0.986200  1.0  -0.0121
  C  C117  1  0.716200  0.909800  0.035400  1.0  -0.0434
  C  C118  1  0.777100  0.982500  0.057800  1.0  -0.0127
  C  C119  1  0.859300  0.131500  0.056300  1.0  0.0469
  C  C120  1  0.803500  0.174500  0.081800  1.0  -0.1595
  C  C121  1  0.856600  0.247900  0.103200  1.0  -0.0608
  C  C122  1  0.967900  0.279100  0.101800  1.0  -0.1031
  C  C123  1  0.025400  0.236300  0.076700  1.0  -0.0375
  C  C124  1  0.971800  0.163400  0.054100  1.0  -0.1219
  C  C125  1  0.787700  0.126800  0.956800  1.0  0.0295
  C  C126  1  0.714700  0.173100  0.960900  1.0  -0.1179
  C  C127  1  0.729700  0.243600  0.936600  1.0  -0.0442
  C  C128  1  0.818400  0.268700  0.907500  1.0  -0.1148
  C  C129  1  0.893100  0.224300  0.904300  1.0  -0.0597
  C  C130  1  0.874700  0.151700  0.928500  1.0  -0.0757
  C  C131  1  0.679600  0.974200  0.907800  1.0  0.012
  C  C132  1  0.589500  0.996100  0.890700  1.0  -0.0944
  C  C133  1  0.560100  0.989700  0.841300  1.0  -0.058
  C  C134  1  0.623000  0.963500  0.810300  1.0  -0.0997
  C  C135  1  0.711300  0.941200  0.826700  1.0  -0.0495
  C  C136  1  0.739900  0.945900  0.876300  1.0  -0.1517
  C  C137  1  0.623800  0.830500  0.961400  1.0  0.0706
  C  C138  1  0.513500  0.815700  0.946600  1.0  -0.1206
  C  C139  1  0.457600  0.745500  0.922000  1.0  -0.0627
  C  C140  1  0.513800  0.691600  0.909500  1.0  -0.0967
  C  C141  1  0.622900  0.705500  0.924000  1.0  -0.0711
  C  C142  1  0.676800  0.774500  0.950800  1.0  -0.1235
  C  C143  1  0.687800  0.834700  0.062200  1.0  0.0161
  C  C144  1  0.580800  0.800400  0.072600  1.0  -0.1295
  C  C145  1  0.552600  0.730400  0.097600  1.0  -0.0349
  C  C146  1  0.632700  0.692900  0.111300  1.0  -0.1096
  C  C147  1  0.739200  0.728100  0.100800  1.0  -0.0458
  C  C148  1  0.767700  0.798400  0.076700  1.0  -0.1013
  C  C149  1  0.817100  0.983700  0.109100  1.0  0.0591
  C  C150  1  0.748700  0.970500  0.144800  1.0  -0.1073
  C  C151  1  0.789500  0.970600  0.193800  1.0  -0.0749
  C  C152  1  0.898500  0.984600  0.202600  1.0  -0.117
  C  C153  1  0.971400  0.000900  0.165900  1.0  -0.0478
  C  C154  1  0.930200  0.997900  0.119000  1.0  -0.1106
  C  C155  1  0.028300  0.360600  0.123600  1.0  0.6645
  C  C156  1  0.832800  0.347700  0.883200  1.0  0.6733
  C  C157  1  0.595500  0.963400  0.756100  1.0  0.6989
  C  C158  1  0.456200  0.618500  0.877300  1.0  0.6868
  C  C159  1  0.601800  0.614700  0.136700  1.0  0.7416
  C  C160  1  0.947300  0.991100  0.253500  1.0  0.6812
  C  C161  1  0.205600  0.444200  0.463600  1.0  -0.01
  C  C162  1  0.236600  0.435600  0.511700  1.0  -0.0476
  C  C163  1  0.293300  0.502500  0.539100  1.0  -0.0497
  C  C164  1  0.319400  0.578500  0.519600  1.0  0.0096
  C  C165  1  0.287500  0.587000  0.471400  1.0  -0.015
  C  C166  1  0.232700  0.519400  0.443300  1.0  -0.0026
  C  C167  1  0.139200  0.371200  0.433800  1.0  0.0569
  C  C168  1  0.035500  0.369500  0.414900  1.0  -0.1402
  C  C169  1  0.972400  0.302100  0.388900  1.0  -0.0099
  C  C170  1  0.011300  0.237100  0.381900  1.0  -0.12
  C  C171  1  0.113600  0.237900  0.401200  1.0  -0.0222
  C  C172  1  0.177500  0.305900  0.427100  1.0  -0.1033
  C  C173  1  0.200600  0.356400  0.534700  1.0  0.0711
  C  C174  1  0.089800  0.320000  0.539200  1.0  -0.1387
  C  C175  1  0.056200  0.249300  0.562500  1.0  -0.0296
  C  C176  1  0.131500  0.213600  0.581900  1.0  -0.1003
  C  C177  1  0.241100  0.248300  0.576500  1.0  -0.0361
  C  C178  1  0.276400  0.319200  0.552300  1.0  -0.1235
  C  C179  1  0.322000  0.494900  0.591400  1.0  0.0672
  C  C180  1  0.240900  0.481200  0.624800  1.0  -0.0983
  C  C181  1  0.263200  0.469900  0.672200  1.0  -0.0681
  C  C182  1  0.369700  0.472400  0.687600  1.0  -0.1191
  C  C183  1  0.452900  0.486300  0.655100  1.0  -0.0407
  C  C184  1  0.428400  0.496800  0.607200  1.0  -0.0602
  C  C185  1  0.369300  0.652000  0.550500  1.0  0.0507
  C  C186  1  0.302500  0.689600  0.573500  1.0  -0.098
  C  C187  1  0.344100  0.761200  0.598400  1.0  -0.0864
  C  C188  1  0.455100  0.794600  0.603700  1.0  -0.1172
  C  C189  1  0.525100  0.756600  0.582600  1.0  -0.0698
  C  C190  1  0.480500  0.686000  0.556000  1.0  -0.0905
  C  C191  1  0.316200  0.668000  0.450500  1.0  0.0637
  C  C192  1  0.254600  0.720300  0.459500  1.0  -0.1181
  C  C193  1  0.281000  0.794600  0.440100  1.0  -0.0622
  C  C194  1  0.371400  0.818900  0.411700  1.0  -0.1364
  C  C195  1  0.432600  0.766600  0.403300  1.0  -0.0385
  C  C196  1  0.404400  0.691200  0.421300  1.0  -0.111
  C  C197  1  0.193100  0.527600  0.392600  1.0  0.0481
  C  C198  1  0.107000  0.561700  0.385100  1.0  -0.1063
  C  C199  1  0.061500  0.563000  0.339300  1.0  -0.01
  C  C200  1  0.102400  0.532500  0.300500  1.0  -0.1413
  C  C201  1  0.189400  0.500200  0.307300  1.0  -0.0799
  C  C202  1  0.232600  0.497600  0.353500  1.0  -0.1101
  C  C203  1  0.938000  0.162600  0.355500  1.0  0.6948
  C  C204  1  0.091700  0.134900  0.608000  1.0  0.6461
  C  C205  1  0.396200  0.465600  0.740300  1.0  0.7057
  C  C206  1  0.503300  0.874000  0.630500  1.0  0.7535
  C  C207  1  0.397000  0.897700  0.388400  1.0  0.7239
  C  C208  1  0.047100  0.536200  0.251400  1.0  0.6972
  C  C209  1  0.200900  0.946200  0.967600  1.0  -0.0084
  C  C210  1  0.233700  0.950000  0.016400  1.0  -0.0827
  C  C211  1  0.288600  0.021100  0.039300  1.0  -0.0598
  C  C212  1  0.316200  0.091700  0.013800  1.0  -0.0123
  C  C213  1  0.283800  0.090200  0.964600  1.0  -0.0435
  C  C214  1  0.222900  0.017500  0.942200  1.0  -0.013
  C  C215  1  0.140700  0.868500  0.943700  1.0  0.046
  C  C216  1  0.196500  0.825500  0.918200  1.0  -0.1607
  C  C217  1  0.143400  0.752100  0.896800  1.0  -0.0626
  C  C218  1  0.032100  0.720900  0.898200  1.0  -0.104
  C  C219  1  0.974600  0.763700  0.923300  1.0  -0.0391
  C  C220  1  0.028200  0.836600  0.945900  1.0  -0.1211
  C  C221  1  0.212300  0.873200  0.043200  1.0  0.0293
  C  C222  1  0.285300  0.826900  0.039100  1.0  -0.1183
  C  C223  1  0.270300  0.756400  0.063400  1.0  -0.0437
  C  C224  1  0.181600  0.731300  0.092500  1.0  -0.1171
  C  C225  1  0.106900  0.775700  0.095700  1.0  -0.059
  C  C226  1  0.125300  0.848300  0.071500  1.0  -0.0746
  C  C227  1  0.320400  0.025800  0.092200  1.0  0.0142
  C  C228  1  0.410500  0.003900  0.109300  1.0  -0.0967
  C  C229  1  0.439900  0.010300  0.158700  1.0  -0.0593
  C  C230  1  0.377000  0.036500  0.189700  1.0  -0.1004
  C  C231  1  0.288700  0.058800  0.173300  1.0  -0.0498
  C  C232  1  0.260100  0.054100  0.123700  1.0  -0.1509
  C  C233  1  0.376200  0.169500  0.038600  1.0  0.0704
  C  C234  1  0.486500  0.184300  0.053400  1.0  -0.1211
  C  C235  1  0.542400  0.254500  0.078000  1.0  -0.0604
  C  C236  1  0.486200  0.308400  0.090500  1.0  -0.0975
  C  C237  1  0.377100  0.294500  0.076000  1.0  -0.0702
  C  C238  1  0.323200  0.225500  0.049200  1.0  -0.1223
  C  C239  1  0.312200  0.165300  0.937800  1.0  0.0158
  C  C240  1  0.419200  0.199600  0.927400  1.0  -0.1323
  C  C241  1  0.447400  0.269600  0.902400  1.0  -0.0354
  C  C242  1  0.367300  0.307100  0.888700  1.0  -0.109
  C  C243  1  0.260800  0.271900  0.899200  1.0  -0.0453
  C  C244  1  0.232300  0.201600  0.923300  1.0  -0.1009
  C  C245  1  0.182900  0.016300  0.890900  1.0  0.0582
  C  C246  1  0.251300  0.029500  0.855200  1.0  -0.1067
  C  C247  1  0.210500  0.029400  0.806200  1.0  -0.0765
  C  C248  1  0.101500  0.015400  0.797400  1.0  -0.1173
  C  C249  1  0.028600  0.999100  0.834100  1.0  -0.0487
  C  C250  1  0.069800  0.002100  0.881000  1.0  -0.1098
  C  C251  1  0.971700  0.639400  0.876400  1.0  0.6656
  C  C252  1  0.167200  0.652300  0.116800  1.0  0.6737
  C  C253  1  0.404500  0.036600  0.243900  1.0  0.6998
  C  C254  1  0.543800  0.381500  0.122700  1.0  0.6856
  C  C255  1  0.398200  0.385300  0.863300  1.0  0.7422
  C  C256  1  0.052700  0.008900  0.746500  1.0  0.6802
  C  C257  1  0.794400  0.555800  0.536400  1.0  -0.0099
  C  C258  1  0.763400  0.564400  0.488300  1.0  -0.0482
  C  C259  1  0.706700  0.497500  0.460900  1.0  -0.0507
  C  C260  1  0.680600  0.421500  0.480400  1.0  0.0096
  C  C261  1  0.712500  0.413000  0.528600  1.0  -0.0155
  C  C262  1  0.767300  0.480600  0.556700  1.0  -0.003
  C  C263  1  0.860800  0.628800  0.566200  1.0  0.0559
  C  C264  1  0.964500  0.630500  0.585100  1.0  -0.1392
  C  C265  1  0.027600  0.697900  0.611100  1.0  -0.0113
  C  C266  1  0.988700  0.762900  0.618100  1.0  -0.1208
  C  C267  1  0.886400  0.762100  0.598800  1.0  -0.023
  C  C268  1  0.822500  0.694100  0.572900  1.0  -0.1037
  C  C269  1  0.799400  0.643600  0.465300  1.0  0.0705
  C  C270  1  0.910200  0.680000  0.460800  1.0  -0.1412
  C  C271  1  0.943800  0.750700  0.437500  1.0  -0.031
  C  C272  1  0.868500  0.786400  0.418100  1.0  -0.1023
  C  C273  1  0.758900  0.751700  0.423500  1.0  -0.0357
  C  C274  1  0.723600  0.680800  0.447700  1.0  -0.1221
  C  C275  1  0.678000  0.505100  0.408600  1.0  0.0683
  C  C276  1  0.759100  0.518800  0.375200  1.0  -0.0998
  C  C277  1  0.736800  0.530100  0.327800  1.0  -0.0663
  C  C278  1  0.630300  0.527600  0.312400  1.0  -0.1185
  C  C279  1  0.547100  0.513700  0.344900  1.0  -0.0413
  C  C280  1  0.571600  0.503200  0.392800  1.0  -0.0586
  C  C281  1  0.630700  0.348000  0.449500  1.0  0.0498
  C  C282  1  0.697500  0.310400  0.426500  1.0  -0.1001
  C  C283  1  0.655900  0.238800  0.401600  1.0  -0.0856
  C  C284  1  0.544900  0.205400  0.396300  1.0  -0.1182
  C  C285  1  0.474900  0.243400  0.417400  1.0  -0.0708
  C  C286  1  0.519500  0.314000  0.444000  1.0  -0.0902
  C  C287  1  0.683800  0.332000  0.549500  1.0  0.0636
  C  C288  1  0.745400  0.279700  0.540500  1.0  -0.1197
  C  C289  1  0.719000  0.205400  0.559900  1.0  -0.0632
  C  C290  1  0.628600  0.181100  0.588300  1.0  -0.1356
  C  C291  1  0.567400  0.233400  0.596700  1.0  -0.037
  C  C292  1  0.595600  0.308800  0.578700  1.0  -0.1102
  C  C293  1  0.806900  0.472400  0.607400  1.0  0.0483
  C  C294  1  0.893000  0.438300  0.614900  1.0  -0.1067
  C  C295  1  0.938500  0.437000  0.660700  1.0  -0.0103
  C  C296  1  0.897600  0.467500  0.699500  1.0  -0.1415
  C  C297  1  0.810600  0.499800  0.692700  1.0  -0.0795
  C  C298  1  0.767400  0.502400  0.646500  1.0  -0.1088
  C  C299  1  0.062000  0.837400  0.644500  1.0  0.6933
  C  C300  1  0.908300  0.865100  0.392000  1.0  0.6459
  C  C301  1  0.603800  0.534400  0.259700  1.0  0.7056
  C  C302  1  0.496700  0.126000  0.369500  1.0  0.7532
  C  C303  1  0.603000  0.102300  0.611600  1.0  0.7237
  C  C304  1  0.952900  0.463800  0.748600  1.0  0.697
  O  O305  1  0.971600  0.398000  0.145000  1.0  -0.5788
  O  O306  1  0.127800  0.385200  0.116700  1.0  -0.4934
  O  O307  1  0.765700  0.384500  0.890800  1.0  -0.4554
  O  O308  1  0.914300  0.368900  0.856600  1.0  -0.5813
  O  O309  1  0.507500  0.975400  0.744600  1.0  -0.6063
  O  O310  1  0.668700  0.951900  0.729900  1.0  -0.5653
  O  O311  1  0.353900  0.593300  0.877100  1.0  -0.5654
  O  O312  1  0.516000  0.592300  0.851500  1.0  -0.6614
  O  O313  1  0.513800  0.599000  0.157500  1.0  -0.6036
  O  O314  1  0.668800  0.573900  0.133800  1.0  -0.5831
  O  O315  1  0.875600  0.971000  0.286400  1.0  -0.593
  O  O316  1  0.048800  0.011200  0.261200  1.0  -0.5061
  O  O317  1  0.841800  0.163300  0.343500  1.0  -0.5115
  O  O318  1  0.980300  0.107200  0.348700  1.0  -0.5773
  O  O319  1  0.992900  0.098100  0.603800  1.0  -0.51
  O  O320  1  0.166700  0.114100  0.630900  1.0  -0.566
  O  O321  1  0.316800  0.443300  0.766400  1.0  -0.5634
  O  O322  1  0.497500  0.483600  0.752400  1.0  -0.633
  O  O323  1  0.437900  0.906200  0.647900  1.0  -0.6004
  O  O324  1  0.606100  0.900300  0.633500  1.0  -0.5698
  O  O325  1  0.327000  0.935900  0.388900  1.0  -0.5669
  O  O326  1  0.490500  0.919800  0.368900  1.0  -0.6223
  O  O327  1  0.962500  0.558500  0.250200  1.0  -0.5474
  O  O328  1  0.091300  0.513300  0.215800  1.0  -0.5508
  O  O329  1  0.862800  0.538700  0.168300  1.0  -0.7377
  O  O330  1  0.028400  0.602000  0.855000  1.0  -0.58
  O  O331  1  0.872200  0.614800  0.883300  1.0  -0.4937
  O  O332  1  0.234300  0.615500  0.109200  1.0  -0.4551
  O  O333  1  0.085700  0.631100  0.143400  1.0  -0.5793
  O  O334  1  0.492500  0.024600  0.255400  1.0  -0.6067
  O  O335  1  0.331300  0.048100  0.270100  1.0  -0.5666
  O  O336  1  0.646100  0.406700  0.122900  1.0  -0.5654
  O  O337  1  0.484000  0.407700  0.148500  1.0  -0.6612
  O  O338  1  0.486200  0.401000  0.842500  1.0  -0.6025
  O  O339  1  0.331200  0.426100  0.866200  1.0  -0.5833
  O  O340  1  0.124400  0.029000  0.713600  1.0  -0.5931
  O  O341  1  0.951200  0.988800  0.738800  1.0  -0.5065
  O  O342  1  0.158200  0.836700  0.656500  1.0  -0.5111
  O  O343  1  0.019700  0.892800  0.651300  1.0  -0.58
  O  O344  1  0.007100  0.901900  0.396200  1.0  -0.5108
  O  O345  1  0.833300  0.885900  0.369100  1.0  -0.5665
  O  O346  1  0.683200  0.556700  0.233600  1.0  -0.5637
  O  O347  1  0.502500  0.516400  0.247600  1.0  -0.6338
  O  O348  1  0.562100  0.093800  0.352100  1.0  -0.6002
  O  O349  1  0.393900  0.099700  0.366500  1.0  -0.5687
  O  O350  1  0.673000  0.064100  0.611100  1.0  -0.5663
  O  O351  1  0.509500  0.080200  0.631100  1.0  -0.6246
  O  O352  1  0.037500  0.441500  0.749800  1.0  -0.5471
  O  O353  1  0.908700  0.486700  0.784200  1.0  -0.55
  O  O354  1  0.137200  0.461300  0.831700  1.0  -0.7384
