# generated using pymatgen
data_Ho2H6C18(SO4)3
_symmetry_space_group_name_H-M   'P 1'
_cell_length_a   17.29310000
_cell_length_b   10.05210000
_cell_length_c   17.65830000
_cell_angle_alpha   90.00000000
_cell_angle_beta   90.00000000
_cell_angle_gamma   90.00000000
_symmetry_Int_Tables_number   1
_chemical_formula_structural   Ho2H6C18(SO4)3
_chemical_formula_sum   'Ho8 H24 C72 S12 O48'
_cell_volume   3069.57708486
_cell_formula_units_Z   4
loop_
 _symmetry_equiv_pos_site_id
 _symmetry_equiv_pos_as_xyz
  1  'x, y, z'
loop_
 _atom_site_type_symbol
 _atom_site_label
 _atom_site_symmetry_multiplicity
 _atom_site_fract_x
 _atom_site_fract_y
 _atom_site_fract_z
 _atom_site_occupancy
 _atom_site_charge
  Ho  Ho1  1  0.479150  0.159310  0.883110  1.0  2.2095
  Ho  Ho2  1  0.678150  0.387080  0.898440  1.0  2.2116
  Ho  Ho3  1  0.520850  0.840690  0.383110  1.0  2.208
  Ho  Ho4  1  0.321850  0.612920  0.398440  1.0  2.2103
  Ho  Ho5  1  0.979150  0.340690  0.883110  1.0  2.2091
  Ho  Ho6  1  0.178150  0.112920  0.898440  1.0  2.2076
  Ho  Ho7  1  0.020850  0.659310  0.383110  1.0  2.2084
  Ho  Ho8  1  0.821850  0.887080  0.398440  1.0  2.2028
  H  H9  1  0.531300  0.979700  0.064300  1.0  0.1088
  H  H10  1  0.369700  0.385900  0.076100  1.0  0.112
  H  H11  1  0.794400  0.055200  0.572400  1.0  0.1098
  H  H12  1  0.549700  0.879900  0.189500  1.0  0.113
  H  H13  1  0.789900  0.144200  0.701200  1.0  0.11
  H  H14  1  0.354400  0.480800  0.202800  1.0  0.1061
  H  H15  1  0.468700  0.020300  0.564300  1.0  0.109
  H  H16  1  0.630300  0.614100  0.576100  1.0  0.1123
  H  H17  1  0.205600  0.944800  0.072400  1.0  0.1102
  H  H18  1  0.450300  0.120100  0.689500  1.0  0.1132
  H  H19  1  0.210100  0.855800  0.201200  1.0  0.1101
  H  H20  1  0.645600  0.519200  0.702800  1.0  0.1053
  H  H21  1  0.031300  0.520300  0.064300  1.0  0.1091
  H  H22  1  0.869700  0.114100  0.076100  1.0  0.1125
  H  H23  1  0.294400  0.444800  0.572400  1.0  0.1098
  H  H24  1  0.049700  0.620100  0.189500  1.0  0.1127
  H  H25  1  0.289900  0.355800  0.701200  1.0  0.1097
  H  H26  1  0.854400  0.019200  0.202800  1.0  0.1058
  H  H27  1  0.968700  0.479700  0.564300  1.0  0.1088
  H  H28  1  0.130300  0.885900  0.576100  1.0  0.1119
  H  H29  1  0.705600  0.555200  0.072400  1.0  0.1104
  H  H30  1  0.950300  0.379900  0.689500  1.0  0.1136
  H  H31  1  0.710100  0.644200  0.201200  1.0  0.1104
  H  H32  1  0.145600  0.980800  0.702800  1.0  0.1058
  C  C33  1  0.512700  0.408700  0.998200  1.0  0.7568
  C  C34  1  0.675500  0.095800  0.707900  1.0  -0.207
  C  C35  1  0.480000  0.453400  0.072200  1.0  -0.2038
  C  C36  1  0.573400  0.997400  0.095500  1.0  -0.081
  C  C37  1  0.680000  0.007300  0.578600  1.0  -0.2137
  C  C38  1  0.408600  0.431700  0.101500  1.0  -0.047
  C  C39  1  0.465900  0.547700  0.199100  1.0  -0.2018
  C  C40  1  0.750100  0.055900  0.602100  1.0  -0.0555
  C  C41  1  0.584100  0.940000  0.167700  1.0  -0.0667
  C  C42  1  0.650800  0.982700  0.202100  1.0  -0.1977
  C  C43  1  0.632400  0.082400  0.076800  1.0  -0.1858
  C  C44  1  0.639300  0.159800  0.005800  1.0  0.747
  C  C45  1  0.646800  0.138700  0.782900  1.0  0.7584
  C  C46  1  0.747600  0.107100  0.676500  1.0  -0.0578
  C  C47  1  0.399700  0.486100  0.174600  1.0  -0.0604
  C  C48  1  0.679500  0.939700  0.277800  1.0  0.7929
  C  C49  1  0.477500  0.614300  0.273000  1.0  0.7537
  C  C50  1  0.660600  0.952000  0.503100  1.0  0.7837
  C  C51  1  0.487300  0.591300  0.498200  1.0  0.7569
  C  C52  1  0.324500  0.904200  0.207900  1.0  -0.2067
  C  C53  1  0.520000  0.546600  0.572200  1.0  -0.2057
  C  C54  1  0.426600  0.002600  0.595500  1.0  -0.082
  C  C55  1  0.320000  0.992700  0.078600  1.0  -0.2131
  C  C56  1  0.591400  0.568300  0.601500  1.0  -0.0481
  C  C57  1  0.534100  0.452300  0.699100  1.0  -0.2052
  C  C58  1  0.249900  0.944100  0.102100  1.0  -0.0551
  C  C59  1  0.415900  0.060000  0.667700  1.0  -0.0671
  C  C60  1  0.349200  0.017300  0.702100  1.0  -0.1968
  C  C61  1  0.367600  0.917600  0.576800  1.0  -0.1858
  C  C62  1  0.360700  0.840200  0.505800  1.0  0.7462
  C  C63  1  0.353200  0.861300  0.282900  1.0  0.7565
  C  C64  1  0.252400  0.892900  0.176500  1.0  -0.0574
  C  C65  1  0.600300  0.513900  0.674600  1.0  -0.062
  C  C66  1  0.320500  0.060300  0.777800  1.0  0.7947
  C  C67  1  0.522500  0.385700  0.773000  1.0  0.7523
  C  C68  1  0.339400  0.048000  0.003100  1.0  0.7841
  C  C69  1  0.012700  0.091300  0.998200  1.0  0.7562
  C  C70  1  0.175500  0.404200  0.707900  1.0  -0.2071
  C  C71  1  0.980000  0.046600  0.072200  1.0  -0.2038
  C  C72  1  0.073400  0.502600  0.095500  1.0  -0.0815
  C  C73  1  0.180000  0.492700  0.578600  1.0  -0.214
  C  C74  1  0.908600  0.068300  0.101500  1.0  -0.0471
  C  C75  1  0.965900  0.952300  0.199100  1.0  -0.2026
  C  C76  1  0.250100  0.444100  0.602100  1.0  -0.0557
  C  C77  1  0.084100  0.560000  0.167700  1.0  -0.0667
  C  C78  1  0.150800  0.517300  0.202100  1.0  -0.1967
  C  C79  1  0.132400  0.417600  0.076800  1.0  -0.1863
  C  C80  1  0.139300  0.340200  0.005800  1.0  0.7467
  C  C81  1  0.146800  0.361300  0.782900  1.0  0.7569
  C  C82  1  0.247600  0.392900  0.676500  1.0  -0.058
  C  C83  1  0.899700  0.013900  0.174600  1.0  -0.061
  C  C84  1  0.179500  0.560300  0.277800  1.0  0.7937
  C  C85  1  0.977500  0.885700  0.273000  1.0  0.7529
  C  C86  1  0.160600  0.548000  0.503100  1.0  0.784
  C  C87  1  0.987300  0.908700  0.498200  1.0  0.7577
  C  C88  1  0.824500  0.595800  0.207900  1.0  -0.2064
  C  C89  1  0.020000  0.953400  0.572200  1.0  -0.2055
  C  C90  1  0.926600  0.497400  0.595500  1.0  -0.0817
  C  C91  1  0.820000  0.507300  0.078600  1.0  -0.213
  C  C92  1  0.091400  0.931700  0.601500  1.0  -0.0484
  C  C93  1  0.034100  0.047700  0.699100  1.0  -0.2049
  C  C94  1  0.749900  0.555900  0.102100  1.0  -0.0549
  C  C95  1  0.915900  0.440000  0.667700  1.0  -0.0666
  C  C96  1  0.849200  0.482700  0.702100  1.0  -0.198
  C  C97  1  0.867600  0.582400  0.576800  1.0  -0.1855
  C  C98  1  0.860700  0.659800  0.505800  1.0  0.7463
  C  C99  1  0.853200  0.638700  0.282900  1.0  0.758
  C  C100  1  0.752400  0.607100  0.176500  1.0  -0.0571
  C  C101  1  0.100300  0.986100  0.674600  1.0  -0.0621
  C  C102  1  0.820500  0.439700  0.777800  1.0  0.7935
  C  C103  1  0.022500  0.114300  0.773000  1.0  0.7524
  C  C104  1  0.839400  0.452000  0.003100  1.0  0.7836
  S  S105  1  0.538700  0.540650  0.133490  1.0  0.1778
  S  S106  1  0.701450  0.091770  0.146250  1.0  0.1789
  S  S107  1  0.610680  0.021480  0.647530  1.0  0.1602
  S  S108  1  0.461300  0.459350  0.633490  1.0  0.1794
  S  S109  1  0.298550  0.908230  0.646250  1.0  0.1803
  S  S110  1  0.389320  0.978520  0.147530  1.0  0.1597
  S  S111  1  0.038700  0.959350  0.133490  1.0  0.1777
  S  S112  1  0.201450  0.408230  0.146250  1.0  0.1793
  S  S113  1  0.110680  0.478520  0.647530  1.0  0.16
  S  S114  1  0.961300  0.040650  0.633490  1.0  0.1797
  S  S115  1  0.798550  0.591770  0.646250  1.0  0.1793
  S  S116  1  0.889320  0.521480  0.147530  1.0  0.1598
  O  O117  1  0.582200  0.433000  0.986500  1.0  -0.7275
  O  O118  1  0.422800  0.605000  0.320100  1.0  -0.8047
  O  O119  1  0.749000  0.962500  0.293700  1.0  -0.6571
  O  O120  1  0.698300  0.230500  0.995400  1.0  -0.6245
  O  O121  1  0.577200  0.117700  0.796900  1.0  -0.7487
  O  O122  1  0.466300  0.348800  0.953800  1.0  -0.6807
  O  O123  1  0.695000  0.194600  0.827200  1.0  -0.6966
  O  O124  1  0.714900  0.950900  0.456300  1.0  -0.7218
  O  O125  1  0.584300  0.152500  0.958700  1.0  -0.8233
  O  O126  1  0.537200  0.679400  0.284800  1.0  -0.6396
  O  O127  1  0.592000  0.918200  0.489300  1.0  -0.7281
  O  O128  1  0.632000  0.882300  0.320600  1.0  -0.7539
  O  O129  1  0.417800  0.567000  0.486500  1.0  -0.7268
  O  O130  1  0.577200  0.395000  0.820100  1.0  -0.8044
  O  O131  1  0.251000  0.037500  0.793700  1.0  -0.6561
  O  O132  1  0.301700  0.769500  0.495400  1.0  -0.6244
  O  O133  1  0.422800  0.882300  0.296900  1.0  -0.7492
  O  O134  1  0.533700  0.651200  0.453800  1.0  -0.6796
  O  O135  1  0.305000  0.805400  0.327200  1.0  -0.6973
  O  O136  1  0.285100  0.049100  0.956300  1.0  -0.7224
  O  O137  1  0.415700  0.847500  0.458700  1.0  -0.824
  O  O138  1  0.462800  0.320600  0.784800  1.0  -0.6396
  O  O139  1  0.408000  0.081800  0.989300  1.0  -0.7275
  O  O140  1  0.368000  0.117700  0.820600  1.0  -0.7522
  O  O141  1  0.082200  0.067000  0.986500  1.0  -0.7274
  O  O142  1  0.922800  0.895000  0.320100  1.0  -0.8042
  O  O143  1  0.249000  0.537500  0.293700  1.0  -0.6564
  O  O144  1  0.198300  0.269500  0.995400  1.0  -0.6244
  O  O145  1  0.077200  0.382300  0.796900  1.0  -0.7487
  O  O146  1  0.966300  0.151200  0.953800  1.0  -0.679
  O  O147  1  0.195000  0.305400  0.827200  1.0  -0.6972
  O  O148  1  0.214900  0.549100  0.456300  1.0  -0.7224
  O  O149  1  0.084300  0.347500  0.958700  1.0  -0.8235
  O  O150  1  0.037200  0.820600  0.284800  1.0  -0.6394
  O  O151  1  0.092000  0.581800  0.489300  1.0  -0.7284
  O  O152  1  0.132000  0.617700  0.320600  1.0  -0.7529
  O  O153  1  0.917800  0.933000  0.486500  1.0  -0.7263
  O  O154  1  0.077200  0.105000  0.820100  1.0  -0.8048
  O  O155  1  0.751000  0.462500  0.793700  1.0  -0.6564
  O  O156  1  0.801700  0.730500  0.495400  1.0  -0.624
  O  O157  1  0.922800  0.617700  0.296900  1.0  -0.7491
  O  O158  1  0.033700  0.848800  0.453800  1.0  -0.6807
  O  O159  1  0.805000  0.694600  0.327200  1.0  -0.6966
  O  O160  1  0.785100  0.450900  0.956300  1.0  -0.7218
  O  O161  1  0.915700  0.652500  0.458700  1.0  -0.8236
  O  O162  1  0.962800  0.179400  0.784800  1.0  -0.6392
  O  O163  1  0.908000  0.418200  0.989300  1.0  -0.7276
  O  O164  1  0.868000  0.382300  0.820600  1.0  -0.7532
