# generated using pymatgen
data_Nd(SO4)2
_symmetry_space_group_name_H-M   'P 1'
_cell_length_a   6.62100000
_cell_length_b   11.79410000
_cell_length_c   12.20640000
_cell_angle_alpha   90.84600000
_cell_angle_beta   100.57700000
_cell_angle_gamma   102.44600000
_symmetry_Int_Tables_number   1
_chemical_formula_structural   Nd(SO4)2
_chemical_formula_sum   'Nd4 S8 O32'
_cell_volume   913.50089364
_cell_formula_units_Z   4
loop_
 _symmetry_equiv_pos_site_id
 _symmetry_equiv_pos_as_xyz
  1  'x, y, z'
loop_
 _atom_site_type_symbol
 _atom_site_label
 _atom_site_symmetry_multiplicity
 _atom_site_fract_x
 _atom_site_fract_y
 _atom_site_fract_z
 _atom_site_occupancy
 _atom_site_charge
  Nd  Nd1  1  0.346610  0.420560  0.129600  1.0  2.3001
  Nd  Nd2  1  0.732740  0.867060  0.447850  1.0  2.3205
  Nd  Nd3  1  0.653390  0.579440  0.870400  1.0  2.3004
  Nd  Nd4  1  0.267260  0.132940  0.552150  1.0  2.3203
  S  S5  1  0.159900  0.880280  0.357980  1.0  1.6784
  S  S6  1  0.533100  0.657080  0.274180  1.0  1.7054
  S  S7  1  0.762700  0.352650  0.073080  1.0  1.7207
  S  S8  1  0.264100  0.247310  0.319310  1.0  1.6803
  S  S9  1  0.840100  0.119720  0.642020  1.0  1.6799
  S  S10  1  0.466900  0.342920  0.725820  1.0  1.7061
  S  S11  1  0.237300  0.647350  0.926920  1.0  1.7212
  S  S12  1  0.735900  0.752690  0.680690  1.0  1.6796
  O  O13  1  0.976300  0.416100  0.122300  1.0  -0.6376
  O  O14  1  0.644300  0.435300  0.011400  1.0  -0.8816
  O  O15  1  0.352500  0.375100  0.326600  1.0  -0.7451
  O  O16  1  0.639400  0.311900  0.159900  1.0  -0.7053
  O  O17  1  0.309100  0.601200  0.234900  1.0  -0.7249
  O  O18  1  0.651400  0.585500  0.221300  1.0  -0.7496
  O  O19  1  0.197300  0.212500  0.199900  1.0  -0.6449
  O  O20  1  0.373800  0.883800  0.419600  1.0  -0.6614
  O  O21  1  0.586200  0.780500  0.246900  1.0  -0.7269
  O  O22  1  0.084100  0.977700  0.410100  1.0  -0.8783
  O  O23  1  0.589600  0.656500  0.398400  1.0  -0.7611
  O  O24  1  0.423500  0.187100  0.380100  1.0  -0.7789
  O  O25  1  0.009900  0.776000  0.381600  1.0  -0.7023
  O  O26  1  0.087600  0.220300  0.381100  1.0  -0.7478
  O  O27  1  0.155300  0.895100  0.240800  1.0  -0.5203
  O  O28  1  0.770000  0.256300  0.998300  1.0  -0.545
  O  O29  1  0.023700  0.583900  0.877700  1.0  -0.6384
  O  O30  1  0.355700  0.564700  0.988600  1.0  -0.8811
  O  O31  1  0.647500  0.624900  0.673400  1.0  -0.7449
  O  O32  1  0.360600  0.688100  0.840100  1.0  -0.6997
  O  O33  1  0.690900  0.398800  0.765100  1.0  -0.7243
  O  O34  1  0.348600  0.414500  0.778700  1.0  -0.7498
  O  O35  1  0.802700  0.787500  0.800100  1.0  -0.642
  O  O36  1  0.626200  0.116200  0.580400  1.0  -0.661
  O  O37  1  0.413800  0.219500  0.753100  1.0  -0.7282
  O  O38  1  0.915900  0.022300  0.589900  1.0  -0.8793
  O  O39  1  0.410400  0.343500  0.601600  1.0  -0.7605
  O  O40  1  0.576500  0.812900  0.619900  1.0  -0.7763
  O  O41  1  0.990100  0.224000  0.618400  1.0  -0.7037
  O  O42  1  0.912400  0.779700  0.618900  1.0  -0.7489
  O  O43  1  0.844700  0.104900  0.759200  1.0  -0.5186
  O  O44  1  0.230000  0.743700  0.001700  1.0  -0.5451
