# generated using pymatgen
data_CoH12C16(NO)4
_symmetry_space_group_name_H-M   'P 1'
_cell_length_a   14.59500000
_cell_length_b   13.34400000
_cell_length_c   21.32400000
_cell_angle_alpha   90.00000000
_cell_angle_beta   90.00000000
_cell_angle_gamma   90.00000000
_symmetry_Int_Tables_number   1
_chemical_formula_structural   CoH12C16(NO)4
_chemical_formula_sum   'Co8 H96 C128 N32 O32'
_cell_volume   4152.97012032
_cell_formula_units_Z   8
loop_
 _symmetry_equiv_pos_site_id
 _symmetry_equiv_pos_as_xyz
  1  'x, y, z'
loop_
 _atom_site_type_symbol
 _atom_site_label
 _atom_site_symmetry_multiplicity
 _atom_site_fract_x
 _atom_site_fract_y
 _atom_site_fract_z
 _atom_site_occupancy
 _atom_site_charge
  Co  Co1  1  0.099050  0.404270  0.908740  1.0  0.9205
  Co  Co2  1  0.903800  0.348140  0.040350  1.0  0.9436
  Co  Co3  1  0.400950  0.404270  0.408740  1.0  0.9205
  Co  Co4  1  0.596200  0.348140  0.540350  1.0  0.9438
  Co  Co5  1  0.900950  0.595730  0.408740  1.0  0.9207
  Co  Co6  1  0.096200  0.651860  0.540350  1.0  0.9434
  Co  Co7  1  0.599050  0.595730  0.908740  1.0  0.9207
  Co  Co8  1  0.403800  0.651860  0.040350  1.0  0.9431
  H  H9  1  0.735000  0.336300  0.357000  1.0  0.1075
  H  H10  1  0.789700  0.340500  0.249200  1.0  0.1087
  H  H11  1  0.602300  0.387500  0.273100  1.0  0.1031
  H  H12  1  0.101900  0.360500  0.174600  1.0  0.1063
  H  H13  1  0.169100  0.751900  0.991300  1.0  0.1113
  H  H14  1  0.162900  0.582600  0.991200  1.0  0.1058
  H  H15  1  0.289400  0.389100  0.201600  1.0  0.1
  H  H16  1  0.985400  0.692600  0.120000  1.0  0.1236
  H  H17  1  0.654200  0.383100  0.162500  1.0  0.1112
  H  H18  1  0.151400  0.374200  0.284400  1.0  0.1042
  H  H19  1  0.843200  0.700800  0.961300  1.0  0.128
  H  H20  1  0.840500  0.531400  0.959500  1.0  0.1103
  H  H21  1  0.014100  0.581200  0.837900  1.0  0.1004
  H  H22  1  0.241400  0.399900  0.091700  1.0  0.0983
  H  H23  1  0.987900  0.523000  0.112900  1.0  0.0909
  H  H24  1  0.024500  0.756500  0.833300  1.0  0.1389
  H  H25  1  0.831300  0.167600  0.967500  1.0  0.076
  H  H26  1  0.147000  0.041600  0.988200  1.0  0.091
  H  H27  1  0.962500  0.165400  0.118600  1.0  0.1173
  H  H28  1  0.167600  0.218500  0.984200  1.0  0.0863
  H  H29  1  0.017800  0.228000  0.833000  1.0  0.1051
  H  H30  1  0.010000  0.052200  0.830600  1.0  0.144
  H  H31  1  0.867600  0.003700  0.948300  1.0  0.1382
  H  H32  1  0.976900  0.991700  0.108800  1.0  0.1017
  H  H33  1  0.765000  0.336300  0.857000  1.0  0.1076
  H  H34  1  0.710300  0.340500  0.749200  1.0  0.1102
  H  H35  1  0.897700  0.387500  0.773100  1.0  0.1042
  H  H36  1  0.398100  0.360500  0.674600  1.0  0.1066
  H  H37  1  0.330900  0.751900  0.491300  1.0  0.1113
  H  H38  1  0.337100  0.582600  0.491200  1.0  0.1054
  H  H39  1  0.210600  0.389100  0.701600  1.0  0.0989
  H  H40  1  0.514600  0.692600  0.620000  1.0  0.1238
  H  H41  1  0.845800  0.383100  0.662500  1.0  0.1112
  H  H42  1  0.348600  0.374200  0.784400  1.0  0.1042
  H  H43  1  0.656800  0.700800  0.461300  1.0  0.1287
  H  H44  1  0.659500  0.531400  0.459500  1.0  0.1108
  H  H45  1  0.485900  0.581200  0.337900  1.0  0.1006
  H  H46  1  0.258600  0.399900  0.591700  1.0  0.0979
  H  H47  1  0.512100  0.523000  0.612900  1.0  0.0898
  H  H48  1  0.475500  0.756500  0.333333  1.0  0.1378
  H  H49  1  0.668700  0.167600  0.467500  1.0  0.0761
  H  H50  1  0.353000  0.041600  0.488200  1.0  0.0908
  H  H51  1  0.537500  0.165400  0.618600  1.0  0.1186
  H  H52  1  0.332400  0.218500  0.484200  1.0  0.0856
  H  H53  1  0.482200  0.228000  0.333000  1.0  0.1052
  H  H54  1  0.490000  0.052200  0.330600  1.0  0.1443
  H  H55  1  0.632400  0.003700  0.448300  1.0  0.1384
  H  H56  1  0.523100  0.991700  0.608800  1.0  0.101
  H  H57  1  0.265000  0.663700  0.857000  1.0  0.1082
  H  H58  1  0.210300  0.659500  0.749200  1.0  0.1108
  H  H59  1  0.397700  0.612500  0.773100  1.0  0.1042
  H  H60  1  0.898100  0.639500  0.674600  1.0  0.1066
  H  H61  1  0.830900  0.248100  0.491300  1.0  0.1114
  H  H62  1  0.837100  0.417400  0.491200  1.0  0.1055
  H  H63  1  0.710600  0.610900  0.701600  1.0  0.0985
  H  H64  1  0.014600  0.307400  0.620000  1.0  0.1243
  H  H65  1  0.345800  0.616900  0.662500  1.0  0.111
  H  H66  1  0.848600  0.625800  0.784400  1.0  0.1035
  H  H67  1  0.156800  0.299200  0.461300  1.0  0.128
  H  H68  1  0.159500  0.468600  0.459500  1.0  0.1099
  H  H69  1  0.985900  0.418800  0.337900  1.0  0.1004
  H  H70  1  0.758600  0.600100  0.591700  1.0  0.0979
  H  H71  1  0.012100  0.477000  0.612900  1.0  0.0898
  H  H72  1  0.975500  0.243500  0.333333  1.0  0.1385
  H  H73  1  0.168700  0.832400  0.467500  1.0  0.0757
  H  H74  1  0.853000  0.958400  0.488200  1.0  0.0905
  H  H75  1  0.037500  0.834600  0.618600  1.0  0.1185
  H  H76  1  0.832400  0.781500  0.484200  1.0  0.085
  H  H77  1  0.982200  0.772000  0.333000  1.0  0.1052
  H  H78  1  0.990000  0.947800  0.330600  1.0  0.1445
  H  H79  1  0.132400  0.996300  0.448300  1.0  0.1386
  H  H80  1  0.023100  0.008300  0.608800  1.0  0.1014
  H  H81  1  0.235000  0.663700  0.357000  1.0  0.1078
  H  H82  1  0.289700  0.659500  0.249200  1.0  0.1099
  H  H83  1  0.102300  0.612500  0.273100  1.0  0.1034
  H  H84  1  0.601900  0.639500  0.174600  1.0  0.106
  H  H85  1  0.669100  0.248100  0.991300  1.0  0.1116
  H  H86  1  0.662900  0.417400  0.991200  1.0  0.1056
  H  H87  1  0.789400  0.610900  0.201600  1.0  0.0993
  H  H88  1  0.485400  0.307400  0.120000  1.0  0.1241
  H  H89  1  0.154200  0.616900  0.162500  1.0  0.111
  H  H90  1  0.651400  0.625800  0.284400  1.0  0.1042
  H  H91  1  0.343200  0.299200  0.961300  1.0  0.1252
  H  H92  1  0.340500  0.468600  0.959500  1.0  0.1102
  H  H93  1  0.514100  0.418800  0.837900  1.0  0.1001
  H  H94  1  0.741400  0.600100  0.091700  1.0  0.0983
  H  H95  1  0.487900  0.477000  0.112900  1.0  0.0908
  H  H96  1  0.524500  0.243500  0.833300  1.0  0.1394
  H  H97  1  0.331300  0.832400  0.967500  1.0  0.0758
  H  H98  1  0.647000  0.958400  0.988200  1.0  0.0908
  H  H99  1  0.462500  0.834600  0.118600  1.0  0.1179
  H  H100  1  0.667600  0.781500  0.984200  1.0  0.0853
  H  H101  1  0.517800  0.772000  0.833000  1.0  0.1052
  H  H102  1  0.510000  0.947800  0.830600  1.0  0.1442
  H  H103  1  0.367600  0.996300  0.948300  1.0  0.138
  H  H104  1  0.476900  0.008300  0.108800  1.0  0.1022
  C  C105  1  0.676300  0.355700  0.345200  1.0  -0.1549
  C  C106  1  0.091700  0.772300  0.918400  1.0  0.0195
  C  C107  1  0.917800  0.717400  0.041500  1.0  -0.0049
  C  C108  1  0.730400  0.356700  0.236900  1.0  -0.0994
  C  C109  1  0.661000  0.369000  0.285400  1.0  -0.0891
  C  C110  1  0.785200  0.355300  0.127700  1.0  0.6753
  C  C111  1  0.162200  0.374500  0.163700  1.0  -0.1079
  C  C112  1  0.136200  0.719300  0.960000  1.0  -0.1253
  C  C113  1  0.110600  0.375500  0.052800  1.0  0.6943
  C  C114  1  0.135400  0.617300  0.958500  1.0  0.159
  C  C115  1  0.228400  0.382700  0.213500  1.0  -0.0907
  C  C116  1  0.957200  0.661400  0.086100  1.0  -0.1237
  C  C117  1  0.713300  0.367500  0.175300  1.0  -0.1174
  C  C118  1  0.212000  0.382100  0.272000  1.0  -0.1456
  C  C119  1  0.283300  0.393300  0.323400  1.0  0.6689
  C  C120  1  0.607600  0.368900  0.395800  1.0  0.7061
  C  C121  1  0.872400  0.665100  0.993000  1.0  -0.0915
  C  C122  1  0.870800  0.564300  0.991800  1.0  0.1213
  C  C123  1  0.048500  0.615500  0.867700  1.0  0.1612
  C  C124  1  0.181400  0.385400  0.103200  1.0  -0.171
  C  C125  1  0.956600  0.559500  0.082500  1.0  0.1833
  C  C126  1  0.049900  0.721100  0.866600  1.0  -0.0812
  C  C127  1  0.868300  0.133500  0.995900  1.0  0.1715
  C  C128  1  0.125000  0.077300  0.954000  1.0  -0.0717
  C  C129  1  0.939600  0.133000  0.083300  1.0  0.11
  C  C130  1  0.133900  0.186500  0.953100  1.0  0.1459
  C  C131  1  0.047600  0.190800  0.863700  1.0  0.1635
  C  C132  1  0.042000  0.085000  0.862100  1.0  -0.1326
  C  C133  1  0.087600  0.030600  0.909800  1.0  0.0854
  C  C134  1  0.879000  0.032400  0.987200  1.0  -0.1217
  C  C135  1  0.944000  0.026200  0.078200  1.0  -0.0826
  C  C136  1  0.907100  0.975600  0.035400  1.0  0.1728
  C  C137  1  0.823700  0.355700  0.845200  1.0  -0.1553
  C  C138  1  0.408300  0.772300  0.418400  1.0  0.0193
  C  C139  1  0.582200  0.717400  0.541500  1.0  -0.0049
  C  C140  1  0.769600  0.356700  0.736900  1.0  -0.1016
  C  C141  1  0.839000  0.369000  0.785400  1.0  -0.0866
  C  C142  1  0.714800  0.355300  0.627700  1.0  0.6757
  C  C143  1  0.337800  0.374500  0.663700  1.0  -0.1053
  C  C144  1  0.363800  0.719300  0.460000  1.0  -0.1273
  C  C145  1  0.389400  0.375500  0.552800  1.0  0.6934
  C  C146  1  0.364600  0.617300  0.458500  1.0  0.1588
  C  C147  1  0.271600  0.382700  0.713500  1.0  -0.0928
  C  C148  1  0.542800  0.661400  0.586100  1.0  -0.1243
  C  C149  1  0.786700  0.367500  0.675300  1.0  -0.1162
  C  C150  1  0.288000  0.382100  0.772000  1.0  -0.145
  C  C151  1  0.216700  0.393300  0.823400  1.0  0.6685
  C  C152  1  0.892400  0.368900  0.895800  1.0  0.7056
  C  C153  1  0.627600  0.665100  0.493000  1.0  -0.09
  C  C154  1  0.629200  0.564300  0.491800  1.0  0.1207
  C  C155  1  0.451500  0.615500  0.367700  1.0  0.1599
  C  C156  1  0.318600  0.385400  0.603200  1.0  -0.1721
  C  C157  1  0.543400  0.559500  0.582500  1.0  0.1836
  C  C158  1  0.450100  0.721100  0.366600  1.0  -0.0817
  C  C159  1  0.631700  0.133500  0.495900  1.0  0.171
  C  C160  1  0.375000  0.077300  0.454000  1.0  -0.072
  C  C161  1  0.560400  0.133000  0.583300  1.0  0.1089
  C  C162  1  0.366100  0.186500  0.453100  1.0  0.147
  C  C163  1  0.452400  0.190800  0.363700  1.0  0.1599
  C  C164  1  0.458000  0.085000  0.362100  1.0  -0.1308
  C  C165  1  0.412400  0.030600  0.409800  1.0  0.0864
  C  C166  1  0.621000  0.032400  0.487200  1.0  -0.1211
  C  C167  1  0.556000  0.026200  0.578200  1.0  -0.0898
  C  C168  1  0.592900  0.975600  0.535400  1.0  0.1725
  C  C169  1  0.323700  0.644300  0.845200  1.0  -0.1551
  C  C170  1  0.908300  0.227700  0.418400  1.0  0.0188
  C  C171  1  0.082200  0.282600  0.541500  1.0  -0.0055
  C  C172  1  0.269600  0.643300  0.736900  1.0  -0.1015
  C  C173  1  0.339000  0.631000  0.785400  1.0  -0.0842
  C  C174  1  0.214800  0.644700  0.627700  1.0  0.6764
  C  C175  1  0.837800  0.625500  0.663700  1.0  -0.1045
  C  C176  1  0.863800  0.280700  0.460000  1.0  -0.1264
  C  C177  1  0.889400  0.624500  0.552800  1.0  0.693
  C  C178  1  0.864600  0.382700  0.458500  1.0  0.1601
  C  C179  1  0.771600  0.617300  0.713500  1.0  -0.0934
  C  C180  1  0.042800  0.338600  0.586100  1.0  -0.1237
  C  C181  1  0.286700  0.632500  0.675300  1.0  -0.1141
  C  C182  1  0.788000  0.617900  0.772000  1.0  -0.145
  C  C183  1  0.716700  0.606700  0.823400  1.0  0.6691
  C  C184  1  0.392400  0.631100  0.895800  1.0  0.7053
  C  C185  1  0.127600  0.334900  0.493000  1.0  -0.0855
  C  C186  1  0.129200  0.435700  0.491800  1.0  0.1211
  C  C187  1  0.951500  0.384500  0.367700  1.0  0.1596
  C  C188  1  0.818600  0.614600  0.603200  1.0  -0.1717
  C  C189  1  0.043400  0.440500  0.582500  1.0  0.1854
  C  C190  1  0.950100  0.278900  0.366600  1.0  -0.0829
  C  C191  1  0.131700  0.866500  0.495900  1.0  0.1705
  C  C192  1  0.875000  0.922700  0.454000  1.0  -0.0807
  C  C193  1  0.060400  0.867000  0.583300  1.0  0.1081
  C  C194  1  0.866100  0.813500  0.453100  1.0  0.1466
  C  C195  1  0.952400  0.809200  0.363700  1.0  0.1594
  C  C196  1  0.958000  0.915000  0.362100  1.0  -0.1319
  C  C197  1  0.912400  0.969400  0.409800  1.0  0.0875
  C  C198  1  0.121000  0.967600  0.487200  1.0  -0.1253
  C  C199  1  0.056000  0.973800  0.578200  1.0  -0.0903
  C  C200  1  0.092900  0.024400  0.535400  1.0  0.1685
  C  C201  1  0.176300  0.644300  0.345200  1.0  -0.1519
  C  C202  1  0.591700  0.227700  0.918400  1.0  0.019
  C  C203  1  0.417800  0.282600  0.041500  1.0  -0.0055
  C  C204  1  0.230400  0.643300  0.236900  1.0  -0.0953
  C  C205  1  0.161000  0.631000  0.285400  1.0  -0.0882
  C  C206  1  0.285200  0.644700  0.127700  1.0  0.6758
  C  C207  1  0.662200  0.625500  0.163700  1.0  -0.1081
  C  C208  1  0.636200  0.280700  0.960000  1.0  -0.1258
  C  C209  1  0.610600  0.624500  0.052800  1.0  0.6939
  C  C210  1  0.635400  0.382700  0.958500  1.0  0.1605
  C  C211  1  0.728400  0.617300  0.213500  1.0  -0.0899
  C  C212  1  0.457200  0.338600  0.086100  1.0  -0.1234
  C  C213  1  0.213300  0.632500  0.175300  1.0  -0.1164
  C  C214  1  0.712000  0.617900  0.272000  1.0  -0.1457
  C  C215  1  0.783300  0.606700  0.323400  1.0  0.6701
  C  C216  1  0.107600  0.631100  0.395800  1.0  0.7057
  C  C217  1  0.372400  0.334900  0.993000  1.0  -0.0908
  C  C218  1  0.370800  0.435700  0.991800  1.0  0.1193
  C  C219  1  0.548500  0.384500  0.867700  1.0  0.1613
  C  C220  1  0.681400  0.614600  0.103200  1.0  -0.1706
  C  C221  1  0.456600  0.440500  0.082500  1.0  0.1849
  C  C222  1  0.549900  0.278900  0.866600  1.0  -0.0828
  C  C223  1  0.368300  0.866500  0.995900  1.0  0.1708
  C  C224  1  0.625000  0.922700  0.954000  1.0  -0.0706
  C  C225  1  0.439600  0.867000  0.083300  1.0  0.1094
  C  C226  1  0.633900  0.813500  0.953100  1.0  0.1454
  C  C227  1  0.547600  0.809200  0.863700  1.0  0.1627
  C  C228  1  0.542000  0.915000  0.862100  1.0  -0.1303
  C  C229  1  0.587600  0.969400  0.909800  1.0  0.0875
  C  C230  1  0.379000  0.967600  0.987200  1.0  -0.125
  C  C231  1  0.444000  0.973800  0.078200  1.0  -0.0885
  C  C232  1  0.407100  0.024400  0.035400  1.0  0.169
  N  N233  1  0.095800  0.563200  0.910700  1.0  -0.3319
  N  N234  1  0.913000  0.510200  0.037300  1.0  -0.3264
  N  N235  1  0.095300  0.239000  0.909100  1.0  -0.283
  N  N236  1  0.903600  0.183000  0.038700  1.0  -0.2436
  N  N237  1  0.930900  0.840000  0.059900  1.0  -0.3052
  N  N238  1  0.891300  0.861100  0.017600  1.0  -0.2609
  N  N239  1  0.100900  0.894300  0.929200  1.0  -0.3068
  N  N240  1  0.064000  0.917000  0.887300  1.0  -0.2475
  N  N241  1  0.404200  0.563200  0.410700  1.0  -0.3319
  N  N242  1  0.587000  0.510200  0.537300  1.0  -0.3246
  N  N243  1  0.404700  0.239000  0.409100  1.0  -0.2837
  N  N244  1  0.596400  0.183000  0.538700  1.0  -0.2444
  N  N245  1  0.569100  0.840000  0.559900  1.0  -0.3055
  N  N246  1  0.608700  0.861100  0.517600  1.0  -0.2604
  N  N247  1  0.399100  0.894300  0.429200  1.0  -0.3077
  N  N248  1  0.436000  0.917000  0.387300  1.0  -0.2473
  N  N249  1  0.904200  0.436800  0.410700  1.0  -0.3319
  N  N250  1  0.087000  0.489800  0.537300  1.0  -0.3254
  N  N251  1  0.904700  0.761000  0.409100  1.0  -0.2821
  N  N252  1  0.096400  0.817000  0.538700  1.0  -0.2401
  N  N253  1  0.069100  0.160000  0.559900  1.0  -0.3054
  N  N254  1  0.108700  0.138900  0.517600  1.0  -0.2601
  N  N255  1  0.899100  0.105700  0.429200  1.0  -0.3078
  N  N256  1  0.936000  0.083000  0.387300  1.0  -0.2475
  N  N257  1  0.595800  0.436800  0.910700  1.0  -0.3319
  N  N258  1  0.413000  0.489800  0.037300  1.0  -0.3259
  N  N259  1  0.595300  0.761000  0.909100  1.0  -0.2821
  N  N260  1  0.403600  0.817000  0.038700  1.0  -0.2425
  N  N261  1  0.430900  0.160000  0.059900  1.0  -0.3052
  N  N262  1  0.391300  0.138900  0.017600  1.0  -0.2606
  N  N263  1  0.600900  0.105700  0.929200  1.0  -0.3058
  N  N264  1  0.564000  0.083000  0.887300  1.0  -0.2476
  O  O265  1  0.133900  0.404200  0.999500  1.0  -0.6005
  O  O266  1  0.870900  0.350100  0.143500  1.0  -0.5659
  O  O267  1  0.259000  0.392100  0.378800  1.0  -0.5365
  O  O268  1  0.034600  0.338000  0.065900  1.0  -0.5996
  O  O269  1  0.363700  0.405800  0.308800  1.0  -0.5374
  O  O270  1  0.631100  0.340100  0.449900  1.0  -0.6078
  O  O271  1  0.533600  0.407100  0.381500  1.0  -0.5809
  O  O272  1  0.764900  0.357000  0.070600  1.0  -0.5578
  O  O273  1  0.366100  0.404200  0.499500  1.0  -0.6019
  O  O274  1  0.629100  0.350100  0.643500  1.0  -0.5661
  O  O275  1  0.241000  0.392100  0.878800  1.0  -0.536
  O  O276  1  0.465400  0.338000  0.565900  1.0  -0.6002
  O  O277  1  0.136300  0.405800  0.808800  1.0  -0.5375
  O  O278  1  0.868900  0.340100  0.949900  1.0  -0.6073
  O  O279  1  0.966400  0.407100  0.881500  1.0  -0.5809
  O  O280  1  0.735100  0.357000  0.570600  1.0  -0.5578
  O  O281  1  0.866100  0.595800  0.499500  1.0  -0.6019
  O  O282  1  0.129100  0.649900  0.643500  1.0  -0.5663
  O  O283  1  0.741000  0.607900  0.878800  1.0  -0.5358
  O  O284  1  0.965400  0.662000  0.565900  1.0  -0.6008
  O  O285  1  0.636300  0.594200  0.808800  1.0  -0.5374
  O  O286  1  0.368900  0.659900  0.949900  1.0  -0.6075
  O  O287  1  0.466400  0.592900  0.881500  1.0  -0.5809
  O  O288  1  0.235100  0.643000  0.570600  1.0  -0.5577
  O  O289  1  0.633900  0.595800  0.999500  1.0  -0.6022
  O  O290  1  0.370900  0.649900  0.143500  1.0  -0.5655
  O  O291  1  0.759000  0.607900  0.378800  1.0  -0.5361
  O  O292  1  0.534600  0.662000  0.065900  1.0  -0.6003
  O  O293  1  0.863700  0.594200  0.308800  1.0  -0.5371
  O  O294  1  0.131100  0.659900  0.449900  1.0  -0.6081
  O  O295  1  0.033600  0.592900  0.381500  1.0  -0.5812
  O  O296  1  0.264900  0.643000  0.070600  1.0  -0.5576
