# generated using pymatgen
data_PrPH5C7NO5
_symmetry_space_group_name_H-M   'P 1'
_cell_length_a   10.15880000
_cell_length_b   12.79190000
_cell_length_c   23.00550000
_cell_angle_alpha   104.31600000
_cell_angle_beta   90.00000000
_cell_angle_gamma   113.39600000
_symmetry_Int_Tables_number   1
_chemical_formula_structural   PrPH5C7NO5
_chemical_formula_sum   'Pr8 P8 H40 C56 N8 O40'
_cell_volume   2642.31936572
_cell_formula_units_Z   8
loop_
 _symmetry_equiv_pos_site_id
 _symmetry_equiv_pos_as_xyz
  1  'x, y, z'
loop_
 _atom_site_type_symbol
 _atom_site_label
 _atom_site_symmetry_multiplicity
 _atom_site_fract_x
 _atom_site_fract_y
 _atom_site_fract_z
 _atom_site_occupancy
 _atom_site_charge
  Pr  Pr1  1  0.022750  0.636580  0.725640  1.0  2.1905
  Pr  Pr2  1  0.145880  0.834500  0.600340  1.0  2.1734
  Pr  Pr3  1  0.615900  0.609580  0.696960  1.0  2.0906
  Pr  Pr4  1  0.558840  0.871960  0.640420  1.0  2.005
  Pr  Pr5  1  0.613830  0.636580  0.225640  1.0  2.1909
  Pr  Pr6  1  0.688620  0.834500  0.100340  1.0  2.173
  Pr  Pr7  1  0.993680  0.609580  0.196960  1.0  2.0898
  Pr  Pr8  1  0.313120  0.871960  0.140420  1.0  2.0051
  P  P9  1  0.882400  0.860200  0.713760  1.0  1.4347
  P  P10  1  0.291300  0.616000  0.620560  1.0  1.4064
  P  P11  1  0.816700  0.555200  0.601140  1.0  1.4595
  P  P12  1  0.340600  0.910600  0.729130  1.0  1.4611
  P  P13  1  0.977800  0.860200  0.213760  1.0  1.4345
  P  P14  1  0.324700  0.616000  0.120560  1.0  1.4058
  P  P15  1  0.738500  0.555200  0.101140  1.0  1.4606
  P  P16  1  0.570000  0.910600  0.229130  1.0  1.4597
  H  H17  1  0.200200  0.373200  0.836700  1.0  0.0924
  H  H18  1  0.954100  0.148200  0.871400  1.0  0.1331
  H  H19  1  0.915000  0.329800  0.848000  1.0  0.1142
  H  H20  1  0.162500  0.118400  0.742000  1.0  0.0926
  H  H21  1  0.137200  0.298200  0.712900  1.0  0.1294
  H  H22  1  0.020000  0.093200  0.502900  1.0  0.0682
  H  H23  1  0.992700  0.327400  0.576800  1.0  0.1595
  H  H24  1  0.045200  0.182600  0.626600  1.0  0.1506
  H  H25  1  0.263400  0.319400  0.467200  1.0  0.1325
  H  H26  1  0.311400  0.160600  0.507400  1.0  0.1223
  H  H27  1  0.682900  0.379600  0.332400  1.0  0.0933
  H  H28  1  0.836200  0.314200  0.432900  1.0  0.1082
  H  H29  1  0.969900  0.441400  0.359700  1.0  0.1189
  H  H30  1  0.598800  0.453600  0.470500  1.0  0.1312
  H  H31  1  0.698300  0.594400  0.398300  1.0  0.1463
  H  H32  1  0.562100  0.090800  0.987800  1.0  0.0884
  H  H33  1  0.264800  0.963600  0.981200  1.0  0.1411
  H  H34  1  0.308300  0.105800  0.906700  1.0  0.1335
  H  H35  1  0.615000  0.050800  0.852800  1.0  0.1315
  H  H36  1  0.573100  0.882000  0.917900  1.0  0.1314
  H  H37  1  0.173000  0.373200  0.336700  1.0  0.0929
  H  H38  1  0.194100  0.148200  0.371400  1.0  0.1348
  H  H39  1  0.414800  0.329800  0.348000  1.0  0.1152
  H  H40  1  0.955900  0.118400  0.242000  1.0  0.0924
  H  H41  1  0.161000  0.298200  0.212900  1.0  0.1294
  H  H42  1  0.073200  0.093200  0.002900  1.0  0.0682
  H  H43  1  0.334700  0.327400  0.076800  1.0  0.1583
  H  H44  1  0.137400  0.182600  0.126600  1.0  0.1507
  H  H45  1  0.056000  0.319400  0.967200  1.0  0.1329
  H  H46  1  0.849200  0.160600  0.007400  1.0  0.1229
  H  H47  1  0.696700  0.379600  0.832400  1.0  0.0934
  H  H48  1  0.478000  0.314200  0.932900  1.0  0.1084
  H  H49  1  0.471500  0.441400  0.859700  1.0  0.1187
  H  H50  1  0.854800  0.453600  0.970500  1.0  0.1318
  H  H51  1  0.896100  0.594400  0.898300  1.0  0.1465
  H  H52  1  0.528700  0.090800  0.487800  1.0  0.0888
  H  H53  1  0.698800  0.963600  0.481200  1.0  0.1412
  H  H54  1  0.797500  0.105800  0.406700  1.0  0.1341
  H  H55  1  0.435800  0.050800  0.352800  1.0  0.1314
  H  H56  1  0.308900  0.882000  0.417900  1.0  0.1311
  C  C57  1  0.948600  0.985800  0.782400  1.0  -0.1389
  C  C58  1  0.118900  0.360600  0.808900  1.0  -0.1334
  C  C59  1  0.964600  0.174000  0.836500  1.0  0.0861
  C  C60  1  0.980800  0.297600  0.834900  1.0  -0.1042
  C  C61  1  0.099100  0.154000  0.753300  1.0  0.043
  C  C62  1  0.122300  0.276200  0.748800  1.0  -0.1084
  C  C63  1  0.138100  0.481000  0.801800  1.0  0.6497
  C  C64  1  0.237500  0.499000  0.550100  1.0  -0.1208
  C  C65  1  0.097900  0.122400  0.535700  1.0  -0.164
  C  C66  1  0.070900  0.306800  0.576200  1.0  0.0515
  C  C67  1  0.065500  0.200400  0.589900  1.0  -0.1327
  C  C68  1  0.246800  0.300800  0.503900  1.0  0.0544
  C  C69  1  0.238600  0.187600  0.513900  1.0  -0.0984
  C  C70  1  0.103100  0.014600  0.555000  1.0  0.6087
  C  C71  1  0.785900  0.430000  0.533400  1.0  -0.1232
  C  C72  1  0.764600  0.456000  0.349300  1.0  -0.1615
  C  C73  1  0.843100  0.387200  0.429500  1.0  0.0786
  C  C74  1  0.882800  0.430600  0.375700  1.0  -0.0966
  C  C75  1  0.686500  0.478400  0.454400  1.0  0.0419
  C  C76  1  0.712300  0.527800  0.400400  1.0  -0.0496
  C  C77  1  0.807600  0.516800  0.297400  1.0  0.662
  C  C78  1  0.377000  0.026800  0.799400  1.0  -0.1165
  C  C79  1  0.496000  0.007000  0.975900  1.0  -0.1475
  C  C80  1  0.343200  0.995800  0.960600  1.0  -0.0555
  C  C81  1  0.337100  0.045200  0.906200  1.0  0.0411
  C  C82  1  0.536200  0.005800  0.869600  1.0  0.0508
  C  C83  1  0.544600  0.943800  0.921000  1.0  -0.1433
  C  C84  1  0.502200  0.951600  0.028600  1.0  0.6159
  C  C85  1  0.037200  0.985800  0.282400  1.0  -0.1383
  C  C86  1  0.241700  0.360600  0.308900  1.0  -0.1343
  C  C87  1  0.209400  0.174000  0.336500  1.0  0.0859
  C  C88  1  0.316800  0.297600  0.334900  1.0  -0.1
  C  C89  1  0.054900  0.154000  0.253300  1.0  0.0438
  C  C90  1  0.153900  0.276200  0.248800  1.0  -0.1078
  C  C91  1  0.342900  0.481000  0.301800  1.0  0.651
  C  C92  1  0.261500  0.499000  0.050100  1.0  -0.121
  C  C93  1  0.024500  0.122400  0.035700  1.0  -0.1644
  C  C94  1  0.235900  0.306800  0.076200  1.0  0.0536
  C  C95  1  0.134900  0.200400  0.089900  1.0  -0.1318
  C  C96  1  0.054000  0.300800  0.003900  1.0  0.0553
  C  C97  1  0.949000  0.187600  0.013900  1.0  -0.1016
  C  C98  1  0.911500  0.014600  0.055000  1.0  0.6084
  C  C99  1  0.644100  0.430000  0.033400  1.0  -0.1231
  C  C100  1  0.691400  0.456000  0.849300  1.0  -0.1604
  C  C101  1  0.544100  0.387200  0.929500  1.0  0.0759
  C  C102  1  0.547800  0.430600  0.875700  1.0  -0.0984
  C  C103  1  0.791900  0.478400  0.954400  1.0  0.0444
  C  C104  1  0.815500  0.527800  0.900400  1.0  -0.05
  C  C105  1  0.709200  0.516800  0.797400  1.0  0.662
  C  C106  1  0.649800  0.026800  0.299400  1.0  -0.1171
  C  C107  1  0.511000  0.007000  0.475900  1.0  -0.1491
  C  C108  1  0.652600  0.995800  0.460600  1.0  -0.0545
  C  C109  1  0.708100  0.045200  0.406200  1.0  0.0432
  C  C110  1  0.469600  0.005800  0.369600  1.0  0.0508
  C  C111  1  0.399200  0.943800  0.421000  1.0  -0.1456
  C  C112  1  0.449400  0.951600  0.528600  1.0  0.616
  N  N113  1  0.967500  0.101600  0.776900  1.0  -0.2123
  N  N114  1  0.225300  0.384000  0.560300  1.0  -0.324
  N  N115  1  0.815400  0.474800  0.477800  1.0  -0.3198
  N  N116  1  0.384100  0.981000  0.852900  1.0  -0.3117
  N  N117  1  0.134100  0.101600  0.276900  1.0  -0.2119
  N  N118  1  0.158700  0.384000  0.060300  1.0  -0.3227
  N  N119  1  0.659400  0.474800  0.977800  1.0  -0.319
  N  N120  1  0.596900  0.981000  0.352900  1.0  -0.3111
  O  O121  1  0.876800  0.750000  0.731000  1.0  -0.9896
  O  O122  1  0.721400  0.832000  0.696900  1.0  -1.0037
  O  O123  1  0.447600  0.646200  0.641900  1.0  -1.0268
  O  O124  1  0.444500  0.853600  0.733900  1.0  -0.8774
  O  O125  1  0.297500  0.728600  0.601300  1.0  -0.9308
  O  O126  1  0.191100  0.583000  0.667800  1.0  -0.91
  O  O127  1  0.974100  0.647400  0.609800  1.0  -0.9693
  O  O128  1  0.794800  0.502000  0.655800  1.0  -0.9162
  O  O129  1  0.706200  0.609000  0.598300  1.0  -0.8089
  O  O130  1  0.377500  0.966600  0.675200  1.0  -0.9008
  O  O131  1  0.741700  0.570400  0.288300  1.0  -0.6683
  O  O132  1  0.018900  0.906200  0.527900  1.0  -0.6938
  O  O133  1  0.424300  0.972800  0.069900  1.0  -0.7374
  O  O134  1  0.972500  0.892400  0.663600  1.0  -0.9051
  O  O135  1  0.183100  0.831000  0.719200  1.0  -0.9498
  O  O136  1  0.191200  0.037800  0.599900  1.0  -0.6476
  O  O137  1  0.579900  0.899800  0.028600  1.0  -0.7143
  O  O138  1  0.243200  0.573600  0.832800  1.0  -0.5585
  O  O139  1  0.902600  0.498000  0.268100  1.0  -0.6572
  O  O140  1  0.046600  0.478600  0.764300  1.0  -0.6957
  O  O141  1  0.873200  0.750000  0.231000  1.0  -0.9899
  O  O142  1  0.110600  0.832000  0.196900  1.0  -1.0047
  O  O143  1  0.198600  0.646200  0.141900  1.0  -1.0277
  O  O144  1  0.409100  0.853600  0.233900  1.0  -0.8759
  O  O145  1  0.431100  0.728600  0.101300  1.0  -0.9303
  O  O146  1  0.391900  0.583000  0.167800  1.0  -0.9094
  O  O147  1  0.673300  0.647400  0.109800  1.0  -0.9707
  O  O148  1  0.707200  0.502000  0.155800  1.0  -0.9167
  O  O149  1  0.902800  0.609000  0.098300  1.0  -0.8094
  O  O150  1  0.589100  0.966600  0.175200  1.0  -0.9014
  O  O151  1  0.828700  0.570400  0.788300  1.0  -0.6703
  O  O152  1  0.887300  0.906200  0.027900  1.0  -0.6939
  O  O153  1  0.548500  0.972800  0.569900  1.0  -0.739
  O  O154  1  0.919900  0.892400  0.163600  1.0  -0.9064
  O  O155  1  0.647900  0.831000  0.219200  1.0  -0.9508
  O  O156  1  0.846600  0.037800  0.099900  1.0  -0.6478
  O  O157  1  0.319900  0.899800  0.528600  1.0  -0.7141
  O  O158  1  0.330400  0.573600  0.332800  1.0  -0.5581
  O  O159  1  0.595400  0.498000  0.768100  1.0  -0.6579
  O  O160  1  0.432000  0.478600  0.264300  1.0  -0.6966
