# generated using pymatgen
data_Zn3H4(C5O4)4
_symmetry_space_group_name_H-M   'P 1'
_cell_length_a   19.58700000
_cell_length_b   19.16000000
_cell_length_c   17.00000000
_cell_angle_alpha   90.00000000
_cell_angle_beta   93.29000000
_cell_angle_gamma   90.00000000
_symmetry_Int_Tables_number   1
_chemical_formula_structural   Zn3H4(C5O4)4
_chemical_formula_sum   'Zn24 H32 C160 O128'
_cell_volume   6369.36263335
_cell_formula_units_Z   8
loop_
 _symmetry_equiv_pos_site_id
 _symmetry_equiv_pos_as_xyz
  1  'x, y, z'
loop_
 _atom_site_type_symbol
 _atom_site_label
 _atom_site_symmetry_multiplicity
 _atom_site_fract_x
 _atom_site_fract_y
 _atom_site_fract_z
 _atom_site_occupancy
 _atom_site_charge
  Zn  Zn1  1  0.260440  0.740750  0.254030  1.0  1.0915
  Zn  Zn2  1  0.093720  0.650920  0.164880  1.0  0.9901
  Zn  Zn3  1  0.760440  0.240750  0.254030  1.0  1.0915
  Zn  Zn4  1  0.593720  0.150920  0.164880  1.0  0.9901
  Zn  Zn5  1  0.739560  0.740750  0.245970  1.0  1.0911
  Zn  Zn6  1  0.906280  0.650920  0.335120  1.0  0.9905
  Zn  Zn7  1  0.239560  0.240750  0.245970  1.0  1.0911
  Zn  Zn8  1  0.406280  0.150920  0.335120  1.0  0.9905
  Zn  Zn9  1  0.739560  0.259250  0.745970  1.0  1.0912
  Zn  Zn10  1  0.906280  0.349080  0.835120  1.0  0.9906
  Zn  Zn11  1  0.239560  0.759250  0.745970  1.0  1.0912
  Zn  Zn12  1  0.406280  0.849080  0.835120  1.0  0.9906
  Zn  Zn13  1  0.260440  0.259250  0.754030  1.0  1.0916
  Zn  Zn14  1  0.093720  0.349080  0.664880  1.0  0.9901
  Zn  Zn15  1  0.760440  0.759250  0.754030  1.0  1.0916
  Zn  Zn16  1  0.593720  0.849080  0.664880  1.0  0.9901
  Zn  Zn17  1  0.000000  0.995590  0.250000  1.0  1.068
  Zn  Zn18  1  0.000000  0.466070  0.250000  1.0  1.0397
  Zn  Zn19  1  0.500000  0.495590  0.250000  1.0  1.068
  Zn  Zn20  1  0.500000  0.966070  0.250000  1.0  1.0397
  Zn  Zn21  1  0.000000  0.004410  0.750000  1.0  1.0684
  Zn  Zn22  1  0.000000  0.533930  0.750000  1.0  1.0395
  Zn  Zn23  1  0.500000  0.504410  0.750000  1.0  1.0684
  Zn  Zn24  1  0.500000  0.033930  0.750000  1.0  1.0395
  H  H25  1  0.196800  0.780400  0.983300  1.0  0.1199
  H  H26  1  0.054900  0.967300  0.025300  1.0  0.1276
  H  H27  1  0.025800  0.558400  0.511800  1.0  0.1182
  H  H28  1  0.211800  0.694400  0.463500  1.0  0.1267
  H  H29  1  0.696800  0.280400  0.983300  1.0  0.1199
  H  H30  1  0.554900  0.467300  0.025300  1.0  0.1276
  H  H31  1  0.525800  0.058400  0.511800  1.0  0.1182
  H  H32  1  0.711800  0.194400  0.463500  1.0  0.1267
  H  H33  1  0.803200  0.780400  0.516700  1.0  0.1198
  H  H34  1  0.945100  0.967300  0.474700  1.0  0.1278
  H  H35  1  0.974200  0.558400  0.988200  1.0  0.1186
  H  H36  1  0.788200  0.694400  0.036500  1.0  0.1273
  H  H37  1  0.303200  0.280400  0.516700  1.0  0.1198
  H  H38  1  0.445100  0.467300  0.474700  1.0  0.1278
  H  H39  1  0.474200  0.058400  0.988200  1.0  0.1186
  H  H40  1  0.288200  0.194400  0.036500  1.0  0.1273
  H  H41  1  0.803200  0.219600  0.016700  1.0  0.1195
  H  H42  1  0.945100  0.032700  0.974700  1.0  0.1281
  H  H43  1  0.974200  0.441600  0.488200  1.0  0.1184
  H  H44  1  0.788200  0.305600  0.536500  1.0  0.1264
  H  H45  1  0.303200  0.719600  0.016700  1.0  0.1195
  H  H46  1  0.445100  0.532700  0.974700  1.0  0.1281
  H  H47  1  0.474200  0.941600  0.488200  1.0  0.1184
  H  H48  1  0.288200  0.805600  0.536500  1.0  0.1264
  H  H49  1  0.196800  0.219600  0.483300  1.0  0.1198
  H  H50  1  0.054900  0.032700  0.525300  1.0  0.1279
  H  H51  1  0.025800  0.441600  0.011800  1.0  0.1181
  H  H52  1  0.211800  0.305600  0.963500  1.0  0.1262
  H  H53  1  0.696800  0.719600  0.483300  1.0  0.1198
  H  H54  1  0.554900  0.532700  0.525300  1.0  0.1279
  H  H55  1  0.525800  0.941600  0.011800  1.0  0.1181
  H  H56  1  0.711800  0.805600  0.963500  1.0  0.1262
  C  C57  1  0.103000  0.886100  0.079300  1.0  -0.0836
  C  C58  1  0.145900  0.829800  0.067100  1.0  -0.0775
  C  C59  1  0.168100  0.818000  0.991800  1.0  -0.0773
  C  C60  1  0.148400  0.861100  0.929800  1.0  -0.0614
  C  C61  1  0.105400  0.917600  0.942000  1.0  -0.0613
  C  C62  1  0.083400  0.929500  0.016800  1.0  0.0135
  C  C63  1  0.073500  0.896300  0.157900  1.0  0.7176
  C  C64  1  0.173100  0.782500  0.131000  1.0  0.7279
  C  C65  1  0.180100  0.849700  0.852500  1.0  0.7325
  C  C66  1  0.078500  0.963700  0.875800  1.0  0.7077
  C  C67  1  0.135800  0.638900  0.411100  1.0  -0.0961
  C  C68  1  0.080000  0.597400  0.425100  1.0  -0.0281
  C  C69  1  0.064200  0.584900  0.502200  1.0  -0.0256
  C  C70  1  0.104000  0.611100  0.565100  1.0  -0.0601
  C  C71  1  0.160700  0.650900  0.550700  1.0  -0.0716
  C  C72  1  0.174900  0.665700  0.473300  1.0  -0.0174
  C  C73  1  0.151300  0.658100  0.329100  1.0  0.7219
  C  C74  1  0.037300  0.561400  0.361900  1.0  0.7029
  C  C75  1  0.088800  0.587400  0.646600  1.0  0.7136
  C  C76  1  0.206200  0.681500  0.616300  1.0  0.7176
  C  C77  1  0.603000  0.386100  0.079300  1.0  -0.0836
  C  C78  1  0.645900  0.329800  0.067100  1.0  -0.0775
  C  C79  1  0.668100  0.318000  0.991800  1.0  -0.0773
  C  C80  1  0.648400  0.361100  0.929800  1.0  -0.0614
  C  C81  1  0.605400  0.417600  0.942000  1.0  -0.0613
  C  C82  1  0.583400  0.429500  0.016800  1.0  0.0135
  C  C83  1  0.573500  0.396300  0.157900  1.0  0.7176
  C  C84  1  0.673100  0.282500  0.131000  1.0  0.7279
  C  C85  1  0.680100  0.349700  0.852500  1.0  0.7325
  C  C86  1  0.578500  0.463700  0.875800  1.0  0.7077
  C  C87  1  0.635800  0.138900  0.411100  1.0  -0.0961
  C  C88  1  0.580000  0.097400  0.425100  1.0  -0.0281
  C  C89  1  0.564200  0.084900  0.502200  1.0  -0.0256
  C  C90  1  0.604000  0.111100  0.565100  1.0  -0.0601
  C  C91  1  0.660700  0.150900  0.550700  1.0  -0.0716
  C  C92  1  0.674900  0.165700  0.473300  1.0  -0.0174
  C  C93  1  0.651300  0.158100  0.329100  1.0  0.7219
  C  C94  1  0.537300  0.061400  0.361900  1.0  0.7029
  C  C95  1  0.588800  0.087400  0.646600  1.0  0.7136
  C  C96  1  0.706200  0.181500  0.616300  1.0  0.7176
  C  C97  1  0.897000  0.886100  0.420700  1.0  -0.0831
  C  C98  1  0.854100  0.829800  0.432900  1.0  -0.0777
  C  C99  1  0.831900  0.818000  0.508200  1.0  -0.0778
  C  C100  1  0.851600  0.861100  0.570200  1.0  -0.061
  C  C101  1  0.894600  0.917600  0.558000  1.0  -0.0605
  C  C102  1  0.916600  0.929500  0.483200  1.0  0.0136
  C  C103  1  0.926500  0.896300  0.342100  1.0  0.7179
  C  C104  1  0.826900  0.782500  0.369000  1.0  0.7268
  C  C105  1  0.819900  0.849700  0.647500  1.0  0.7324
  C  C106  1  0.921500  0.963700  0.624200  1.0  0.7067
  C  C107  1  0.864200  0.638900  0.088900  1.0  -0.095
  C  C108  1  0.920000  0.597400  0.074900  1.0  -0.0277
  C  C109  1  0.935800  0.584900  0.997800  1.0  -0.0248
  C  C110  1  0.896000  0.611100  0.934900  1.0  -0.059
  C  C111  1  0.839300  0.650900  0.949300  1.0  -0.0724
  C  C112  1  0.825100  0.665700  0.026700  1.0  -0.0182
  C  C113  1  0.848700  0.658100  0.170900  1.0  0.7236
  C  C114  1  0.962700  0.561400  0.138100  1.0  0.7048
  C  C115  1  0.911200  0.587400  0.853400  1.0  0.7125
  C  C116  1  0.793800  0.681500  0.883700  1.0  0.7179
  C  C117  1  0.397000  0.386100  0.420700  1.0  -0.0831
  C  C118  1  0.354100  0.329800  0.432900  1.0  -0.0777
  C  C119  1  0.331900  0.318000  0.508200  1.0  -0.0778
  C  C120  1  0.351600  0.361100  0.570200  1.0  -0.061
  C  C121  1  0.394600  0.417600  0.558000  1.0  -0.0605
  C  C122  1  0.416600  0.429500  0.483200  1.0  0.0136
  C  C123  1  0.426500  0.396300  0.342100  1.0  0.7179
  C  C124  1  0.326900  0.282500  0.369000  1.0  0.7268
  C  C125  1  0.319900  0.349700  0.647500  1.0  0.7324
  C  C126  1  0.421500  0.463700  0.624200  1.0  0.7067
  C  C127  1  0.364200  0.138900  0.088900  1.0  -0.095
  C  C128  1  0.420000  0.097400  0.074900  1.0  -0.0277
  C  C129  1  0.435800  0.084900  0.997800  1.0  -0.0248
  C  C130  1  0.396000  0.111100  0.934900  1.0  -0.059
  C  C131  1  0.339300  0.150900  0.949300  1.0  -0.0724
  C  C132  1  0.325100  0.165700  0.026700  1.0  -0.0182
  C  C133  1  0.348700  0.158100  0.170900  1.0  0.7236
  C  C134  1  0.462700  0.061400  0.138100  1.0  0.7048
  C  C135  1  0.411200  0.087400  0.853400  1.0  0.7125
  C  C136  1  0.293800  0.181500  0.883700  1.0  0.7179
  C  C137  1  0.897000  0.113900  0.920700  1.0  -0.0832
  C  C138  1  0.854100  0.170200  0.932900  1.0  -0.078
  C  C139  1  0.831900  0.182000  0.008200  1.0  -0.0785
  C  C140  1  0.851600  0.138900  0.070200  1.0  -0.0607
  C  C141  1  0.894600  0.082400  0.058000  1.0  -0.0612
  C  C142  1  0.916600  0.070500  0.983200  1.0  0.0138
  C  C143  1  0.926500  0.103700  0.842100  1.0  0.7178
  C  C144  1  0.826900  0.217500  0.869000  1.0  0.727
  C  C145  1  0.819900  0.150300  0.147500  1.0  0.7324
  C  C146  1  0.921500  0.036300  0.124200  1.0  0.7073
  C  C147  1  0.864200  0.361100  0.588900  1.0  -0.095
  C  C148  1  0.920000  0.402600  0.574900  1.0  -0.0277
  C  C149  1  0.935800  0.415100  0.497800  1.0  -0.0248
  C  C150  1  0.896000  0.388900  0.434900  1.0  -0.0594
  C  C151  1  0.839300  0.349100  0.449300  1.0  -0.0725
  C  C152  1  0.825100  0.334300  0.526700  1.0  -0.0186
  C  C153  1  0.848700  0.341900  0.670900  1.0  0.7233
  C  C154  1  0.962700  0.438600  0.638100  1.0  0.7048
  C  C155  1  0.911200  0.412600  0.353400  1.0  0.7122
  C  C156  1  0.793800  0.318500  0.383700  1.0  0.718
  C  C157  1  0.397000  0.613900  0.920700  1.0  -0.0832
  C  C158  1  0.354100  0.670200  0.932900  1.0  -0.078
  C  C159  1  0.331900  0.682000  0.008200  1.0  -0.0785
  C  C160  1  0.351600  0.638900  0.070200  1.0  -0.0607
  C  C161  1  0.394600  0.582400  0.058000  1.0  -0.0612
  C  C162  1  0.416600  0.570500  0.983200  1.0  0.0138
  C  C163  1  0.426500  0.603700  0.842100  1.0  0.7178
  C  C164  1  0.326900  0.717500  0.869000  1.0  0.727
  C  C165  1  0.319900  0.650300  0.147500  1.0  0.7324
  C  C166  1  0.421500  0.536300  0.124200  1.0  0.7073
  C  C167  1  0.364200  0.861100  0.588900  1.0  -0.095
  C  C168  1  0.420000  0.902600  0.574900  1.0  -0.0277
  C  C169  1  0.435800  0.915100  0.497800  1.0  -0.0248
  C  C170  1  0.396000  0.888900  0.434900  1.0  -0.0594
  C  C171  1  0.339300  0.849100  0.449300  1.0  -0.0725
  C  C172  1  0.325100  0.834300  0.526700  1.0  -0.0186
  C  C173  1  0.348700  0.841900  0.670900  1.0  0.7233
  C  C174  1  0.462700  0.938600  0.638100  1.0  0.7048
  C  C175  1  0.411200  0.912600  0.353400  1.0  0.7122
  C  C176  1  0.293800  0.818500  0.383700  1.0  0.718
  C  C177  1  0.103000  0.113900  0.579300  1.0  -0.0833
  C  C178  1  0.145900  0.170200  0.567100  1.0  -0.0776
  C  C179  1  0.168100  0.182000  0.491800  1.0  -0.0779
  C  C180  1  0.148400  0.138900  0.429800  1.0  -0.0612
  C  C181  1  0.105400  0.082400  0.442000  1.0  -0.0617
  C  C182  1  0.083400  0.070500  0.516800  1.0  0.0142
  C  C183  1  0.073500  0.103700  0.657900  1.0  0.7176
  C  C184  1  0.173100  0.217500  0.631000  1.0  0.7281
  C  C185  1  0.180100  0.150300  0.352500  1.0  0.7324
  C  C186  1  0.078500  0.036300  0.375800  1.0  0.7078
  C  C187  1  0.135800  0.361100  0.911100  1.0  -0.0959
  C  C188  1  0.080000  0.402600  0.925100  1.0  -0.0281
  C  C189  1  0.064200  0.415100  0.002200  1.0  -0.0254
  C  C190  1  0.104000  0.388900  0.065100  1.0  -0.0596
  C  C191  1  0.160700  0.349100  0.050700  1.0  -0.0716
  C  C192  1  0.174900  0.334300  0.973300  1.0  -0.0179
  C  C193  1  0.151300  0.341900  0.829100  1.0  0.7216
  C  C194  1  0.037300  0.438600  0.861900  1.0  0.7031
  C  C195  1  0.088800  0.412600  0.146600  1.0  0.7138
  C  C196  1  0.206200  0.318500  0.116300  1.0  0.7173
  C  C197  1  0.603000  0.613900  0.579300  1.0  -0.0833
  C  C198  1  0.645900  0.670200  0.567100  1.0  -0.0776
  C  C199  1  0.668100  0.682000  0.491800  1.0  -0.0779
  C  C200  1  0.648400  0.638900  0.429800  1.0  -0.0612
  C  C201  1  0.605400  0.582400  0.442000  1.0  -0.0617
  C  C202  1  0.583400  0.570500  0.516800  1.0  0.0142
  C  C203  1  0.573500  0.603700  0.657900  1.0  0.7176
  C  C204  1  0.673100  0.717500  0.631000  1.0  0.7281
  C  C205  1  0.680100  0.650300  0.352500  1.0  0.7324
  C  C206  1  0.578500  0.536300  0.375800  1.0  0.7078
  C  C207  1  0.635800  0.861100  0.911100  1.0  -0.0959
  C  C208  1  0.580000  0.902600  0.925100  1.0  -0.0281
  C  C209  1  0.564200  0.915100  0.002200  1.0  -0.0254
  C  C210  1  0.604000  0.888900  0.065100  1.0  -0.0596
  C  C211  1  0.660700  0.849100  0.050700  1.0  -0.0716
  C  C212  1  0.674900  0.834300  0.973300  1.0  -0.0179
  C  C213  1  0.651300  0.841900  0.829100  1.0  0.7216
  C  C214  1  0.537300  0.938600  0.861900  1.0  0.7031
  C  C215  1  0.588800  0.912600  0.146600  1.0  0.7138
  C  C216  1  0.706200  0.818500  0.116300  1.0  0.7173
  O  O217  1  0.064600  0.959700  0.177900  1.0  -0.6013
  O  O218  1  0.057900  0.845700  0.195700  1.0  -0.4464
  O  O219  1  0.207300  0.808200  0.187400  1.0  -0.5369
  O  O220  1  0.163500  0.717600  0.121500  1.0  -0.6507
  O  O221  1  0.177100  0.789200  0.825500  1.0  -0.5642
  O  O222  1  0.207300  0.900700  0.822200  1.0  -0.4811
  O  O223  1  0.051500  0.933700  0.816800  1.0  -0.5353
  O  O224  1  0.082400  0.026800  0.884900  1.0  -0.4711
  O  O225  1  0.211300  0.673200  0.315900  1.0  -0.5984
  O  O226  1  0.100600  0.658500  0.280000  1.0  -0.5951
  O  O227  1  0.066400  0.516200  0.322200  1.0  -0.5411
  O  O228  1  0.974400  0.572600  0.354700  1.0  -0.6467
  O  O229  1  0.135300  0.556900  0.684600  1.0  -0.4849
  O  O230  1  0.029400  0.596200  0.667400  1.0  -0.5555
  O  O231  1  0.267600  0.678700  0.610700  1.0  -0.4766
  O  O232  1  0.176900  0.711600  0.670400  1.0  -0.5382
  O  O233  1  0.564600  0.459700  0.177900  1.0  -0.6013
  O  O234  1  0.557900  0.345700  0.195700  1.0  -0.4464
  O  O235  1  0.707300  0.308200  0.187400  1.0  -0.5369
  O  O236  1  0.663500  0.217600  0.121500  1.0  -0.6507
  O  O237  1  0.677100  0.289200  0.825500  1.0  -0.5642
  O  O238  1  0.707300  0.400700  0.822200  1.0  -0.4811
  O  O239  1  0.551500  0.433700  0.816800  1.0  -0.5353
  O  O240  1  0.582400  0.526800  0.884900  1.0  -0.4711
  O  O241  1  0.711300  0.173200  0.315900  1.0  -0.5984
  O  O242  1  0.600600  0.158500  0.280000  1.0  -0.5951
  O  O243  1  0.566400  0.016200  0.322200  1.0  -0.5411
  O  O244  1  0.474400  0.072600  0.354700  1.0  -0.6467
  O  O245  1  0.635300  0.056900  0.684600  1.0  -0.4849
  O  O246  1  0.529400  0.096200  0.667400  1.0  -0.5555
  O  O247  1  0.767600  0.178700  0.610700  1.0  -0.4766
  O  O248  1  0.676900  0.211600  0.670400  1.0  -0.5382
  O  O249  1  0.935400  0.959700  0.322100  1.0  -0.6017
  O  O250  1  0.942100  0.845700  0.304300  1.0  -0.4475
  O  O251  1  0.792700  0.808200  0.312600  1.0  -0.5365
  O  O252  1  0.836500  0.717600  0.378500  1.0  -0.6496
  O  O253  1  0.822900  0.789200  0.674500  1.0  -0.5629
  O  O254  1  0.792700  0.900700  0.677800  1.0  -0.4807
  O  O255  1  0.948500  0.933700  0.683200  1.0  -0.5361
  O  O256  1  0.917600  0.026800  0.615100  1.0  -0.47
  O  O257  1  0.788700  0.673200  0.184100  1.0  -0.5983
  O  O258  1  0.899400  0.658500  0.220000  1.0  -0.5941
  O  O259  1  0.933600  0.516200  0.177800  1.0  -0.5414
  O  O260  1  0.025600  0.572600  0.145300  1.0  -0.646
  O  O261  1  0.864700  0.556900  0.815400  1.0  -0.485
  O  O262  1  0.970600  0.596200  0.832600  1.0  -0.5556
  O  O263  1  0.732400  0.678700  0.889300  1.0  -0.4785
  O  O264  1  0.823100  0.711600  0.829600  1.0  -0.5397
  O  O265  1  0.435400  0.459700  0.322100  1.0  -0.6017
  O  O266  1  0.442100  0.345700  0.304300  1.0  -0.4475
  O  O267  1  0.292700  0.308200  0.312600  1.0  -0.5365
  O  O268  1  0.336500  0.217600  0.378500  1.0  -0.6496
  O  O269  1  0.322900  0.289200  0.674500  1.0  -0.5629
  O  O270  1  0.292700  0.400700  0.677800  1.0  -0.4807
  O  O271  1  0.448500  0.433700  0.683200  1.0  -0.5361
  O  O272  1  0.417600  0.526800  0.615100  1.0  -0.47
  O  O273  1  0.288700  0.173200  0.184100  1.0  -0.5983
  O  O274  1  0.399400  0.158500  0.220000  1.0  -0.5941
  O  O275  1  0.433600  0.016200  0.177800  1.0  -0.5414
  O  O276  1  0.525600  0.072600  0.145300  1.0  -0.646
  O  O277  1  0.364700  0.056900  0.815400  1.0  -0.485
  O  O278  1  0.470600  0.096200  0.832600  1.0  -0.5556
  O  O279  1  0.232400  0.178700  0.889300  1.0  -0.4785
  O  O280  1  0.323100  0.211600  0.829600  1.0  -0.5397
  O  O281  1  0.935400  0.040300  0.822100  1.0  -0.6002
  O  O282  1  0.942100  0.154300  0.804300  1.0  -0.445
  O  O283  1  0.792700  0.191800  0.812600  1.0  -0.5367
  O  O284  1  0.836500  0.282400  0.878500  1.0  -0.6503
  O  O285  1  0.822900  0.210800  0.174500  1.0  -0.5622
  O  O286  1  0.792700  0.099300  0.177800  1.0  -0.4832
  O  O287  1  0.948500  0.066300  0.183200  1.0  -0.5353
  O  O288  1  0.917600  0.973200  0.115100  1.0  -0.4694
  O  O289  1  0.788700  0.326800  0.684100  1.0  -0.598
  O  O290  1  0.899400  0.341500  0.720000  1.0  -0.595
  O  O291  1  0.933600  0.483800  0.677800  1.0  -0.5395
  O  O292  1  0.025600  0.427400  0.645300  1.0  -0.6459
  O  O293  1  0.864700  0.443100  0.315400  1.0  -0.4868
  O  O294  1  0.970600  0.403800  0.332600  1.0  -0.5553
  O  O295  1  0.732400  0.321300  0.389300  1.0  -0.4792
  O  O296  1  0.823100  0.288400  0.329600  1.0  -0.5395
  O  O297  1  0.435400  0.540300  0.822100  1.0  -0.6002
  O  O298  1  0.442100  0.654300  0.804300  1.0  -0.445
  O  O299  1  0.292700  0.691800  0.812600  1.0  -0.5367
  O  O300  1  0.336500  0.782400  0.878500  1.0  -0.6503
  O  O301  1  0.322900  0.710800  0.174500  1.0  -0.5622
  O  O302  1  0.292700  0.599300  0.177800  1.0  -0.4832
  O  O303  1  0.448500  0.566300  0.183200  1.0  -0.5353
  O  O304  1  0.417600  0.473200  0.115100  1.0  -0.4694
  O  O305  1  0.288700  0.826800  0.684100  1.0  -0.598
  O  O306  1  0.399400  0.841500  0.720000  1.0  -0.595
  O  O307  1  0.433600  0.983800  0.677800  1.0  -0.5395
  O  O308  1  0.525600  0.927400  0.645300  1.0  -0.6459
  O  O309  1  0.364700  0.943100  0.315400  1.0  -0.4868
  O  O310  1  0.470600  0.903800  0.332600  1.0  -0.5553
  O  O311  1  0.232400  0.821300  0.389300  1.0  -0.4792
  O  O312  1  0.323100  0.788400  0.329600  1.0  -0.5395
  O  O313  1  0.064600  0.040300  0.677900  1.0  -0.6
  O  O314  1  0.057900  0.154300  0.695700  1.0  -0.4493
  O  O315  1  0.207300  0.191800  0.687400  1.0  -0.5376
  O  O316  1  0.163500  0.282400  0.621500  1.0  -0.6517
  O  O317  1  0.177100  0.210800  0.325500  1.0  -0.5641
  O  O318  1  0.207300  0.099300  0.322200  1.0  -0.4849
  O  O319  1  0.051500  0.066300  0.316800  1.0  -0.5348
  O  O320  1  0.082400  0.973200  0.384900  1.0  -0.471
  O  O321  1  0.211300  0.326800  0.815900  1.0  -0.5985
  O  O322  1  0.100600  0.341500  0.780000  1.0  -0.5941
  O  O323  1  0.066400  0.483800  0.822200  1.0  -0.5417
  O  O324  1  0.974400  0.427400  0.854700  1.0  -0.6462
  O  O325  1  0.135300  0.443100  0.184600  1.0  -0.4869
  O  O326  1  0.029400  0.403800  0.167400  1.0  -0.5555
  O  O327  1  0.267600  0.321300  0.110700  1.0  -0.4769
  O  O328  1  0.176900  0.288400  0.170400  1.0  -0.5379
  O  O329  1  0.564600  0.540300  0.677900  1.0  -0.6
  O  O330  1  0.557900  0.654300  0.695700  1.0  -0.4493
  O  O331  1  0.707300  0.691800  0.687400  1.0  -0.5376
  O  O332  1  0.663500  0.782400  0.621500  1.0  -0.6517
  O  O333  1  0.677100  0.710800  0.325500  1.0  -0.5641
  O  O334  1  0.707300  0.599300  0.322200  1.0  -0.4849
  O  O335  1  0.551500  0.566300  0.316800  1.0  -0.5348
  O  O336  1  0.582400  0.473200  0.384900  1.0  -0.471
  O  O337  1  0.711300  0.826800  0.815900  1.0  -0.5985
  O  O338  1  0.600600  0.841500  0.780000  1.0  -0.5941
  O  O339  1  0.566400  0.983800  0.822200  1.0  -0.5417
  O  O340  1  0.474400  0.927400  0.854700  1.0  -0.6462
  O  O341  1  0.635300  0.943100  0.184600  1.0  -0.4869
  O  O342  1  0.529400  0.903800  0.167400  1.0  -0.5555
  O  O343  1  0.767600  0.821300  0.110700  1.0  -0.4769
  O  O344  1  0.676900  0.788400  0.170400  1.0  -0.5379
