# generated using pymatgen
data_CuH12(C5N)4
_symmetry_space_group_name_H-M   'P 1'
_cell_length_a   13.63600000
_cell_length_b   13.63600000
_cell_length_c   19.46700000
_cell_angle_alpha   90.00000000
_cell_angle_beta   90.00000000
_cell_angle_gamma   90.00000000
_symmetry_Int_Tables_number   1
_chemical_formula_structural   CuH12(C5N)4
_chemical_formula_sum   'Cu4 H48 C80 N16'
_cell_volume   3619.70363563
_cell_formula_units_Z   4
loop_
 _symmetry_equiv_pos_site_id
 _symmetry_equiv_pos_as_xyz
  1  'x, y, z'
loop_
 _atom_site_type_symbol
 _atom_site_label
 _atom_site_symmetry_multiplicity
 _atom_site_fract_x
 _atom_site_fract_y
 _atom_site_fract_z
 _atom_site_occupancy
 _atom_site_charge
  Cu  Cu1  1  0.500000  0.500000  0.000000  1.0  0.5133
  Cu  Cu2  1  0.000000  0.000000  0.500000  1.0  0.5133
  Cu  Cu3  1  0.000000  0.000000  0.000000  1.0  0.3831
  Cu  Cu4  1  0.500000  0.500000  0.500000  1.0  0.3831
  H  H5  1  0.403100  0.327000  0.222800  1.0  0.1059
  H  H6  1  0.309600  0.241100  0.131300  1.0  0.0931
  H  H7  1  0.149500  0.317000  0.062600  1.0  0.1165
  H  H8  1  0.034300  0.195600  0.060700  1.0  0.0709
  H  H9  1  0.648800  0.500800  0.265900  1.0  0.1099
  H  H10  1  0.644900  0.504900  0.384200  1.0  0.0725
  H  H11  1  0.596900  0.673000  0.222800  1.0  0.1088
  H  H12  1  0.690400  0.758900  0.131300  1.0  0.09
  H  H13  1  0.850500  0.683000  0.062600  1.0  0.1172
  H  H14  1  0.965700  0.804400  0.060700  1.0  0.0706
  H  H15  1  0.351200  0.499200  0.265900  1.0  0.1084
  H  H16  1  0.355100  0.495100  0.384200  1.0  0.0735
  H  H17  1  0.173000  0.903100  0.722800  1.0  0.1053
  H  H18  1  0.258900  0.809600  0.631300  1.0  0.0934
  H  H19  1  0.183000  0.649500  0.562600  1.0  0.1189
  H  H20  1  0.304400  0.534300  0.560700  1.0  0.0717
  H  H21  1  0.999200  0.148800  0.765900  1.0  0.1091
  H  H22  1  0.995100  0.144900  0.884200  1.0  0.0723
  H  H23  1  0.827000  0.096900  0.722800  1.0  0.1062
  H  H24  1  0.741100  0.190400  0.631300  1.0  0.0897
  H  H25  1  0.817000  0.350500  0.562600  1.0  0.1152
  H  H26  1  0.695600  0.465700  0.560700  1.0  0.0695
  H  H27  1  0.000800  0.851200  0.765900  1.0  0.1101
  H  H28  1  0.004900  0.855100  0.884200  1.0  0.0732
  H  H29  1  0.096900  0.827000  0.277200  1.0  0.1094
  H  H30  1  0.190400  0.741100  0.368700  1.0  0.0936
  H  H31  1  0.350500  0.817000  0.437400  1.0  0.1159
  H  H32  1  0.465700  0.695600  0.439300  1.0  0.0708
  H  H33  1  0.851200  0.000800  0.234100  1.0  0.1105
  H  H34  1  0.855100  0.004900  0.115800  1.0  0.0756
  H  H35  1  0.903100  0.173000  0.277200  1.0  0.1065
  H  H36  1  0.809600  0.258900  0.368700  1.0  0.0933
  H  H37  1  0.649500  0.183000  0.437400  1.0  0.1175
  H  H38  1  0.534300  0.304400  0.439300  1.0  0.0713
  H  H39  1  0.148800  0.999200  0.234100  1.0  0.1078
  H  H40  1  0.144900  0.995100  0.115800  1.0  0.0737
  H  H41  1  0.327000  0.403100  0.777200  1.0  0.1062
  H  H42  1  0.241100  0.309600  0.868700  1.0  0.0929
  H  H43  1  0.317000  0.149500  0.937400  1.0  0.1161
  H  H44  1  0.195600  0.034300  0.939300  1.0  0.0715
  H  H45  1  0.500800  0.648800  0.734100  1.0  0.1098
  H  H46  1  0.504900  0.644900  0.615800  1.0  0.0733
  H  H47  1  0.673000  0.596900  0.777200  1.0  0.1093
  H  H48  1  0.758900  0.690400  0.868700  1.0  0.0935
  H  H49  1  0.683000  0.850500  0.937400  1.0  0.119
  H  H50  1  0.804400  0.965700  0.939300  1.0  0.0716
  H  H51  1  0.499200  0.351200  0.734100  1.0  0.1088
  H  H52  1  0.495100  0.355100  0.615800  1.0  0.074
  C  C53  1  0.449000  0.425900  0.142500  1.0  0.2275
  C  C54  1  0.400400  0.344100  0.175500  1.0  -0.206
  C  C55  1  0.350500  0.296800  0.125300  1.0  -0.1902
  C  C56  1  0.370000  0.345500  0.061900  1.0  0.2584
  C  C57  1  0.160800  0.259000  0.036800  1.0  -0.2092
  C  C58  1  0.093100  0.186900  0.035200  1.0  0.144
  C  C59  1  0.587600  0.501000  0.289200  1.0  -0.2209
  C  C60  1  0.584600  0.502300  0.359700  1.0  0.1324
  C  C61  1  0.551000  0.574100  0.142500  1.0  0.227
  C  C62  1  0.599600  0.655900  0.175500  1.0  -0.2049
  C  C63  1  0.649500  0.703200  0.125300  1.0  -0.1903
  C  C64  1  0.630000  0.654500  0.061900  1.0  0.2595
  C  C65  1  0.839200  0.741000  0.036800  1.0  -0.212
  C  C66  1  0.906900  0.813100  0.035200  1.0  0.1441
  C  C67  1  0.412400  0.499000  0.289200  1.0  -0.2223
  C  C68  1  0.415400  0.497700  0.359700  1.0  0.1374
  C  C69  1  0.074100  0.949000  0.642500  1.0  0.2263
  C  C70  1  0.155900  0.900400  0.675500  1.0  -0.2023
  C  C71  1  0.203200  0.850500  0.625300  1.0  -0.187
  C  C72  1  0.154500  0.870000  0.561900  1.0  0.2592
  C  C73  1  0.241000  0.660800  0.536800  1.0  -0.2159
  C  C74  1  0.313100  0.593100  0.535200  1.0  0.1413
  C  C75  1  0.999000  0.087600  0.789200  1.0  -0.2213
  C  C76  1  0.997700  0.084600  0.859700  1.0  0.138
  C  C77  1  0.925900  0.051000  0.642500  1.0  0.2257
  C  C78  1  0.844100  0.099600  0.675500  1.0  -0.2013
  C  C79  1  0.796800  0.149500  0.625300  1.0  -0.1882
  C  C80  1  0.845500  0.130000  0.561900  1.0  0.2606
  C  C81  1  0.759000  0.339200  0.536800  1.0  -0.2099
  C  C82  1  0.686900  0.406900  0.535200  1.0  0.1397
  C  C83  1  0.001000  0.912400  0.789200  1.0  -0.2218
  C  C84  1  0.002300  0.915400  0.859700  1.0  0.1371
  C  C85  1  0.051000  0.925900  0.357500  1.0  0.2258
  C  C86  1  0.099600  0.844100  0.324500  1.0  -0.2028
  C  C87  1  0.149500  0.796800  0.374700  1.0  -0.1908
  C  C88  1  0.130000  0.845500  0.438100  1.0  0.2593
  C  C89  1  0.339200  0.759000  0.463200  1.0  -0.2071
  C  C90  1  0.406900  0.686900  0.464800  1.0  0.1414
  C  C91  1  0.912400  0.001000  0.210800  1.0  -0.2224
  C  C92  1  0.915400  0.002300  0.140300  1.0  0.1374
  C  C93  1  0.949000  0.074100  0.357500  1.0  0.2263
  C  C94  1  0.900400  0.155900  0.324500  1.0  -0.2062
  C  C95  1  0.850500  0.203200  0.374700  1.0  -0.1919
  C  C96  1  0.870000  0.154500  0.438100  1.0  0.2592
  C  C97  1  0.660800  0.241000  0.463200  1.0  -0.2121
  C  C98  1  0.593100  0.313100  0.464800  1.0  0.1424
  C  C99  1  0.087600  0.999000  0.210800  1.0  -0.2205
  C  C100  1  0.084600  0.997700  0.140300  1.0  0.1346
  C  C101  1  0.425900  0.449000  0.857500  1.0  0.2254
  C  C102  1  0.344100  0.400400  0.824500  1.0  -0.2028
  C  C103  1  0.296800  0.350500  0.874700  1.0  -0.1894
  C  C104  1  0.345500  0.370000  0.938100  1.0  0.2595
  C  C105  1  0.259000  0.160800  0.963200  1.0  -0.208
  C  C106  1  0.186900  0.093100  0.964800  1.0  0.1397
  C  C107  1  0.501000  0.587600  0.710800  1.0  -0.2221
  C  C108  1  0.502300  0.584600  0.640300  1.0  0.1379
  C  C109  1  0.574100  0.551000  0.857500  1.0  0.2246
  C  C110  1  0.655900  0.599600  0.824500  1.0  -0.1997
  C  C111  1  0.703200  0.649500  0.874700  1.0  -0.1881
  C  C112  1  0.654500  0.630000  0.938100  1.0  0.2605
  C  C113  1  0.741000  0.839200  0.963200  1.0  -0.2133
  C  C114  1  0.813100  0.906900  0.964800  1.0  0.1443
  C  C115  1  0.499000  0.412400  0.710800  1.0  -0.2217
  C  C116  1  0.497700  0.415400  0.640300  1.0  0.1373
  C  C117  1  0.324600  0.324600  0.000000  1.0  -0.1247
  C  C118  1  0.247200  0.247200  0.000000  1.0  0.094
  C  C119  1  0.675400  0.675400  0.000000  1.0  -0.1253
  C  C120  1  0.752800  0.752800  0.000000  1.0  0.0935
  C  C121  1  0.175400  0.824600  0.500000  1.0  -0.1247
  C  C122  1  0.252800  0.747200  0.500000  1.0  0.094
  C  C123  1  0.824600  0.175400  0.500000  1.0  -0.1251
  C  C124  1  0.747200  0.252800  0.500000  1.0  0.0937
  C  C125  1  0.500000  0.500000  0.175500  1.0  -0.1188
  C  C126  1  0.500000  0.500000  0.252100  1.0  0.0894
  C  C127  1  0.000000  0.000000  0.675500  1.0  -0.1188
  C  C128  1  0.000000  0.000000  0.752100  1.0  0.0894
  C  C129  1  0.000000  0.000000  0.324500  1.0  -0.1192
  C  C130  1  0.000000  0.000000  0.247900  1.0  0.0887
  C  C131  1  0.500000  0.500000  0.824500  1.0  -0.1192
  C  C132  1  0.500000  0.500000  0.747900  1.0  0.0887
  N  N133  1  0.432100  0.423000  0.073100  1.0  -0.3844
  N  N134  1  0.567900  0.577000  0.073100  1.0  -0.3858
  N  N135  1  0.077000  0.932100  0.573100  1.0  -0.386
  N  N136  1  0.923000  0.067900  0.573100  1.0  -0.3872
  N  N137  1  0.067900  0.923000  0.426900  1.0  -0.3855
  N  N138  1  0.932100  0.077000  0.426900  1.0  -0.385
  N  N139  1  0.423000  0.432100  0.926900  1.0  -0.387
  N  N140  1  0.577000  0.567900  0.926900  1.0  -0.3867
  N  N141  1  0.104500  0.104500  0.000000  1.0  -0.313
  N  N142  1  0.895500  0.895500  0.000000  1.0  -0.3119
  N  N143  1  0.395500  0.604500  0.500000  1.0  -0.3116
  N  N144  1  0.604500  0.395500  0.500000  1.0  -0.313
  N  N145  1  0.500000  0.500000  0.396000  1.0  -0.3212
  N  N146  1  0.000000  0.000000  0.896000  1.0  -0.3212
  N  N147  1  0.000000  0.000000  0.104000  1.0  -0.322
  N  N148  1  0.500000  0.500000  0.604000  1.0  -0.322
