# generated using pymatgen
data_Zn2H8C17O10
_symmetry_space_group_name_H-M   'P 1'
_cell_length_a   11.25620000
_cell_length_b   13.17440000
_cell_length_c   20.39650000
_cell_angle_alpha   90.00000000
_cell_angle_beta   90.00000000
_cell_angle_gamma   90.00000000
_symmetry_Int_Tables_number   1
_chemical_formula_structural   Zn2H8C17O10
_chemical_formula_sum   'Zn8 H32 C68 O40'
_cell_volume   3024.67207023
_cell_formula_units_Z   4
loop_
 _symmetry_equiv_pos_site_id
 _symmetry_equiv_pos_as_xyz
  1  'x, y, z'
loop_
 _atom_site_type_symbol
 _atom_site_label
 _atom_site_symmetry_multiplicity
 _atom_site_fract_x
 _atom_site_fract_y
 _atom_site_fract_z
 _atom_site_occupancy
 _atom_site_charge
  Zn  Zn1  1  0.677180  0.978470  0.467750  1.0  1.1513
  Zn  Zn2  1  0.889600  0.072050  0.359340  1.0  1.0079
  Zn  Zn3  1  0.822820  0.021530  0.967750  1.0  1.1546
  Zn  Zn4  1  0.610400  0.927950  0.859340  1.0  1.0079
  Zn  Zn5  1  0.322820  0.478470  0.032250  1.0  1.1517
  Zn  Zn6  1  0.110400  0.572050  0.140660  1.0  1.0073
  Zn  Zn7  1  0.177180  0.521530  0.532250  1.0  1.1461
  Zn  Zn8  1  0.389600  0.427950  0.640660  1.0  1.0068
  H  H9  1  0.629300  0.294300  0.289900  1.0  0.1284
  H  H10  1  0.548300  0.274400  0.483300  1.0  0.116
  H  H11  1  0.401400  0.497700  0.371000  1.0  0.1206
  H  H12  1  0.359900  0.522800  0.259300  1.0  0.0813
  H  H13  1  0.448900  0.554800  0.201800  1.0  0.0802
  H  H14  1  0.667600  0.549600  0.214900  1.0  0.1211
  H  H15  1  0.896100  0.778800  0.259100  1.0  0.1156
  H  H16  1  0.562100  0.778200  0.335800  1.0  0.1251
  H  H17  1  0.870700  0.705700  0.789900  1.0  0.1285
  H  H18  1  0.951700  0.725600  0.983300  1.0  0.1162
  H  H19  1  0.098600  0.502300  0.871000  1.0  0.1204
  H  H20  1  0.140100  0.477200  0.759300  1.0  0.0804
  H  H21  1  0.051100  0.445200  0.701800  1.0  0.0804
  H  H22  1  0.832400  0.450400  0.714900  1.0  0.1208
  H  H23  1  0.603900  0.221200  0.759100  1.0  0.1157
  H  H24  1  0.937900  0.221800  0.835800  1.0  0.125
  H  H25  1  0.370700  0.794300  0.210100  1.0  0.1288
  H  H26  1  0.451700  0.774400  0.016700  1.0  0.116
  H  H27  1  0.598600  0.997700  0.129000  1.0  0.1208
  H  H28  1  0.640100  0.022800  0.240700  1.0  0.0811
  H  H29  1  0.551100  0.054800  0.298200  1.0  0.0801
  H  H30  1  0.332400  0.049600  0.285100  1.0  0.1214
  H  H31  1  0.103900  0.278800  0.240900  1.0  0.1155
  H  H32  1  0.437900  0.278200  0.164200  1.0  0.1244
  H  H33  1  0.129300  0.205700  0.710100  1.0  0.1281
  H  H34  1  0.048300  0.225600  0.516700  1.0  0.1158
  H  H35  1  0.901400  0.002300  0.629000  1.0  0.1209
  H  H36  1  0.859900  0.977200  0.740700  1.0  0.083
  H  H37  1  0.948900  0.945200  0.798200  1.0  0.0801
  H  H38  1  0.167600  0.950400  0.785100  1.0  0.1209
  H  H39  1  0.396100  0.721200  0.740900  1.0  0.1155
  H  H40  1  0.062100  0.721800  0.664200  1.0  0.1248
  C  C41  1  0.514200  0.403700  0.321560  1.0  0.2488
  C  C42  1  0.587700  0.319000  0.327110  1.0  -0.1351
  C  C43  1  0.599800  0.270500  0.387450  1.0  -0.1286
  C  C44  1  0.540300  0.307600  0.442240  1.0  -0.0337
  C  C45  1  0.469200  0.393500  0.436690  1.0  -0.1216
  C  C46  1  0.453200  0.441100  0.375330  1.0  -0.1483
  C  C47  1  0.679800  0.179400  0.393950  1.0  0.6981
  C  C48  1  0.412100  0.436500  0.497100  1.0  0.7261
  C  C49  1  0.444300  0.536000  0.248730  1.0  0.2979
  C  C50  1  0.597500  0.657000  0.275810  1.0  0.245
  C  C51  1  0.684200  0.611100  0.237470  1.0  -0.1714
  C  C52  1  0.796300  0.656500  0.232420  1.0  -0.0904
  C  C53  1  0.820500  0.747600  0.263960  1.0  -0.0247
  C  C54  1  0.733400  0.793200  0.302790  1.0  -0.1429
  C  C55  1  0.621400  0.747700  0.309090  1.0  -0.1455
  C  C56  1  0.892500  0.602200  0.193890  1.0  0.6459
  C  C57  1  0.757500  0.889000  0.339720  1.0  0.7171
  C  C58  1  0.985800  0.596300  0.821560  1.0  0.2488
  C  C59  1  0.912300  0.681000  0.827110  1.0  -0.1344
  C  C60  1  0.900200  0.729500  0.887450  1.0  -0.1275
  C  C61  1  0.959700  0.692400  0.942240  1.0  -0.0343
  C  C62  1  0.030800  0.606500  0.936690  1.0  -0.1212
  C  C63  1  0.046800  0.558900  0.875330  1.0  -0.1494
  C  C64  1  0.820200  0.820600  0.893950  1.0  0.6987
  C  C65  1  0.087900  0.563500  0.997100  1.0  0.7261
  C  C66  1  0.055700  0.464000  0.748730  1.0  0.2941
  C  C67  1  0.902500  0.343000  0.775810  1.0  0.2447
  C  C68  1  0.815800  0.388900  0.737470  1.0  -0.1673
  C  C69  1  0.703700  0.343500  0.732420  1.0  -0.0971
  C  C70  1  0.679500  0.252400  0.763960  1.0  -0.023
  C  C71  1  0.766600  0.206800  0.802790  1.0  -0.1411
  C  C72  1  0.878600  0.252300  0.809090  1.0  -0.1431
  C  C73  1  0.607500  0.397800  0.693890  1.0  0.6468
  C  C74  1  0.742500  0.111000  0.839720  1.0  0.7174
  C  C75  1  0.485800  0.903700  0.178440  1.0  0.2477
  C  C76  1  0.412300  0.819000  0.172890  1.0  -0.1352
  C  C77  1  0.400200  0.770500  0.112550  1.0  -0.1277
  C  C78  1  0.459700  0.807600  0.057760  1.0  -0.0319
  C  C79  1  0.530800  0.893500  0.063310  1.0  -0.1214
  C  C80  1  0.546800  0.941100  0.124670  1.0  -0.1504
  C  C81  1  0.320200  0.679400  0.106050  1.0  0.6993
  C  C82  1  0.587900  0.936500  0.002900  1.0  0.7264
  C  C83  1  0.555700  0.036000  0.251270  1.0  0.2948
  C  C84  1  0.402500  0.157000  0.224190  1.0  0.2446
  C  C85  1  0.315800  0.111100  0.262530  1.0  -0.1716
  C  C86  1  0.203700  0.156500  0.267580  1.0  -0.0955
  C  C87  1  0.179500  0.247600  0.236040  1.0  -0.0232
  C  C88  1  0.266600  0.293200  0.197210  1.0  -0.1412
  C  C89  1  0.378600  0.247700  0.190910  1.0  -0.1466
  C  C90  1  0.107500  0.102200  0.306110  1.0  0.6473
  C  C91  1  0.242500  0.389000  0.160280  1.0  0.7188
  C  C92  1  0.014200  0.096300  0.678440  1.0  0.2475
  C  C93  1  0.087700  0.181000  0.672890  1.0  -0.1352
  C  C94  1  0.099800  0.229500  0.612550  1.0  -0.1286
  C  C95  1  0.040300  0.192400  0.557760  1.0  -0.0325
  C  C96  1  0.969200  0.106500  0.563310  1.0  -0.1219
  C  C97  1  0.953200  0.058900  0.624670  1.0  -0.152
  C  C98  1  0.179800  0.320600  0.606050  1.0  0.6986
  C  C99  1  0.912100  0.063500  0.502900  1.0  0.7271
  C  C100  1  0.944300  0.964000  0.751270  1.0  0.2978
  C  C101  1  0.097500  0.843000  0.724190  1.0  0.245
  C  C102  1  0.184200  0.888900  0.762530  1.0  -0.172
  C  C103  1  0.296300  0.843500  0.767580  1.0  -0.0907
  C  C104  1  0.320500  0.752400  0.736040  1.0  -0.0241
  C  C105  1  0.233400  0.706800  0.697210  1.0  -0.1426
  C  C106  1  0.121400  0.752300  0.690910  1.0  -0.1478
  C  C107  1  0.392500  0.897800  0.806110  1.0  0.6458
  C  C108  1  0.257500  0.611000  0.660280  1.0  0.7175
  O  O109  1  0.746900  0.158230  0.345780  1.0  -0.5718
  O  O110  1  0.675200  0.130950  0.447350  1.0  -0.6622
  O  O111  1  0.444120  0.399660  0.550880  1.0  -0.5668
  O  O112  1  0.337400  0.507900  0.489640  1.0  -0.6693
  O  O113  1  0.510780  0.445390  0.258980  1.0  -0.2938
  O  O114  1  0.484940  0.618400  0.287030  1.0  -0.3101
  O  O115  1  0.869990  0.522330  0.165260  1.0  -0.5547
  O  O116  1  0.995750  0.643560  0.195720  1.0  -0.6155
  O  O117  1  0.855010  0.933540  0.329000  1.0  -0.5661
  O  O118  1  0.677860  0.918800  0.378770  1.0  -0.6746
  O  O119  1  0.753100  0.841770  0.845780  1.0  -0.572
  O  O120  1  0.824800  0.869050  0.947350  1.0  -0.6601
  O  O121  1  0.055880  0.600340  0.050880  1.0  -0.566
  O  O122  1  0.162600  0.492100  0.989640  1.0  -0.6679
  O  O123  1  0.989220  0.554610  0.758980  1.0  -0.295
  O  O124  1  0.015060  0.381600  0.787030  1.0  -0.3078
  O  O125  1  0.630010  0.477670  0.665260  1.0  -0.5538
  O  O126  1  0.504250  0.356440  0.695720  1.0  -0.6158
  O  O127  1  0.644990  0.066460  0.829000  1.0  -0.5676
  O  O128  1  0.822140  0.081200  0.878770  1.0  -0.6745
  O  O129  1  0.253100  0.658230  0.154220  1.0  -0.5714
  O  O130  1  0.324800  0.630950  0.052650  1.0  -0.6613
  O  O131  1  0.555880  0.899660  0.949120  1.0  -0.5663
  O  O132  1  0.662600  0.007900  0.010360  1.0  -0.6686
  O  O133  1  0.489220  0.945390  0.241020  1.0  -0.293
  O  O134  1  0.515060  0.118400  0.212970  1.0  -0.3102
  O  O135  1  0.130010  0.022330  0.334740  1.0  -0.5527
  O  O136  1  0.004250  0.143560  0.304280  1.0  -0.616
  O  O137  1  0.144990  0.433540  0.171000  1.0  -0.5669
  O  O138  1  0.322140  0.418800  0.121230  1.0  -0.6749
  O  O139  1  0.246900  0.341770  0.654220  1.0  -0.5704
  O  O140  1  0.175200  0.369050  0.552650  1.0  -0.6621
  O  O141  1  0.944120  0.100340  0.449120  1.0  -0.5663
  O  O142  1  0.837400  0.992100  0.510360  1.0  -0.6697
  O  O143  1  0.010780  0.054610  0.741020  1.0  -0.2916
  O  O144  1  0.984940  0.881600  0.712970  1.0  -0.3104
  O  O145  1  0.369990  0.977670  0.834740  1.0  -0.5531
  O  O146  1  0.495750  0.856440  0.804280  1.0  -0.6154
  O  O147  1  0.355010  0.566460  0.671000  1.0  -0.5662
  O  O148  1  0.177860  0.581200  0.621230  1.0  -0.6753
