# generated using pymatgen
data_Gd2CoH32C56(N2O5)4
_symmetry_space_group_name_H-M   'P 1'
_cell_length_a   10.14570000
_cell_length_b   10.87280000
_cell_length_c   13.75520000
_cell_angle_alpha   79.12300000
_cell_angle_beta   78.84400000
_cell_angle_gamma   86.31700000
_symmetry_Int_Tables_number   1
_chemical_formula_structural   Gd2CoH32C56(N2O5)4
_chemical_formula_sum   'Gd2 Co1 H32 C56 N8 O20'
_cell_volume   1461.34328538
_cell_formula_units_Z   1
loop_
 _symmetry_equiv_pos_site_id
 _symmetry_equiv_pos_as_xyz
  1  'x, y, z'
loop_
 _atom_site_type_symbol
 _atom_site_label
 _atom_site_symmetry_multiplicity
 _atom_site_fract_x
 _atom_site_fract_y
 _atom_site_fract_z
 _atom_site_occupancy
 _atom_site_charge
  Gd  Gd1  1  0.319270  0.922460  0.297110  1.0  2.0589
  Gd  Gd2  1  0.680730  0.077540  0.702890  1.0  2.0582
  Co  Co3  1  0.000000  0.500000  0.500000  1.0  0.7928
  H  H4  1  0.326400  0.669200  0.154200  1.0  0.1218
  H  H5  1  0.346100  0.329700  0.076500  1.0  0.1205
  H  H6  1  0.282400  0.359500  0.368300  1.0  0.1158
  H  H7  1  0.346400  0.773100  0.851100  1.0  0.1248
  H  H8  1  0.353700  0.880500  0.691700  1.0  0.0778
  H  H9  1  0.365300  0.574400  0.584800  1.0  0.0804
  H  H10  1  0.355800  0.454600  0.742600  1.0  0.1262
  H  H11  1  0.824500  0.911600  0.281400  1.0  0.1126
  H  H12  1  0.695700  0.851500  0.036600  1.0  0.1216
  H  H13  1  0.089300  0.842600  0.039700  1.0  0.1134
  H  H14  1  0.018300  0.828900  0.715400  1.0  0.1332
  H  H15  1  0.033000  0.746800  0.571400  1.0  0.0854
  H  H16  1  0.013900  0.407700  0.723900  1.0  0.0781
  H  H17  1  0.010500  0.477500  0.869900  1.0  0.131
  H  H18  1  0.376700  0.646100  0.982700  1.0  0.3221
  H  H19  1  0.879600  0.839600  0.881700  1.0  0.2961
  H  H20  1  0.673600  0.330800  0.845800  1.0  0.1222
  H  H21  1  0.653900  0.670300  0.923500  1.0  0.1197
  H  H22  1  0.717600  0.640500  0.631700  1.0  0.1165
  H  H23  1  0.653600  0.226900  0.148900  1.0  0.1253
  H  H24  1  0.646300  0.119500  0.308300  1.0  0.0765
  H  H25  1  0.634700  0.425600  0.415200  1.0  0.0804
  H  H26  1  0.644200  0.545400  0.257400  1.0  0.1258
  H  H27  1  0.175500  0.088400  0.718600  1.0  0.1123
  H  H28  1  0.304300  0.148500  0.963400  1.0  0.1224
  H  H29  1  0.910700  0.157400  0.960300  1.0  0.1135
  H  H30  1  0.981700  0.171100  0.284600  1.0  0.1336
  H  H31  1  0.967000  0.253200  0.428600  1.0  0.0856
  H  H32  1  0.986100  0.592300  0.276100  1.0  0.0779
  H  H33  1  0.989500  0.522500  0.130100  1.0  0.1312
  H  H34  1  0.623300  0.353900  0.017300  1.0  0.3222
  H  H35  1  0.120400  0.160400  0.118300  1.0  0.2965
  C  C36  1  0.297900  0.526700  0.273800  1.0  -0.1585
  C  C37  1  0.321100  0.582600  0.172300  1.0  -0.1091
  C  C38  1  0.336100  0.509300  0.098100  1.0  0.2127
  C  C39  1  0.334700  0.379600  0.125700  1.0  -0.143
  C  C40  1  0.316200  0.325100  0.226600  1.0  -0.1108
  C  C41  1  0.296500  0.397300  0.300700  1.0  -0.0231
  C  C42  1  0.313500  0.185700  0.253100  1.0  0.656
  C  C43  1  0.266700  0.606000  0.354600  1.0  0.7779
  C  C44  1  0.334700  0.517000  0.919000  1.0  0.5242
  C  C45  1  0.348000  0.600000  0.816900  1.0  -0.0335
  C  C46  1  0.349000  0.729800  0.798500  1.0  -0.1878
  C  C47  1  0.353800  0.793500  0.702300  1.0  0.1995
  C  C48  1  0.360200  0.614600  0.639400  1.0  0.1866
  C  C49  1  0.354900  0.541600  0.734300  1.0  -0.1564
  C  C50  1  0.974300  0.879300  0.168100  1.0  -0.1458
  C  C51  1  0.842300  0.894900  0.216100  1.0  -0.0194
  C  C52  1  0.738100  0.885900  0.167500  1.0  -0.1321
  C  C53  1  0.765800  0.857200  0.070000  1.0  -0.078
  C  C54  1  0.896700  0.837500  0.023600  1.0  0.1947
  C  C55  1  0.000800  0.851700  0.072000  1.0  -0.1157
  C  C56  1  0.091100  0.891000  0.216700  1.0  0.6586
  C  C57  1  0.593800  0.901700  0.215400  1.0  0.6642
  C  C58  1  0.006100  0.703600  0.908100  1.0  0.5087
  C  C59  1  0.009100  0.660700  0.809800  1.0  -1e-04
  C  C60  1  0.017600  0.742800  0.718600  1.0  -0.1638
  C  C61  1  0.024800  0.692200  0.632900  1.0  0.1789
  C  C62  1  0.015200  0.493500  0.722100  1.0  0.165
  C  C63  1  0.011500  0.534500  0.810200  1.0  -0.1233
  C  C64  1  0.702100  0.473300  0.726200  1.0  -0.1535
  C  C65  1  0.678900  0.417400  0.827700  1.0  -0.1085
  C  C66  1  0.663900  0.490700  0.901900  1.0  0.2126
  C  C67  1  0.665300  0.620400  0.874300  1.0  -0.1429
  C  C68  1  0.683800  0.674900  0.773400  1.0  -0.1116
  C  C69  1  0.703500  0.602700  0.699300  1.0  -0.021
  C  C70  1  0.686500  0.814300  0.746900  1.0  0.6571
  C  C71  1  0.733300  0.394000  0.645400  1.0  0.7786
  C  C72  1  0.665300  0.483000  0.081000  1.0  0.5246
  C  C73  1  0.652000  0.400000  0.183100  1.0  -0.0331
  C  C74  1  0.651000  0.270200  0.201500  1.0  -0.1854
  C  C75  1  0.646200  0.206500  0.297700  1.0  0.2021
  C  C76  1  0.639800  0.385400  0.360600  1.0  0.1869
  C  C77  1  0.645100  0.458400  0.265700  1.0  -0.1568
  C  C78  1  0.025700  0.120700  0.831900  1.0  -0.1466
  C  C79  1  0.157700  0.105100  0.783900  1.0  -0.0187
  C  C80  1  0.261900  0.114100  0.832500  1.0  -0.1327
  C  C81  1  0.234200  0.142800  0.930000  1.0  -0.0773
  C  C82  1  0.103300  0.162500  0.976400  1.0  0.1947
  C  C83  1  0.999200  0.148300  0.928000  1.0  -0.1162
  C  C84  1  0.908900  0.109000  0.783300  1.0  0.6576
  C  C85  1  0.406200  0.098300  0.784600  1.0  0.665
  C  C86  1  0.993900  0.296400  0.091900  1.0  0.5086
  C  C87  1  0.990900  0.339300  0.190200  1.0  0.0009
  C  C88  1  0.982400  0.257200  0.281400  1.0  -0.1614
  C  C89  1  0.975200  0.307800  0.367100  1.0  0.1789
  C  C90  1  0.984800  0.506500  0.277900  1.0  0.1639
  C  C91  1  0.988500  0.465500  0.189800  1.0  -0.1259
  N  N92  1  0.352800  0.569400  0.996400  1.0  -0.4039
  N  N93  1  0.358500  0.738800  0.622900  1.0  -0.4246
  N  N94  1  0.920600  0.800000  0.928000  1.0  -0.3977
  N  N95  1  0.020700  0.570100  0.632900  1.0  -0.3626
  N  N96  1  0.647200  0.430600  0.003600  1.0  -0.4039
  N  N97  1  0.641500  0.261200  0.377100  1.0  -0.4219
  N  N98  1  0.079400  0.200000  0.072000  1.0  -0.3973
  N  N99  1  0.979300  0.429900  0.367100  1.0  -0.3657
  O  O100  1  0.192300  0.563200  0.435600  1.0  -0.5893
  O  O101  1  0.318700  0.712300  0.335900  1.0  -0.7484
  O  O102  1  0.328600  0.129600  0.338400  1.0  -0.6692
  O  O103  1  0.293400  0.122700  0.189700  1.0  -0.6512
  O  O104  1  0.308900  0.408700  0.926200  1.0  -0.4668
  O  O105  1  0.073300  0.905400  0.308400  1.0  -0.7117
  O  O106  1  0.207500  0.885200  0.166500  1.0  -0.6251
  O  O107  1  0.560400  0.900600  0.308500  1.0  -0.6756
  O  O108  1  0.504600  0.914600  0.162200  1.0  -0.643
  O  O109  1  0.075900  0.648800  0.966800  1.0  -0.4791
  O  O110  1  0.807700  0.436800  0.564400  1.0  -0.591
  O  O111  1  0.681300  0.287700  0.664100  1.0  -0.7498
  O  O112  1  0.671400  0.870400  0.661600  1.0  -0.6692
  O  O113  1  0.706600  0.877300  0.810300  1.0  -0.6495
  O  O114  1  0.691100  0.591300  0.073800  1.0  -0.4684
  O  O115  1  0.926700  0.094600  0.691600  1.0  -0.7134
  O  O116  1  0.792500  0.114800  0.833500  1.0  -0.6234
  O  O117  1  0.439600  0.099400  0.691500  1.0  -0.6729
  O  O118  1  0.495400  0.085400  0.837800  1.0  -0.6447
  O  O119  1  0.924100  0.351200  0.033200  1.0  -0.4797
