# generated using pymatgen
data_CdH26C32(NO)4
_symmetry_space_group_name_H-M   'P 1'
_cell_length_a   10.31200000
_cell_length_b   13.91900000
_cell_length_c   14.17400000
_cell_angle_alpha   88.35000000
_cell_angle_beta   69.28700000
_cell_angle_gamma   74.72700000
_symmetry_Int_Tables_number   1
_chemical_formula_structural   CdH26C32(NO)4
_chemical_formula_sum   'Cd2 H52 C64 N8 O8'
_cell_volume   1831.04881431
_cell_formula_units_Z   2
loop_
 _symmetry_equiv_pos_site_id
 _symmetry_equiv_pos_as_xyz
  1  'x, y, z'
loop_
 _atom_site_type_symbol
 _atom_site_label
 _atom_site_symmetry_multiplicity
 _atom_site_fract_x
 _atom_site_fract_y
 _atom_site_fract_z
 _atom_site_occupancy
 _atom_site_charge
  Cd  Cd1  1  0.560960  0.446820  0.366140  1.0  0.9883
  Cd  Cd2  1  0.439040  0.553180  0.633860  1.0  0.9883
  H  H3  1  0.141100  0.455700  0.500700  1.0  0.1345
  H  H4  1  0.259100  0.353400  0.476100  1.0  0.1414
  H  H5  1  0.205600  0.211300  0.566700  1.0  0.0936
  H  H6  1  0.043400  0.139500  0.678900  1.0  0.0852
  H  H7  1  0.822000  0.235000  0.782100  1.0  0.1116
  H  H8  1  0.929100  0.479600  0.663500  1.0  0.0983
  H  H9  1  0.660100  0.395000  0.851900  1.0  0.1406
  H  H10  1  0.723300  0.487400  0.834900  1.0  0.1473
  H  H11  1  0.617000  0.321800  0.555300  1.0  0.0885
  H  H12  1  0.498800  0.232800  0.278800  1.0  0.1183
  H  H13  1  0.533100  0.066400  0.236200  1.0  0.0916
  H  H14  1  0.627900  0.942100  0.321500  1.0  0.092
  H  H15  1  0.684400  0.977800  0.458300  1.0  0.1191
  H  H16  1  0.648900  0.086700  0.638600  1.0  0.1151
  H  H17  1  0.710300  0.177700  0.642700  1.0  0.1209
  H  H18  1  0.925400  0.146700  0.432800  1.0  0.0836
  H  H19  1  0.842200  0.952800  0.640400  1.0  0.0952
  H  H20  1  0.712200  0.336600  0.128200  1.0  0.0854
  H  H21  1  0.902400  0.360600  0.385600  1.0  0.1141
  H  H22  1  0.143200  0.287100  0.356000  1.0  0.0854
  H  H23  1  0.293500  0.196300  0.205900  1.0  0.0905
  H  H24  1  0.207900  0.177100  0.078600  1.0  0.1207
  H  H25  1  0.060900  0.225300  0.955100  1.0  0.1191
  H  H26  1  0.899600  0.243700  0.965400  1.0  0.122
  H  H27  1  0.869400  0.098700  0.148100  1.0  0.0852
  H  H28  1  0.113300  0.069300  0.855200  1.0  0.0986
  H  H29  1  0.858900  0.544300  0.499300  1.0  0.1345
  H  H30  1  0.740900  0.646600  0.523900  1.0  0.1418
  H  H31  1  0.794400  0.788700  0.433300  1.0  0.0934
  H  H32  1  0.956600  0.860500  0.321100  1.0  0.0856
  H  H33  1  0.178000  0.765000  0.217900  1.0  0.1116
  H  H34  1  0.070900  0.520400  0.336500  1.0  0.0988
  H  H35  1  0.339900  0.605000  0.148100  1.0  0.1395
  H  H36  1  0.276700  0.512600  0.165100  1.0  0.1453
  H  H37  1  0.383000  0.678200  0.444700  1.0  0.0871
  H  H38  1  0.501200  0.767200  0.721200  1.0  0.1191
  H  H39  1  0.466900  0.933600  0.763800  1.0  0.0914
  H  H40  1  0.372100  0.057900  0.678500  1.0  0.092
  H  H41  1  0.315600  0.022200  0.541700  1.0  0.1192
  H  H42  1  0.351100  0.913300  0.361400  1.0  0.1132
  H  H43  1  0.289700  0.822300  0.357300  1.0  0.1197
  H  H44  1  0.074600  0.853300  0.567200  1.0  0.0832
  H  H45  1  0.157800  0.047200  0.359600  1.0  0.0944
  H  H46  1  0.287800  0.663400  0.871800  1.0  0.085
  H  H47  1  0.097600  0.639400  0.614400  1.0  0.1139
  H  H48  1  0.856800  0.712900  0.644000  1.0  0.0861
  H  H49  1  0.706500  0.803700  0.794100  1.0  0.0902
  H  H50  1  0.792100  0.822900  0.921400  1.0  0.1205
  H  H51  1  0.939100  0.774700  0.044900  1.0  0.1226
  H  H52  1  0.100400  0.756300  0.034600  1.0  0.1228
  H  H53  1  0.130600  0.901300  0.851900  1.0  0.0856
  H  H54  1  0.886700  0.930700  0.144800  1.0  0.0989
  C  C55  1  0.278900  0.445500  0.576600  1.0  0.7092
  C  C56  1  0.192600  0.402500  0.530500  1.0  -0.4063
  C  C57  1  0.085500  0.354000  0.602400  1.0  0.1127
  C  C58  1  0.117100  0.251500  0.608600  1.0  -0.1168
  C  C59  1  0.019600  0.208400  0.675600  1.0  -0.0892
  C  C60  1  0.887700  0.265400  0.737900  1.0  -0.1362
  C  C61  1  0.852200  0.369000  0.734700  1.0  0.1068
  C  C62  1  0.952200  0.410600  0.666500  1.0  -0.1681
  C  C63  1  0.707900  0.434500  0.800600  1.0  -0.3901
  C  C64  1  0.609800  0.480900  0.744800  1.0  0.7649
  C  C65  1  0.610400  0.274200  0.513800  1.0  0.1759
  C  C66  1  0.570700  0.205000  0.396300  1.0  0.1291
  C  C67  1  0.535400  0.182700  0.314800  1.0  -0.1499
  C  C68  1  0.556900  0.083500  0.289700  1.0  -0.1018
  C  C69  1  0.613100  0.008200  0.342000  1.0  -0.0802
  C  C70  1  0.647400  0.028400  0.422900  1.0  -0.149
  C  C71  1  0.623800  0.128900  0.449400  1.0  0.1027
  C  C72  1  0.708900  0.127000  0.597900  1.0  -0.1028
  C  C73  1  0.955000  0.087600  0.461000  1.0  -0.1375
  C  C74  1  0.860800  0.061200  0.546400  1.0  0.0572
  C  C75  1  0.905800  0.973000  0.583800  1.0  -0.1156
  C  C76  1  0.788000  0.322000  0.152100  1.0  0.1841
  C  C77  1  0.912200  0.315800  0.246900  1.0  0.1323
  C  C78  1  0.963000  0.325400  0.324300  1.0  -0.1473
  C  C79  1  0.106100  0.280700  0.306200  1.0  -0.0826
  C  C80  1  0.197400  0.225700  0.215100  1.0  -0.1242
  C  C81  1  0.148000  0.214200  0.139000  1.0  -0.1422
  C  C82  1  0.004900  0.260500  0.156900  1.0  0.1015
  C  C83  1  0.969200  0.214600  0.997000  1.0  -0.0952
  C  C84  1  0.921300  0.059300  0.087900  1.0  -0.1036
  C  C85  1  0.984900  0.102400  0.001100  1.0  0.0572
  C  C86  1  0.066300  0.041700  0.913700  1.0  -0.0847
  C  C87  1  0.721100  0.554500  0.423400  1.0  0.7166
  C  C88  1  0.807400  0.597500  0.469500  1.0  -0.4063
  C  C89  1  0.914500  0.646000  0.397600  1.0  0.1124
  C  C90  1  0.882900  0.748500  0.391400  1.0  -0.1172
  C  C91  1  0.980400  0.791600  0.324400  1.0  -0.0887
  C  C92  1  0.112300  0.734600  0.262100  1.0  -0.1363
  C  C93  1  0.147800  0.631000  0.265300  1.0  0.106
  C  C94  1  0.047800  0.589400  0.333500  1.0  -0.1649
  C  C95  1  0.292100  0.565500  0.199400  1.0  -0.3919
  C  C96  1  0.390200  0.519100  0.255200  1.0  0.7647
  C  C97  1  0.389600  0.725800  0.486200  1.0  0.1768
  C  C98  1  0.429300  0.795000  0.603700  1.0  0.1278
  C  C99  1  0.464600  0.817300  0.685200  1.0  -0.1507
  C  C100  1  0.443100  0.916500  0.710300  1.0  -0.0976
  C  C101  1  0.386900  0.991800  0.658000  1.0  -0.0788
  C  C102  1  0.352600  0.971600  0.577100  1.0  -0.1487
  C  C103  1  0.376200  0.871100  0.550600  1.0  0.103
  C  C104  1  0.291100  0.873000  0.402100  1.0  -0.1015
  C  C105  1  0.045000  0.912400  0.539000  1.0  -0.1383
  C  C106  1  0.139200  0.938800  0.453600  1.0  0.0569
  C  C107  1  0.094200  0.027000  0.416200  1.0  -0.1164
  C  C108  1  0.212000  0.678000  0.847900  1.0  0.1835
  C  C109  1  0.087800  0.684200  0.753100  1.0  0.1313
  C  C110  1  0.037000  0.674600  0.675700  1.0  -0.1438
  C  C111  1  0.893900  0.719300  0.693800  1.0  -0.0822
  C  C112  1  0.802600  0.774300  0.784900  1.0  -0.1272
  C  C113  1  0.852000  0.785800  0.861000  1.0  -0.1443
  C  C114  1  0.995100  0.739500  0.843100  1.0  0.1011
  C  C115  1  0.030800  0.785400  0.003000  1.0  -0.0921
  C  C116  1  0.078700  0.940700  0.912100  1.0  -0.1042
  C  C117  1  0.015100  0.897600  0.998900  1.0  0.0574
  C  C118  1  0.933700  0.958300  0.086300  1.0  -0.0823
  N  N119  1  0.564800  0.296500  0.438200  1.0  -0.4644
  N  N120  1  0.646700  0.175200  0.525000  1.0  0.0573
  N  N121  1  0.775200  0.353800  0.242000  1.0  -0.4913
  N  N122  1  0.922500  0.265700  0.097100  1.0  -0.0236
  N  N123  1  0.435200  0.703500  0.561800  1.0  -0.4645
  N  N124  1  0.353300  0.824800  0.475000  1.0  0.0574
  N  N125  1  0.224800  0.646200  0.758000  1.0  -0.4889
  N  N126  1  0.077500  0.734300  0.902900  1.0  -0.0231
  O  O127  1  0.554100  0.573300  0.754400  1.0  -0.6639
  O  O128  1  0.347500  0.504200  0.522700  1.0  -0.6621
  O  O129  1  0.282200  0.424300  0.660600  1.0  -0.6107
  O  O130  1  0.582200  0.426400  0.691300  1.0  -0.6473
  O  O131  1  0.445900  0.426700  0.245600  1.0  -0.6635
  O  O132  1  0.652500  0.495800  0.477300  1.0  -0.6618
  O  O133  1  0.717800  0.575700  0.339400  1.0  -0.6079
  O  O134  1  0.417800  0.573600  0.308700  1.0  -0.6459
