# generated using pymatgen
data_CuH9C7N3O4
_symmetry_space_group_name_H-M   'P 1'
_cell_length_a   7.46500000
_cell_length_b   9.62200000
_cell_length_c   16.04900000
_cell_angle_alpha   90.00000000
_cell_angle_beta   90.00000000
_cell_angle_gamma   90.00000000
_symmetry_Int_Tables_number   1
_chemical_formula_structural   CuH9C7N3O4
_chemical_formula_sum   'Cu4 H36 C28 N12 O16'
_cell_volume   1152.77126327
_cell_formula_units_Z   4
loop_
 _symmetry_equiv_pos_site_id
 _symmetry_equiv_pos_as_xyz
  1  'x, y, z'
loop_
 _atom_site_type_symbol
 _atom_site_label
 _atom_site_symmetry_multiplicity
 _atom_site_fract_x
 _atom_site_fract_y
 _atom_site_fract_z
 _atom_site_occupancy
 _atom_site_charge
  Cu  Cu1  1  0.740200  0.841700  0.834400  1.0  0.8111
  Cu  Cu2  1  0.759800  0.341700  0.165600  1.0  0.8119
  Cu  Cu3  1  0.240200  0.158300  0.665600  1.0  0.8113
  Cu  Cu4  1  0.259800  0.658300  0.334400  1.0  0.8127
  H  H5  1  0.726300  0.226200  0.847500  1.0  0.0753
  H  H6  1  0.615700  0.017100  0.933400  1.0  0.1329
  H  H7  1  0.538900  0.048800  0.840100  1.0  0.1659
  H  H8  1  0.938900  0.067800  0.959300  1.0  0.124
  H  H9  1  0.001700  0.219500  0.924300  1.0  0.1187
  H  H10  1  0.870700  0.527700  0.870200  1.0  0.115
  H  H11  1  0.966800  0.364500  0.754300  1.0  0.3537
  H  H12  1  0.956400  0.504700  0.620500  1.0  0.1112
  H  H13  1  0.860500  0.746400  0.653400  1.0  0.1152
  H  H14  1  0.773700  0.726200  0.152500  1.0  0.0758
  H  H15  1  0.884300  0.517100  0.066600  1.0  0.1334
  H  H16  1  0.961100  0.548800  0.159900  1.0  0.166
  H  H17  1  0.561100  0.567800  0.040700  1.0  0.1235
  H  H18  1  0.498300  0.719500  0.075700  1.0  0.1203
  H  H19  1  0.629300  0.027700  0.129800  1.0  0.1163
  H  H20  1  0.533200  0.864500  0.245700  1.0  0.3539
  H  H21  1  0.543600  0.004700  0.379500  1.0  0.1109
  H  H22  1  0.639500  0.246400  0.346600  1.0  0.1158
  H  H23  1  0.226300  0.773800  0.652500  1.0  0.0757
  H  H24  1  0.115700  0.982900  0.566600  1.0  0.1336
  H  H25  1  0.038900  0.951200  0.659900  1.0  0.1667
  H  H26  1  0.438900  0.932200  0.540700  1.0  0.1235
  H  H27  1  0.501700  0.780500  0.575700  1.0  0.1187
  H  H28  1  0.370700  0.472300  0.629800  1.0  0.1158
  H  H29  1  0.466800  0.635500  0.745700  1.0  0.3513
  H  H30  1  0.456400  0.495300  0.879500  1.0  0.1114
  H  H31  1  0.360500  0.253600  0.846600  1.0  0.1163
  H  H32  1  0.273700  0.273800  0.347500  1.0  0.0755
  H  H33  1  0.384300  0.482900  0.433400  1.0  0.1314
  H  H34  1  0.461100  0.451200  0.340100  1.0  0.1654
  H  H35  1  0.061100  0.432200  0.459300  1.0  0.124
  H  H36  1  0.998300  0.280500  0.424300  1.0  0.12
  H  H37  1  0.129300  0.972300  0.370200  1.0  0.115
  H  H38  1  0.033200  0.135500  0.254300  1.0  0.3516
  H  H39  1  0.043600  0.995300  0.120500  1.0  0.1115
  H  H40  1  0.139500  0.753600  0.153400  1.0  0.1157
  C  C41  1  0.901900  0.093400  0.787400  1.0  0.6299
  C  C42  1  0.788900  0.137500  0.861900  1.0  0.0389
  C  C43  1  0.896400  0.160600  0.939500  1.0  -0.2617
  C  C44  1  0.803900  0.229000  0.010000  1.0  0.743
  C  C45  1  0.879600  0.552600  0.809900  1.0  0.1905
  C  C46  1  0.926000  0.540300  0.677300  1.0  0.0344
  C  C47  1  0.874100  0.668800  0.694400  1.0  0.0019
  C  C48  1  0.598100  0.593400  0.212600  1.0  0.629
  C  C49  1  0.711100  0.637500  0.138100  1.0  0.0394
  C  C50  1  0.603600  0.660600  0.060500  1.0  -0.2629
  C  C51  1  0.696100  0.729000  0.990000  1.0  0.7459
  C  C52  1  0.620400  0.052600  0.190100  1.0  0.1891
  C  C53  1  0.574000  0.040300  0.322700  1.0  0.0345
  C  C54  1  0.625900  0.168800  0.305600  1.0  0.0027
  C  C55  1  0.401900  0.906600  0.712600  1.0  0.6289
  C  C56  1  0.288900  0.862500  0.638100  1.0  0.0392
  C  C57  1  0.396400  0.839400  0.560500  1.0  -0.2616
  C  C58  1  0.303900  0.771000  0.490000  1.0  0.7458
  C  C59  1  0.379600  0.447400  0.690100  1.0  0.1888
  C  C60  1  0.426000  0.459700  0.822700  1.0  0.0348
  C  C61  1  0.374100  0.331200  0.805600  1.0  0.0025
  C  C62  1  0.098100  0.406600  0.287400  1.0  0.63
  C  C63  1  0.211100  0.362500  0.361900  1.0  0.0386
  C  C64  1  0.103600  0.339400  0.439500  1.0  -0.2622
  C  C65  1  0.196100  0.271000  0.510000  1.0  0.7432
  C  C66  1  0.120400  0.947400  0.309900  1.0  0.1901
  C  C67  1  0.074000  0.959700  0.177300  1.0  0.0337
  C  C68  1  0.125900  0.831200  0.194400  1.0  0.0011
  N  N69  1  0.647900  0.024000  0.873100  1.0  -0.5534
  N  N70  1  0.842400  0.676200  0.778400  1.0  -0.3543
  N  N71  1  0.931700  0.464300  0.748400  1.0  -0.2877
  N  N72  1  0.852100  0.524000  0.126900  1.0  -0.5551
  N  N73  1  0.657600  0.176200  0.221600  1.0  -0.3526
  N  N74  1  0.568300  0.964300  0.251600  1.0  -0.2874
  N  N75  1  0.147900  0.976000  0.626900  1.0  -0.5539
  N  N76  1  0.342400  0.323800  0.721600  1.0  -0.3536
  N  N77  1  0.431700  0.535700  0.751600  1.0  -0.2875
  N  N78  1  0.352100  0.476000  0.373100  1.0  -0.5525
  N  N79  1  0.157600  0.823800  0.278400  1.0  -0.3532
  N  N80  1  0.068300  0.035700  0.248400  1.0  -0.2871
  O  O81  1  0.996800  0.184300  0.759000  1.0  -0.6276
  O  O82  1  0.901200  0.967700  0.770300  1.0  -0.5843
  O  O83  1  0.875400  0.228100  0.081300  1.0  -0.5889
  O  O84  1  0.663300  0.293500  0.998100  1.0  -0.504
  O  O85  1  0.503200  0.684300  0.241000  1.0  -0.6282
  O  O86  1  0.598800  0.467700  0.229700  1.0  -0.5847
  O  O87  1  0.624600  0.728100  0.918700  1.0  -0.59
  O  O88  1  0.836700  0.793500  0.001900  1.0  -0.5037
  O  O89  1  0.496800  0.815700  0.741000  1.0  -0.6268
  O  O90  1  0.401200  0.032300  0.729700  1.0  -0.5867
  O  O91  1  0.375400  0.771900  0.418700  1.0  -0.5891
  O  O92  1  0.163300  0.706500  0.501900  1.0  -0.5039
  O  O93  1  0.003200  0.315700  0.259000  1.0  -0.6284
  O  O94  1  0.098800  0.532300  0.270300  1.0  -0.5863
  O  O95  1  0.124600  0.271900  0.581300  1.0  -0.5893
  O  O96  1  0.336700  0.206500  0.498100  1.0  -0.5047
