# generated using pymatgen
data_CuC7N3O4
_symmetry_space_group_name_H-M   'P 1'
_cell_length_a   16.04900000
_cell_length_b   9.62200000
_cell_length_c   7.46500000
_cell_angle_alpha   90.00000000
_cell_angle_beta   90.00000000
_cell_angle_gamma   90.00000000
_symmetry_Int_Tables_number   1
_chemical_formula_structural   CuC7N3O4
_chemical_formula_sum   'Cu4 C28 N12 O16'
_cell_volume   1152.77126327
_cell_formula_units_Z   4
loop_
 _symmetry_equiv_pos_site_id
 _symmetry_equiv_pos_as_xyz
  1  'x, y, z'
loop_
 _atom_site_type_symbol
 _atom_site_label
 _atom_site_symmetry_multiplicity
 _atom_site_fract_x
 _atom_site_fract_y
 _atom_site_fract_z
 _atom_site_occupancy
 _atom_site_charge
  Cu  Cu1  1  0.334400  0.841700  0.759800  1.0  0.953
  Cu  Cu2  1  0.665600  0.341700  0.740200  1.0  0.9532
  Cu  Cu3  1  0.165600  0.158300  0.259800  1.0  0.9534
  Cu  Cu4  1  0.834400  0.658300  0.240200  1.0  0.9528
  C  C5  1  0.287400  0.093400  0.598100  1.0  0.6548
  C  C6  1  0.361900  0.137500  0.711100  1.0  0.0546
  C  C7  1  0.439500  0.160600  0.603600  1.0  -0.0393
  C  C8  1  0.510000  0.229000  0.696100  1.0  0.635
  C  C9  1  0.309900  0.552600  0.620400  1.0  0.2903
  C  C10  1  0.177300  0.540300  0.574000  1.0  0.1163
  C  C11  1  0.194400  0.668800  0.625900  1.0  0.1604
  C  C12  1  0.712600  0.593400  0.901900  1.0  0.655
  C  C13  1  0.638100  0.637500  0.788900  1.0  0.0574
  C  C14  1  0.560500  0.660600  0.896400  1.0  -0.0416
  C  C15  1  0.490000  0.729000  0.803900  1.0  0.6344
  C  C16  1  0.690100  0.052600  0.879600  1.0  0.287
  C  C17  1  0.822700  0.040300  0.926000  1.0  0.117
  C  C18  1  0.805600  0.168800  0.874100  1.0  0.1595
  C  C19  1  0.212600  0.906600  0.098100  1.0  0.6546
  C  C20  1  0.138100  0.862500  0.211100  1.0  0.0576
  C  C21  1  0.060500  0.839400  0.103600  1.0  -0.0394
  C  C22  1  0.990000  0.771000  0.196100  1.0  0.6344
  C  C23  1  0.190100  0.447400  0.120400  1.0  0.2878
  C  C24  1  0.322700  0.459700  0.074000  1.0  0.1166
  C  C25  1  0.305600  0.331200  0.125900  1.0  0.16
  C  C26  1  0.787400  0.406600  0.401900  1.0  0.6551
  C  C27  1  0.861900  0.362500  0.288900  1.0  0.056
  C  C28  1  0.939500  0.339400  0.396400  1.0  -0.0417
  C  C29  1  0.010000  0.271000  0.303900  1.0  0.6346
  C  C30  1  0.809900  0.947400  0.379600  1.0  0.2897
  C  C31  1  0.677300  0.959700  0.426000  1.0  0.1169
  C  C32  1  0.694400  0.831200  0.374100  1.0  0.1617
  N  N33  1  0.373100  0.024000  0.852100  1.0  -0.2529
  N  N34  1  0.278400  0.676200  0.657600  1.0  -0.3668
  N  N35  1  0.248400  0.464300  0.568300  1.0  -0.2317
  N  N36  1  0.626900  0.524000  0.647900  1.0  -0.2519
  N  N37  1  0.721600  0.176200  0.842400  1.0  -0.3669
  N  N38  1  0.751600  0.964300  0.931700  1.0  -0.2311
  N  N39  1  0.126900  0.976000  0.352100  1.0  -0.2524
  N  N40  1  0.221600  0.323800  0.157600  1.0  -0.372
  N  N41  1  0.251600  0.535700  0.068300  1.0  -0.2314
  N  N42  1  0.873100  0.476000  0.147900  1.0  -0.2518
  N  N43  1  0.778400  0.823800  0.342400  1.0  -0.3719
  N  N44  1  0.748400  0.035700  0.431700  1.0  -0.2328
  O  O45  1  0.259000  0.184300  0.503200  1.0  -0.493
  O  O46  1  0.270200  0.967700  0.598800  1.0  -0.5085
  O  O47  1  0.581300  0.228100  0.624600  1.0  -0.5011
  O  O48  1  0.498100  0.293500  0.836700  1.0  -0.4664
  O  O49  1  0.741000  0.684300  0.996800  1.0  -0.4937
  O  O50  1  0.729800  0.467700  0.901200  1.0  -0.5092
  O  O51  1  0.418700  0.728100  0.875400  1.0  -0.5029
  O  O52  1  0.501900  0.793500  0.663300  1.0  -0.4677
  O  O53  1  0.241000  0.815700  0.003200  1.0  -0.4923
  O  O54  1  0.229800  0.032300  0.098800  1.0  -0.5103
  O  O55  1  0.918700  0.771900  0.124600  1.0  -0.501
  O  O56  1  0.001900  0.706500  0.336700  1.0  -0.4648
  O  O57  1  0.759000  0.315700  0.496800  1.0  -0.4928
  O  O58  1  0.770200  0.532300  0.401200  1.0  -0.5095
  O  O59  1  0.081300  0.271900  0.375400  1.0  -0.5027
  O  O60  1  0.998100  0.206500  0.163300  1.0  -0.4676
