# generated using pymatgen
data_ScH6(C2O)6
_symmetry_space_group_name_H-M   'P 1'
_cell_length_a   8.86390000
_cell_length_b   20.65900000
_cell_length_c   34.06100000
_cell_angle_alpha   90.00000000
_cell_angle_beta   90.00000000
_cell_angle_gamma   90.00000000
_symmetry_Int_Tables_number   1
_chemical_formula_structural   ScH6(C2O)6
_chemical_formula_sum   'Sc16 H96 C192 O96'
_cell_volume   6237.22682132
_cell_formula_units_Z   16
loop_
 _symmetry_equiv_pos_site_id
 _symmetry_equiv_pos_as_xyz
  1  'x, y, z'
loop_
 _atom_site_type_symbol
 _atom_site_label
 _atom_site_symmetry_multiplicity
 _atom_site_fract_x
 _atom_site_fract_y
 _atom_site_fract_z
 _atom_site_occupancy
 _atom_site_charge
  Sc  Sc1  1  0.375000  0.375000  0.614120  1.0  2.0303
  Sc  Sc2  1  0.375000  0.875000  0.114120  1.0  2.0304
  Sc  Sc3  1  0.875000  0.375000  0.114120  1.0  2.0303
  Sc  Sc4  1  0.875000  0.875000  0.614120  1.0  2.0304
  Sc  Sc5  1  0.375000  0.375000  0.135880  1.0  2.0339
  Sc  Sc6  1  0.375000  0.875000  0.635880  1.0  2.0337
  Sc  Sc7  1  0.875000  0.375000  0.635880  1.0  2.0339
  Sc  Sc8  1  0.875000  0.875000  0.135880  1.0  2.0337
  Sc  Sc9  1  0.625000  0.625000  0.385880  1.0  2.0341
  Sc  Sc10  1  0.625000  0.125000  0.885880  1.0  2.0337
  Sc  Sc11  1  0.125000  0.625000  0.885880  1.0  2.0341
  Sc  Sc12  1  0.125000  0.125000  0.385880  1.0  2.0337
  Sc  Sc13  1  0.625000  0.625000  0.864120  1.0  2.0303
  Sc  Sc14  1  0.625000  0.125000  0.364120  1.0  2.0304
  Sc  Sc15  1  0.125000  0.625000  0.364120  1.0  2.0303
  Sc  Sc16  1  0.125000  0.125000  0.864120  1.0  2.0304
  H  H17  1  0.668300  0.220000  0.798000  1.0  0.0793
  H  H18  1  0.750300  0.280100  0.744300  1.0  0.106
  H  H19  1  0.850100  0.568300  0.625700  1.0  0.1037
  H  H20  1  0.668300  0.720000  0.298000  1.0  0.0793
  H  H21  1  0.750300  0.780100  0.244300  1.0  0.106
  H  H22  1  0.850100  0.068300  0.125700  1.0  0.1037
  H  H23  1  0.168300  0.220000  0.298000  1.0  0.0793
  H  H24  1  0.250300  0.280100  0.244300  1.0  0.106
  H  H25  1  0.350100  0.568300  0.125700  1.0  0.1037
  H  H26  1  0.168300  0.720000  0.798000  1.0  0.0793
  H  H27  1  0.250300  0.780100  0.744300  1.0  0.106
  H  H28  1  0.350100  0.068300  0.625700  1.0  0.1037
  H  H29  1  0.081700  0.530000  0.798000  1.0  0.0791
  H  H30  1  0.999700  0.469900  0.744300  1.0  0.1067
  H  H31  1  0.899900  0.181700  0.625700  1.0  0.1033
  H  H32  1  0.081700  0.030000  0.298000  1.0  0.0791
  H  H33  1  0.999700  0.969900  0.244300  1.0  0.1067
  H  H34  1  0.899900  0.681700  0.125700  1.0  0.1033
  H  H35  1  0.581700  0.530000  0.298000  1.0  0.0791
  H  H36  1  0.499700  0.469900  0.244300  1.0  0.1067
  H  H37  1  0.399900  0.181700  0.125700  1.0  0.1033
  H  H38  1  0.581700  0.030000  0.798000  1.0  0.0791
  H  H39  1  0.499700  0.969900  0.744300  1.0  0.1067
  H  H40  1  0.399900  0.681700  0.625700  1.0  0.1033
  H  H41  1  0.081700  0.220000  0.952000  1.0  0.0793
  H  H42  1  0.999700  0.280100  0.005700  1.0  0.1068
  H  H43  1  0.899900  0.568300  0.124300  1.0  0.1039
  H  H44  1  0.081700  0.720000  0.452000  1.0  0.0793
  H  H45  1  0.999700  0.780100  0.505700  1.0  0.1068
  H  H46  1  0.899900  0.068300  0.624300  1.0  0.1039
  H  H47  1  0.581700  0.220000  0.452000  1.0  0.0793
  H  H48  1  0.499700  0.280100  0.505700  1.0  0.1068
  H  H49  1  0.399900  0.568300  0.624300  1.0  0.1039
  H  H50  1  0.581700  0.720000  0.952000  1.0  0.0793
  H  H51  1  0.499700  0.780100  0.005700  1.0  0.1068
  H  H52  1  0.399900  0.068300  0.124300  1.0  0.1039
  H  H53  1  0.668300  0.530000  0.952000  1.0  0.0792
  H  H54  1  0.750300  0.469900  0.005700  1.0  0.1058
  H  H55  1  0.850100  0.181700  0.124300  1.0  0.1034
  H  H56  1  0.668300  0.030000  0.452000  1.0  0.0792
  H  H57  1  0.750300  0.969900  0.505700  1.0  0.1058
  H  H58  1  0.850100  0.681700  0.624300  1.0  0.1034
  H  H59  1  0.168300  0.530000  0.452000  1.0  0.0792
  H  H60  1  0.250300  0.469900  0.505700  1.0  0.1058
  H  H61  1  0.350100  0.181700  0.624300  1.0  0.1034
  H  H62  1  0.168300  0.030000  0.952000  1.0  0.0792
  H  H63  1  0.250300  0.969900  0.005700  1.0  0.1058
  H  H64  1  0.350100  0.681700  0.124300  1.0  0.1034
  H  H65  1  0.331700  0.780000  0.202000  1.0  0.0792
  H  H66  1  0.249700  0.719900  0.255700  1.0  0.1067
  H  H67  1  0.149900  0.431700  0.374300  1.0  0.1033
  H  H68  1  0.331700  0.280000  0.702000  1.0  0.0792
  H  H69  1  0.249700  0.219900  0.755700  1.0  0.1067
  H  H70  1  0.149900  0.931700  0.874300  1.0  0.1033
  H  H71  1  0.831700  0.780000  0.702000  1.0  0.0792
  H  H72  1  0.749700  0.719900  0.755700  1.0  0.1067
  H  H73  1  0.649900  0.431700  0.874300  1.0  0.1033
  H  H74  1  0.831700  0.280000  0.202000  1.0  0.0792
  H  H75  1  0.749700  0.219900  0.255700  1.0  0.1067
  H  H76  1  0.649900  0.931700  0.374300  1.0  0.1033
  H  H77  1  0.918300  0.470000  0.202000  1.0  0.0792
  H  H78  1  0.000300  0.530100  0.255700  1.0  0.106
  H  H79  1  0.100100  0.818300  0.374300  1.0  0.1037
  H  H80  1  0.918300  0.970000  0.702000  1.0  0.0792
  H  H81  1  0.000300  0.030100  0.755700  1.0  0.106
  H  H82  1  0.100100  0.318300  0.874300  1.0  0.1037
  H  H83  1  0.418300  0.470000  0.702000  1.0  0.0792
  H  H84  1  0.500300  0.530100  0.755700  1.0  0.106
  H  H85  1  0.600100  0.818300  0.874300  1.0  0.1037
  H  H86  1  0.418300  0.970000  0.202000  1.0  0.0792
  H  H87  1  0.500300  0.030100  0.255700  1.0  0.106
  H  H88  1  0.600100  0.318300  0.374300  1.0  0.1037
  H  H89  1  0.918300  0.780000  0.048000  1.0  0.0793
  H  H90  1  0.000300  0.719900  0.994300  1.0  0.106
  H  H91  1  0.100100  0.431700  0.875700  1.0  0.1034
  H  H92  1  0.918300  0.280000  0.548000  1.0  0.0793
  H  H93  1  0.000300  0.219900  0.494300  1.0  0.106
  H  H94  1  0.100100  0.931700  0.375700  1.0  0.1034
  H  H95  1  0.418300  0.780000  0.548000  1.0  0.0793
  H  H96  1  0.500300  0.719900  0.494300  1.0  0.106
  H  H97  1  0.600100  0.431700  0.375700  1.0  0.1034
  H  H98  1  0.418300  0.280000  0.048000  1.0  0.0793
  H  H99  1  0.500300  0.219900  0.994300  1.0  0.106
  H  H100  1  0.600100  0.931700  0.875700  1.0  0.1034
  H  H101  1  0.331700  0.470000  0.048000  1.0  0.0791
  H  H102  1  0.249700  0.530100  0.994300  1.0  0.1067
  H  H103  1  0.149900  0.818300  0.875700  1.0  0.104
  H  H104  1  0.331700  0.970000  0.548000  1.0  0.0791
  H  H105  1  0.249700  0.030100  0.494300  1.0  0.1067
  H  H106  1  0.149900  0.318300  0.375700  1.0  0.104
  H  H107  1  0.831700  0.470000  0.548000  1.0  0.0791
  H  H108  1  0.749700  0.530100  0.494300  1.0  0.1067
  H  H109  1  0.649900  0.818300  0.375700  1.0  0.104
  H  H110  1  0.831700  0.970000  0.048000  1.0  0.0791
  H  H111  1  0.749700  0.030100  0.994300  1.0  0.1067
  H  H112  1  0.649900  0.318300  0.875700  1.0  0.104
  C  C113  1  0.603300  0.320300  0.682370  1.0  0.7141
  C  C114  1  0.547100  0.284400  0.717530  1.0  -0.1518
  C  C115  1  0.599700  0.232300  0.778780  1.0  -0.0283
  C  C116  1  0.649700  0.267800  0.746410  1.0  -0.0819
  C  C117  1  0.759500  0.591000  0.625230  1.0  -0.0503
  C  C118  1  0.603300  0.820300  0.182370  1.0  0.7143
  C  C119  1  0.547100  0.784400  0.217530  1.0  -0.1519
  C  C120  1  0.599700  0.732300  0.278780  1.0  -0.0283
  C  C121  1  0.649700  0.767800  0.246410  1.0  -0.0819
  C  C122  1  0.759500  0.091000  0.125230  1.0  -0.0503
  C  C123  1  0.103300  0.320300  0.182370  1.0  0.7141
  C  C124  1  0.047100  0.284400  0.217530  1.0  -0.1518
  C  C125  1  0.099700  0.232300  0.278780  1.0  -0.0283
  C  C126  1  0.149700  0.267800  0.246410  1.0  -0.0819
  C  C127  1  0.259500  0.591000  0.125230  1.0  -0.0503
  C  C128  1  0.103300  0.820300  0.682370  1.0  0.7143
  C  C129  1  0.047100  0.784400  0.717530  1.0  -0.1519
  C  C130  1  0.099700  0.732300  0.778780  1.0  -0.0283
  C  C131  1  0.149700  0.767800  0.746410  1.0  -0.0819
  C  C132  1  0.259500  0.091000  0.625230  1.0  -0.0503
  C  C133  1  0.146700  0.429700  0.682370  1.0  0.7149
  C  C134  1  0.202900  0.465600  0.717530  1.0  -0.1523
  C  C135  1  0.150300  0.517700  0.778780  1.0  -0.0287
  C  C136  1  0.100300  0.482200  0.746410  1.0  -0.0839
  C  C137  1  0.990500  0.159000  0.625230  1.0  -0.0491
  C  C138  1  0.146700  0.929700  0.182370  1.0  0.7149
  C  C139  1  0.202900  0.965600  0.217530  1.0  -0.1523
  C  C140  1  0.150300  0.017700  0.278780  1.0  -0.0287
  C  C141  1  0.100300  0.982200  0.246410  1.0  -0.0839
  C  C142  1  0.990500  0.659000  0.125230  1.0  -0.0491
  C  C143  1  0.646700  0.429700  0.182370  1.0  0.7149
  C  C144  1  0.702900  0.465600  0.217530  1.0  -0.1523
  C  C145  1  0.650300  0.517700  0.278780  1.0  -0.0287
  C  C146  1  0.600300  0.482200  0.246410  1.0  -0.0839
  C  C147  1  0.490500  0.159000  0.125230  1.0  -0.0491
  C  C148  1  0.646700  0.929700  0.682370  1.0  0.7149
  C  C149  1  0.702900  0.965600  0.717530  1.0  -0.1523
  C  C150  1  0.650300  0.017700  0.778780  1.0  -0.0287
  C  C151  1  0.600300  0.982200  0.746410  1.0  -0.0839
  C  C152  1  0.490500  0.659000  0.625230  1.0  -0.0491
  C  C153  1  0.146700  0.320300  0.067630  1.0  0.7154
  C  C154  1  0.202900  0.284400  0.032470  1.0  -0.1515
  C  C155  1  0.150300  0.232300  0.971220  1.0  -0.0286
  C  C156  1  0.100300  0.267800  0.003590  1.0  -0.0837
  C  C157  1  0.990500  0.591000  0.124770  1.0  -0.0493
  C  C158  1  0.146700  0.820300  0.567630  1.0  0.7156
  C  C159  1  0.202900  0.784400  0.532470  1.0  -0.1516
  C  C160  1  0.150300  0.732300  0.471220  1.0  -0.0286
  C  C161  1  0.100300  0.767800  0.503590  1.0  -0.0837
  C  C162  1  0.990500  0.091000  0.624770  1.0  -0.0493
  C  C163  1  0.646700  0.320300  0.567630  1.0  0.7154
  C  C164  1  0.702900  0.284400  0.532470  1.0  -0.1515
  C  C165  1  0.650300  0.232300  0.471220  1.0  -0.0286
  C  C166  1  0.600300  0.267800  0.503590  1.0  -0.0837
  C  C167  1  0.490500  0.591000  0.624770  1.0  -0.0493
  C  C168  1  0.646700  0.820300  0.067630  1.0  0.7156
  C  C169  1  0.702900  0.784400  0.032470  1.0  -0.1516
  C  C170  1  0.650300  0.732300  0.971220  1.0  -0.0286
  C  C171  1  0.600300  0.767800  0.003590  1.0  -0.0837
  C  C172  1  0.490500  0.091000  0.124770  1.0  -0.0493
  C  C173  1  0.603300  0.429700  0.067630  1.0  0.7155
  C  C174  1  0.547100  0.465600  0.032470  1.0  -0.1521
  C  C175  1  0.599700  0.517700  0.971220  1.0  -0.0283
  C  C176  1  0.649700  0.482200  0.003590  1.0  -0.0815
  C  C177  1  0.759500  0.159000  0.124770  1.0  -0.0499
  C  C178  1  0.603300  0.929700  0.567630  1.0  0.7155
  C  C179  1  0.547100  0.965600  0.532470  1.0  -0.1521
  C  C180  1  0.599700  0.017700  0.471220  1.0  -0.0283
  C  C181  1  0.649700  0.982200  0.503590  1.0  -0.0815
  C  C182  1  0.759500  0.659000  0.624770  1.0  -0.0499
  C  C183  1  0.103300  0.429700  0.567630  1.0  0.7155
  C  C184  1  0.047100  0.465600  0.532470  1.0  -0.1521
  C  C185  1  0.099700  0.517700  0.471220  1.0  -0.0283
  C  C186  1  0.149700  0.482200  0.503590  1.0  -0.0815
  C  C187  1  0.259500  0.159000  0.624770  1.0  -0.0499
  C  C188  1  0.103300  0.929700  0.067630  1.0  0.7155
  C  C189  1  0.047100  0.965600  0.032470  1.0  -0.1521
  C  C190  1  0.099700  0.017700  0.971220  1.0  -0.0283
  C  C191  1  0.149700  0.982200  0.003590  1.0  -0.0815
  C  C192  1  0.259500  0.659000  0.124770  1.0  -0.0499
  C  C193  1  0.396700  0.679700  0.317630  1.0  0.7153
  C  C194  1  0.452900  0.715600  0.282470  1.0  -0.1515
  C  C195  1  0.400300  0.767700  0.221220  1.0  -0.0285
  C  C196  1  0.350300  0.732200  0.253590  1.0  -0.084
  C  C197  1  0.240500  0.409000  0.374770  1.0  -0.049
  C  C198  1  0.396700  0.179700  0.817630  1.0  0.7155
  C  C199  1  0.452900  0.215600  0.782470  1.0  -0.1515
  C  C200  1  0.400300  0.267700  0.721220  1.0  -0.0285
  C  C201  1  0.350300  0.232200  0.753590  1.0  -0.084
  C  C202  1  0.240500  0.909000  0.874770  1.0  -0.049
  C  C203  1  0.896700  0.679700  0.817630  1.0  0.7153
  C  C204  1  0.952900  0.715600  0.782470  1.0  -0.1515
  C  C205  1  0.900300  0.767700  0.721220  1.0  -0.0285
  C  C206  1  0.850300  0.732200  0.753590  1.0  -0.084
  C  C207  1  0.740500  0.409000  0.874770  1.0  -0.049
  C  C208  1  0.896700  0.179700  0.317630  1.0  0.7155
  C  C209  1  0.952900  0.215600  0.282470  1.0  -0.1515
  C  C210  1  0.900300  0.267700  0.221220  1.0  -0.0285
  C  C211  1  0.850300  0.232200  0.253590  1.0  -0.084
  C  C212  1  0.740500  0.909000  0.374770  1.0  -0.049
  C  C213  1  0.853300  0.570300  0.317630  1.0  0.7155
  C  C214  1  0.797100  0.534400  0.282470  1.0  -0.1521
  C  C215  1  0.849700  0.482300  0.221220  1.0  -0.0281
  C  C216  1  0.899700  0.517800  0.253590  1.0  -0.0817
  C  C217  1  0.009500  0.841000  0.374770  1.0  -0.0501
  C  C218  1  0.853300  0.070300  0.817630  1.0  0.7155
  C  C219  1  0.797100  0.034400  0.782470  1.0  -0.1521
  C  C220  1  0.849700  0.982300  0.721220  1.0  -0.0281
  C  C221  1  0.899700  0.017800  0.753590  1.0  -0.0817
  C  C222  1  0.009500  0.341000  0.874770  1.0  -0.0501
  C  C223  1  0.353300  0.570300  0.817630  1.0  0.7155
  C  C224  1  0.297100  0.534400  0.782470  1.0  -0.1521
  C  C225  1  0.349700  0.482300  0.721220  1.0  -0.0281
  C  C226  1  0.399700  0.517800  0.753590  1.0  -0.0817
  C  C227  1  0.509500  0.841000  0.874770  1.0  -0.0501
  C  C228  1  0.353300  0.070300  0.317630  1.0  0.7155
  C  C229  1  0.297100  0.034400  0.282470  1.0  -0.1521
  C  C230  1  0.349700  0.982300  0.221220  1.0  -0.0281
  C  C231  1  0.399700  0.017800  0.253590  1.0  -0.0817
  C  C232  1  0.509500  0.341000  0.374770  1.0  -0.0501
  C  C233  1  0.853300  0.679700  0.932370  1.0  0.714
  C  C234  1  0.797100  0.715600  0.967530  1.0  -0.1517
  C  C235  1  0.849700  0.767700  0.028780  1.0  -0.0286
  C  C236  1  0.899700  0.732200  0.996410  1.0  -0.0817
  C  C237  1  0.009500  0.409000  0.875230  1.0  -0.0501
  C  C238  1  0.853300  0.179700  0.432370  1.0  0.7141
  C  C239  1  0.797100  0.215600  0.467530  1.0  -0.1517
  C  C240  1  0.849700  0.267700  0.528780  1.0  -0.0286
  C  C241  1  0.899700  0.232200  0.496410  1.0  -0.0817
  C  C242  1  0.009500  0.909000  0.375230  1.0  -0.0501
  C  C243  1  0.353300  0.679700  0.432370  1.0  0.714
  C  C244  1  0.297100  0.715600  0.467530  1.0  -0.1517
  C  C245  1  0.349700  0.767700  0.528780  1.0  -0.0286
  C  C246  1  0.399700  0.732200  0.496410  1.0  -0.0817
  C  C247  1  0.509500  0.409000  0.375230  1.0  -0.0501
  C  C248  1  0.353300  0.179700  0.932370  1.0  0.7141
  C  C249  1  0.297100  0.215600  0.967530  1.0  -0.1517
  C  C250  1  0.349700  0.267700  0.028780  1.0  -0.0286
  C  C251  1  0.399700  0.232200  0.996410  1.0  -0.0817
  C  C252  1  0.509500  0.909000  0.875230  1.0  -0.0501
  C  C253  1  0.396700  0.570300  0.932370  1.0  0.7149
  C  C254  1  0.452900  0.534400  0.967530  1.0  -0.1525
  C  C255  1  0.400300  0.482300  0.028780  1.0  -0.0284
  C  C256  1  0.350300  0.517800  0.996410  1.0  -0.0838
  C  C257  1  0.240500  0.841000  0.875230  1.0  -0.0495
  C  C258  1  0.396700  0.070300  0.432370  1.0  0.7149
  C  C259  1  0.452900  0.034400  0.467530  1.0  -0.1525
  C  C260  1  0.400300  0.982300  0.528780  1.0  -0.0284
  C  C261  1  0.350300  0.017800  0.496410  1.0  -0.0838
  C  C262  1  0.240500  0.341000  0.375230  1.0  -0.0495
  C  C263  1  0.896700  0.570300  0.432370  1.0  0.7149
  C  C264  1  0.952900  0.534400  0.467530  1.0  -0.1525
  C  C265  1  0.900300  0.482300  0.528780  1.0  -0.0284
  C  C266  1  0.850300  0.517800  0.496410  1.0  -0.0838
  C  C267  1  0.740500  0.841000  0.375230  1.0  -0.0495
  C  C268  1  0.896700  0.070300  0.932370  1.0  0.7149
  C  C269  1  0.952900  0.034400  0.967530  1.0  -0.1525
  C  C270  1  0.900300  0.982300  0.028780  1.0  -0.0284
  C  C271  1  0.850300  0.017800  0.996410  1.0  -0.0838
  C  C272  1  0.740500  0.341000  0.875230  1.0  -0.0495
  C  C273  1  0.625000  0.558300  0.625000  1.0  -0.1145
  C  C274  1  0.625000  0.485400  0.625000  1.0  0.6908
  C  C275  1  0.625000  0.058300  0.125000  1.0  -0.1145
  C  C276  1  0.625000  0.985400  0.125000  1.0  0.6908
  C  C277  1  0.125000  0.191700  0.625000  1.0  -0.1144
  C  C278  1  0.125000  0.264600  0.625000  1.0  0.6919
  C  C279  1  0.125000  0.691700  0.125000  1.0  -0.1144
  C  C280  1  0.125000  0.764600  0.125000  1.0  0.6919
  C  C281  1  0.625000  0.691700  0.625000  1.0  -0.1144
  C  C282  1  0.625000  0.764600  0.625000  1.0  0.6919
  C  C283  1  0.125000  0.558300  0.125000  1.0  -0.1145
  C  C284  1  0.125000  0.485400  0.125000  1.0  0.6908
  C  C285  1  0.125000  0.058300  0.625000  1.0  -0.1145
  C  C286  1  0.125000  0.985400  0.625000  1.0  0.6908
  C  C287  1  0.625000  0.191700  0.125000  1.0  -0.1144
  C  C288  1  0.625000  0.264600  0.125000  1.0  0.6919
  C  C289  1  0.375000  0.441700  0.375000  1.0  -0.1144
  C  C290  1  0.375000  0.514600  0.375000  1.0  0.6919
  C  C291  1  0.375000  0.941700  0.875000  1.0  -0.1144
  C  C292  1  0.375000  0.014600  0.875000  1.0  0.6919
  C  C293  1  0.875000  0.808300  0.375000  1.0  -0.1145
  C  C294  1  0.875000  0.735400  0.375000  1.0  0.6908
  C  C295  1  0.875000  0.308300  0.875000  1.0  -0.1145
  C  C296  1  0.875000  0.235400  0.875000  1.0  0.6908
  C  C297  1  0.875000  0.441700  0.875000  1.0  -0.1144
  C  C298  1  0.875000  0.514600  0.875000  1.0  0.6919
  C  C299  1  0.875000  0.941700  0.375000  1.0  -0.1144
  C  C300  1  0.875000  0.014600  0.375000  1.0  0.6919
  C  C301  1  0.375000  0.808300  0.875000  1.0  -0.1145
  C  C302  1  0.375000  0.735400  0.875000  1.0  0.6908
  C  C303  1  0.375000  0.308300  0.375000  1.0  -0.1145
  C  C304  1  0.375000  0.235400  0.375000  1.0  0.6908
  O  O305  1  0.739200  0.333333  0.679370  1.0  -0.6226
  O  O306  1  0.506500  0.457950  0.615000  1.0  -0.662
  O  O307  1  0.505200  0.335000  0.657110  1.0  -0.712
  O  O308  1  0.739200  0.833320  0.179370  1.0  -0.6226
  O  O309  1  0.506500  0.957950  0.115000  1.0  -0.662
  O  O310  1  0.505200  0.835000  0.157110  1.0  -0.712
  O  O311  1  0.239200  0.333333  0.179370  1.0  -0.6226
  O  O312  1  0.006500  0.457950  0.115000  1.0  -0.662
  O  O313  1  0.005200  0.335000  0.157110  1.0  -0.712
  O  O314  1  0.239200  0.833320  0.679370  1.0  -0.6226
  O  O315  1  0.006500  0.957950  0.615000  1.0  -0.662
  O  O316  1  0.005200  0.835000  0.657110  1.0  -0.712
  O  O317  1  0.010800  0.416680  0.679370  1.0  -0.6208
  O  O318  1  0.243500  0.292050  0.615000  1.0  -0.6635
  O  O319  1  0.244800  0.415000  0.657110  1.0  -0.7124
  O  O320  1  0.010800  0.916680  0.179370  1.0  -0.6208
  O  O321  1  0.243500  0.792050  0.115000  1.0  -0.6636
  O  O322  1  0.244800  0.915000  0.157110  1.0  -0.7124
  O  O323  1  0.510800  0.416680  0.179370  1.0  -0.6208
  O  O324  1  0.743500  0.292050  0.115000  1.0  -0.6635
  O  O325  1  0.744800  0.415000  0.157110  1.0  -0.7124
  O  O326  1  0.510800  0.916680  0.679370  1.0  -0.6208
  O  O327  1  0.743500  0.792050  0.615000  1.0  -0.6636
  O  O328  1  0.744800  0.915000  0.657110  1.0  -0.7124
  O  O329  1  0.010800  0.333333  0.070630  1.0  -0.6199
  O  O330  1  0.243500  0.457950  0.135000  1.0  -0.6629
  O  O331  1  0.244800  0.335000  0.092890  1.0  -0.7119
  O  O332  1  0.010800  0.833320  0.570630  1.0  -0.6198
  O  O333  1  0.243500  0.957950  0.635000  1.0  -0.6629
  O  O334  1  0.244800  0.835000  0.592890  1.0  -0.7119
  O  O335  1  0.510800  0.333333  0.570630  1.0  -0.6199
  O  O336  1  0.743500  0.457950  0.635000  1.0  -0.6629
  O  O337  1  0.744800  0.335000  0.592890  1.0  -0.7119
  O  O338  1  0.510800  0.833320  0.070630  1.0  -0.6198
  O  O339  1  0.743500  0.957950  0.135000  1.0  -0.6629
  O  O340  1  0.744800  0.835000  0.092890  1.0  -0.7119
  O  O341  1  0.739200  0.416680  0.070630  1.0  -0.6218
  O  O342  1  0.506500  0.292050  0.135000  1.0  -0.6617
  O  O343  1  0.505200  0.415000  0.092890  1.0  -0.7116
  O  O344  1  0.739200  0.916680  0.570630  1.0  -0.6218
  O  O345  1  0.506500  0.792050  0.635000  1.0  -0.6617
  O  O346  1  0.505200  0.915000  0.592890  1.0  -0.7116
  O  O347  1  0.239200  0.416680  0.570630  1.0  -0.6218
  O  O348  1  0.006500  0.292050  0.635000  1.0  -0.6617
  O  O349  1  0.005200  0.415000  0.592890  1.0  -0.7116
  O  O350  1  0.239200  0.916680  0.070630  1.0  -0.6218
  O  O351  1  0.006500  0.792050  0.135000  1.0  -0.6617
  O  O352  1  0.005200  0.915000  0.092890  1.0  -0.7116
  O  O353  1  0.260800  0.666667  0.320630  1.0  -0.6201
  O  O354  1  0.493500  0.542050  0.385000  1.0  -0.6628
  O  O355  1  0.494800  0.665000  0.342890  1.0  -0.712
  O  O356  1  0.260800  0.166680  0.820630  1.0  -0.6199
  O  O357  1  0.493500  0.042050  0.885000  1.0  -0.6628
  O  O358  1  0.494800  0.165000  0.842890  1.0  -0.712
  O  O359  1  0.760800  0.666667  0.820630  1.0  -0.6201
  O  O360  1  0.993500  0.542050  0.885000  1.0  -0.6628
  O  O361  1  0.994800  0.665000  0.842890  1.0  -0.712
  O  O362  1  0.760800  0.166680  0.320630  1.0  -0.6199
  O  O363  1  0.993500  0.042050  0.385000  1.0  -0.6628
  O  O364  1  0.994800  0.165000  0.342890  1.0  -0.712
  O  O365  1  0.989200  0.583320  0.320630  1.0  -0.6219
  O  O366  1  0.756500  0.707950  0.385000  1.0  -0.6618
  O  O367  1  0.755200  0.585000  0.342890  1.0  -0.7116
  O  O368  1  0.989200  0.083320  0.820630  1.0  -0.6219
  O  O369  1  0.756500  0.207950  0.885000  1.0  -0.6618
  O  O370  1  0.755200  0.085000  0.842890  1.0  -0.7116
  O  O371  1  0.489200  0.583320  0.820630  1.0  -0.6219
  O  O372  1  0.256500  0.707950  0.885000  1.0  -0.6618
  O  O373  1  0.255200  0.585000  0.842890  1.0  -0.7116
  O  O374  1  0.489200  0.083320  0.320630  1.0  -0.6219
  O  O375  1  0.256500  0.207950  0.385000  1.0  -0.6618
  O  O376  1  0.255200  0.085000  0.342890  1.0  -0.7116
  O  O377  1  0.989200  0.666667  0.929370  1.0  -0.6226
  O  O378  1  0.756500  0.542050  0.865000  1.0  -0.6621
  O  O379  1  0.755200  0.665000  0.907110  1.0  -0.7119
  O  O380  1  0.989200  0.166680  0.429370  1.0  -0.6226
  O  O381  1  0.756500  0.042050  0.365000  1.0  -0.6621
  O  O382  1  0.755200  0.165000  0.407110  1.0  -0.7119
  O  O383  1  0.489200  0.666667  0.429370  1.0  -0.6226
  O  O384  1  0.256500  0.542050  0.365000  1.0  -0.6621
  O  O385  1  0.255200  0.665000  0.407110  1.0  -0.7119
  O  O386  1  0.489200  0.166680  0.929370  1.0  -0.6226
  O  O387  1  0.256500  0.042050  0.865000  1.0  -0.6621
  O  O388  1  0.255200  0.165000  0.907110  1.0  -0.7119
  O  O389  1  0.260800  0.583320  0.929370  1.0  -0.6207
  O  O390  1  0.493500  0.707950  0.865000  1.0  -0.6634
  O  O391  1  0.494800  0.585000  0.907110  1.0  -0.7125
  O  O392  1  0.260800  0.083320  0.429370  1.0  -0.6207
  O  O393  1  0.493500  0.207950  0.365000  1.0  -0.6634
  O  O394  1  0.494800  0.085000  0.407110  1.0  -0.7125
  O  O395  1  0.760800  0.583320  0.429370  1.0  -0.6207
  O  O396  1  0.993500  0.707950  0.365000  1.0  -0.6634
  O  O397  1  0.994800  0.585000  0.407110  1.0  -0.7125
  O  O398  1  0.760800  0.083320  0.929370  1.0  -0.6207
  O  O399  1  0.993500  0.207950  0.865000  1.0  -0.6634
  O  O400  1  0.994800  0.085000  0.907110  1.0  -0.7125
