# generated using pymatgen
data_ScH6(C2O)6
_symmetry_space_group_name_H-M   'P 1'
_cell_length_a   8.85240000
_cell_length_b   20.70050000
_cell_length_c   34.19400000
_cell_angle_alpha   90.00000000
_cell_angle_beta   90.00000000
_cell_angle_gamma   90.00000000
_symmetry_Int_Tables_number   1
_chemical_formula_structural   ScH6(C2O)6
_chemical_formula_sum   'Sc16 H96 C192 O96'
_cell_volume   6266.01993740
_cell_formula_units_Z   16
loop_
 _symmetry_equiv_pos_site_id
 _symmetry_equiv_pos_as_xyz
  1  'x, y, z'
loop_
 _atom_site_type_symbol
 _atom_site_label
 _atom_site_symmetry_multiplicity
 _atom_site_fract_x
 _atom_site_fract_y
 _atom_site_fract_z
 _atom_site_occupancy
 _atom_site_charge
  Sc  Sc1  1  0.375000  0.375000  0.614110  1.0  2.0903
  Sc  Sc2  1  0.375000  0.875000  0.114110  1.0  2.0903
  Sc  Sc3  1  0.875000  0.375000  0.114110  1.0  2.0903
  Sc  Sc4  1  0.875000  0.875000  0.614110  1.0  2.0903
  Sc  Sc5  1  0.375000  0.375000  0.135890  1.0  2.093
  Sc  Sc6  1  0.375000  0.875000  0.635890  1.0  2.093
  Sc  Sc7  1  0.875000  0.375000  0.635890  1.0  2.093
  Sc  Sc8  1  0.875000  0.875000  0.135890  1.0  2.093
  Sc  Sc9  1  0.625000  0.625000  0.385890  1.0  2.093
  Sc  Sc10  1  0.625000  0.125000  0.885890  1.0  2.093
  Sc  Sc11  1  0.125000  0.625000  0.885890  1.0  2.093
  Sc  Sc12  1  0.125000  0.125000  0.385890  1.0  2.093
  Sc  Sc13  1  0.625000  0.625000  0.864110  1.0  2.0903
  Sc  Sc14  1  0.625000  0.125000  0.364110  1.0  2.0903
  Sc  Sc15  1  0.125000  0.625000  0.364110  1.0  2.0903
  Sc  Sc16  1  0.125000  0.125000  0.864110  1.0  2.0903
  H  H17  1  0.668300  0.217900  0.797100  1.0  0.0789
  H  H18  1  0.753200  0.275800  0.743100  1.0  0.1126
  H  H19  1  0.849500  0.569000  0.626600  1.0  0.0964
  H  H20  1  0.668300  0.717900  0.297100  1.0  0.0789
  H  H21  1  0.753200  0.775800  0.243100  1.0  0.1126
  H  H22  1  0.849500  0.069000  0.126600  1.0  0.0964
  H  H23  1  0.168300  0.217900  0.297100  1.0  0.0789
  H  H24  1  0.253200  0.275800  0.243100  1.0  0.1126
  H  H25  1  0.349500  0.569000  0.126600  1.0  0.0964
  H  H26  1  0.168300  0.717900  0.797100  1.0  0.0789
  H  H27  1  0.253200  0.775800  0.743100  1.0  0.1126
  H  H28  1  0.349500  0.069000  0.626600  1.0  0.0964
  H  H29  1  0.081700  0.532100  0.797100  1.0  0.0786
  H  H30  1  0.996800  0.474200  0.743100  1.0  0.114
  H  H31  1  0.900500  0.181000  0.626600  1.0  0.0961
  H  H32  1  0.081700  0.032100  0.297100  1.0  0.0786
  H  H33  1  0.996800  0.974200  0.243100  1.0  0.114
  H  H34  1  0.900500  0.681000  0.126600  1.0  0.0961
  H  H35  1  0.581700  0.532100  0.297100  1.0  0.0786
  H  H36  1  0.496800  0.474200  0.243100  1.0  0.114
  H  H37  1  0.400500  0.181000  0.126600  1.0  0.0961
  H  H38  1  0.581700  0.032100  0.797100  1.0  0.0786
  H  H39  1  0.496800  0.974200  0.743100  1.0  0.114
  H  H40  1  0.400500  0.681000  0.626600  1.0  0.0961
  H  H41  1  0.081700  0.217900  0.952900  1.0  0.0788
  H  H42  1  0.996800  0.275800  0.006900  1.0  0.1142
  H  H43  1  0.900500  0.569000  0.123400  1.0  0.0962
  H  H44  1  0.081700  0.717900  0.452900  1.0  0.0788
  H  H45  1  0.996800  0.775800  0.506900  1.0  0.1142
  H  H46  1  0.900500  0.069000  0.623400  1.0  0.0962
  H  H47  1  0.581700  0.217900  0.452900  1.0  0.0788
  H  H48  1  0.496800  0.275800  0.506900  1.0  0.1142
  H  H49  1  0.400500  0.569000  0.623400  1.0  0.0962
  H  H50  1  0.581700  0.717900  0.952900  1.0  0.0788
  H  H51  1  0.496800  0.775800  0.006900  1.0  0.1142
  H  H52  1  0.400500  0.069000  0.123400  1.0  0.0962
  H  H53  1  0.668300  0.532100  0.952900  1.0  0.079
  H  H54  1  0.753200  0.474200  0.006900  1.0  0.1127
  H  H55  1  0.849500  0.181000  0.123400  1.0  0.0962
  H  H56  1  0.668300  0.032100  0.452900  1.0  0.079
  H  H57  1  0.753200  0.974200  0.506900  1.0  0.1127
  H  H58  1  0.849500  0.681000  0.623400  1.0  0.0962
  H  H59  1  0.168300  0.532100  0.452900  1.0  0.079
  H  H60  1  0.253200  0.474200  0.506900  1.0  0.1127
  H  H61  1  0.349500  0.181000  0.623400  1.0  0.0962
  H  H62  1  0.168300  0.032100  0.952900  1.0  0.079
  H  H63  1  0.253200  0.974200  0.006900  1.0  0.1127
  H  H64  1  0.349500  0.681000  0.123400  1.0  0.0962
  H  H65  1  0.331700  0.782100  0.202900  1.0  0.0788
  H  H66  1  0.246800  0.724200  0.256900  1.0  0.1141
  H  H67  1  0.150500  0.431000  0.373400  1.0  0.0959
  H  H68  1  0.331700  0.282100  0.702900  1.0  0.0788
  H  H69  1  0.246800  0.224200  0.756900  1.0  0.1141
  H  H70  1  0.150500  0.931000  0.873400  1.0  0.0959
  H  H71  1  0.831700  0.782100  0.702900  1.0  0.0788
  H  H72  1  0.746800  0.724200  0.756900  1.0  0.1141
  H  H73  1  0.650500  0.431000  0.873400  1.0  0.0959
  H  H74  1  0.831700  0.282100  0.202900  1.0  0.0788
  H  H75  1  0.746800  0.224200  0.256900  1.0  0.1141
  H  H76  1  0.650500  0.931000  0.373400  1.0  0.0959
  H  H77  1  0.918300  0.467900  0.202900  1.0  0.0789
  H  H78  1  0.003200  0.525800  0.256900  1.0  0.1126
  H  H79  1  0.099500  0.819000  0.373400  1.0  0.0963
  H  H80  1  0.918300  0.967900  0.702900  1.0  0.0789
  H  H81  1  0.003200  0.025800  0.756900  1.0  0.1126
  H  H82  1  0.099500  0.319000  0.873400  1.0  0.0963
  H  H83  1  0.418300  0.467900  0.702900  1.0  0.0789
  H  H84  1  0.503200  0.525800  0.756900  1.0  0.1126
  H  H85  1  0.599500  0.819000  0.873400  1.0  0.0963
  H  H86  1  0.418300  0.967900  0.202900  1.0  0.0789
  H  H87  1  0.503200  0.025800  0.256900  1.0  0.1126
  H  H88  1  0.599500  0.319000  0.373400  1.0  0.0963
  H  H89  1  0.918300  0.782100  0.047100  1.0  0.0791
  H  H90  1  0.003200  0.724200  0.993100  1.0  0.1127
  H  H91  1  0.099500  0.431000  0.876600  1.0  0.0963
  H  H92  1  0.918300  0.282100  0.547100  1.0  0.0791
  H  H93  1  0.003200  0.224200  0.493100  1.0  0.1127
  H  H94  1  0.099500  0.931000  0.376600  1.0  0.0963
  H  H95  1  0.418300  0.782100  0.547100  1.0  0.0791
  H  H96  1  0.503200  0.724200  0.493100  1.0  0.1127
  H  H97  1  0.599500  0.431000  0.376600  1.0  0.0963
  H  H98  1  0.418300  0.282100  0.047100  1.0  0.0791
  H  H99  1  0.503200  0.224200  0.993100  1.0  0.1127
  H  H100  1  0.599500  0.931000  0.876600  1.0  0.0963
  H  H101  1  0.331700  0.467900  0.047100  1.0  0.0786
  H  H102  1  0.246800  0.525800  0.993100  1.0  0.1142
  H  H103  1  0.150500  0.819000  0.876600  1.0  0.0965
  H  H104  1  0.331700  0.967900  0.547100  1.0  0.0786
  H  H105  1  0.246800  0.025800  0.493100  1.0  0.1142
  H  H106  1  0.150500  0.319000  0.376600  1.0  0.0965
  H  H107  1  0.831700  0.467900  0.547100  1.0  0.0786
  H  H108  1  0.746800  0.525800  0.493100  1.0  0.1142
  H  H109  1  0.650500  0.819000  0.376600  1.0  0.0965
  H  H110  1  0.831700  0.967900  0.047100  1.0  0.0786
  H  H111  1  0.746800  0.025800  0.993100  1.0  0.1142
  H  H112  1  0.650500  0.319000  0.876600  1.0  0.0965
  C  C113  1  0.604600  0.320200  0.682370  1.0  0.6891
  C  C114  1  0.548100  0.284100  0.717520  1.0  -0.1562
  C  C115  1  0.599600  0.230900  0.778110  1.0  -0.0251
  C  C116  1  0.651500  0.265500  0.745670  1.0  -0.0748
  C  C117  1  0.758400  0.591300  0.625510  1.0  -0.0661
  C  C118  1  0.604600  0.820200  0.182370  1.0  0.6891
  C  C119  1  0.548100  0.784100  0.217520  1.0  -0.1562
  C  C120  1  0.599600  0.730900  0.278110  1.0  -0.0251
  C  C121  1  0.651500  0.765500  0.245670  1.0  -0.0748
  C  C122  1  0.758400  0.091300  0.125510  1.0  -0.0661
  C  C123  1  0.104600  0.320200  0.182370  1.0  0.6891
  C  C124  1  0.048100  0.284100  0.217520  1.0  -0.1562
  C  C125  1  0.099600  0.230900  0.278110  1.0  -0.0251
  C  C126  1  0.151500  0.265500  0.245670  1.0  -0.0748
  C  C127  1  0.258400  0.591300  0.125510  1.0  -0.0661
  C  C128  1  0.104600  0.820200  0.682370  1.0  0.6891
  C  C129  1  0.048100  0.784100  0.717520  1.0  -0.1562
  C  C130  1  0.099600  0.730900  0.778110  1.0  -0.0251
  C  C131  1  0.151500  0.765500  0.745670  1.0  -0.0748
  C  C132  1  0.258400  0.091300  0.625510  1.0  -0.0661
  C  C133  1  0.145400  0.429800  0.682370  1.0  0.6891
  C  C134  1  0.201900  0.465900  0.717520  1.0  -0.1569
  C  C135  1  0.150400  0.519100  0.778110  1.0  -0.025
  C  C136  1  0.098500  0.484500  0.745670  1.0  -0.0762
  C  C137  1  0.991600  0.158700  0.625510  1.0  -0.0665
  C  C138  1  0.145400  0.929800  0.182370  1.0  0.6891
  C  C139  1  0.201900  0.965900  0.217520  1.0  -0.1569
  C  C140  1  0.150400  0.019100  0.278110  1.0  -0.025
  C  C141  1  0.098500  0.984500  0.245670  1.0  -0.0762
  C  C142  1  0.991600  0.658700  0.125510  1.0  -0.0665
  C  C143  1  0.645400  0.429800  0.182370  1.0  0.6891
  C  C144  1  0.701900  0.465900  0.217520  1.0  -0.1569
  C  C145  1  0.650400  0.519100  0.278110  1.0  -0.025
  C  C146  1  0.598500  0.484500  0.245670  1.0  -0.0762
  C  C147  1  0.491600  0.158700  0.125510  1.0  -0.0665
  C  C148  1  0.645400  0.929800  0.682370  1.0  0.6891
  C  C149  1  0.701900  0.965900  0.717520  1.0  -0.1569
  C  C150  1  0.650400  0.019100  0.778110  1.0  -0.025
  C  C151  1  0.598500  0.984500  0.745670  1.0  -0.0762
  C  C152  1  0.491600  0.658700  0.625510  1.0  -0.0665
  C  C153  1  0.145400  0.320200  0.067630  1.0  0.6891
  C  C154  1  0.201900  0.284100  0.032480  1.0  -0.155
  C  C155  1  0.150400  0.230900  0.971890  1.0  -0.0255
  C  C156  1  0.098500  0.265500  0.004330  1.0  -0.0763
  C  C157  1  0.991600  0.591300  0.124490  1.0  -0.0659
  C  C158  1  0.145400  0.820200  0.567630  1.0  0.6891
  C  C159  1  0.201900  0.784100  0.532480  1.0  -0.155
  C  C160  1  0.150400  0.730900  0.471890  1.0  -0.0255
  C  C161  1  0.098500  0.765500  0.504330  1.0  -0.0763
  C  C162  1  0.991600  0.091300  0.624490  1.0  -0.0659
  C  C163  1  0.645400  0.320200  0.567630  1.0  0.6891
  C  C164  1  0.701900  0.284100  0.532480  1.0  -0.155
  C  C165  1  0.650400  0.230900  0.471890  1.0  -0.0255
  C  C166  1  0.598500  0.265500  0.504330  1.0  -0.0763
  C  C167  1  0.491600  0.591300  0.624490  1.0  -0.0659
  C  C168  1  0.645400  0.820200  0.067630  1.0  0.6891
  C  C169  1  0.701900  0.784100  0.032480  1.0  -0.155
  C  C170  1  0.650400  0.730900  0.971890  1.0  -0.0255
  C  C171  1  0.598500  0.765500  0.004330  1.0  -0.0763
  C  C172  1  0.491600  0.091300  0.124490  1.0  -0.0659
  C  C173  1  0.604600  0.429800  0.067630  1.0  0.6886
  C  C174  1  0.548100  0.465900  0.032480  1.0  -0.1559
  C  C175  1  0.599600  0.519100  0.971890  1.0  -0.0247
  C  C176  1  0.651500  0.484500  0.004330  1.0  -0.0744
  C  C177  1  0.758400  0.158700  0.124490  1.0  -0.0663
  C  C178  1  0.604600  0.929800  0.567630  1.0  0.6886
  C  C179  1  0.548100  0.965900  0.532480  1.0  -0.1559
  C  C180  1  0.599600  0.019100  0.471890  1.0  -0.0247
  C  C181  1  0.651500  0.984500  0.504330  1.0  -0.0744
  C  C182  1  0.758400  0.658700  0.624490  1.0  -0.0663
  C  C183  1  0.104600  0.429800  0.567630  1.0  0.6886
  C  C184  1  0.048100  0.465900  0.532480  1.0  -0.1559
  C  C185  1  0.099600  0.519100  0.471890  1.0  -0.0247
  C  C186  1  0.151500  0.484500  0.504330  1.0  -0.0744
  C  C187  1  0.258400  0.158700  0.624490  1.0  -0.0663
  C  C188  1  0.104600  0.929800  0.067630  1.0  0.6886
  C  C189  1  0.048100  0.965900  0.032480  1.0  -0.1559
  C  C190  1  0.099600  0.019100  0.971890  1.0  -0.0247
  C  C191  1  0.151500  0.984500  0.004330  1.0  -0.0744
  C  C192  1  0.258400  0.658700  0.124490  1.0  -0.0663
  C  C193  1  0.395400  0.679800  0.317630  1.0  0.6889
  C  C194  1  0.451900  0.715900  0.282480  1.0  -0.1552
  C  C195  1  0.400400  0.769100  0.221890  1.0  -0.025
  C  C196  1  0.348500  0.734500  0.254330  1.0  -0.0762
  C  C197  1  0.241600  0.408700  0.374490  1.0  -0.0664
  C  C198  1  0.395400  0.179800  0.817630  1.0  0.6889
  C  C199  1  0.451900  0.215900  0.782480  1.0  -0.1552
  C  C200  1  0.400400  0.269100  0.721890  1.0  -0.025
  C  C201  1  0.348500  0.234500  0.754330  1.0  -0.0762
  C  C202  1  0.241600  0.908700  0.874490  1.0  -0.0664
  C  C203  1  0.895400  0.679800  0.817630  1.0  0.6889
  C  C204  1  0.951900  0.715900  0.782480  1.0  -0.1552
  C  C205  1  0.900400  0.769100  0.721890  1.0  -0.025
  C  C206  1  0.848500  0.734500  0.754330  1.0  -0.0762
  C  C207  1  0.741600  0.408700  0.874490  1.0  -0.0664
  C  C208  1  0.895400  0.179800  0.317630  1.0  0.6889
  C  C209  1  0.951900  0.215900  0.282480  1.0  -0.1552
  C  C210  1  0.900400  0.269100  0.221890  1.0  -0.025
  C  C211  1  0.848500  0.234500  0.254330  1.0  -0.0762
  C  C212  1  0.741600  0.908700  0.374490  1.0  -0.0664
  C  C213  1  0.854600  0.570200  0.317630  1.0  0.689
  C  C214  1  0.798100  0.534100  0.282480  1.0  -0.1558
  C  C215  1  0.849600  0.480900  0.221890  1.0  -0.025
  C  C216  1  0.901500  0.515500  0.254330  1.0  -0.0746
  C  C217  1  0.008400  0.841300  0.374490  1.0  -0.0659
  C  C218  1  0.854600  0.070200  0.817630  1.0  0.689
  C  C219  1  0.798100  0.034100  0.782480  1.0  -0.1558
  C  C220  1  0.849600  0.980900  0.721890  1.0  -0.025
  C  C221  1  0.901500  0.015500  0.754330  1.0  -0.0746
  C  C222  1  0.008400  0.341300  0.874490  1.0  -0.0659
  C  C223  1  0.354600  0.570200  0.817630  1.0  0.689
  C  C224  1  0.298100  0.534100  0.782480  1.0  -0.1558
  C  C225  1  0.349600  0.480900  0.721890  1.0  -0.025
  C  C226  1  0.401500  0.515500  0.754330  1.0  -0.0746
  C  C227  1  0.508400  0.841300  0.874490  1.0  -0.0659
  C  C228  1  0.354600  0.070200  0.317630  1.0  0.689
  C  C229  1  0.298100  0.034100  0.282480  1.0  -0.1558
  C  C230  1  0.349600  0.980900  0.221890  1.0  -0.025
  C  C231  1  0.401500  0.015500  0.254330  1.0  -0.0746
  C  C232  1  0.508400  0.341300  0.374490  1.0  -0.0659
  C  C233  1  0.854600  0.679800  0.932370  1.0  0.6888
  C  C234  1  0.798100  0.715900  0.967520  1.0  -0.1563
  C  C235  1  0.849600  0.769100  0.028110  1.0  -0.025
  C  C236  1  0.901500  0.734500  0.995670  1.0  -0.0746
  C  C237  1  0.008400  0.408700  0.875510  1.0  -0.0665
  C  C238  1  0.854600  0.179800  0.432370  1.0  0.6888
  C  C239  1  0.798100  0.215900  0.467520  1.0  -0.1563
  C  C240  1  0.849600  0.269100  0.528110  1.0  -0.025
  C  C241  1  0.901500  0.234500  0.495670  1.0  -0.0746
  C  C242  1  0.008400  0.908700  0.375510  1.0  -0.0665
  C  C243  1  0.354600  0.679800  0.432370  1.0  0.6888
  C  C244  1  0.298100  0.715900  0.467520  1.0  -0.1563
  C  C245  1  0.349600  0.769100  0.528110  1.0  -0.025
  C  C246  1  0.401500  0.734500  0.495670  1.0  -0.0746
  C  C247  1  0.508400  0.408700  0.375510  1.0  -0.0665
  C  C248  1  0.354600  0.179800  0.932370  1.0  0.6888
  C  C249  1  0.298100  0.215900  0.967520  1.0  -0.1563
  C  C250  1  0.349600  0.269100  0.028110  1.0  -0.025
  C  C251  1  0.401500  0.234500  0.995670  1.0  -0.0746
  C  C252  1  0.508400  0.908700  0.875510  1.0  -0.0665
  C  C253  1  0.395400  0.570200  0.932370  1.0  0.6895
  C  C254  1  0.451900  0.534100  0.967520  1.0  -0.1567
  C  C255  1  0.400400  0.480900  0.028110  1.0  -0.025
  C  C256  1  0.348500  0.515500  0.995670  1.0  -0.0762
  C  C257  1  0.241600  0.841300  0.875510  1.0  -0.066
  C  C258  1  0.395400  0.070200  0.432370  1.0  0.6895
  C  C259  1  0.451900  0.034100  0.467520  1.0  -0.1567
  C  C260  1  0.400400  0.980900  0.528110  1.0  -0.025
  C  C261  1  0.348500  0.015500  0.495670  1.0  -0.0762
  C  C262  1  0.241600  0.341300  0.375510  1.0  -0.066
  C  C263  1  0.895400  0.570200  0.432370  1.0  0.6895
  C  C264  1  0.951900  0.534100  0.467520  1.0  -0.1567
  C  C265  1  0.900400  0.480900  0.528110  1.0  -0.025
  C  C266  1  0.848500  0.515500  0.495670  1.0  -0.0762
  C  C267  1  0.741600  0.841300  0.375510  1.0  -0.066
  C  C268  1  0.895400  0.070200  0.932370  1.0  0.6895
  C  C269  1  0.951900  0.034100  0.967520  1.0  -0.1567
  C  C270  1  0.900400  0.980900  0.028110  1.0  -0.025
  C  C271  1  0.848500  0.015500  0.995670  1.0  -0.0762
  C  C272  1  0.741600  0.341300  0.875510  1.0  -0.066
  C  C273  1  0.625000  0.557900  0.625000  1.0  -0.1111
  C  C274  1  0.625000  0.485800  0.625000  1.0  0.6953
  C  C275  1  0.625000  0.057900  0.125000  1.0  -0.1111
  C  C276  1  0.625000  0.985800  0.125000  1.0  0.6953
  C  C277  1  0.125000  0.192100  0.625000  1.0  -0.1117
  C  C278  1  0.125000  0.264200  0.625000  1.0  0.6971
  C  C279  1  0.125000  0.692100  0.125000  1.0  -0.1117
  C  C280  1  0.125000  0.764200  0.125000  1.0  0.6971
  C  C281  1  0.625000  0.692100  0.625000  1.0  -0.1117
  C  C282  1  0.625000  0.764200  0.625000  1.0  0.6971
  C  C283  1  0.125000  0.557900  0.125000  1.0  -0.1111
  C  C284  1  0.125000  0.485800  0.125000  1.0  0.6953
  C  C285  1  0.125000  0.057900  0.625000  1.0  -0.1111
  C  C286  1  0.125000  0.985800  0.625000  1.0  0.6953
  C  C287  1  0.625000  0.192100  0.125000  1.0  -0.1117
  C  C288  1  0.625000  0.264200  0.125000  1.0  0.6971
  C  C289  1  0.375000  0.442100  0.375000  1.0  -0.1117
  C  C290  1  0.375000  0.514200  0.375000  1.0  0.6971
  C  C291  1  0.375000  0.942100  0.875000  1.0  -0.1117
  C  C292  1  0.375000  0.014200  0.875000  1.0  0.6971
  C  C293  1  0.875000  0.807900  0.375000  1.0  -0.1111
  C  C294  1  0.875000  0.735800  0.375000  1.0  0.6953
  C  C295  1  0.875000  0.307900  0.875000  1.0  -0.1111
  C  C296  1  0.875000  0.235800  0.875000  1.0  0.6953
  C  C297  1  0.875000  0.442100  0.875000  1.0  -0.1117
  C  C298  1  0.875000  0.514200  0.875000  1.0  0.6971
  C  C299  1  0.875000  0.942100  0.375000  1.0  -0.1117
  C  C300  1  0.875000  0.014200  0.375000  1.0  0.6971
  C  C301  1  0.375000  0.807900  0.875000  1.0  -0.1111
  C  C302  1  0.375000  0.735800  0.875000  1.0  0.6953
  C  C303  1  0.375000  0.307900  0.375000  1.0  -0.1111
  C  C304  1  0.375000  0.235800  0.375000  1.0  0.6953
  O  O305  1  0.739100  0.333250  0.679200  1.0  -0.6201
  O  O306  1  0.505500  0.457920  0.615000  1.0  -0.6629
  O  O307  1  0.504300  0.334360  0.657280  1.0  -0.7102
  O  O308  1  0.739100  0.833250  0.179200  1.0  -0.6201
  O  O309  1  0.505500  0.957920  0.115000  1.0  -0.6629
  O  O310  1  0.504300  0.834360  0.157280  1.0  -0.7102
  O  O311  1  0.239100  0.333250  0.179200  1.0  -0.6201
  O  O312  1  0.005500  0.457920  0.115000  1.0  -0.6629
  O  O313  1  0.004300  0.334360  0.157280  1.0  -0.7102
  O  O314  1  0.239100  0.833250  0.679200  1.0  -0.6201
  O  O315  1  0.005500  0.957920  0.615000  1.0  -0.6629
  O  O316  1  0.004300  0.834360  0.657280  1.0  -0.7102
  O  O317  1  0.010900  0.416750  0.679200  1.0  -0.62
  O  O318  1  0.244500  0.292080  0.615000  1.0  -0.6636
  O  O319  1  0.245700  0.415640  0.657280  1.0  -0.7104
  O  O320  1  0.010900  0.916750  0.179200  1.0  -0.62
  O  O321  1  0.244500  0.792080  0.115000  1.0  -0.6636
  O  O322  1  0.245700  0.915640  0.157280  1.0  -0.7104
  O  O323  1  0.510900  0.416750  0.179200  1.0  -0.62
  O  O324  1  0.744500  0.292080  0.115000  1.0  -0.6636
  O  O325  1  0.745700  0.415640  0.157280  1.0  -0.7104
  O  O326  1  0.510900  0.916750  0.679200  1.0  -0.62
  O  O327  1  0.744500  0.792080  0.615000  1.0  -0.6636
  O  O328  1  0.745700  0.915640  0.657280  1.0  -0.7104
  O  O329  1  0.010900  0.333250  0.070800  1.0  -0.6186
  O  O330  1  0.244500  0.457920  0.135000  1.0  -0.6642
  O  O331  1  0.245700  0.334360  0.092720  1.0  -0.7102
  O  O332  1  0.010900  0.833250  0.570800  1.0  -0.6186
  O  O333  1  0.244500  0.957920  0.635000  1.0  -0.6642
  O  O334  1  0.245700  0.834360  0.592720  1.0  -0.7102
  O  O335  1  0.510900  0.333250  0.570800  1.0  -0.6186
  O  O336  1  0.744500  0.457920  0.635000  1.0  -0.6642
  O  O337  1  0.745700  0.334360  0.592720  1.0  -0.7102
  O  O338  1  0.510900  0.833250  0.070800  1.0  -0.6186
  O  O339  1  0.744500  0.957920  0.135000  1.0  -0.6642
  O  O340  1  0.745700  0.834360  0.092720  1.0  -0.7102
  O  O341  1  0.739100  0.416750  0.070800  1.0  -0.6187
  O  O342  1  0.505500  0.292080  0.135000  1.0  -0.6631
  O  O343  1  0.504300  0.415640  0.092720  1.0  -0.7106
  O  O344  1  0.739100  0.916750  0.570800  1.0  -0.6187
  O  O345  1  0.505500  0.792080  0.635000  1.0  -0.6631
  O  O346  1  0.504300  0.915640  0.592720  1.0  -0.7106
  O  O347  1  0.239100  0.416750  0.570800  1.0  -0.6187
  O  O348  1  0.005500  0.292080  0.635000  1.0  -0.6631
  O  O349  1  0.004300  0.415640  0.592720  1.0  -0.7106
  O  O350  1  0.239100  0.916750  0.070800  1.0  -0.6187
  O  O351  1  0.005500  0.792080  0.135000  1.0  -0.6631
  O  O352  1  0.004300  0.915640  0.092720  1.0  -0.7106
  O  O353  1  0.260900  0.666750  0.320800  1.0  -0.6185
  O  O354  1  0.494500  0.542080  0.385000  1.0  -0.6637
  O  O355  1  0.495700  0.665640  0.342720  1.0  -0.7103
  O  O356  1  0.260900  0.166750  0.820800  1.0  -0.6185
  O  O357  1  0.494500  0.042080  0.885000  1.0  -0.6637
  O  O358  1  0.495700  0.165640  0.842720  1.0  -0.7103
  O  O359  1  0.760900  0.666750  0.820800  1.0  -0.6185
  O  O360  1  0.994500  0.542080  0.885000  1.0  -0.6637
  O  O361  1  0.995700  0.665640  0.842720  1.0  -0.7103
  O  O362  1  0.760900  0.166750  0.320800  1.0  -0.6185
  O  O363  1  0.994500  0.042080  0.385000  1.0  -0.6637
  O  O364  1  0.995700  0.165640  0.342720  1.0  -0.7103
  O  O365  1  0.989100  0.583250  0.320800  1.0  -0.6191
  O  O366  1  0.755500  0.707920  0.385000  1.0  -0.6637
  O  O367  1  0.754300  0.584360  0.342720  1.0  -0.7103
  O  O368  1  0.989100  0.083250  0.820800  1.0  -0.6191
  O  O369  1  0.755500  0.207920  0.885000  1.0  -0.6637
  O  O370  1  0.754300  0.084360  0.842720  1.0  -0.7103
  O  O371  1  0.489100  0.583250  0.820800  1.0  -0.6191
  O  O372  1  0.255500  0.707920  0.885000  1.0  -0.6637
  O  O373  1  0.254300  0.584360  0.842720  1.0  -0.7103
  O  O374  1  0.489100  0.083250  0.320800  1.0  -0.6191
  O  O375  1  0.255500  0.207920  0.385000  1.0  -0.6637
  O  O376  1  0.254300  0.084360  0.342720  1.0  -0.7103
  O  O377  1  0.989100  0.666750  0.929200  1.0  -0.6202
  O  O378  1  0.755500  0.542080  0.865000  1.0  -0.6629
  O  O379  1  0.754300  0.665640  0.907280  1.0  -0.7103
  O  O380  1  0.989100  0.166750  0.429200  1.0  -0.6202
  O  O381  1  0.755500  0.042080  0.365000  1.0  -0.6629
  O  O382  1  0.754300  0.165640  0.407280  1.0  -0.7103
  O  O383  1  0.489100  0.666750  0.429200  1.0  -0.6202
  O  O384  1  0.255500  0.542080  0.365000  1.0  -0.6629
  O  O385  1  0.254300  0.665640  0.407280  1.0  -0.7103
  O  O386  1  0.489100  0.166750  0.929200  1.0  -0.6202
  O  O387  1  0.255500  0.042080  0.865000  1.0  -0.6629
  O  O388  1  0.254300  0.165640  0.907280  1.0  -0.7103
  O  O389  1  0.260900  0.583250  0.929200  1.0  -0.6197
  O  O390  1  0.494500  0.707920  0.865000  1.0  -0.6635
  O  O391  1  0.495700  0.584360  0.907280  1.0  -0.7101
  O  O392  1  0.260900  0.083250  0.429200  1.0  -0.6197
  O  O393  1  0.494500  0.207920  0.365000  1.0  -0.6635
  O  O394  1  0.495700  0.084360  0.407280  1.0  -0.7101
  O  O395  1  0.760900  0.583250  0.429200  1.0  -0.6197
  O  O396  1  0.994500  0.707920  0.365000  1.0  -0.6635
  O  O397  1  0.995700  0.584360  0.407280  1.0  -0.7101
  O  O398  1  0.760900  0.083250  0.929200  1.0  -0.6197
  O  O399  1  0.994500  0.207920  0.865000  1.0  -0.6635
  O  O400  1  0.995700  0.084360  0.907280  1.0  -0.7101
