# generated using pymatgen
data_ScH6(C2O)6
_symmetry_space_group_name_H-M   'P 1'
_cell_length_a   8.88700000
_cell_length_b   32.45600000
_cell_length_c   10.65840000
_cell_angle_alpha   90.00000000
_cell_angle_beta   112.05100000
_cell_angle_gamma   90.00000000
_symmetry_Int_Tables_number   1
_chemical_formula_structural   ScH6(C2O)6
_chemical_formula_sum   'Sc8 H48 C96 O48'
_cell_volume   2849.38848107
_cell_formula_units_Z   8
loop_
 _symmetry_equiv_pos_site_id
 _symmetry_equiv_pos_as_xyz
  1  'x, y, z'
loop_
 _atom_site_type_symbol
 _atom_site_label
 _atom_site_symmetry_multiplicity
 _atom_site_fract_x
 _atom_site_fract_y
 _atom_site_fract_z
 _atom_site_occupancy
 _atom_site_charge
  Sc  Sc1  1  0.269900  0.614370  0.255400  1.0  2.0469
  Sc  Sc2  1  0.771900  0.637400  0.255600  1.0  2.0526
  Sc  Sc3  1  0.730100  0.114370  0.244600  1.0  2.0477
  Sc  Sc4  1  0.228100  0.137400  0.244400  1.0  2.0512
  Sc  Sc5  1  0.730100  0.385630  0.744600  1.0  2.0465
  Sc  Sc6  1  0.228100  0.362600  0.744400  1.0  2.0518
  Sc  Sc7  1  0.269900  0.885630  0.755400  1.0  2.0458
  Sc  Sc8  1  0.771900  0.862600  0.755600  1.0  2.0533
  H  H9  1  0.046900  0.613900  0.842500  1.0  0.1021
  H  H10  1  0.919700  0.630400  0.615000  1.0  0.1102
  H  H11  1  0.494700  0.642200  0.663600  1.0  0.1126
  H  H12  1  0.621900  0.625700  0.891000  1.0  0.0929
  H  H13  1  0.964100  0.740900  0.872900  1.0  0.1089
  H  H14  1  0.107900  0.684900  0.994600  1.0  0.0918
  H  H15  1  0.518500  0.730800  0.975300  1.0  0.1058
  H  H16  1  0.374700  0.786900  0.853600  1.0  0.0905
  H  H17  1  0.240900  0.512000  0.465500  1.0  0.1033
  H  H18  1  0.185300  0.445900  0.522900  1.0  0.1097
  H  H19  1  0.717400  0.543500  0.083900  1.0  0.0752
  H  H20  1  0.703100  0.500600  0.902300  1.0  0.1236
  H  H21  1  0.953100  0.113900  0.657500  1.0  0.1029
  H  H22  1  0.080300  0.130400  0.885000  1.0  0.1103
  H  H23  1  0.505300  0.142200  0.836400  1.0  0.1114
  H  H24  1  0.378100  0.125700  0.609000  1.0  0.0931
  H  H25  1  0.035900  0.240900  0.627100  1.0  0.1088
  H  H26  1  0.892100  0.184900  0.505400  1.0  0.0914
  H  H27  1  0.481500  0.230800  0.524700  1.0  0.1059
  H  H28  1  0.625300  0.286900  0.646400  1.0  0.0909
  H  H29  1  0.759100  0.012000  0.034500  1.0  0.1028
  H  H30  1  0.814700  0.945900  0.977100  1.0  0.1092
  H  H31  1  0.282600  0.043500  0.416100  1.0  0.075
  H  H32  1  0.296900  0.000600  0.597700  1.0  0.1234
  H  H33  1  0.953100  0.386100  0.157500  1.0  0.1027
  H  H34  1  0.080300  0.369600  0.385000  1.0  0.1104
  H  H35  1  0.505300  0.357800  0.336400  1.0  0.1113
  H  H36  1  0.378100  0.374300  0.109000  1.0  0.0931
  H  H37  1  0.035900  0.259100  0.127100  1.0  0.1087
  H  H38  1  0.892100  0.315100  0.005400  1.0  0.0908
  H  H39  1  0.481500  0.269200  0.024700  1.0  0.1059
  H  H40  1  0.625300  0.213100  0.146400  1.0  0.091
  H  H41  1  0.759100  0.488000  0.534500  1.0  0.1029
  H  H42  1  0.814700  0.554100  0.477100  1.0  0.1094
  H  H43  1  0.282600  0.456500  0.916100  1.0  0.075
  H  H44  1  0.296900  0.499400  0.097700  1.0  0.1237
  H  H45  1  0.046900  0.886100  0.342500  1.0  0.1022
  H  H46  1  0.919700  0.869600  0.115000  1.0  0.1102
  H  H47  1  0.494700  0.857800  0.163600  1.0  0.1127
  H  H48  1  0.621900  0.874300  0.391000  1.0  0.0928
  H  H49  1  0.964100  0.759100  0.372900  1.0  0.1091
  H  H50  1  0.107900  0.815100  0.494600  1.0  0.0912
  H  H51  1  0.518500  0.769200  0.475300  1.0  0.1059
  H  H52  1  0.374700  0.713100  0.353600  1.0  0.0907
  H  H53  1  0.240900  0.988000  0.965500  1.0  0.1032
  H  H54  1  0.185300  0.054100  0.022900  1.0  0.11
  H  H55  1  0.717400  0.956500  0.583900  1.0  0.0754
  H  H56  1  0.703100  0.999400  0.402300  1.0  0.1237
  C  C57  1  0.440000  0.668800  0.081000  1.0  0.6375
  C  C58  1  0.511000  0.559700  0.202000  1.0  0.6705
  C  C59  1  0.611000  0.645000  0.469000  1.0  0.6968
  C  C60  1  0.936000  0.619600  0.807000  1.0  -0.028
  C  C61  1  0.860000  0.629500  0.670000  1.0  -0.0533
  C  C62  1  0.695000  0.637900  0.616700  1.0  -0.1395
  C  C63  1  0.605000  0.636500  0.699000  1.0  -0.0697
  C  C64  1  0.682000  0.626700  0.836000  1.0  -0.0314
  C  C65  1  0.847000  0.618200  0.889300  1.0  -0.1385
  C  C66  1  0.927000  0.609400  0.037000  1.0  0.6682
  C  C67  1  0.155000  0.769500  0.851000  1.0  -0.1507
  C  C68  1  0.075200  0.738900  0.893000  1.0  -0.0698
  C  C69  1  0.161000  0.705300  0.966000  1.0  -0.0602
  C  C70  1  0.327000  0.702300  0.997000  1.0  -0.1495
  C  C71  1  0.407400  0.732900  0.955000  1.0  -0.0671
  C  C72  1  0.321000  0.766400  0.882000  1.0  -0.0511
  C  C73  1  0.051000  0.806300  0.790000  1.0  0.6918
  C  C74  1  0.505000  0.528900  0.096000  1.0  -0.1274
  C  C75  1  0.030000  0.538600  0.457000  1.0  -0.1639
  C  C76  1  0.144000  0.506800  0.477000  1.0  -0.0792
  C  C77  1  0.070000  0.580500  0.417000  1.0  0.6763
  C  C78  1  0.114000  0.467500  0.516000  1.0  -0.0995
  C  C79  1  0.628000  0.526300  0.046000  1.0  -0.0753
  C  C80  1  0.626000  0.499800  0.942000  1.0  -0.1238
  C  C81  1  0.560000  0.168800  0.419000  1.0  0.6361
  C  C82  1  0.489000  0.059700  0.298000  1.0  0.6712
  C  C83  1  0.389000  0.145000  0.031000  1.0  0.6959
  C  C84  1  0.064000  0.119600  0.693000  1.0  -0.0274
  C  C85  1  0.140000  0.129500  0.830000  1.0  -0.0528
  C  C86  1  0.305000  0.137900  0.883300  1.0  -0.1402
  C  C87  1  0.395000  0.136500  0.801000  1.0  -0.0689
  C  C88  1  0.318000  0.126700  0.664000  1.0  -0.03
  C  C89  1  0.153000  0.118200  0.610700  1.0  -0.1399
  C  C90  1  0.073000  0.109400  0.463000  1.0  0.6678
  C  C91  1  0.845000  0.269500  0.649000  1.0  -0.1515
  C  C92  1  0.924800  0.238900  0.607000  1.0  -0.0691
  C  C93  1  0.839000  0.205300  0.534000  1.0  -0.0616
  C  C94  1  0.673000  0.202300  0.503000  1.0  -0.149
  C  C95  1  0.592600  0.232900  0.545000  1.0  -0.0672
  C  C96  1  0.679000  0.266400  0.618000  1.0  -0.051
  C  C97  1  0.949000  0.306300  0.710000  1.0  0.6917
  C  C98  1  0.495000  0.028900  0.404000  1.0  -0.1296
  C  C99  1  0.970000  0.038600  0.043000  1.0  -0.163
  C  C100  1  0.856000  0.006800  0.023000  1.0  -0.0797
  C  C101  1  0.930000  0.080500  0.083000  1.0  0.6772
  C  C102  1  0.886000  0.967500  0.984000  1.0  -0.1004
  C  C103  1  0.372000  0.026300  0.454000  1.0  -0.0738
  C  C104  1  0.374000  0.999800  0.558000  1.0  -0.1255
  C  C105  1  0.560000  0.331200  0.919000  1.0  0.637
  C  C106  1  0.489000  0.440300  0.798000  1.0  0.6717
  C  C107  1  0.389000  0.355000  0.531000  1.0  0.7096
  C  C108  1  0.064000  0.380400  0.193000  1.0  -0.0284
  C  C109  1  0.140000  0.370500  0.330000  1.0  -0.053
  C  C110  1  0.305000  0.362100  0.383300  1.0  -0.1406
  C  C111  1  0.395000  0.363500  0.301000  1.0  -0.0687
  C  C112  1  0.318000  0.373300  0.164000  1.0  -0.0302
  C  C113  1  0.153000  0.381800  0.110700  1.0  -0.1392
  C  C114  1  0.073000  0.390600  0.963000  1.0  0.6676
  C  C115  1  0.845000  0.230500  0.149000  1.0  -0.1508
  C  C116  1  0.924800  0.261100  0.107000  1.0  -0.0694
  C  C117  1  0.839000  0.294700  0.034000  1.0  -0.0611
  C  C118  1  0.673000  0.297700  0.003000  1.0  -0.1488
  C  C119  1  0.592600  0.267100  0.045000  1.0  -0.0669
  C  C120  1  0.679000  0.233600  0.118000  1.0  -0.0512
  C  C121  1  0.949000  0.193700  0.210000  1.0  0.6915
  C  C122  1  0.495000  0.471100  0.904000  1.0  -0.1283
  C  C123  1  0.970000  0.461400  0.543000  1.0  -0.1629
  C  C124  1  0.856000  0.493200  0.523000  1.0  -0.0787
  C  C125  1  0.930000  0.419500  0.583000  1.0  0.6765
  C  C126  1  0.886000  0.532500  0.484000  1.0  -0.1013
  C  C127  1  0.372000  0.473700  0.954000  1.0  -0.0726
  C  C128  1  0.374000  0.500200  0.058000  1.0  -0.1225
  C  C129  1  0.440000  0.831200  0.581000  1.0  0.6381
  C  C130  1  0.511000  0.940300  0.702000  1.0  0.6706
  C  C131  1  0.611000  0.855000  0.969000  1.0  0.7105
  C  C132  1  0.936000  0.880400  0.307000  1.0  -0.0283
  C  C133  1  0.860000  0.870500  0.170000  1.0  -0.0532
  C  C134  1  0.695000  0.862100  0.116700  1.0  -0.14
  C  C135  1  0.605000  0.863500  0.199000  1.0  -0.0695
  C  C136  1  0.682000  0.873300  0.336000  1.0  -0.0314
  C  C137  1  0.847000  0.881800  0.389300  1.0  -0.1382
  C  C138  1  0.927000  0.890600  0.537000  1.0  0.6675
  C  C139  1  0.155000  0.730500  0.351000  1.0  -0.1505
  C  C140  1  0.075200  0.761100  0.393000  1.0  -0.0706
  C  C141  1  0.161000  0.794700  0.466000  1.0  -0.0601
  C  C142  1  0.327000  0.797700  0.497000  1.0  -0.1499
  C  C143  1  0.407400  0.767100  0.455000  1.0  -0.0668
  C  C144  1  0.321000  0.733600  0.382000  1.0  -0.0513
  C  C145  1  0.051000  0.693700  0.290000  1.0  0.6917
  C  C146  1  0.505000  0.971100  0.596000  1.0  -0.1267
  C  C147  1  0.030000  0.961400  0.957000  1.0  -0.1637
  C  C148  1  0.144000  0.993200  0.977000  1.0  -0.0786
  C  C149  1  0.070000  0.919500  0.917000  1.0  0.676
  C  C150  1  0.114000  0.032500  0.016000  1.0  -0.1009
  C  C151  1  0.628000  0.973700  0.546000  1.0  -0.0732
  C  C152  1  0.626000  0.000200  0.442000  1.0  -0.1208
  O  O153  1  0.360000  0.643300  0.128000  1.0  -0.7116
  O  O154  1  0.399000  0.564100  0.239000  1.0  -0.5814
  O  O155  1  0.457000  0.639200  0.423000  1.0  -0.6552
  O  O156  1  0.635000  0.584400  0.238000  1.0  -0.6637
  O  O157  1  0.918000  0.811100  0.788000  1.0  -0.582
  O  O158  1  0.182000  0.584400  0.381000  1.0  -0.6003
  O  O159  1  0.576000  0.667600  0.104000  1.0  -0.6192
  O  O160  1  0.959000  0.607800  0.404000  1.0  -0.6555
  O  O161  1  0.843000  0.613200  0.114000  1.0  -0.6626
  O  O162  1  0.133000  0.834800  0.756000  1.0  -0.6976
  O  O163  1  0.690000  0.657400  0.400000  1.0  -0.6575
  O  O164  1  0.073000  0.597000  0.079000  1.0  -0.6087
  O  O165  1  0.640000  0.143300  0.372000  1.0  -0.7113
  O  O166  1  0.601000  0.064100  0.261000  1.0  -0.5801
  O  O167  1  0.543000  0.139200  0.077000  1.0  -0.6553
  O  O168  1  0.365000  0.084400  0.262000  1.0  -0.664
  O  O169  1  0.082000  0.311100  0.712000  1.0  -0.5827
  O  O170  1  0.818000  0.084400  0.119000  1.0  -0.6003
  O  O171  1  0.424000  0.167600  0.396000  1.0  -0.6208
  O  O172  1  0.041000  0.107800  0.096000  1.0  -0.6555
  O  O173  1  0.157000  0.113200  0.386000  1.0  -0.6624
  O  O174  1  0.867000  0.334800  0.744000  1.0  -0.6988
  O  O175  1  0.310000  0.157400  0.100000  1.0  -0.659
  O  O176  1  0.927000  0.097000  0.421000  1.0  -0.6096
  O  O177  1  0.640000  0.356700  0.872000  1.0  -0.711
  O  O178  1  0.601000  0.435900  0.761000  1.0  -0.5798
  O  O179  1  0.543000  0.360800  0.577000  1.0  -0.6551
  O  O180  1  0.365000  0.415600  0.762000  1.0  -0.6646
  O  O181  1  0.082000  0.188900  0.212000  1.0  -0.5819
  O  O182  1  0.818000  0.415600  0.619000  1.0  -0.6006
  O  O183  1  0.424000  0.332400  0.896000  1.0  -0.6205
  O  O184  1  0.041000  0.392200  0.596000  1.0  -0.655
  O  O185  1  0.157000  0.386800  0.886000  1.0  -0.6625
  O  O186  1  0.867000  0.165200  0.244000  1.0  -0.6992
  O  O187  1  0.310000  0.342600  0.600000  1.0  -0.6554
  O  O188  1  0.927000  0.403000  0.921000  1.0  -0.6093
  O  O189  1  0.360000  0.856700  0.628000  1.0  -0.7114
  O  O190  1  0.399000  0.935900  0.739000  1.0  -0.5809
  O  O191  1  0.457000  0.860800  0.923000  1.0  -0.6554
  O  O192  1  0.635000  0.915600  0.738000  1.0  -0.6645
  O  O193  1  0.918000  0.688900  0.288000  1.0  -0.5814
  O  O194  1  0.182000  0.915600  0.881000  1.0  -0.6003
  O  O195  1  0.576000  0.832400  0.604000  1.0  -0.6193
  O  O196  1  0.959000  0.892200  0.904000  1.0  -0.6546
  O  O197  1  0.843000  0.886800  0.614000  1.0  -0.6626
  O  O198  1  0.133000  0.665200  0.256000  1.0  -0.6983
  O  O199  1  0.690000  0.842600  0.900000  1.0  -0.6546
  O  O200  1  0.073000  0.903000  0.579000  1.0  -0.6085
