# generated using pymatgen
data_ScH6(C2O)6
_symmetry_space_group_name_H-M   'P 1'
_cell_length_a   8.88220000
_cell_length_b   20.58610000
_cell_length_c   33.92200000
_cell_angle_alpha   90.00000000
_cell_angle_beta   90.00000000
_cell_angle_gamma   90.00000000
_symmetry_Int_Tables_number   1
_chemical_formula_structural   ScH6(C2O)6
_chemical_formula_sum   'Sc16 H96 C192 O96'
_cell_volume   6202.63286340
_cell_formula_units_Z   16
loop_
 _symmetry_equiv_pos_site_id
 _symmetry_equiv_pos_as_xyz
  1  'x, y, z'
loop_
 _atom_site_type_symbol
 _atom_site_label
 _atom_site_symmetry_multiplicity
 _atom_site_fract_x
 _atom_site_fract_y
 _atom_site_fract_z
 _atom_site_occupancy
 _atom_site_charge
  Sc  Sc1  1  0.375000  0.375000  0.614080  1.0  2.0355
  Sc  Sc2  1  0.375000  0.875000  0.114080  1.0  2.0355
  Sc  Sc3  1  0.875000  0.375000  0.114080  1.0  2.0355
  Sc  Sc4  1  0.875000  0.875000  0.614080  1.0  2.0355
  Sc  Sc5  1  0.375000  0.375000  0.135920  1.0  2.0381
  Sc  Sc6  1  0.375000  0.875000  0.635920  1.0  2.0381
  Sc  Sc7  1  0.875000  0.375000  0.635920  1.0  2.0381
  Sc  Sc8  1  0.875000  0.875000  0.135920  1.0  2.0381
  Sc  Sc9  1  0.625000  0.625000  0.385920  1.0  2.0381
  Sc  Sc10  1  0.625000  0.125000  0.885920  1.0  2.0381
  Sc  Sc11  1  0.125000  0.625000  0.885920  1.0  2.0381
  Sc  Sc12  1  0.125000  0.125000  0.385920  1.0  2.0381
  Sc  Sc13  1  0.625000  0.625000  0.864080  1.0  2.0355
  Sc  Sc14  1  0.625000  0.125000  0.364080  1.0  2.0355
  Sc  Sc15  1  0.125000  0.625000  0.364080  1.0  2.0355
  Sc  Sc16  1  0.125000  0.125000  0.864080  1.0  2.0355
  H  H17  1  0.667500  0.221200  0.798700  1.0  0.0813
  H  H18  1  0.750100  0.281200  0.744900  1.0  0.1141
  H  H19  1  0.849900  0.567500  0.626300  1.0  0.1064
  H  H20  1  0.667500  0.721200  0.298700  1.0  0.0813
  H  H21  1  0.750100  0.781200  0.244900  1.0  0.1141
  H  H22  1  0.849900  0.067500  0.126300  1.0  0.1064
  H  H23  1  0.167500  0.221200  0.298700  1.0  0.0813
  H  H24  1  0.250100  0.281200  0.244900  1.0  0.1141
  H  H25  1  0.349900  0.567500  0.126300  1.0  0.1064
  H  H26  1  0.167500  0.721200  0.798700  1.0  0.0813
  H  H27  1  0.250100  0.781200  0.744900  1.0  0.1141
  H  H28  1  0.349900  0.067500  0.626300  1.0  0.1064
  H  H29  1  0.082500  0.528800  0.798700  1.0  0.0813
  H  H30  1  0.999900  0.468800  0.744900  1.0  0.1156
  H  H31  1  0.900100  0.182500  0.626300  1.0  0.1056
  H  H32  1  0.082500  0.028800  0.298700  1.0  0.0813
  H  H33  1  0.999900  0.968800  0.244900  1.0  0.1156
  H  H34  1  0.900100  0.682500  0.126300  1.0  0.1056
  H  H35  1  0.582500  0.528800  0.298700  1.0  0.0813
  H  H36  1  0.499900  0.468800  0.244900  1.0  0.1156
  H  H37  1  0.400100  0.182500  0.126300  1.0  0.1056
  H  H38  1  0.582500  0.028800  0.798700  1.0  0.0813
  H  H39  1  0.499900  0.968800  0.744900  1.0  0.1156
  H  H40  1  0.400100  0.682500  0.626300  1.0  0.1056
  H  H41  1  0.082500  0.221200  0.951300  1.0  0.0813
  H  H42  1  0.999900  0.281200  0.005100  1.0  0.1154
  H  H43  1  0.900100  0.567500  0.123700  1.0  0.1061
  H  H44  1  0.082500  0.721200  0.451300  1.0  0.0813
  H  H45  1  0.999900  0.781200  0.505100  1.0  0.1154
  H  H46  1  0.900100  0.067500  0.623700  1.0  0.1061
  H  H47  1  0.582500  0.221200  0.451300  1.0  0.0813
  H  H48  1  0.499900  0.281200  0.505100  1.0  0.1154
  H  H49  1  0.400100  0.567500  0.623700  1.0  0.1061
  H  H50  1  0.582500  0.721200  0.951300  1.0  0.0813
  H  H51  1  0.499900  0.781200  0.005100  1.0  0.1154
  H  H52  1  0.400100  0.067500  0.123700  1.0  0.1061
  H  H53  1  0.667500  0.528800  0.951300  1.0  0.0812
  H  H54  1  0.750100  0.468800  0.005100  1.0  0.1141
  H  H55  1  0.849900  0.182500  0.123700  1.0  0.1063
  H  H56  1  0.667500  0.028800  0.451300  1.0  0.0812
  H  H57  1  0.750100  0.968800  0.505100  1.0  0.1141
  H  H58  1  0.849900  0.682500  0.623700  1.0  0.1063
  H  H59  1  0.167500  0.528800  0.451300  1.0  0.0812
  H  H60  1  0.250100  0.468800  0.505100  1.0  0.1141
  H  H61  1  0.349900  0.182500  0.623700  1.0  0.1063
  H  H62  1  0.167500  0.028800  0.951300  1.0  0.0812
  H  H63  1  0.250100  0.968800  0.005100  1.0  0.1141
  H  H64  1  0.349900  0.682500  0.123700  1.0  0.1063
  H  H65  1  0.332500  0.778800  0.201300  1.0  0.0812
  H  H66  1  0.249900  0.718800  0.255100  1.0  0.1155
  H  H67  1  0.150100  0.432500  0.373700  1.0  0.1057
  H  H68  1  0.332500  0.278800  0.701300  1.0  0.0812
  H  H69  1  0.249900  0.218800  0.755100  1.0  0.1155
  H  H70  1  0.150100  0.932500  0.873700  1.0  0.1057
  H  H71  1  0.832500  0.778800  0.701300  1.0  0.0812
  H  H72  1  0.749900  0.718800  0.755100  1.0  0.1155
  H  H73  1  0.650100  0.432500  0.873700  1.0  0.1057
  H  H74  1  0.832500  0.278800  0.201300  1.0  0.0812
  H  H75  1  0.749900  0.218800  0.255100  1.0  0.1155
  H  H76  1  0.650100  0.932500  0.373700  1.0  0.1057
  H  H77  1  0.917500  0.471200  0.201300  1.0  0.0812
  H  H78  1  0.000100  0.531200  0.255100  1.0  0.1141
  H  H79  1  0.099900  0.817500  0.373700  1.0  0.1065
  H  H80  1  0.917500  0.971200  0.701300  1.0  0.0812
  H  H81  1  0.000100  0.031200  0.755100  1.0  0.1141
  H  H82  1  0.099900  0.317500  0.873700  1.0  0.1065
  H  H83  1  0.417500  0.471200  0.701300  1.0  0.0812
  H  H84  1  0.500100  0.531200  0.755100  1.0  0.1141
  H  H85  1  0.599900  0.817500  0.873700  1.0  0.1065
  H  H86  1  0.417500  0.971200  0.201300  1.0  0.0812
  H  H87  1  0.500100  0.031200  0.255100  1.0  0.1141
  H  H88  1  0.599900  0.317500  0.373700  1.0  0.1065
  H  H89  1  0.917500  0.778800  0.048700  1.0  0.0815
  H  H90  1  0.000100  0.718800  0.994900  1.0  0.1143
  H  H91  1  0.099900  0.432500  0.876300  1.0  0.1061
  H  H92  1  0.917500  0.278800  0.548700  1.0  0.0815
  H  H93  1  0.000100  0.218800  0.494900  1.0  0.1143
  H  H94  1  0.099900  0.932500  0.376300  1.0  0.1061
  H  H95  1  0.417500  0.778800  0.548700  1.0  0.0815
  H  H96  1  0.500100  0.718800  0.494900  1.0  0.1143
  H  H97  1  0.599900  0.432500  0.376300  1.0  0.1061
  H  H98  1  0.417500  0.278800  0.048700  1.0  0.0815
  H  H99  1  0.500100  0.218800  0.994900  1.0  0.1143
  H  H100  1  0.599900  0.932500  0.876300  1.0  0.1061
  H  H101  1  0.332500  0.471200  0.048700  1.0  0.0813
  H  H102  1  0.249900  0.531200  0.994900  1.0  0.1154
  H  H103  1  0.150100  0.817500  0.876300  1.0  0.1061
  H  H104  1  0.332500  0.971200  0.548700  1.0  0.0813
  H  H105  1  0.249900  0.031200  0.494900  1.0  0.1154
  H  H106  1  0.150100  0.317500  0.376300  1.0  0.1061
  H  H107  1  0.832500  0.471200  0.548700  1.0  0.0813
  H  H108  1  0.749900  0.531200  0.494900  1.0  0.1154
  H  H109  1  0.650100  0.817500  0.376300  1.0  0.1061
  H  H110  1  0.832500  0.971200  0.048700  1.0  0.0813
  H  H111  1  0.749900  0.031200  0.994900  1.0  0.1154
  H  H112  1  0.650100  0.317500  0.876300  1.0  0.1061
  C  C113  1  0.606300  0.320800  0.682230  1.0  0.6887
  C  C114  1  0.547300  0.285300  0.717600  1.0  -0.1395
  C  C115  1  0.599500  0.232900  0.779100  1.0  -0.0367
  C  C116  1  0.649800  0.268700  0.746800  1.0  -0.0756
  C  C117  1  0.759900  0.590500  0.625400  1.0  -0.0531
  C  C118  1  0.606300  0.820800  0.182230  1.0  0.6887
  C  C119  1  0.547300  0.785300  0.217600  1.0  -0.1395
  C  C120  1  0.599500  0.732900  0.279100  1.0  -0.0367
  C  C121  1  0.649800  0.768700  0.246800  1.0  -0.0756
  C  C122  1  0.759900  0.090500  0.125400  1.0  -0.0531
  C  C123  1  0.106300  0.320800  0.182230  1.0  0.6887
  C  C124  1  0.047300  0.285300  0.217600  1.0  -0.1395
  C  C125  1  0.099500  0.232900  0.279100  1.0  -0.0367
  C  C126  1  0.149800  0.268700  0.246800  1.0  -0.0756
  C  C127  1  0.259900  0.590500  0.125400  1.0  -0.0531
  C  C128  1  0.106300  0.820800  0.682230  1.0  0.6887
  C  C129  1  0.047300  0.785300  0.717600  1.0  -0.1395
  C  C130  1  0.099500  0.732900  0.779100  1.0  -0.0367
  C  C131  1  0.149800  0.768700  0.746800  1.0  -0.0756
  C  C132  1  0.259900  0.090500  0.625400  1.0  -0.0531
  C  C133  1  0.143700  0.429200  0.682230  1.0  0.6881
  C  C134  1  0.202700  0.464700  0.717600  1.0  -0.1399
  C  C135  1  0.150500  0.517100  0.779100  1.0  -0.0372
  C  C136  1  0.100200  0.481300  0.746800  1.0  -0.0774
  C  C137  1  0.990100  0.159500  0.625400  1.0  -0.0531
  C  C138  1  0.143700  0.929200  0.182230  1.0  0.6881
  C  C139  1  0.202700  0.964700  0.217600  1.0  -0.1399
  C  C140  1  0.150500  0.017100  0.279100  1.0  -0.0372
  C  C141  1  0.100200  0.981300  0.246800  1.0  -0.0774
  C  C142  1  0.990100  0.659500  0.125400  1.0  -0.0531
  C  C143  1  0.643700  0.429200  0.182230  1.0  0.6881
  C  C144  1  0.702700  0.464700  0.217600  1.0  -0.1399
  C  C145  1  0.650500  0.517100  0.279100  1.0  -0.0372
  C  C146  1  0.600200  0.481300  0.246800  1.0  -0.0774
  C  C147  1  0.490100  0.159500  0.125400  1.0  -0.0531
  C  C148  1  0.643700  0.929200  0.682230  1.0  0.6881
  C  C149  1  0.702700  0.964700  0.717600  1.0  -0.1399
  C  C150  1  0.650500  0.017100  0.779100  1.0  -0.0372
  C  C151  1  0.600200  0.981300  0.746800  1.0  -0.0774
  C  C152  1  0.490100  0.659500  0.625400  1.0  -0.0531
  C  C153  1  0.143700  0.320800  0.067770  1.0  0.69
  C  C154  1  0.202700  0.285300  0.032400  1.0  -0.1393
  C  C155  1  0.150500  0.232900  0.970900  1.0  -0.0379
  C  C156  1  0.100200  0.268700  0.003200  1.0  -0.0776
  C  C157  1  0.990100  0.590500  0.124600  1.0  -0.0529
  C  C158  1  0.143700  0.820800  0.567770  1.0  0.69
  C  C159  1  0.202700  0.785300  0.532400  1.0  -0.1393
  C  C160  1  0.150500  0.732900  0.470900  1.0  -0.0379
  C  C161  1  0.100200  0.768700  0.503200  1.0  -0.0776
  C  C162  1  0.990100  0.090500  0.624600  1.0  -0.0529
  C  C163  1  0.643700  0.320800  0.567770  1.0  0.69
  C  C164  1  0.702700  0.285300  0.532400  1.0  -0.1393
  C  C165  1  0.650500  0.232900  0.470900  1.0  -0.0379
  C  C166  1  0.600200  0.268700  0.503200  1.0  -0.0776
  C  C167  1  0.490100  0.590500  0.624600  1.0  -0.0529
  C  C168  1  0.643700  0.820800  0.067770  1.0  0.69
  C  C169  1  0.702700  0.785300  0.032400  1.0  -0.1393
  C  C170  1  0.650500  0.732900  0.970900  1.0  -0.0379
  C  C171  1  0.600200  0.768700  0.003200  1.0  -0.0776
  C  C172  1  0.490100  0.090500  0.124600  1.0  -0.0529
  C  C173  1  0.606300  0.429200  0.067770  1.0  0.6893
  C  C174  1  0.547300  0.464700  0.032400  1.0  -0.1391
  C  C175  1  0.599500  0.517100  0.970900  1.0  -0.0373
  C  C176  1  0.649800  0.481300  0.003200  1.0  -0.0752
  C  C177  1  0.759900  0.159500  0.124600  1.0  -0.0529
  C  C178  1  0.606300  0.929200  0.567770  1.0  0.6893
  C  C179  1  0.547300  0.964700  0.532400  1.0  -0.1391
  C  C180  1  0.599500  0.017100  0.470900  1.0  -0.0373
  C  C181  1  0.649800  0.981300  0.503200  1.0  -0.0752
  C  C182  1  0.759900  0.659500  0.624600  1.0  -0.0529
  C  C183  1  0.106300  0.429200  0.567770  1.0  0.6893
  C  C184  1  0.047300  0.464700  0.532400  1.0  -0.1391
  C  C185  1  0.099500  0.517100  0.470900  1.0  -0.0373
  C  C186  1  0.149800  0.481300  0.503200  1.0  -0.0752
  C  C187  1  0.259900  0.159500  0.624600  1.0  -0.0529
  C  C188  1  0.106300  0.929200  0.067770  1.0  0.6893
  C  C189  1  0.047300  0.964700  0.032400  1.0  -0.1391
  C  C190  1  0.099500  0.017100  0.970900  1.0  -0.0373
  C  C191  1  0.149800  0.981300  0.003200  1.0  -0.0752
  C  C192  1  0.259900  0.659500  0.124600  1.0  -0.0529
  C  C193  1  0.393700  0.679200  0.317770  1.0  0.6897
  C  C194  1  0.452700  0.714700  0.282400  1.0  -0.1389
  C  C195  1  0.400500  0.767100  0.220900  1.0  -0.0375
  C  C196  1  0.350200  0.731300  0.253200  1.0  -0.0776
  C  C197  1  0.240100  0.409500  0.374600  1.0  -0.053
  C  C198  1  0.393700  0.179200  0.817770  1.0  0.6897
  C  C199  1  0.452700  0.214700  0.782400  1.0  -0.1389
  C  C200  1  0.400500  0.267100  0.720900  1.0  -0.0375
  C  C201  1  0.350200  0.231300  0.753200  1.0  -0.0776
  C  C202  1  0.240100  0.909500  0.874600  1.0  -0.053
  C  C203  1  0.893700  0.679200  0.817770  1.0  0.6897
  C  C204  1  0.952700  0.714700  0.782400  1.0  -0.1389
  C  C205  1  0.900500  0.767100  0.720900  1.0  -0.0375
  C  C206  1  0.850200  0.731300  0.753200  1.0  -0.0776
  C  C207  1  0.740100  0.409500  0.874600  1.0  -0.053
  C  C208  1  0.893700  0.179200  0.317770  1.0  0.6897
  C  C209  1  0.952700  0.214700  0.282400  1.0  -0.1389
  C  C210  1  0.900500  0.267100  0.220900  1.0  -0.0375
  C  C211  1  0.850200  0.231300  0.253200  1.0  -0.0776
  C  C212  1  0.740100  0.909500  0.374600  1.0  -0.053
  C  C213  1  0.856300  0.570800  0.317770  1.0  0.6901
  C  C214  1  0.797300  0.535300  0.282400  1.0  -0.1395
  C  C215  1  0.849500  0.482900  0.220900  1.0  -0.0372
  C  C216  1  0.899800  0.518700  0.253200  1.0  -0.0756
  C  C217  1  0.009900  0.840500  0.374600  1.0  -0.0529
  C  C218  1  0.856300  0.070800  0.817770  1.0  0.6901
  C  C219  1  0.797300  0.035300  0.782400  1.0  -0.1395
  C  C220  1  0.849500  0.982900  0.720900  1.0  -0.0372
  C  C221  1  0.899800  0.018700  0.753200  1.0  -0.0756
  C  C222  1  0.009900  0.340500  0.874600  1.0  -0.0529
  C  C223  1  0.356300  0.570800  0.817770  1.0  0.6901
  C  C224  1  0.297300  0.535300  0.782400  1.0  -0.1395
  C  C225  1  0.349500  0.482900  0.720900  1.0  -0.0372
  C  C226  1  0.399800  0.518700  0.753200  1.0  -0.0756
  C  C227  1  0.509900  0.840500  0.874600  1.0  -0.0529
  C  C228  1  0.356300  0.070800  0.317770  1.0  0.6901
  C  C229  1  0.297300  0.035300  0.282400  1.0  -0.1395
  C  C230  1  0.349500  0.982900  0.220900  1.0  -0.0372
  C  C231  1  0.399800  0.018700  0.253200  1.0  -0.0756
  C  C232  1  0.509900  0.340500  0.374600  1.0  -0.0529
  C  C233  1  0.856300  0.679200  0.932230  1.0  0.6883
  C  C234  1  0.797300  0.714700  0.967600  1.0  -0.1391
  C  C235  1  0.849500  0.767100  0.029100  1.0  -0.0371
  C  C236  1  0.899800  0.731300  0.996800  1.0  -0.0753
  C  C237  1  0.009900  0.409500  0.875400  1.0  -0.0529
  C  C238  1  0.856300  0.179200  0.432230  1.0  0.6883
  C  C239  1  0.797300  0.214700  0.467600  1.0  -0.1391
  C  C240  1  0.849500  0.267100  0.529100  1.0  -0.0371
  C  C241  1  0.899800  0.231300  0.496800  1.0  -0.0753
  C  C242  1  0.009900  0.909500  0.375400  1.0  -0.0529
  C  C243  1  0.356300  0.679200  0.432230  1.0  0.6883
  C  C244  1  0.297300  0.714700  0.467600  1.0  -0.1391
  C  C245  1  0.349500  0.767100  0.529100  1.0  -0.0371
  C  C246  1  0.399800  0.731300  0.496800  1.0  -0.0753
  C  C247  1  0.509900  0.409500  0.375400  1.0  -0.0529
  C  C248  1  0.356300  0.179200  0.932230  1.0  0.6883
  C  C249  1  0.297300  0.214700  0.967600  1.0  -0.1391
  C  C250  1  0.349500  0.267100  0.029100  1.0  -0.0371
  C  C251  1  0.399800  0.231300  0.996800  1.0  -0.0753
  C  C252  1  0.509900  0.909500  0.875400  1.0  -0.0529
  C  C253  1  0.393700  0.570800  0.932230  1.0  0.6889
  C  C254  1  0.452700  0.535300  0.967600  1.0  -0.1403
  C  C255  1  0.400500  0.482900  0.029100  1.0  -0.0371
  C  C256  1  0.350200  0.518700  0.996800  1.0  -0.0774
  C  C257  1  0.240100  0.840500  0.875400  1.0  -0.0531
  C  C258  1  0.393700  0.070800  0.432230  1.0  0.6889
  C  C259  1  0.452700  0.035300  0.467600  1.0  -0.1403
  C  C260  1  0.400500  0.982900  0.529100  1.0  -0.0371
  C  C261  1  0.350200  0.018700  0.496800  1.0  -0.0774
  C  C262  1  0.240100  0.340500  0.375400  1.0  -0.0531
  C  C263  1  0.893700  0.570800  0.432230  1.0  0.6889
  C  C264  1  0.952700  0.535300  0.467600  1.0  -0.1403
  C  C265  1  0.900500  0.482900  0.529100  1.0  -0.0371
  C  C266  1  0.850200  0.518700  0.496800  1.0  -0.0774
  C  C267  1  0.740100  0.840500  0.375400  1.0  -0.0531
  C  C268  1  0.893700  0.070800  0.932230  1.0  0.6889
  C  C269  1  0.952700  0.035300  0.967600  1.0  -0.1403
  C  C270  1  0.900500  0.982900  0.029100  1.0  -0.0371
  C  C271  1  0.850200  0.018700  0.996800  1.0  -0.0774
  C  C272  1  0.740100  0.340500  0.875400  1.0  -0.0531
  C  C273  1  0.625000  0.558700  0.625000  1.0  -0.0999
  C  C274  1  0.625000  0.485100  0.625000  1.0  0.6755
  C  C275  1  0.625000  0.058700  0.125000  1.0  -0.0999
  C  C276  1  0.625000  0.985100  0.125000  1.0  0.6755
  C  C277  1  0.125000  0.191300  0.625000  1.0  -0.1002
  C  C278  1  0.125000  0.264900  0.625000  1.0  0.6764
  C  C279  1  0.125000  0.691300  0.125000  1.0  -0.1002
  C  C280  1  0.125000  0.764900  0.125000  1.0  0.6764
  C  C281  1  0.625000  0.691300  0.625000  1.0  -0.1002
  C  C282  1  0.625000  0.764900  0.625000  1.0  0.6764
  C  C283  1  0.125000  0.558700  0.125000  1.0  -0.0999
  C  C284  1  0.125000  0.485100  0.125000  1.0  0.6755
  C  C285  1  0.125000  0.058700  0.625000  1.0  -0.0999
  C  C286  1  0.125000  0.985100  0.625000  1.0  0.6755
  C  C287  1  0.625000  0.191300  0.125000  1.0  -0.1002
  C  C288  1  0.625000  0.264900  0.125000  1.0  0.6764
  C  C289  1  0.375000  0.441300  0.375000  1.0  -0.1002
  C  C290  1  0.375000  0.514900  0.375000  1.0  0.6764
  C  C291  1  0.375000  0.941300  0.875000  1.0  -0.1002
  C  C292  1  0.375000  0.014900  0.875000  1.0  0.6764
  C  C293  1  0.875000  0.808700  0.375000  1.0  -0.0999
  C  C294  1  0.875000  0.735100  0.375000  1.0  0.6755
  C  C295  1  0.875000  0.308700  0.875000  1.0  -0.0999
  C  C296  1  0.875000  0.235100  0.875000  1.0  0.6755
  C  C297  1  0.875000  0.441300  0.875000  1.0  -0.1002
  C  C298  1  0.875000  0.514900  0.875000  1.0  0.6764
  C  C299  1  0.875000  0.941300  0.375000  1.0  -0.1002
  C  C300  1  0.875000  0.014900  0.375000  1.0  0.6764
  C  C301  1  0.375000  0.808700  0.875000  1.0  -0.0999
  C  C302  1  0.375000  0.735100  0.875000  1.0  0.6755
  C  C303  1  0.375000  0.308700  0.375000  1.0  -0.0999
  C  C304  1  0.375000  0.235100  0.375000  1.0  0.6755
  O  O305  1  0.740300  0.333700  0.679510  1.0  -0.5978
  O  O306  1  0.505400  0.457500  0.614930  1.0  -0.6746
  O  O307  1  0.505900  0.335000  0.656660  1.0  -0.7192
  O  O308  1  0.740300  0.833700  0.179510  1.0  -0.5978
  O  O309  1  0.505400  0.957500  0.114930  1.0  -0.6746
  O  O310  1  0.505900  0.835000  0.156660  1.0  -0.7192
  O  O311  1  0.240300  0.333700  0.179510  1.0  -0.5978
  O  O312  1  0.005400  0.457500  0.114930  1.0  -0.6746
  O  O313  1  0.005900  0.335000  0.156660  1.0  -0.7192
  O  O314  1  0.240300  0.833700  0.679510  1.0  -0.5978
  O  O315  1  0.005400  0.957500  0.614930  1.0  -0.6746
  O  O316  1  0.005900  0.835000  0.656660  1.0  -0.7192
  O  O317  1  0.009700  0.416300  0.679510  1.0  -0.5972
  O  O318  1  0.244600  0.292500  0.614930  1.0  -0.6769
  O  O319  1  0.244100  0.415000  0.656660  1.0  -0.7189
  O  O320  1  0.009700  0.916300  0.179510  1.0  -0.5972
  O  O321  1  0.244600  0.792500  0.114930  1.0  -0.6769
  O  O322  1  0.244100  0.915000  0.156660  1.0  -0.7189
  O  O323  1  0.509700  0.416300  0.179510  1.0  -0.5972
  O  O324  1  0.744600  0.292500  0.114930  1.0  -0.6769
  O  O325  1  0.744100  0.415000  0.156660  1.0  -0.7189
  O  O326  1  0.509700  0.916300  0.679510  1.0  -0.5972
  O  O327  1  0.744600  0.792500  0.614930  1.0  -0.6769
  O  O328  1  0.744100  0.915000  0.656660  1.0  -0.7189
  O  O329  1  0.009700  0.333700  0.070490  1.0  -0.5956
  O  O330  1  0.244600  0.457500  0.135070  1.0  -0.677
  O  O331  1  0.244100  0.335000  0.093340  1.0  -0.7183
  O  O332  1  0.009700  0.833700  0.570490  1.0  -0.5956
  O  O333  1  0.244600  0.957500  0.635070  1.0  -0.677
  O  O334  1  0.244100  0.835000  0.593340  1.0  -0.7183
  O  O335  1  0.509700  0.333700  0.570490  1.0  -0.5956
  O  O336  1  0.744600  0.457500  0.635070  1.0  -0.677
  O  O337  1  0.744100  0.335000  0.593340  1.0  -0.7183
  O  O338  1  0.509700  0.833700  0.070490  1.0  -0.5956
  O  O339  1  0.744600  0.957500  0.135070  1.0  -0.677
  O  O340  1  0.744100  0.835000  0.093340  1.0  -0.7183
  O  O341  1  0.740300  0.416300  0.070490  1.0  -0.597
  O  O342  1  0.505400  0.292500  0.135070  1.0  -0.6747
  O  O343  1  0.505900  0.415000  0.093340  1.0  -0.7191
  O  O344  1  0.740300  0.916300  0.570490  1.0  -0.597
  O  O345  1  0.505400  0.792500  0.635070  1.0  -0.6747
  O  O346  1  0.505900  0.915000  0.593340  1.0  -0.7191
  O  O347  1  0.240300  0.416300  0.570490  1.0  -0.597
  O  O348  1  0.005400  0.292500  0.635070  1.0  -0.6747
  O  O349  1  0.005900  0.415000  0.593340  1.0  -0.7191
  O  O350  1  0.240300  0.916300  0.070490  1.0  -0.597
  O  O351  1  0.005400  0.792500  0.135070  1.0  -0.6747
  O  O352  1  0.005900  0.915000  0.093340  1.0  -0.7191
  O  O353  1  0.259700  0.666300  0.320490  1.0  -0.5958
  O  O354  1  0.494600  0.542500  0.385070  1.0  -0.6765
  O  O355  1  0.494100  0.665000  0.343340  1.0  -0.7185
  O  O356  1  0.259700  0.166300  0.820490  1.0  -0.5958
  O  O357  1  0.494600  0.042500  0.885070  1.0  -0.6765
  O  O358  1  0.494100  0.165000  0.843340  1.0  -0.7185
  O  O359  1  0.759700  0.666300  0.820490  1.0  -0.5958
  O  O360  1  0.994600  0.542500  0.885070  1.0  -0.6765
  O  O361  1  0.994100  0.665000  0.843340  1.0  -0.7185
  O  O362  1  0.759700  0.166300  0.320490  1.0  -0.5958
  O  O363  1  0.994600  0.042500  0.385070  1.0  -0.6765
  O  O364  1  0.994100  0.165000  0.343340  1.0  -0.7185
  O  O365  1  0.990300  0.583700  0.320490  1.0  -0.5969
  O  O366  1  0.755400  0.707500  0.385070  1.0  -0.6751
  O  O367  1  0.755900  0.585000  0.343340  1.0  -0.719
  O  O368  1  0.990300  0.083700  0.820490  1.0  -0.5969
  O  O369  1  0.755400  0.207500  0.885070  1.0  -0.6751
  O  O370  1  0.755900  0.085000  0.843340  1.0  -0.719
  O  O371  1  0.490300  0.583700  0.820490  1.0  -0.5969
  O  O372  1  0.255400  0.707500  0.885070  1.0  -0.6751
  O  O373  1  0.255900  0.585000  0.843340  1.0  -0.719
  O  O374  1  0.490300  0.083700  0.320490  1.0  -0.5969
  O  O375  1  0.255400  0.207500  0.385070  1.0  -0.6751
  O  O376  1  0.255900  0.085000  0.343340  1.0  -0.719
  O  O377  1  0.990300  0.666300  0.929510  1.0  -0.5982
  O  O378  1  0.755400  0.542500  0.864930  1.0  -0.675
  O  O379  1  0.755900  0.665000  0.906660  1.0  -0.7195
  O  O380  1  0.990300  0.166300  0.429510  1.0  -0.5982
  O  O381  1  0.755400  0.042500  0.364930  1.0  -0.675
  O  O382  1  0.755900  0.165000  0.406660  1.0  -0.7195
  O  O383  1  0.490300  0.666300  0.429510  1.0  -0.5982
  O  O384  1  0.255400  0.542500  0.364930  1.0  -0.675
  O  O385  1  0.255900  0.665000  0.406660  1.0  -0.7195
  O  O386  1  0.490300  0.166300  0.929510  1.0  -0.5982
  O  O387  1  0.255400  0.042500  0.864930  1.0  -0.675
  O  O388  1  0.255900  0.165000  0.906660  1.0  -0.7195
  O  O389  1  0.259700  0.583700  0.929510  1.0  -0.5967
  O  O390  1  0.494600  0.707500  0.864930  1.0  -0.6767
  O  O391  1  0.494100  0.585000  0.906660  1.0  -0.7185
  O  O392  1  0.259700  0.083700  0.429510  1.0  -0.5967
  O  O393  1  0.494600  0.207500  0.364930  1.0  -0.6767
  O  O394  1  0.494100  0.085000  0.406660  1.0  -0.7185
  O  O395  1  0.759700  0.583700  0.429510  1.0  -0.5967
  O  O396  1  0.994600  0.707500  0.364930  1.0  -0.6767
  O  O397  1  0.994100  0.585000  0.406660  1.0  -0.7185
  O  O398  1  0.759700  0.083700  0.929510  1.0  -0.5967
  O  O399  1  0.994600  0.207500  0.864930  1.0  -0.6767
  O  O400  1  0.994100  0.085000  0.906660  1.0  -0.7185
