# generated using pymatgen
data_TbH15C24(NO)6
_symmetry_space_group_name_H-M   'P 1'
_cell_length_a   30.62100000
_cell_length_b   19.85560000
_cell_length_c   14.59200000
_cell_angle_alpha   90.00000000
_cell_angle_beta   102.38500000
_cell_angle_gamma   90.00000000
_symmetry_Int_Tables_number   1
_chemical_formula_structural   TbH15C24(NO)6
_chemical_formula_sum   'Tb8 H120 C192 N48 O48'
_cell_volume   8665.44857240
_cell_formula_units_Z   8
loop_
 _symmetry_equiv_pos_site_id
 _symmetry_equiv_pos_as_xyz
  1  'x, y, z'
loop_
 _atom_site_type_symbol
 _atom_site_label
 _atom_site_symmetry_multiplicity
 _atom_site_fract_x
 _atom_site_fract_y
 _atom_site_fract_z
 _atom_site_occupancy
 _atom_site_charge
  Tb  Tb1  1  0.762130  0.245800  0.679790  1.0  2.2275
  Tb  Tb2  1  0.733660  0.261860  0.912970  1.0  2.2744
  Tb  Tb3  1  0.237870  0.745800  0.820210  1.0  2.2257
  Tb  Tb4  1  0.266340  0.761860  0.587030  1.0  2.2744
  Tb  Tb5  1  0.237870  0.754200  0.320210  1.0  2.2264
  Tb  Tb6  1  0.266340  0.738140  0.087030  1.0  2.2705
  Tb  Tb7  1  0.762130  0.254200  0.179790  1.0  2.2259
  Tb  Tb8  1  0.733660  0.238140  0.412970  1.0  2.2734
  H  H9  1  0.134400  0.904400  0.840100  1.0  0.0938
  H  H10  1  0.089300  0.994800  0.858000  1.0  0.1247
  H  H11  1  0.142600  0.992300  0.139000  1.0  0.1207
  H  H12  1  0.196000  0.917200  0.105500  1.0  0.0799
  H  H13  1  0.966500  0.137800  0.955600  1.0  0.1085
  H  H14  1  0.909900  0.182200  0.830700  1.0  0.1024
  H  H15  1  0.853000  0.275400  0.020600  1.0  0.1069
  H  H16  1  0.913600  0.252300  0.126400  1.0  0.0842
  H  H17  1  0.153800  0.871500  0.330800  1.0  0.0931
  H  H18  1  0.100400  0.948100  0.272300  1.0  0.1275
  H  H19  1  0.166600  0.079700  0.473200  1.0  0.1233
  H  H20  1  0.213000  0.995200  0.537500  1.0  0.1069
  H  H21  1  0.346100  0.877200  0.168600  1.0  0.0893
  H  H22  1  0.397400  0.957900  0.179000  1.0  0.1013
  H  H23  1  0.320100  0.081400  0.296200  1.0  0.1047
  H  H24  1  0.271600  0.999700  0.295300  1.0  0.0992
  H  H25  1  0.577000  0.281100  0.212700  1.0  0.1271
  H  H26  1  0.636900  0.297500  0.157300  1.0  0.0602
  H  H27  1  0.597600  0.164200  0.948500  1.0  0.1251
  H  H28  1  0.532400  0.149100  0.001300  1.0  0.0973
  H  H29  1  0.433500  0.982800  0.790700  1.0  0.1182
  H  H30  1  0.389500  0.900200  0.716000  1.0  0.1123
  H  H31  1  0.311800  0.913400  0.902600  1.0  0.1246
  H  H32  1  0.358900  0.991800  0.983500  1.0  0.0857
  H  H33  1  0.053000  0.046800  0.959200  1.0  0.259
  H  H34  1  0.974100  0.189400  0.191600  1.0  0.2554
  H  H35  1  0.089300  0.102400  0.375900  1.0  0.3086
  H  H36  1  0.391900  0.117400  0.268300  1.0  0.2779
  H  H37  1  0.454200  0.049000  0.912400  1.0  0.2614
  H  H38  1  0.504200  0.229800  0.191500  1.0  0.2828
  H  H39  1  0.865600  0.404400  0.659900  1.0  0.0943
  H  H40  1  0.910700  0.494800  0.642000  1.0  0.1244
  H  H41  1  0.857400  0.492300  0.361000  1.0  0.1218
  H  H42  1  0.804000  0.417200  0.394500  1.0  0.0799
  H  H43  1  0.033500  0.637800  0.544400  1.0  0.1083
  H  H44  1  0.090100  0.682200  0.669300  1.0  0.1018
  H  H45  1  0.147000  0.775400  0.479400  1.0  0.1063
  H  H46  1  0.086400  0.752300  0.373600  1.0  0.0848
  H  H47  1  0.846200  0.371500  0.169200  1.0  0.0927
  H  H48  1  0.899600  0.448100  0.227700  1.0  0.1281
  H  H49  1  0.833400  0.579700  0.026800  1.0  0.1232
  H  H50  1  0.787000  0.495200  0.962500  1.0  0.1065
  H  H51  1  0.653900  0.377200  0.331400  1.0  0.0899
  H  H52  1  0.602600  0.457900  0.321000  1.0  0.1005
  H  H53  1  0.679900  0.581400  0.203800  1.0  0.105
  H  H54  1  0.728400  0.499700  0.204700  1.0  0.0991
  H  H55  1  0.423000  0.781100  0.287300  1.0  0.1272
  H  H56  1  0.363100  0.797500  0.342700  1.0  0.0608
  H  H57  1  0.402400  0.664200  0.551500  1.0  0.1254
  H  H58  1  0.467600  0.649100  0.498700  1.0  0.0975
  H  H59  1  0.566500  0.482800  0.709300  1.0  0.1179
  H  H60  1  0.610500  0.400200  0.784000  1.0  0.1121
  H  H61  1  0.688200  0.413400  0.597400  1.0  0.125
  H  H62  1  0.641100  0.491800  0.516500  1.0  0.0865
  H  H63  1  0.947000  0.546800  0.540800  1.0  0.2595
  H  H64  1  0.025900  0.689400  0.308400  1.0  0.2538
  H  H65  1  0.910700  0.602400  0.124100  1.0  0.3071
  H  H66  1  0.608100  0.617400  0.231700  1.0  0.2773
  H  H67  1  0.545800  0.549000  0.587600  1.0  0.2635
  H  H68  1  0.495800  0.729800  0.308500  1.0  0.2818
  H  H69  1  0.865600  0.095600  0.159900  1.0  0.0943
  H  H70  1  0.910700  0.005200  0.142000  1.0  0.1249
  H  H71  1  0.857400  0.007700  0.861000  1.0  0.1216
  H  H72  1  0.804000  0.082800  0.894500  1.0  0.0801
  H  H73  1  0.033500  0.862200  0.044400  1.0  0.1082
  H  H74  1  0.090100  0.817800  0.169300  1.0  0.102
  H  H75  1  0.147000  0.724600  0.979400  1.0  0.1062
  H  H76  1  0.086400  0.747700  0.873600  1.0  0.0855
  H  H77  1  0.846200  0.128500  0.669200  1.0  0.0927
  H  H78  1  0.899600  0.051900  0.727700  1.0  0.1278
  H  H79  1  0.833400  0.920300  0.526800  1.0  0.1226
  H  H80  1  0.787000  0.004800  0.462500  1.0  0.1065
  H  H81  1  0.653900  0.122800  0.831400  1.0  0.0893
  H  H82  1  0.602600  0.042100  0.821000  1.0  0.1008
  H  H83  1  0.679900  0.918600  0.703800  1.0  0.105
  H  H84  1  0.728400  0.000300  0.704700  1.0  0.0985
  H  H85  1  0.423000  0.718900  0.787300  1.0  0.1266
  H  H86  1  0.363100  0.702500  0.842700  1.0  0.0611
  H  H87  1  0.402400  0.835800  0.051500  1.0  0.1254
  H  H88  1  0.467600  0.850900  0.998700  1.0  0.0972
  H  H89  1  0.566500  0.017200  0.209300  1.0  0.1183
  H  H90  1  0.610500  0.099800  0.284000  1.0  0.1118
  H  H91  1  0.688200  0.086600  0.097400  1.0  0.1255
  H  H92  1  0.641100  0.008200  0.016500  1.0  0.0862
  H  H93  1  0.947000  0.953200  0.040800  1.0  0.2605
  H  H94  1  0.025900  0.810600  0.808400  1.0  0.2546
  H  H95  1  0.910700  0.897600  0.624100  1.0  0.3067
  H  H96  1  0.608100  0.882600  0.731700  1.0  0.2771
  H  H97  1  0.545800  0.951000  0.087600  1.0  0.2635
  H  H98  1  0.495800  0.770200  0.808500  1.0  0.2824
  H  H99  1  0.134400  0.595600  0.340100  1.0  0.0936
  H  H100  1  0.089300  0.505200  0.358000  1.0  0.124
  H  H101  1  0.142600  0.507700  0.639000  1.0  0.12
  H  H102  1  0.196000  0.582800  0.605500  1.0  0.08
  H  H103  1  0.966500  0.362200  0.455600  1.0  0.1082
  H  H104  1  0.909900  0.317800  0.330700  1.0  0.1023
  H  H105  1  0.853000  0.224600  0.520600  1.0  0.1067
  H  H106  1  0.913600  0.247700  0.626400  1.0  0.0834
  H  H107  1  0.153800  0.628500  0.830800  1.0  0.0931
  H  H108  1  0.100400  0.551900  0.772300  1.0  0.1277
  H  H109  1  0.166600  0.420300  0.973200  1.0  0.1229
  H  H110  1  0.213000  0.504800  0.037500  1.0  0.1068
  H  H111  1  0.346100  0.622800  0.668600  1.0  0.0891
  H  H112  1  0.397400  0.542100  0.679000  1.0  0.1015
  H  H113  1  0.320100  0.418600  0.796200  1.0  0.1054
  H  H114  1  0.271600  0.500300  0.795300  1.0  0.0989
  H  H115  1  0.577000  0.218900  0.712700  1.0  0.1268
  H  H116  1  0.636900  0.202500  0.657300  1.0  0.0607
  H  H117  1  0.597600  0.335800  0.448500  1.0  0.125
  H  H118  1  0.532400  0.350900  0.501300  1.0  0.0979
  H  H119  1  0.433500  0.517200  0.290700  1.0  0.1179
  H  H120  1  0.389500  0.599800  0.216000  1.0  0.1119
  H  H121  1  0.311800  0.586600  0.402600  1.0  0.1251
  H  H122  1  0.358900  0.508200  0.483500  1.0  0.0859
  H  H123  1  0.053000  0.453200  0.459200  1.0  0.2595
  H  H124  1  0.974100  0.310600  0.691600  1.0  0.2551
  H  H125  1  0.089300  0.397600  0.875900  1.0  0.3077
  H  H126  1  0.391900  0.382600  0.768300  1.0  0.2772
  H  H127  1  0.454200  0.451000  0.412400  1.0  0.2621
  H  H128  1  0.504200  0.270200  0.691500  1.0  0.2825
  C  C129  1  0.206900  0.855300  0.949700  1.0  0.6913
  C  C130  1  0.172600  0.905900  0.967200  1.0  -0.1143
  C  C131  1  0.138100  0.925400  0.898300  1.0  -0.0428
  C  C132  1  0.107900  0.975200  0.909800  1.0  -0.1151
  C  C133  1  0.106200  0.995900  0.004500  1.0  0.115
  C  C134  1  0.140700  0.976400  0.078300  1.0  -0.1633
  C  C135  1  0.173000  0.931100  0.056700  1.0  -0.0425
  C  C136  1  0.061800  0.065600  0.088700  1.0  0.5426
  C  C137  1  0.071200  0.083200  0.245000  1.0  0.3943
  C  C138  1  0.015400  0.138300  0.142800  1.0  0.3445
  C  C139  1  0.944600  0.188100  0.054100  1.0  0.1903
  C  C140  1  0.944600  0.166900  0.967600  1.0  -0.1244
  C  C141  1  0.908900  0.191100  0.892800  1.0  -0.0708
  C  C142  1  0.874000  0.226400  0.912000  1.0  -0.1251
  C  C143  1  0.875800  0.249600  0.005500  1.0  -0.1229
  C  C144  1  0.910500  0.233100  0.067200  1.0  -0.0851
  C  C145  1  0.834700  0.239100  0.833200  1.0  0.6788
  C  C146  1  0.217500  0.865600  0.483300  1.0  0.6716
  C  C147  1  0.189600  0.920800  0.438200  1.0  -0.1156
  C  C148  1  0.155300  0.913000  0.360800  1.0  -0.0692
  C  C149  1  0.123600  0.958400  0.322900  1.0  -0.139
  C  C150  1  0.128400  0.024200  0.367200  1.0  0.1457
  C  C151  1  0.163300  0.037000  0.446400  1.0  -0.1121
  C  C152  1  0.191600  0.987300  0.482800  1.0  -0.0849
  C  C153  1  0.275800  0.869300  0.250200  1.0  0.6683
  C  C154  1  0.303400  0.924200  0.240600  1.0  -0.0996
  C  C155  1  0.341800  0.917700  0.197400  1.0  -0.1067
  C  C156  1  0.370700  0.966800  0.197300  1.0  -0.1537
  C  C157  1  0.361200  0.036600  0.226000  1.0  0.1608
  C  C158  1  0.325000  0.040800  0.268300  1.0  -0.1044
  C  C159  1  0.296900  0.990900  0.271600  1.0  -0.1036
  C  C160  1  0.416100  0.100000  0.160200  1.0  0.3693
  C  C161  1  0.474600  0.155700  0.123600  1.0  0.3719
  C  C162  1  0.547200  0.209400  0.111000  1.0  0.149
  C  C163  1  0.581200  0.257800  0.160000  1.0  -0.1261
  C  C164  1  0.615900  0.266300  0.127800  1.0  -0.0685
  C  C165  1  0.624300  0.232700  0.053500  1.0  -0.1404
  C  C166  1  0.592500  0.186700  0.001200  1.0  -0.1376
  C  C167  1  0.554300  0.177900  0.033600  1.0  -0.0463
  C  C168  1  0.665200  0.243900  0.015400  1.0  0.5827
  C  C169  1  0.437600  0.075200  0.029500  1.0  0.237
  C  C170  1  0.401700  0.994800  0.900400  1.0  0.2096
  C  C171  1  0.409600  0.967200  0.814800  1.0  -0.2285
  C  C172  1  0.383000  0.919500  0.769600  1.0  0.0098
  C  C173  1  0.346400  0.898200  0.800500  1.0  -0.1301
  C  C174  1  0.337000  0.926600  0.881400  1.0  -0.1116
  C  C175  1  0.365200  0.973500  0.929000  1.0  -0.122
  C  C176  1  0.314300  0.846300  0.743800  1.0  0.6607
  C  C177  1  0.793100  0.355300  0.550300  1.0  0.6908
  C  C178  1  0.827400  0.405900  0.532800  1.0  -0.1135
  C  C179  1  0.861900  0.425400  0.601700  1.0  -0.0436
  C  C180  1  0.892100  0.475200  0.590200  1.0  -0.1148
  C  C181  1  0.893800  0.495900  0.495500  1.0  0.1147
  C  C182  1  0.859300  0.476400  0.421700  1.0  -0.1654
  C  C183  1  0.827000  0.431100  0.443300  1.0  -0.0431
  C  C184  1  0.938200  0.565600  0.411300  1.0  0.5417
  C  C185  1  0.928800  0.583200  0.255000  1.0  0.395
  C  C186  1  0.984600  0.638300  0.357200  1.0  0.3417
  C  C187  1  0.055400  0.688100  0.445900  1.0  0.1906
  C  C188  1  0.055400  0.666900  0.532400  1.0  -0.1249
  C  C189  1  0.091100  0.691100  0.607200  1.0  -0.0706
  C  C190  1  0.126000  0.726400  0.588000  1.0  -0.1253
  C  C191  1  0.124200  0.749600  0.494500  1.0  -0.1217
  C  C192  1  0.089500  0.733100  0.432800  1.0  -0.0868
  C  C193  1  0.165300  0.739100  0.666800  1.0  0.6809
  C  C194  1  0.782500  0.365600  0.016700  1.0  0.6721
  C  C195  1  0.810400  0.420800  0.061800  1.0  -0.1158
  C  C196  1  0.844700  0.413000  0.139200  1.0  -0.0692
  C  C197  1  0.876400  0.458400  0.177100  1.0  -0.1379
  C  C198  1  0.871600  0.524200  0.132800  1.0  0.1468
  C  C199  1  0.836700  0.537000  0.053600  1.0  -0.1132
  C  C200  1  0.808400  0.487300  0.017200  1.0  -0.0872
  C  C201  1  0.724200  0.369300  0.249800  1.0  0.6676
  C  C202  1  0.696600  0.424200  0.259400  1.0  -0.0997
  C  C203  1  0.658200  0.417700  0.302600  1.0  -0.1066
  C  C204  1  0.629300  0.466800  0.302700  1.0  -0.1547
  C  C205  1  0.638800  0.536600  0.274000  1.0  0.1615
  C  C206  1  0.675000  0.540800  0.231700  1.0  -0.104
  C  C207  1  0.703100  0.490900  0.228400  1.0  -0.1045
  C  C208  1  0.583900  0.600000  0.339800  1.0  0.3695
  C  C209  1  0.525400  0.655700  0.376400  1.0  0.372
  C  C210  1  0.452800  0.709400  0.389000  1.0  0.147
  C  C211  1  0.418800  0.757800  0.340000  1.0  -0.1257
  C  C212  1  0.384100  0.766300  0.372200  1.0  -0.0715
  C  C213  1  0.375700  0.732700  0.446500  1.0  -0.1393
  C  C214  1  0.407500  0.686700  0.498800  1.0  -0.1375
  C  C215  1  0.445700  0.677900  0.466400  1.0  -0.0453
  C  C216  1  0.334800  0.743900  0.484600  1.0  0.5801
  C  C217  1  0.562400  0.575200  0.470500  1.0  0.2387
  C  C218  1  0.598300  0.494800  0.599600  1.0  0.2072
  C  C219  1  0.590400  0.467200  0.685200  1.0  -0.2286
  C  C220  1  0.617000  0.419500  0.730400  1.0  0.007
  C  C221  1  0.653600  0.398200  0.699500  1.0  -0.13
  C  C222  1  0.663000  0.426600  0.618600  1.0  -0.1107
  C  C223  1  0.634800  0.473500  0.571000  1.0  -0.122
  C  C224  1  0.685700  0.346300  0.756200  1.0  0.66
  C  C225  1  0.793100  0.144700  0.050300  1.0  0.6911
  C  C226  1  0.827400  0.094100  0.032800  1.0  -0.1149
  C  C227  1  0.861900  0.074600  0.101700  1.0  -0.0444
  C  C228  1  0.892100  0.024800  0.090200  1.0  -0.117
  C  C229  1  0.893800  0.004100  0.995500  1.0  0.1142
  C  C230  1  0.859300  0.023600  0.921700  1.0  -0.1646
  C  C231  1  0.827000  0.068900  0.943300  1.0  -0.0425
  C  C232  1  0.938200  0.934400  0.911300  1.0  0.5401
  C  C233  1  0.928800  0.916800  0.755000  1.0  0.3946
  C  C234  1  0.984600  0.861700  0.857200  1.0  0.3423
  C  C235  1  0.055400  0.811900  0.945900  1.0  0.19
  C  C236  1  0.055400  0.833100  0.032400  1.0  -0.125
  C  C237  1  0.091100  0.808900  0.107200  1.0  -0.071
  C  C238  1  0.126000  0.773600  0.088000  1.0  -0.1241
  C  C239  1  0.124200  0.750400  0.994500  1.0  -0.1227
  C  C240  1  0.089500  0.766900  0.932800  1.0  -0.0873
  C  C241  1  0.165300  0.760900  0.166800  1.0  0.6819
  C  C242  1  0.782500  0.134400  0.516700  1.0  0.6722
  C  C243  1  0.810400  0.079200  0.561800  1.0  -0.1165
  C  C244  1  0.844700  0.087000  0.639200  1.0  -0.0687
  C  C245  1  0.876400  0.041600  0.677100  1.0  -0.1377
  C  C246  1  0.871600  0.975800  0.632800  1.0  0.1464
  C  C247  1  0.836700  0.963000  0.553600  1.0  -0.1103
  C  C248  1  0.808400  0.012700  0.517200  1.0  -0.0874
  C  C249  1  0.724200  0.130700  0.749800  1.0  0.6685
  C  C250  1  0.696600  0.075800  0.759400  1.0  -0.1002
  C  C251  1  0.658200  0.082300  0.802600  1.0  -0.1059
  C  C252  1  0.629300  0.033200  0.802700  1.0  -0.1549
  C  C253  1  0.638800  0.963400  0.774000  1.0  0.1621
  C  C254  1  0.675000  0.959200  0.731700  1.0  -0.1044
  C  C255  1  0.703100  0.009100  0.728400  1.0  -0.1051
  C  C256  1  0.583900  0.900000  0.839800  1.0  0.3693
  C  C257  1  0.525400  0.844300  0.876400  1.0  0.3706
  C  C258  1  0.452800  0.790600  0.889000  1.0  0.1471
  C  C259  1  0.418800  0.742200  0.840000  1.0  -0.1251
  C  C260  1  0.384100  0.733700  0.872200  1.0  -0.07
  C  C261  1  0.375700  0.767300  0.946500  1.0  -0.1413
  C  C262  1  0.407500  0.813300  0.998800  1.0  -0.1373
  C  C263  1  0.445700  0.822100  0.966400  1.0  -0.045
  C  C264  1  0.334800  0.756100  0.984600  1.0  0.5814
  C  C265  1  0.562400  0.924800  0.970500  1.0  0.2389
  C  C266  1  0.598300  0.005200  0.099600  1.0  0.2068
  C  C267  1  0.590400  0.032800  0.185200  1.0  -0.2283
  C  C268  1  0.617000  0.080500  0.230400  1.0  0.0073
  C  C269  1  0.653600  0.101800  0.199500  1.0  -0.1301
  C  C270  1  0.663000  0.073400  0.118600  1.0  -0.111
  C  C271  1  0.634800  0.026500  0.071000  1.0  -0.1229
  C  C272  1  0.685700  0.153700  0.256200  1.0  0.6598
  C  C273  1  0.206900  0.644700  0.449700  1.0  0.6919
  C  C274  1  0.172600  0.594100  0.467200  1.0  -0.1145
  C  C275  1  0.138100  0.574600  0.398300  1.0  -0.0439
  C  C276  1  0.107900  0.524800  0.409800  1.0  -0.1133
  C  C277  1  0.106200  0.504100  0.504500  1.0  0.115
  C  C278  1  0.140700  0.523600  0.578300  1.0  -0.165
  C  C279  1  0.173000  0.568900  0.556700  1.0  -0.0424
  C  C280  1  0.061800  0.434400  0.588700  1.0  0.5411
  C  C281  1  0.071200  0.416800  0.745000  1.0  0.3942
  C  C282  1  0.015400  0.361700  0.642800  1.0  0.3451
  C  C283  1  0.944600  0.311900  0.554100  1.0  0.1895
  C  C284  1  0.944600  0.333100  0.467600  1.0  -0.1254
  C  C285  1  0.908900  0.308900  0.392800  1.0  -0.0712
  C  C286  1  0.874000  0.273600  0.412000  1.0  -0.1248
  C  C287  1  0.875800  0.250400  0.505500  1.0  -0.1229
  C  C288  1  0.910500  0.266900  0.567200  1.0  -0.0851
  C  C289  1  0.834700  0.260900  0.333200  1.0  0.6791
  C  C290  1  0.217500  0.634400  0.983300  1.0  0.6721
  C  C291  1  0.189600  0.579200  0.938200  1.0  -0.1152
  C  C292  1  0.155300  0.587000  0.860800  1.0  -0.069
  C  C293  1  0.123600  0.541600  0.822900  1.0  -0.1396
  C  C294  1  0.128400  0.475800  0.867200  1.0  0.1457
  C  C295  1  0.163300  0.463000  0.946400  1.0  -0.1123
  C  C296  1  0.191600  0.512700  0.982800  1.0  -0.085
  C  C297  1  0.275800  0.630700  0.750200  1.0  0.6694
  C  C298  1  0.303400  0.575800  0.740600  1.0  -0.1
  C  C299  1  0.341800  0.582300  0.697400  1.0  -0.1063
  C  C300  1  0.370700  0.533200  0.697300  1.0  -0.1543
  C  C301  1  0.361200  0.463400  0.726000  1.0  0.1617
  C  C302  1  0.325000  0.459200  0.768300  1.0  -0.1055
  C  C303  1  0.296900  0.509100  0.771600  1.0  -0.1037
  C  C304  1  0.416100  0.400000  0.660200  1.0  0.3688
  C  C305  1  0.474600  0.344300  0.623600  1.0  0.3701
  C  C306  1  0.547200  0.290600  0.611000  1.0  0.1493
  C  C307  1  0.581200  0.242200  0.660000  1.0  -0.1249
  C  C308  1  0.615900  0.233700  0.627800  1.0  -0.0681
  C  C309  1  0.624300  0.267300  0.553500  1.0  -0.1415
  C  C310  1  0.592500  0.313300  0.501200  1.0  -0.1375
  C  C311  1  0.554300  0.322100  0.533600  1.0  -0.0463
  C  C312  1  0.665200  0.256100  0.515400  1.0  0.5826
  C  C313  1  0.437600  0.424800  0.529500  1.0  0.2375
  C  C314  1  0.401700  0.505200  0.400400  1.0  0.2089
  C  C315  1  0.409600  0.532800  0.314800  1.0  -0.228
  C  C316  1  0.383000  0.580500  0.269600  1.0  0.0089
  C  C317  1  0.346400  0.601800  0.300500  1.0  -0.1285
  C  C318  1  0.337000  0.573400  0.381400  1.0  -0.112
  C  C319  1  0.365200  0.526500  0.429000  1.0  -0.1216
  C  C320  1  0.314300  0.653700  0.243800  1.0  0.6603
  N  N321  1  0.071300  0.037500  0.011100  1.0  -0.2878
  N  N322  1  0.089000  0.054500  0.172000  1.0  -0.3892
  N  N323  1  0.039900  0.124500  0.239600  1.0  -0.2695
  N  N324  1  0.024300  0.106000  0.068700  1.0  -0.5974
  N  N325  1  0.978600  0.173600  0.139500  1.0  -0.4078
  N  N326  1  0.094900  0.074700  0.334600  1.0  -0.3874
  N  N327  1  0.389800  0.088200  0.224000  1.0  -0.4366
  N  N328  1  0.450700  0.146600  0.190200  1.0  -0.3495
  N  N329  1  0.469900  0.122800  0.038700  1.0  -0.4951
  N  N330  1  0.407800  0.065900  0.082500  1.0  -0.2608
  N  N331  1  0.433600  0.040400  0.942700  1.0  -0.3176
  N  N332  1  0.507300  0.201800  0.148400  1.0  -0.4393
  N  N333  1  0.928700  0.537500  0.488900  1.0  -0.2869
  N  N334  1  0.911000  0.554500  0.328000  1.0  -0.3878
  N  N335  1  0.960100  0.624500  0.260400  1.0  -0.2685
  N  N336  1  0.975700  0.606000  0.431300  1.0  -0.5978
  N  N337  1  0.021400  0.673600  0.360500  1.0  -0.4075
  N  N338  1  0.905100  0.574700  0.165400  1.0  -0.3888
  N  N339  1  0.610200  0.588200  0.276000  1.0  -0.4373
  N  N340  1  0.549300  0.646600  0.309800  1.0  -0.3469
  N  N341  1  0.530100  0.622800  0.461300  1.0  -0.4955
  N  N342  1  0.592200  0.565900  0.417500  1.0  -0.2641
  N  N343  1  0.566400  0.540400  0.557300  1.0  -0.3193
  N  N344  1  0.492700  0.701800  0.351600  1.0  -0.4387
  N  N345  1  0.928700  0.962500  0.988900  1.0  -0.2866
  N  N346  1  0.911000  0.945500  0.828000  1.0  -0.3889
  N  N347  1  0.960100  0.875500  0.760400  1.0  -0.2667
  N  N348  1  0.975700  0.894000  0.931300  1.0  -0.5988
  N  N349  1  0.021400  0.826400  0.860500  1.0  -0.4074
  N  N350  1  0.905100  0.925300  0.665400  1.0  -0.3885
  N  N351  1  0.610200  0.911800  0.776000  1.0  -0.4375
  N  N352  1  0.549300  0.853400  0.809800  1.0  -0.3494
  N  N353  1  0.530100  0.877200  0.961300  1.0  -0.4977
  N  N354  1  0.592200  0.934100  0.917500  1.0  -0.2636
  N  N355  1  0.566400  0.959600  0.057300  1.0  -0.3188
  N  N356  1  0.492700  0.798200  0.851600  1.0  -0.4387
  N  N357  1  0.071300  0.462500  0.511100  1.0  -0.2892
  N  N358  1  0.089000  0.445500  0.672000  1.0  -0.3899
  N  N359  1  0.039900  0.375500  0.739600  1.0  -0.2691
  N  N360  1  0.024300  0.394000  0.568700  1.0  -0.5987
  N  N361  1  0.978600  0.326400  0.639500  1.0  -0.4073
  N  N362  1  0.094900  0.425300  0.834600  1.0  -0.3867
  N  N363  1  0.389800  0.411800  0.724000  1.0  -0.4372
  N  N364  1  0.450700  0.353400  0.690200  1.0  -0.3501
  N  N365  1  0.469900  0.377200  0.538700  1.0  -0.495
  N  N366  1  0.407800  0.434100  0.582500  1.0  -0.2605
  N  N367  1  0.433600  0.459600  0.442700  1.0  -0.3185
  N  N368  1  0.507300  0.298200  0.648400  1.0  -0.4403
  O  O369  1  0.235200  0.837000  0.019100  1.0  -0.6877
  O  O370  1  0.800500  0.265400  0.851800  1.0  -0.7257
  O  O371  1  0.283000  0.810000  0.220300  1.0  -0.7467
  O  O372  1  0.325700  0.826400  0.669900  1.0  -0.6956
  O  O373  1  0.667900  0.208000  0.939200  1.0  -0.6748
  O  O374  1  0.244200  0.879900  0.560600  1.0  -0.6184
  O  O375  1  0.215100  0.806800  0.448300  1.0  -0.6411
  O  O376  1  0.203800  0.837600  0.868900  1.0  -0.5822
  O  O377  1  0.698100  0.271200  0.056300  1.0  -0.6585
  O  O378  1  0.243300  0.875500  0.295300  1.0  -0.6235
  O  O379  1  0.280100  0.824600  0.770500  1.0  -0.7268
  O  O380  1  0.837300  0.226700  0.753000  1.0  -0.6202
  O  O381  1  0.764800  0.337000  0.480900  1.0  -0.6877
  O  O382  1  0.199500  0.765400  0.648200  1.0  -0.726
  O  O383  1  0.717000  0.310000  0.279700  1.0  -0.7473
  O  O384  1  0.674300  0.326400  0.830100  1.0  -0.6938
  O  O385  1  0.332100  0.708000  0.560800  1.0  -0.6731
  O  O386  1  0.755800  0.379900  0.939400  1.0  -0.6174
  O  O387  1  0.784900  0.306800  0.051700  1.0  -0.6408
  O  O388  1  0.796200  0.337600  0.631100  1.0  -0.5834
  O  O389  1  0.301900  0.771200  0.443700  1.0  -0.6582
  O  O390  1  0.756700  0.375500  0.204700  1.0  -0.624
  O  O391  1  0.719900  0.324600  0.729500  1.0  -0.7248
  O  O392  1  0.162700  0.726700  0.747000  1.0  -0.6196
  O  O393  1  0.764800  0.163000  0.980900  1.0  -0.6885
  O  O394  1  0.199500  0.734600  0.148200  1.0  -0.7263
  O  O395  1  0.717000  0.190000  0.779700  1.0  -0.747
  O  O396  1  0.674300  0.173600  0.330100  1.0  -0.6918
  O  O397  1  0.332100  0.792000  0.060800  1.0  -0.673
  O  O398  1  0.755800  0.120100  0.439400  1.0  -0.618
  O  O399  1  0.784900  0.193200  0.551700  1.0  -0.6414
  O  O400  1  0.796200  0.162400  0.131100  1.0  -0.5822
  O  O401  1  0.301900  0.728800  0.943700  1.0  -0.6578
  O  O402  1  0.756700  0.124500  0.704700  1.0  -0.625
  O  O403  1  0.719900  0.175400  0.229500  1.0  -0.7248
  O  O404  1  0.162700  0.773300  0.247000  1.0  -0.6194
  O  O405  1  0.235200  0.663000  0.519100  1.0  -0.6883
  O  O406  1  0.800500  0.234600  0.351800  1.0  -0.7266
  O  O407  1  0.283000  0.690000  0.720300  1.0  -0.7462
  O  O408  1  0.325700  0.673600  0.169900  1.0  -0.6956
  O  O409  1  0.667900  0.292000  0.439200  1.0  -0.6754
  O  O410  1  0.244200  0.620100  0.060600  1.0  -0.6199
  O  O411  1  0.215100  0.693200  0.948300  1.0  -0.6413
  O  O412  1  0.203800  0.662400  0.368900  1.0  -0.5802
  O  O413  1  0.698100  0.228800  0.556300  1.0  -0.6583
  O  O414  1  0.243300  0.624500  0.795300  1.0  -0.6234
  O  O415  1  0.280100  0.675400  0.270500  1.0  -0.725
  O  O416  1  0.837300  0.273300  0.253000  1.0  -0.6205
