# generated using pymatgen
data_BaH6C5NO4
_symmetry_space_group_name_H-M   'P 1'
_cell_length_a   8.98130000
_cell_length_b   19.71260000
_cell_length_c   19.71260000
_cell_angle_alpha   90.00000000
_cell_angle_beta   90.00000000
_cell_angle_gamma   90.00000000
_symmetry_Int_Tables_number   1
_chemical_formula_structural   BaH6C5NO4
_chemical_formula_sum   'Ba16 H96 C80 N16 O64'
_cell_volume   3490.01281944
_cell_formula_units_Z   16
loop_
 _symmetry_equiv_pos_site_id
 _symmetry_equiv_pos_as_xyz
  1  'x, y, z'
loop_
 _atom_site_type_symbol
 _atom_site_label
 _atom_site_symmetry_multiplicity
 _atom_site_fract_x
 _atom_site_fract_y
 _atom_site_fract_z
 _atom_site_occupancy
 _atom_site_charge
  Ba  Ba1  1  0.772560  0.817130  0.645360  1.0  1.642
  Ba  Ba2  1  0.766300  0.691620  0.866470  1.0  1.5543
  Ba  Ba3  1  0.772560  0.182870  0.354640  1.0  1.6418
  Ba  Ba4  1  0.766300  0.308380  0.133530  1.0  1.5558
  Ba  Ba5  1  0.772560  0.354640  0.817130  1.0  1.6388
  Ba  Ba6  1  0.766300  0.133530  0.691620  1.0  1.552
  Ba  Ba7  1  0.772560  0.645360  0.182870  1.0  1.6399
  Ba  Ba8  1  0.766300  0.866470  0.308380  1.0  1.5525
  Ba  Ba9  1  0.272560  0.317130  0.854640  1.0  1.639
  Ba  Ba10  1  0.266300  0.191620  0.633530  1.0  1.5559
  Ba  Ba11  1  0.272560  0.682870  0.145360  1.0  1.6389
  Ba  Ba12  1  0.266300  0.808380  0.366470  1.0  1.5565
  Ba  Ba13  1  0.272560  0.854640  0.682870  1.0  1.6388
  Ba  Ba14  1  0.266300  0.633530  0.808380  1.0  1.5542
  Ba  Ba15  1  0.272560  0.145360  0.317130  1.0  1.6382
  Ba  Ba16  1  0.266300  0.366470  0.191620  1.0  1.553
  H  H17  1  0.667000  0.887000  0.001000  1.0  0.0424
  H  H18  1  0.757000  0.826000  0.016000  1.0  0.0714
  H  H19  1  0.478000  0.797000  0.027000  1.0  0.09
  H  H20  1  0.448000  0.742000  0.968000  1.0  0.1291
  H  H21  1  0.445000  0.867000  0.917000  1.0  0.0782
  H  H22  1  0.572000  0.871000  0.875000  1.0  0.1148
  H  H23  1  0.899000  0.900000  0.966000  1.0  0.0345
  H  H24  1  0.824000  0.890000  0.899000  1.0  0.0598
  H  H25  1  0.102000  0.797000  0.846000  1.0  0.1136
  H  H26  1  0.066000  0.870000  0.863000  1.0  0.1037
  H  H27  1  0.002000  0.795000  0.017000  1.0  0.1243
  H  H28  1  0.118000  0.823000  0.978000  1.0  0.0762
  H  H29  1  0.667000  0.113000  0.999000  1.0  0.0426
  H  H30  1  0.757000  0.174000  0.984000  1.0  0.072
  H  H31  1  0.478000  0.203000  0.973000  1.0  0.0897
  H  H32  1  0.448000  0.258000  0.032000  1.0  0.1289
  H  H33  1  0.445000  0.133000  0.083000  1.0  0.0768
  H  H34  1  0.572000  0.129000  0.125000  1.0  0.1142
  H  H35  1  0.899000  0.100000  0.034000  1.0  0.036
  H  H36  1  0.824000  0.110000  0.101000  1.0  0.06
  H  H37  1  0.102000  0.203000  0.154000  1.0  0.1138
  H  H38  1  0.066000  0.130000  0.137000  1.0  0.1028
  H  H39  1  0.002000  0.205000  0.983000  1.0  0.1235
  H  H40  1  0.118000  0.177000  0.022000  1.0  0.0768
  H  H41  1  0.667000  0.999000  0.887000  1.0  0.0429
  H  H42  1  0.757000  0.984000  0.826000  1.0  0.0708
  H  H43  1  0.478000  0.973000  0.797000  1.0  0.0906
  H  H44  1  0.448000  0.032000  0.742000  1.0  0.1285
  H  H45  1  0.445000  0.083000  0.867000  1.0  0.0772
  H  H46  1  0.572000  0.125000  0.871000  1.0  0.1142
  H  H47  1  0.899000  0.034000  0.900000  1.0  0.0365
  H  H48  1  0.824000  0.101000  0.890000  1.0  0.0593
  H  H49  1  0.102000  0.154000  0.797000  1.0  0.1131
  H  H50  1  0.066000  0.137000  0.870000  1.0  0.1084
  H  H51  1  0.002000  0.983000  0.795000  1.0  0.1184
  H  H52  1  0.118000  0.022000  0.823000  1.0  0.0758
  H  H53  1  0.667000  0.001000  0.113000  1.0  0.0426
  H  H54  1  0.757000  0.016000  0.174000  1.0  0.0709
  H  H55  1  0.478000  0.027000  0.203000  1.0  0.091
  H  H56  1  0.448000  0.968000  0.258000  1.0  0.129
  H  H57  1  0.445000  0.917000  0.133000  1.0  0.078
  H  H58  1  0.572000  0.875000  0.129000  1.0  0.1134
  H  H59  1  0.899000  0.966000  0.100000  1.0  0.0359
  H  H60  1  0.824000  0.899000  0.110000  1.0  0.059
  H  H61  1  0.102000  0.846000  0.203000  1.0  0.1135
  H  H62  1  0.066000  0.863000  0.130000  1.0  0.1091
  H  H63  1  0.002000  0.017000  0.205000  1.0  0.12
  H  H64  1  0.118000  0.978000  0.177000  1.0  0.0766
  H  H65  1  0.167000  0.387000  0.499000  1.0  0.0427
  H  H66  1  0.257000  0.326000  0.484000  1.0  0.0725
  H  H67  1  0.978000  0.297000  0.473000  1.0  0.0896
  H  H68  1  0.948000  0.242000  0.532000  1.0  0.1293
  H  H69  1  0.945000  0.367000  0.583000  1.0  0.0783
  H  H70  1  0.072000  0.371000  0.625000  1.0  0.1135
  H  H71  1  0.399000  0.400000  0.534000  1.0  0.0359
  H  H72  1  0.324000  0.390000  0.601000  1.0  0.0601
  H  H73  1  0.602000  0.297000  0.654000  1.0  0.1143
  H  H74  1  0.566000  0.370000  0.637000  1.0  0.1033
  H  H75  1  0.502000  0.295000  0.483000  1.0  0.1252
  H  H76  1  0.618000  0.323000  0.522000  1.0  0.0773
  H  H77  1  0.167000  0.613000  0.501000  1.0  0.0429
  H  H78  1  0.257000  0.674000  0.516000  1.0  0.071
  H  H79  1  0.978000  0.703000  0.527000  1.0  0.0899
  H  H80  1  0.948000  0.758000  0.468000  1.0  0.1293
  H  H81  1  0.945000  0.633000  0.417000  1.0  0.0769
  H  H82  1  0.072000  0.629000  0.375000  1.0  0.1141
  H  H83  1  0.399000  0.600000  0.466000  1.0  0.0357
  H  H84  1  0.324000  0.610000  0.399000  1.0  0.0599
  H  H85  1  0.602000  0.703000  0.346000  1.0  0.114
  H  H86  1  0.566000  0.630000  0.363000  1.0  0.103
  H  H87  1  0.502000  0.705000  0.517000  1.0  0.122
  H  H88  1  0.618000  0.677000  0.478000  1.0  0.0759
  H  H89  1  0.167000  0.499000  0.613000  1.0  0.043
  H  H90  1  0.257000  0.484000  0.674000  1.0  0.0703
  H  H91  1  0.978000  0.473000  0.703000  1.0  0.0898
  H  H92  1  0.948000  0.532000  0.758000  1.0  0.129
  H  H93  1  0.945000  0.583000  0.633000  1.0  0.0777
  H  H94  1  0.072000  0.625000  0.629000  1.0  0.1137
  H  H95  1  0.399000  0.534000  0.600000  1.0  0.0354
  H  H96  1  0.324000  0.601000  0.610000  1.0  0.0593
  H  H97  1  0.602000  0.654000  0.703000  1.0  0.1133
  H  H98  1  0.566000  0.637000  0.630000  1.0  0.1092
  H  H99  1  0.502000  0.483000  0.705000  1.0  0.1182
  H  H100  1  0.618000  0.522000  0.677000  1.0  0.0758
  H  H101  1  0.167000  0.501000  0.387000  1.0  0.0425
  H  H102  1  0.257000  0.516000  0.326000  1.0  0.0731
  H  H103  1  0.978000  0.527000  0.297000  1.0  0.091
  H  H104  1  0.948000  0.468000  0.242000  1.0  0.1279
  H  H105  1  0.945000  0.417000  0.367000  1.0  0.0771
  H  H106  1  0.072000  0.375000  0.371000  1.0  0.1152
  H  H107  1  0.399000  0.466000  0.400000  1.0  0.0364
  H  H108  1  0.324000  0.399000  0.390000  1.0  0.0601
  H  H109  1  0.602000  0.346000  0.297000  1.0  0.1129
  H  H110  1  0.566000  0.363000  0.370000  1.0  0.1083
  H  H111  1  0.502000  0.517000  0.295000  1.0  0.1208
  H  H112  1  0.618000  0.478000  0.323000  1.0  0.0756
  C  C113  1  0.713600  0.845800  0.981800  1.0  0.0065
  C  C114  1  0.518600  0.764300  0.993900  1.0  -0.2285
  C  C115  1  0.604400  0.709700  0.032100  1.0  0.7628
  C  C116  1  0.520100  0.838300  0.896700  1.0  -0.1945
  C  C117  1  0.442900  0.794500  0.844300  1.0  0.755
  C  C118  1  0.846700  0.866300  0.940100  1.0  -0.0004
  C  C119  1  0.025600  0.828500  0.858100  1.0  -0.2044
  C  C120  1  0.933100  0.830100  0.793000  1.0  0.7171
  C  C121  1  0.037300  0.786800  0.973600  1.0  -0.1995
  C  C122  1  0.104500  0.715700  0.964600  1.0  0.7574
  C  C123  1  0.713600  0.154200  0.018200  1.0  0.0079
  C  C124  1  0.518600  0.235700  0.006100  1.0  -0.2303
  C  C125  1  0.604400  0.290300  0.967900  1.0  0.7606
  C  C126  1  0.520100  0.161700  0.103300  1.0  -0.1973
  C  C127  1  0.442900  0.205500  0.155700  1.0  0.7543
  C  C128  1  0.846700  0.133700  0.059900  1.0  -0.0018
  C  C129  1  0.025600  0.171500  0.141900  1.0  -0.2043
  C  C130  1  0.933100  0.169900  0.207000  1.0  0.7132
  C  C131  1  0.037300  0.213200  0.026400  1.0  -0.1981
  C  C132  1  0.104500  0.284300  0.035400  1.0  0.7584
  C  C133  1  0.713600  0.018200  0.845800  1.0  0.0082
  C  C134  1  0.518600  0.006100  0.764300  1.0  -0.2279
  C  C135  1  0.604400  0.967900  0.709700  1.0  0.7635
  C  C136  1  0.520100  0.103300  0.838300  1.0  -0.1975
  C  C137  1  0.442900  0.155700  0.794500  1.0  0.7559
  C  C138  1  0.846700  0.059900  0.866300  1.0  -0.0013
  C  C139  1  0.025600  0.141900  0.828500  1.0  -0.2045
  C  C140  1  0.933100  0.207000  0.830100  1.0  0.7119
  C  C141  1  0.037300  0.026400  0.786800  1.0  -0.1996
  C  C142  1  0.104500  0.035400  0.715700  1.0  0.7589
  C  C143  1  0.713600  0.981800  0.154200  1.0  0.0073
  C  C144  1  0.518600  0.993900  0.235700  1.0  -0.2315
  C  C145  1  0.604400  0.032100  0.290300  1.0  0.7623
  C  C146  1  0.520100  0.896700  0.161700  1.0  -0.1966
  C  C147  1  0.442900  0.844300  0.205500  1.0  0.7545
  C  C148  1  0.846700  0.940100  0.133700  1.0  -0.001
  C  C149  1  0.025600  0.858100  0.171500  1.0  -0.2056
  C  C150  1  0.933100  0.793000  0.169900  1.0  0.7099
  C  C151  1  0.037300  0.973600  0.213200  1.0  -0.1992
  C  C152  1  0.104500  0.964600  0.284300  1.0  0.7554
  C  C153  1  0.213600  0.345800  0.518200  1.0  0.0077
  C  C154  1  0.018600  0.264300  0.506100  1.0  -0.2294
  C  C155  1  0.104400  0.209700  0.467900  1.0  0.7613
  C  C156  1  0.020100  0.338300  0.603300  1.0  -0.1937
  C  C157  1  0.942900  0.294500  0.655700  1.0  0.7547
  C  C158  1  0.346700  0.366300  0.559900  1.0  -0.0011
  C  C159  1  0.525600  0.328500  0.641900  1.0  -0.2034
  C  C160  1  0.433100  0.330100  0.707000  1.0  0.7135
  C  C161  1  0.537300  0.286800  0.526400  1.0  -0.1984
  C  C162  1  0.604500  0.215700  0.535400  1.0  0.7571
  C  C163  1  0.213600  0.654200  0.481800  1.0  0.0067
  C  C164  1  0.018600  0.735700  0.493900  1.0  -0.2308
  C  C165  1  0.104400  0.790300  0.532100  1.0  0.7609
  C  C166  1  0.020100  0.661700  0.396700  1.0  -0.1958
  C  C167  1  0.942900  0.705500  0.344300  1.0  0.7558
  C  C168  1  0.346700  0.633700  0.440100  1.0  -0.0014
  C  C169  1  0.525600  0.671500  0.358100  1.0  -0.2033
  C  C170  1  0.433100  0.669900  0.293000  1.0  0.7179
  C  C171  1  0.537300  0.713200  0.473600  1.0  -0.1994
  C  C172  1  0.604500  0.784300  0.464600  1.0  0.7584
  C  C173  1  0.213600  0.518200  0.654200  1.0  0.0082
  C  C174  1  0.018600  0.506100  0.735700  1.0  -0.2293
  C  C175  1  0.104400  0.467900  0.790300  1.0  0.7641
  C  C176  1  0.020100  0.603300  0.661700  1.0  -0.1962
  C  C177  1  0.942900  0.655700  0.705500  1.0  0.7555
  C  C178  1  0.346700  0.559900  0.633700  1.0  -0.0009
  C  C179  1  0.525600  0.641900  0.671500  1.0  -0.2047
  C  C180  1  0.433100  0.707000  0.669900  1.0  0.712
  C  C181  1  0.537300  0.526400  0.713200  1.0  -0.1981
  C  C182  1  0.604500  0.535400  0.784300  1.0  0.7573
  C  C183  1  0.213600  0.481800  0.345800  1.0  0.0072
  C  C184  1  0.018600  0.493900  0.264300  1.0  -0.2281
  C  C185  1  0.104400  0.532100  0.209700  1.0  0.7629
  C  C186  1  0.020100  0.396700  0.338300  1.0  -0.1979
  C  C187  1  0.942900  0.344300  0.294500  1.0  0.7541
  C  C188  1  0.346700  0.440100  0.366300  1.0  -0.0015
  C  C189  1  0.525600  0.358100  0.328500  1.0  -0.2058
  C  C190  1  0.433100  0.293000  0.330100  1.0  0.7107
  C  C191  1  0.537300  0.473600  0.286800  1.0  -0.2003
  C  C192  1  0.604500  0.464600  0.215700  1.0  0.759
  N  N193  1  0.610600  0.800500  0.945600  1.0  -0.2459
  N  N194  1  0.938600  0.809200  0.918800  1.0  -0.2548
  N  N195  1  0.610600  0.199500  0.054400  1.0  -0.2449
  N  N196  1  0.938600  0.190800  0.081200  1.0  -0.2539
  N  N197  1  0.610600  0.054400  0.800500  1.0  -0.245
  N  N198  1  0.938600  0.081200  0.809200  1.0  -0.2533
  N  N199  1  0.610600  0.945600  0.199500  1.0  -0.244
  N  N200  1  0.938600  0.918800  0.190800  1.0  -0.2547
  N  N201  1  0.110600  0.300500  0.554400  1.0  -0.246
  N  N202  1  0.438600  0.309200  0.581200  1.0  -0.2546
  N  N203  1  0.110600  0.699500  0.445600  1.0  -0.2448
  N  N204  1  0.438600  0.690800  0.418800  1.0  -0.2537
  N  N205  1  0.110600  0.554400  0.699500  1.0  -0.2441
  N  N206  1  0.438600  0.581200  0.690800  1.0  -0.2547
  N  N207  1  0.110600  0.445600  0.300500  1.0  -0.2459
  N  N208  1  0.438600  0.418800  0.309200  1.0  -0.2543
  O  O209  1  0.714700  0.684400  0.002000  1.0  -0.7236
  O  O210  1  0.559700  0.692200  0.088900  1.0  -0.7728
  O  O211  1  0.476500  0.732900  0.840000  1.0  -0.7388
  O  O212  1  0.350000  0.824300  0.807900  1.0  -0.7179
  O  O213  1  0.800500  0.810550  0.793310  1.0  -0.7122
  O  O214  1  0.998900  0.851800  0.741510  1.0  -0.7386
  O  O215  1  0.188300  0.695600  0.010900  1.0  -0.7358
  O  O216  1  0.071400  0.683700  0.911700  1.0  -0.7573
  O  O217  1  0.714700  0.315600  0.998000  1.0  -0.7226
  O  O218  1  0.559700  0.307800  0.911100  1.0  -0.7715
  O  O219  1  0.476500  0.267100  0.160000  1.0  -0.7375
  O  O220  1  0.350000  0.175700  0.192100  1.0  -0.7192
  O  O221  1  0.800500  0.189450  0.206690  1.0  -0.7134
  O  O222  1  0.998900  0.148200  0.258490  1.0  -0.7389
  O  O223  1  0.188300  0.304400  0.989100  1.0  -0.7383
  O  O224  1  0.071400  0.316300  0.088300  1.0  -0.7573
  O  O225  1  0.714700  0.998000  0.684400  1.0  -0.7249
  O  O226  1  0.559700  0.911100  0.692200  1.0  -0.7696
  O  O227  1  0.476500  0.160000  0.732900  1.0  -0.7417
  O  O228  1  0.350000  0.192100  0.824300  1.0  -0.7176
  O  O229  1  0.800500  0.206690  0.810550  1.0  -0.7109
  O  O230  1  0.998900  0.258490  0.851800  1.0  -0.7352
  O  O231  1  0.188300  0.989100  0.695600  1.0  -0.7335
  O  O232  1  0.071400  0.088300  0.683700  1.0  -0.7582
  O  O233  1  0.714700  0.002000  0.315600  1.0  -0.7274
  O  O234  1  0.559700  0.088900  0.307800  1.0  -0.7743
  O  O235  1  0.476500  0.840000  0.267100  1.0  -0.7428
  O  O236  1  0.350000  0.807900  0.175700  1.0  -0.7187
  O  O237  1  0.800500  0.793310  0.189450  1.0  -0.7115
  O  O238  1  0.998900  0.741510  0.148200  1.0  -0.7353
  O  O239  1  0.188300  0.010900  0.304400  1.0  -0.734
  O  O240  1  0.071400  0.911700  0.316300  1.0  -0.7591
  O  O241  1  0.214700  0.184400  0.498000  1.0  -0.7242
  O  O242  1  0.059700  0.192200  0.411100  1.0  -0.7723
  O  O243  1  0.976500  0.232900  0.660000  1.0  -0.739
  O  O244  1  0.850000  0.324300  0.692100  1.0  -0.7201
  O  O245  1  0.300500  0.310550  0.706690  1.0  -0.713
  O  O246  1  0.498900  0.351800  0.758490  1.0  -0.7385
  O  O247  1  0.688300  0.195600  0.489100  1.0  -0.7362
  O  O248  1  0.571400  0.183700  0.588300  1.0  -0.7566
  O  O249  1  0.214700  0.815600  0.502000  1.0  -0.7216
  O  O250  1  0.059700  0.807800  0.588900  1.0  -0.7744
  O  O251  1  0.976500  0.767100  0.340000  1.0  -0.7368
  O  O252  1  0.850000  0.675700  0.307900  1.0  -0.7176
  O  O253  1  0.300500  0.689450  0.293310  1.0  -0.7104
  O  O254  1  0.498900  0.648200  0.241510  1.0  -0.7383
  O  O255  1  0.688300  0.804400  0.510900  1.0  -0.7374
  O  O256  1  0.571400  0.816300  0.411700  1.0  -0.7574
  O  O257  1  0.214700  0.498000  0.815600  1.0  -0.7274
  O  O258  1  0.059700  0.411100  0.807800  1.0  -0.7713
  O  O259  1  0.976500  0.660000  0.767100  1.0  -0.7424
  O  O260  1  0.850000  0.692100  0.675700  1.0  -0.7178
  O  O261  1  0.300500  0.706690  0.689450  1.0  -0.7115
  O  O262  1  0.498900  0.758490  0.648200  1.0  -0.7348
  O  O263  1  0.688300  0.489100  0.804400  1.0  -0.734
  O  O264  1  0.571400  0.588300  0.816300  1.0  -0.7596
  O  O265  1  0.214700  0.502000  0.184400  1.0  -0.7256
  O  O266  1  0.059700  0.588900  0.192200  1.0  -0.7726
  O  O267  1  0.976500  0.340000  0.232900  1.0  -0.7426
  O  O268  1  0.850000  0.307900  0.324300  1.0  -0.7181
  O  O269  1  0.300500  0.293310  0.310550  1.0  -0.7121
  O  O270  1  0.498900  0.241510  0.351800  1.0  -0.7345
  O  O271  1  0.688300  0.510900  0.195600  1.0  -0.7339
  O  O272  1  0.571400  0.411700  0.183700  1.0  -0.7589
