# generated using pymatgen
data_Zn3H86(C47O16)2
_symmetry_space_group_name_H-M   'P 1'
_cell_length_a   12.04320000
_cell_length_b   15.93220000
_cell_length_c   16.64200000
_cell_angle_alpha   76.77000000
_cell_angle_beta   70.17200000
_cell_angle_gamma   85.48100000
_symmetry_Int_Tables_number   1
_chemical_formula_structural   Zn3H86(C47O16)2
_chemical_formula_sum   'Zn3 H86 C94 O32'
_cell_volume   2924.14360351
_cell_formula_units_Z   1
loop_
 _symmetry_equiv_pos_site_id
 _symmetry_equiv_pos_as_xyz
  1  'x, y, z'
loop_
 _atom_site_type_symbol
 _atom_site_label
 _atom_site_symmetry_multiplicity
 _atom_site_fract_x
 _atom_site_fract_y
 _atom_site_fract_z
 _atom_site_occupancy
 _atom_site_charge
  Zn  Zn1  1  0.678070  0.840750  0.362240  1.0  1.0175
  Zn  Zn2  1  0.321930  0.159250  0.637760  1.0  1.0159
  Zn  Zn3  1  0.500000  0.000000  0.500000  1.0  0.8986
  H  H4  1  0.764300  0.095900  0.182700  1.0  0.1126
  H  H5  1  0.697200  0.286500  0.951900  1.0  0.0855
  H  H6  1  0.993200  0.271300  0.934900  1.0  0.0937
  H  H7  1  0.862200  0.462500  0.862200  1.0  0.0791
  H  H8  1  0.941800  0.277200  0.676200  1.0  0.0915
  H  H9  1  0.896600  0.566000  0.649600  1.0  0.0981
  H  H10  1  0.853700  0.671400  0.731800  1.0  0.075
  H  H11  1  0.836600  0.599700  0.816800  1.0  0.0723
  H  H12  1  0.023100  0.660100  0.771900  1.0  0.1032
  H  H13  1  0.054200  0.636300  0.680400  1.0  0.11
  H  H14  1  0.037600  0.563200  0.764500  1.0  0.096
  H  H15  1  0.544700  0.712500  0.641400  1.0  0.1132
  H  H16  1  0.652800  0.456100  0.798200  1.0  0.0894
  H  H17  1  0.366900  0.452800  0.797300  1.0  0.1111
  H  H18  1  0.433500  0.350300  0.978100  1.0  0.0777
  H  H19  1  0.575600  0.204000  0.760200  1.0  0.1075
  H  H20  1  0.472400  0.140100  0.055500  1.0  0.1239
  H  H21  1  0.411300  0.295100  0.109100  1.0  0.0723
  H  H22  1  0.416300  0.207400  0.174000  1.0  0.062
  H  H23  1  0.222200  0.234300  0.172500  1.0  0.0976
  H  H24  1  0.269700  0.150600  0.137400  1.0  0.1022
  H  H25  1  0.265400  0.237700  0.071700  1.0  0.0887
  H  H26  1  0.453800  0.064600  0.306200  1.0  0.1234
  H  H27  1  0.572600  0.112200  0.284000  1.0  0.0943
  H  H28  1  0.052700  0.138900  0.146600  1.0  0.0948
  H  H29  1  0.950000  0.076800  0.160200  1.0  0.0855
  H  H30  1  0.923500  0.156800  0.203800  1.0  0.0925
  H  H31  1  0.910000  0.151700  0.747300  1.0  0.0906
  H  H32  1  0.942200  0.081900  0.818600  1.0  0.1293
  H  H33  1  0.933700  0.401900  0.486500  1.0  0.1311
  H  H34  1  0.883200  0.325500  0.566700  1.0  0.0896
  H  H35  1  0.014900  0.354100  0.539000  1.0  0.104
  H  H36  1  0.811900  0.819700  0.591200  1.0  0.171
  H  H37  1  0.688100  0.796200  0.658900  1.0  0.103
  H  H38  1  0.260700  0.689200  0.690400  1.0  0.1009
  H  H39  1  0.388400  0.691400  0.622400  1.0  0.0806
  H  H40  1  0.363500  0.733300  0.703300  1.0  0.068
  H  H41  1  0.654100  0.303100  0.645400  1.0  0.0977
  H  H42  1  0.604600  0.371300  0.582000  1.0  0.1263
  H  H43  1  0.633800  0.004000  0.870000  1.0  0.1
  H  H44  1  0.679400  0.088200  0.798600  1.0  0.083
  H  H45  1  0.549300  0.057400  0.823500  1.0  0.0742
  H  H46  1  0.547400  0.172100  0.563600  1.0  0.2819
  H  H47  1  0.235700  0.904100  0.817300  1.0  0.1142
  H  H48  1  0.302800  0.713500  0.048100  1.0  0.0848
  H  H49  1  0.006800  0.728700  0.065100  1.0  0.0931
  H  H50  1  0.137800  0.537500  0.137800  1.0  0.0823
  H  H51  1  0.058200  0.722800  0.323800  1.0  0.0916
  H  H52  1  0.103400  0.434000  0.350400  1.0  0.0984
  H  H53  1  0.146300  0.328600  0.268200  1.0  0.0729
  H  H54  1  0.163400  0.400300  0.183200  1.0  0.0722
  H  H55  1  0.976900  0.339900  0.228100  1.0  0.1027
  H  H56  1  0.945800  0.363700  0.319600  1.0  0.1096
  H  H57  1  0.962400  0.436800  0.235500  1.0  0.0967
  H  H58  1  0.455300  0.287500  0.358600  1.0  0.1104
  H  H59  1  0.347200  0.543900  0.201800  1.0  0.0897
  H  H60  1  0.633100  0.547200  0.202700  1.0  0.1112
  H  H61  1  0.566500  0.649700  0.021900  1.0  0.077
  H  H62  1  0.424400  0.796000  0.239800  1.0  0.106
  H  H63  1  0.527600  0.859900  0.944500  1.0  0.1226
  H  H64  1  0.588700  0.704900  0.890900  1.0  0.0708
  H  H65  1  0.583700  0.792600  0.826000  1.0  0.0632
  H  H66  1  0.777800  0.765700  0.827500  1.0  0.0944
  H  H67  1  0.730300  0.849400  0.862600  1.0  0.1037
  H  H68  1  0.734600  0.762300  0.928300  1.0  0.088
  H  H69  1  0.546200  0.935400  0.693800  1.0  0.1221
  H  H70  1  0.427400  0.887800  0.716000  1.0  0.0945
  H  H71  1  0.947300  0.861100  0.853400  1.0  0.0962
  H  H72  1  0.050000  0.923200  0.839800  1.0  0.0879
  H  H73  1  0.076500  0.843200  0.796200  1.0  0.0919
  H  H74  1  0.090000  0.848300  0.252700  1.0  0.0908
  H  H75  1  0.057800  0.918100  0.181400  1.0  0.1293
  H  H76  1  0.066300  0.598100  0.513500  1.0  0.1308
  H  H77  1  0.116800  0.674500  0.433300  1.0  0.0883
  H  H78  1  0.985100  0.645900  0.461000  1.0  0.1042
  H  H79  1  0.188100  0.180300  0.408800  1.0  0.1692
  H  H80  1  0.311900  0.203800  0.341100  1.0  0.1037
  H  H81  1  0.739300  0.310800  0.309600  1.0  0.0994
  H  H82  1  0.611600  0.308600  0.377600  1.0  0.0821
  H  H83  1  0.636500  0.266700  0.296700  1.0  0.0678
  H  H84  1  0.345900  0.696900  0.354600  1.0  0.0945
  H  H85  1  0.395400  0.628700  0.418000  1.0  0.1277
  H  H86  1  0.366200  0.996000  0.130000  1.0  0.101
  H  H87  1  0.320600  0.911800  0.201400  1.0  0.0803
  H  H88  1  0.450700  0.942600  0.176500  1.0  0.0735
  H  H89  1  0.452600  0.827900  0.436400  1.0  0.2799
  C  C90  1  0.749800  0.135700  0.137000  1.0  -0.2444
  C  C91  1  0.636700  0.143100  0.126700  1.0  0.2697
  C  C92  1  0.616900  0.195000  0.058900  1.0  0.0509
  C  C93  1  0.710100  0.248300  0.999200  1.0  -0.0908
  C  C94  1  0.819000  0.246000  0.008200  1.0  0.0556
  C  C95  1  0.835400  0.189100  0.077300  1.0  0.2463
  C  C96  1  0.919800  0.304800  0.943600  1.0  -0.1298
  C  C97  1  0.929600  0.380700  0.988800  1.0  -0.0513
  C  C98  1  0.928200  0.359800  0.082200  1.0  -0.1199
  C  C99  1  0.906400  0.339300  0.855900  1.0  0.0133
  C  C100  1  0.879100  0.425000  0.824200  1.0  -0.1064
  C  C101  1  0.875500  0.456900  0.743100  1.0  0.052
  C  C102  1  0.900600  0.399700  0.685100  1.0  0.21
  C  C103  1  0.926100  0.314900  0.713900  1.0  -0.2464
  C  C104  1  0.928800  0.284800  0.797300  1.0  0.2328
  C  C105  1  0.848000  0.550700  0.711400  1.0  -0.1628
  C  C106  1  0.879700  0.614600  0.754600  1.0  -0.1271
  C  C107  1  0.010800  0.619000  0.741600  1.0  -0.3242
  C  C108  1  0.721200  0.567200  0.713600  1.0  -0.0204
  C  C109  1  0.683800  0.643900  0.670100  1.0  0.1843
  C  C110  1  0.566000  0.661300  0.672600  1.0  -0.1767
  C  C111  1  0.483900  0.597800  0.724300  1.0  0.2582
  C  C112  1  0.513300  0.521300  0.770000  1.0  -0.0177
  C  C113  1  0.632700  0.506900  0.765700  1.0  -0.0792
  C  C114  1  0.419900  0.455900  0.830100  1.0  -0.123
  C  C115  1  0.343900  0.491100  0.910100  1.0  -0.1024
  C  C116  1  0.466700  0.365500  0.849500  1.0  0.0148
  C  C117  1  0.463400  0.320400  0.933300  1.0  -0.1099
  C  C118  1  0.498800  0.238600  0.956000  1.0  0.1161
  C  C119  1  0.539600  0.196200  0.888700  1.0  0.1991
  C  C120  1  0.546300  0.235200  0.803900  1.0  -0.2638
  C  C121  1  0.510700  0.318800  0.782700  1.0  0.2449
  C  C122  1  0.494500  0.200400  0.046200  1.0  -0.156
  C  C123  1  0.403300  0.233200  0.119100  1.0  -0.1564
  C  C124  1  0.278600  0.212000  0.125800  1.0  -0.3315
  C  C125  1  0.537100  0.066000  0.272000  1.0  -0.009
  C  C126  1  0.588900  0.986400  0.302100  1.0  0.6622
  C  C127  1  0.970700  0.135700  0.153200  1.0  -0.0146
  C  C128  1  0.965000  0.137700  0.779500  1.0  -0.0421
  C  C129  1  0.082000  0.128700  0.717000  1.0  0.7055
  C  C130  1  0.936100  0.373800  0.543500  1.0  -0.1477
  C  C131  1  0.740600  0.788200  0.602300  1.0  -0.0818
  C  C132  1  0.684300  0.840400  0.537400  1.0  0.629
  C  C133  1  0.343400  0.686700  0.683100  1.0  -0.0529
  C  C134  1  0.582300  0.325600  0.634200  1.0  -0.0666
  C  C135  1  0.522700  0.253300  0.616500  1.0  0.5916
  C  C136  1  0.612400  0.060900  0.845500  1.0  -0.0077
  C  C137  1  0.250200  0.864300  0.863000  1.0  -0.2469
  C  C138  1  0.363300  0.856900  0.873300  1.0  0.2691
  C  C139  1  0.383100  0.805000  0.941100  1.0  0.0524
  C  C140  1  0.289900  0.751700  0.000800  1.0  -0.091
  C  C141  1  0.181000  0.754000  0.991800  1.0  0.0554
  C  C142  1  0.164600  0.810900  0.922700  1.0  0.2458
  C  C143  1  0.080200  0.695200  0.056400  1.0  -0.1325
  C  C144  1  0.070400  0.619300  0.011200  1.0  -0.0514
  C  C145  1  0.071800  0.640200  0.917800  1.0  -0.1145
  C  C146  1  0.093600  0.660700  0.144100  1.0  0.0146
  C  C147  1  0.120900  0.575000  0.175800  1.0  -0.107
  C  C148  1  0.124500  0.543100  0.256900  1.0  0.0517
  C  C149  1  0.099400  0.600300  0.314900  1.0  0.2116
  C  C150  1  0.073900  0.685100  0.286100  1.0  -0.2487
  C  C151  1  0.071200  0.715200  0.202700  1.0  0.2345
  C  C152  1  0.152000  0.449300  0.288600  1.0  -0.1603
  C  C153  1  0.120300  0.385400  0.245400  1.0  -0.1263
  C  C154  1  0.989200  0.381000  0.258400  1.0  -0.3247
  C  C155  1  0.278800  0.432800  0.286400  1.0  -0.0198
  C  C156  1  0.316200  0.356100  0.329900  1.0  0.184
  C  C157  1  0.434000  0.338700  0.327400  1.0  -0.1754
  C  C158  1  0.516100  0.402200  0.275700  1.0  0.2581
  C  C159  1  0.486700  0.478700  0.230000  1.0  -0.0162
  C  C160  1  0.367300  0.493100  0.234300  1.0  -0.0786
  C  C161  1  0.580100  0.544100  0.169900  1.0  -0.1184
  C  C162  1  0.656100  0.508900  0.089900  1.0  -0.1022
  C  C163  1  0.533300  0.634500  0.150500  1.0  0.0146
  C  C164  1  0.536600  0.679600  0.066700  1.0  -0.1088
  C  C165  1  0.501200  0.761400  0.044000  1.0  0.1171
  C  C166  1  0.460400  0.803800  0.111300  1.0  0.2003
  C  C167  1  0.453700  0.764800  0.196100  1.0  -0.2648
  C  C168  1  0.489300  0.681200  0.217300  1.0  0.2435
  C  C169  1  0.505500  0.799600  0.953800  1.0  -0.1556
  C  C170  1  0.596700  0.766800  0.880900  1.0  -0.1555
  C  C171  1  0.721400  0.788000  0.874200  1.0  -0.3308
  C  C172  1  0.462900  0.934000  0.728000  1.0  -0.0075
  C  C173  1  0.411100  0.013600  0.697900  1.0  0.6607
  C  C174  1  0.029300  0.864300  0.846800  1.0  -0.0148
  C  C175  1  0.035000  0.862300  0.220500  1.0  -0.041
  C  C176  1  0.918000  0.871300  0.283000  1.0  0.7055
  C  C177  1  0.063900  0.626200  0.456500  1.0  -0.1482
  C  C178  1  0.259400  0.211800  0.397700  1.0  -0.0761
  C  C179  1  0.315700  0.159600  0.462600  1.0  0.6275
  C  C180  1  0.656600  0.313300  0.316900  1.0  -0.0544
  C  C181  1  0.417700  0.674400  0.365800  1.0  -0.0676
  C  C182  1  0.477300  0.746700  0.383500  1.0  0.5928
  C  C183  1  0.387600  0.939100  0.154500  1.0  -0.0061
  O  O184  1  0.547300  0.086800  0.182700  1.0  -0.2924
  O  O185  1  0.640500  0.941100  0.249600  1.0  -0.5831
  O  O186  1  0.580900  0.963600  0.379400  1.0  -0.6626
  O  O187  1  0.950500  0.184600  0.080600  1.0  -0.2889
  O  O188  1  0.950300  0.200100  0.832000  1.0  -0.286
  O  O189  1  0.095600  0.080000  0.670100  1.0  -0.4905
  O  O190  1  0.161700  0.178300  0.713800  1.0  -0.6038
  O  O191  1  0.899200  0.436000  0.602800  1.0  -0.3289
  O  O192  1  0.774200  0.701000  0.617500  1.0  -0.3063
  O  O193  1  0.686700  0.801900  0.483700  1.0  -0.5783
  O  O194  1  0.645300  0.922800  0.539800  1.0  -0.6252
  O  O195  1  0.368800  0.609000  0.731000  1.0  -0.2899
  O  O196  1  0.514300  0.360000  0.702700  1.0  -0.3155
  O  O197  1  0.587000  0.208200  0.569600  1.0  -0.525
  O  O198  1  0.413300  0.249700  0.647500  1.0  -0.5874
  O  O199  1  0.575400  0.109900  0.910800  1.0  -0.27
  O  O200  1  0.452700  0.913200  0.817300  1.0  -0.2915
  O  O201  1  0.359500  0.058900  0.750400  1.0  -0.5828
  O  O202  1  0.419100  0.036400  0.620600  1.0  -0.6631
  O  O203  1  0.049500  0.815400  0.919400  1.0  -0.2876
  O  O204  1  0.049700  0.799900  0.168000  1.0  -0.284
  O  O205  1  0.904400  0.920000  0.329900  1.0  -0.4888
  O  O206  1  0.838300  0.821700  0.286200  1.0  -0.6044
  O  O207  1  0.100800  0.564000  0.397200  1.0  -0.3275
  O  O208  1  0.225800  0.299000  0.382500  1.0  -0.3071
  O  O209  1  0.313300  0.198100  0.516300  1.0  -0.578
  O  O210  1  0.354700  0.077200  0.460200  1.0  -0.6249
  O  O211  1  0.631200  0.391000  0.269000  1.0  -0.2887
  O  O212  1  0.485700  0.640000  0.297300  1.0  -0.3154
  O  O213  1  0.413000  0.791800  0.430400  1.0  -0.5251
  O  O214  1  0.586700  0.750300  0.352500  1.0  -0.5831
  O  O215  1  0.424600  0.890100  0.089200  1.0  -0.2692
