# generated using pymatgen
data_CuC3N
_symmetry_space_group_name_H-M   'P 1'
_cell_length_a   16.16000000
_cell_length_b   16.16000000
_cell_length_c   13.46000000
_cell_angle_alpha   90.00000000
_cell_angle_beta   90.00000000
_cell_angle_gamma   90.00000000
_symmetry_Int_Tables_number   1
_chemical_formula_structural   CuC3N
_chemical_formula_sum   'Cu16 C48 N16'
_cell_volume   3515.01977600
_cell_formula_units_Z   16
loop_
 _symmetry_equiv_pos_site_id
 _symmetry_equiv_pos_as_xyz
  1  'x, y, z'
loop_
 _atom_site_type_symbol
 _atom_site_label
 _atom_site_symmetry_multiplicity
 _atom_site_fract_x
 _atom_site_fract_y
 _atom_site_fract_z
 _atom_site_occupancy
 _atom_site_charge
  Cu  Cu1  1  0.354240  0.145760  0.188180  1.0  0.5385
  Cu  Cu2  1  0.645760  0.854240  0.188180  1.0  0.5374
  Cu  Cu3  1  0.145760  0.354240  0.688180  1.0  0.5374
  Cu  Cu4  1  0.854240  0.354240  0.188180  1.0  0.5381
  Cu  Cu5  1  0.145760  0.645760  0.188180  1.0  0.5379
  Cu  Cu6  1  0.645760  0.145760  0.311820  1.0  0.538
  Cu  Cu7  1  0.354240  0.854240  0.311820  1.0  0.5383
  Cu  Cu8  1  0.145760  0.354240  0.311820  1.0  0.5375
  Cu  Cu9  1  0.854240  0.645760  0.311820  1.0  0.5386
  Cu  Cu10  1  0.645760  0.854240  0.811820  1.0  0.5375
  Cu  Cu11  1  0.354240  0.145760  0.811820  1.0  0.5386
  Cu  Cu12  1  0.145760  0.645760  0.811820  1.0  0.538
  Cu  Cu13  1  0.854240  0.354240  0.811820  1.0  0.5383
  Cu  Cu14  1  0.354240  0.854240  0.688180  1.0  0.5381
  Cu  Cu15  1  0.645760  0.145760  0.688180  1.0  0.5379
  Cu  Cu16  1  0.854240  0.645760  0.688180  1.0  0.5385
  C  C17  1  0.331400  0.032800  0.236300  1.0  -0.0609
  C  C18  1  0.831400  0.532800  0.736300  1.0  -0.0609
  C  C19  1  0.668600  0.967200  0.236300  1.0  -0.0603
  C  C20  1  0.168600  0.467200  0.736300  1.0  -0.0603
  C  C21  1  0.967200  0.331400  0.236300  1.0  -0.058
  C  C22  1  0.467200  0.831400  0.736300  1.0  -0.058
  C  C23  1  0.032800  0.668600  0.236300  1.0  -0.0585
  C  C24  1  0.532800  0.168600  0.736300  1.0  -0.0585
  C  C25  1  0.668600  0.032800  0.263700  1.0  -0.0613
  C  C26  1  0.168600  0.532800  0.763700  1.0  -0.0613
  C  C27  1  0.331400  0.967200  0.263700  1.0  -0.0621
  C  C28  1  0.831400  0.467200  0.763700  1.0  -0.0621
  C  C29  1  0.032800  0.331400  0.263700  1.0  -0.0588
  C  C30  1  0.532800  0.831400  0.763700  1.0  -0.0588
  C  C31  1  0.967200  0.668600  0.263700  1.0  -0.0593
  C  C32  1  0.467200  0.168600  0.763700  1.0  -0.0593
  C  C33  1  0.352900  0.147100  0.042300  1.0  -0.0392
  C  C34  1  0.273500  0.226500  0.238000  1.0  -0.0174
  C  C35  1  0.647100  0.852900  0.042300  1.0  -0.0409
  C  C36  1  0.726500  0.773500  0.238000  1.0  -0.0143
  C  C37  1  0.147100  0.352900  0.542300  1.0  -0.0409
  C  C38  1  0.226500  0.273500  0.738000  1.0  -0.0143
  C  C39  1  0.852900  0.352900  0.042300  1.0  -0.0393
  C  C40  1  0.773500  0.273500  0.238000  1.0  -0.0166
  C  C41  1  0.147100  0.647100  0.042300  1.0  -0.0408
  C  C42  1  0.226500  0.726500  0.238000  1.0  -0.0148
  C  C43  1  0.647100  0.147100  0.457700  1.0  -0.039
  C  C44  1  0.726500  0.226500  0.262000  1.0  -0.0143
  C  C45  1  0.352900  0.852900  0.457700  1.0  -0.0374
  C  C46  1  0.273500  0.773500  0.262000  1.0  -0.0159
  C  C47  1  0.147100  0.352900  0.457700  1.0  -0.0391
  C  C48  1  0.226500  0.273500  0.262000  1.0  -0.0142
  C  C49  1  0.852900  0.647100  0.457700  1.0  -0.0373
  C  C50  1  0.773500  0.726500  0.262000  1.0  -0.0164
  C  C51  1  0.647100  0.852900  0.957700  1.0  -0.0391
  C  C52  1  0.726500  0.773500  0.762000  1.0  -0.0142
  C  C53  1  0.352900  0.147100  0.957700  1.0  -0.0373
  C  C54  1  0.273500  0.226500  0.762000  1.0  -0.0164
  C  C55  1  0.147100  0.647100  0.957700  1.0  -0.039
  C  C56  1  0.226500  0.726500  0.762000  1.0  -0.0143
  C  C57  1  0.852900  0.352900  0.957700  1.0  -0.0374
  C  C58  1  0.773500  0.273500  0.762000  1.0  -0.0159
  C  C59  1  0.352900  0.852900  0.542300  1.0  -0.0393
  C  C60  1  0.273500  0.773500  0.738000  1.0  -0.0163
  C  C61  1  0.647100  0.147100  0.542300  1.0  -0.0408
  C  C62  1  0.726500  0.226500  0.738000  1.0  -0.0147
  C  C63  1  0.852900  0.647100  0.542300  1.0  -0.0392
  C  C64  1  0.773500  0.726500  0.738000  1.0  -0.0172
  N  N65  1  0.467200  0.168600  0.236300  1.0  -0.4211
  N  N66  1  0.967200  0.668600  0.736300  1.0  -0.4211
  N  N67  1  0.532800  0.831400  0.236300  1.0  -0.4198
  N  N68  1  0.032800  0.331400  0.736300  1.0  -0.4198
  N  N69  1  0.831400  0.467200  0.236300  1.0  -0.4238
  N  N70  1  0.331400  0.967200  0.736300  1.0  -0.4238
  N  N71  1  0.168600  0.532800  0.236300  1.0  -0.4251
  N  N72  1  0.668600  0.032800  0.736300  1.0  -0.4251
  N  N73  1  0.532800  0.168600  0.263700  1.0  -0.4221
  N  N74  1  0.032800  0.668600  0.763700  1.0  -0.4221
  N  N75  1  0.467200  0.831400  0.263700  1.0  -0.423
  N  N76  1  0.967200  0.331400  0.763700  1.0  -0.423
  N  N77  1  0.168600  0.467200  0.263700  1.0  -0.4262
  N  N78  1  0.668600  0.967200  0.763700  1.0  -0.4262
  N  N79  1  0.831400  0.532800  0.263700  1.0  -0.4274
  N  N80  1  0.331400  0.032800  0.763700  1.0  -0.4274
