# generated using pymatgen
data_CoH18C25N7O4
_symmetry_space_group_name_H-M   'P 1'
_cell_length_a   9.66600000
_cell_length_b   11.35800000
_cell_length_c   13.67100000
_cell_angle_alpha   69.70100000
_cell_angle_beta   70.79200000
_cell_angle_gamma   81.66800000
_symmetry_Int_Tables_number   1
_chemical_formula_structural   CoH18C25N7O4
_chemical_formula_sum   'Co2 H36 C50 N14 O8'
_cell_volume   1328.51005331
_cell_formula_units_Z   2
loop_
 _symmetry_equiv_pos_site_id
 _symmetry_equiv_pos_as_xyz
  1  'x, y, z'
loop_
 _atom_site_type_symbol
 _atom_site_label
 _atom_site_symmetry_multiplicity
 _atom_site_fract_x
 _atom_site_fract_y
 _atom_site_fract_z
 _atom_site_occupancy
 _atom_site_charge
  Co  Co1  1  0.500000  0.500000  0.500000  1.0  0.7793
  Co  Co2  1  0.000000  0.000000  0.000000  1.0  0.7403
  H  H3  1  0.579000  0.538400  0.243100  1.0  0.1015
  H  H4  1  0.461600  0.229700  0.710500  1.0  0.1089
  H  H5  1  0.223800  0.364100  0.291500  1.0  0.1384
  H  H6  1  0.631700  0.047500  0.719000  1.0  0.1322
  H  H7  1  0.233600  0.366800  0.468400  1.0  0.1081
  H  H8  1  0.238000  0.082600  0.748300  1.0  0.0885
  H  H9  1  0.283800  0.730100  0.752000  1.0  0.1242
  H  H10  1  0.970300  0.435300  0.629300  1.0  0.1118
  H  H11  1  0.772000  0.307600  0.430500  1.0  0.0991
  H  H12  1  0.115300  0.742000  0.926100  1.0  0.1094
  H  H13  1  0.779000  0.126600  0.857800  1.0  0.0971
  H  H14  1  0.779200  0.298100  0.705100  1.0  0.0949
  H  H15  1  0.859100  0.951600  0.680700  1.0  0.1134
  H  H16  1  0.470300  0.193900  0.377700  1.0  0.0979
  H  H17  1  0.303500  0.130500  0.550200  1.0  0.1039
  H  H18  1  0.745700  0.502000  0.900300  1.0  0.1144
  H  H19  1  0.677700  0.471100  0.087000  1.0  0.1207
  H  H20  1  0.063200  0.827600  0.629700  1.0  0.1038
  H  H21  1  0.421000  0.461600  0.756900  1.0  0.1023
  H  H22  1  0.538400  0.770300  0.289500  1.0  0.1087
  H  H23  1  0.776200  0.635900  0.708500  1.0  0.14
  H  H24  1  0.368300  0.952500  0.281000  1.0  0.1319
  H  H25  1  0.766400  0.633200  0.531600  1.0  0.1074
  H  H26  1  0.762000  0.917400  0.251700  1.0  0.0885
  H  H27  1  0.716200  0.269900  0.248000  1.0  0.1243
  H  H28  1  0.029700  0.564700  0.370700  1.0  0.112
  H  H29  1  0.228000  0.692400  0.569500  1.0  0.0996
  H  H30  1  0.884700  0.258000  0.073900  1.0  0.1093
  H  H31  1  0.221000  0.873400  0.142200  1.0  0.0979
  H  H32  1  0.220800  0.701900  0.294900  1.0  0.0954
  H  H33  1  0.140900  0.048400  0.319300  1.0  0.1131
  H  H34  1  0.529700  0.806100  0.622300  1.0  0.0987
  H  H35  1  0.696500  0.869500  0.449800  1.0  0.1046
  H  H36  1  0.254300  0.498000  0.099700  1.0  0.1142
  H  H37  1  0.322300  0.528900  0.913000  1.0  0.1203
  H  H38  1  0.936800  0.172400  0.370300  1.0  0.1058
  C  C39  1  0.065800  0.247400  0.837000  1.0  0.1038
  C  C40  1  0.074600  0.351400  0.743400  1.0  -0.0984
  C  C41  1  0.178400  0.216900  0.898600  1.0  0.6766
  C  C42  1  0.875700  0.073700  0.530600  1.0  0.1276
  C  C43  1  0.400500  0.962100  0.603400  1.0  0.1187
  C  C44  1  0.492500  0.494800  0.277700  1.0  0.1421
  C  C45  1  0.545800  0.222300  0.654800  1.0  0.0295
  C  C46  1  0.194900  0.446000  0.692600  1.0  0.683
  C  C47  1  0.296000  0.398800  0.303200  1.0  -0.1427
  C  C48  1  0.459500  0.480700  0.110500  1.0  0.1494
  C  C49  1  0.639700  0.121400  0.660300  1.0  -0.1467
  C  C50  1  0.302400  0.400600  0.400900  1.0  0.0318
  C  C51  1  0.228700  0.996100  0.771800  1.0  0.1726
  C  C52  1  0.255100  0.802200  0.772300  1.0  -0.1569
  C  C53  1  0.966700  0.368200  0.692900  1.0  -0.0424
  C  C54  1  0.715500  0.266100  0.501100  1.0  0.1352
  C  C55  1  0.162000  0.809800  0.868300  1.0  0.0457
  C  C56  1  0.853800  0.183400  0.828900  1.0  0.1597
  C  C57  1  0.854000  0.285400  0.736900  1.0  -0.1182
  C  C58  1  0.915200  0.971300  0.607700  1.0  -0.1345
  C  C59  1  0.482500  0.115500  0.426800  1.0  -0.1456
  C  C60  1  0.382700  0.077700  0.530200  1.0  -0.1409
  C  C61  1  0.647100  0.501400  0.940500  1.0  -0.1638
  C  C62  1  0.606700  0.482400  0.052000  1.0  -0.1616
  C  C63  1  0.038400  0.897300  0.577100  1.0  -0.1309
  C  C64  1  0.934200  0.752600  0.163000  1.0  0.1036
  C  C65  1  0.925400  0.648600  0.256600  1.0  -0.0992
  C  C66  1  0.821600  0.783100  0.101400  1.0  0.6788
  C  C67  1  0.124300  0.926300  0.469400  1.0  0.1279
  C  C68  1  0.599500  0.037900  0.396600  1.0  0.1177
  C  C69  1  0.507500  0.505200  0.722300  1.0  0.1427
  C  C70  1  0.454200  0.777700  0.345200  1.0  0.0299
  C  C71  1  0.805100  0.554000  0.307400  1.0  0.6801
  C  C72  1  0.704000  0.601200  0.696800  1.0  -0.1426
  C  C73  1  0.540500  0.519300  0.889500  1.0  0.1501
  C  C74  1  0.360300  0.878600  0.339700  1.0  -0.1484
  C  C75  1  0.697600  0.599400  0.599100  1.0  0.0325
  C  C76  1  0.771300  0.003900  0.228200  1.0  0.1722
  C  C77  1  0.744900  0.197800  0.227700  1.0  -0.1498
  C  C78  1  0.033300  0.631800  0.307100  1.0  -0.0424
  C  C79  1  0.284500  0.733900  0.498900  1.0  0.1363
  C  C80  1  0.838000  0.190200  0.131700  1.0  0.0455
  C  C81  1  0.146200  0.816600  0.171100  1.0  0.1597
  C  C82  1  0.146000  0.714600  0.263100  1.0  -0.1169
  C  C83  1  0.084800  0.028700  0.392300  1.0  -0.1341
  C  C84  1  0.517500  0.884500  0.573200  1.0  -0.1477
  C  C85  1  0.617300  0.922300  0.469800  1.0  -0.1411
  C  C86  1  0.352900  0.498600  0.059500  1.0  -0.1633
  C  C87  1  0.393300  0.517600  0.948000  1.0  -0.1665
  C  C88  1  0.961600  0.102700  0.422900  1.0  -0.1316
  N  N89  1  0.958700  0.164400  0.877350  1.0  -0.295
  N  N90  1  0.299000  0.922500  0.710500  1.0  0.034
  N  N91  1  0.748800  0.149300  0.562600  1.0  0.0302
  N  N92  1  0.417800  0.458800  0.225510  1.0  0.0477
  N  N93  1  0.593700  0.312800  0.554050  1.0  -0.3924
  N  N94  1  0.426600  0.460200  0.384160  1.0  -0.378
  N  N95  1  0.145700  0.932400  0.868500  1.0  -0.4074
  N  N96  1  0.041300  0.835600  0.122650  1.0  -0.2966
  N  N97  1  0.701000  0.077500  0.289500  1.0  0.0349
  N  N98  1  0.251200  0.850700  0.437400  1.0  0.0301
  N  N99  1  0.582200  0.541200  0.774490  1.0  0.047
  N  N100  1  0.406300  0.687200  0.445950  1.0  -0.3946
  N  N101  1  0.573400  0.539800  0.615840  1.0  -0.3783
  N  N102  1  0.854300  0.067600  0.131500  1.0  -0.4078
  O  O103  1  0.300400  0.423920  0.618100  1.0  -0.6308
  O  O104  1  0.158700  0.116300  0.979960  1.0  -0.58
  O  O105  1  0.279500  0.287400  0.867480  1.0  -0.5802
  O  O106  1  0.174700  0.540000  0.723300  1.0  -0.5704
  O  O107  1  0.699600  0.576080  0.381900  1.0  -0.6308
  O  O108  1  0.841300  0.883700  0.020040  1.0  -0.58
  O  O109  1  0.720500  0.712600  0.132520  1.0  -0.5792
  O  O110  1  0.825300  0.460000  0.276700  1.0  -0.5705
