# generated using pymatgen
data_CuH8C12(NO2)2
_symmetry_space_group_name_H-M   'P 1'
_cell_length_a   4.99670000
_cell_length_b   11.10010000
_cell_length_c   12.73300000
_cell_angle_alpha   91.73220000
_cell_angle_beta   101.31500000
_cell_angle_gamma   81.13780000
_symmetry_Int_Tables_number   1
_chemical_formula_structural   CuH8C12(NO2)2
_chemical_formula_sum   'Cu2 H16 C24 N4 O8'
_cell_volume   684.22765810
_cell_formula_units_Z   2
loop_
 _symmetry_equiv_pos_site_id
 _symmetry_equiv_pos_as_xyz
  1  'x, y, z'
loop_
 _atom_site_type_symbol
 _atom_site_label
 _atom_site_symmetry_multiplicity
 _atom_site_fract_x
 _atom_site_fract_y
 _atom_site_fract_z
 _atom_site_occupancy
 _atom_site_charge
  Cu  Cu1  1  0.350760  0.104800  0.227040  1.0  0.8676
  Cu  Cu2  1  0.123720  0.604800  0.772960  1.0  0.8676
  H  H3  1  0.984100  0.372600  0.661800  1.0  0.0747
  H  H4  1  0.058200  0.262100  0.512400  1.0  0.1192
  H  H5  1  0.536200  0.500800  0.454600  1.0  0.1234
  H  H6  1  0.458900  0.602600  0.608800  1.0  0.0749
  H  H7  1  0.357200  0.175700  0.001600  1.0  0.0843
  H  H8  1  0.116700  0.312500  0.871400  1.0  0.1173
  H  H9  1  0.588300  0.424200  0.066200  1.0  0.1198
  H  H10  1  0.854900  0.290600  0.194400  1.0  0.0749
  H  H11  1  0.322300  0.872600  0.338200  1.0  0.0745
  H  H12  1  0.545800  0.762100  0.487600  1.0  0.1177
  H  H13  1  0.081600  0.000800  0.545400  1.0  0.1236
  H  H14  1  0.850100  0.102600  0.391200  1.0  0.0751
  H  H15  1  0.355600  0.675700  0.998400  1.0  0.0842
  H  H16  1  0.245300  0.812500  0.128600  1.0  0.1175
  H  H17  1  0.522100  0.924200  0.933800  1.0  0.1205
  H  H18  1  0.660500  0.790600  0.805600  1.0  0.0735
  C  C19  1  0.097630  0.398200  0.619860  1.0  0.1615
  C  C20  1  0.138870  0.332000  0.529540  1.0  -0.1311
  C  C21  1  0.300350  0.370300  0.465100  1.0  -0.01
  C  C22  1  0.423340  0.473100  0.495680  1.0  -0.132
  C  C23  1  0.375670  0.533900  0.588340  1.0  0.1404
  C  C24  1  0.354120  0.300400  0.365040  1.0  0.6217
  C  C25  1  0.203200  0.227700  0.015200  1.0  0.1589
  C  C26  1  0.057780  0.309300  0.935960  1.0  -0.1325
  C  C27  1  0.825770  0.385600  0.953740  1.0  -0.0371
  C  C28  1  0.746660  0.376100  0.051920  1.0  -0.1222
  C  C29  1  0.660300  0.473300  0.868000  1.0  0.6671
  C  C30  1  0.906260  0.294300  0.128320  1.0  0.1597
  C  C31  1  0.477770  0.898200  0.380140  1.0  0.1601
  C  C32  1  0.609330  0.832000  0.470460  1.0  -0.1313
  C  C33  1  0.835250  0.870300  0.534900  1.0  -0.01
  C  C34  1  0.927660  0.973100  0.504320  1.0  -0.1328
  C  C35  1  0.787330  0.033900  0.411660  1.0  0.142
  C  C36  1  0.989080  0.800400  0.634960  1.0  0.6171
  C  C37  1  0.188000  0.727700  0.984800  1.0  0.1595
  C  C38  1  0.121820  0.809300  0.064040  1.0  -0.132
  C  C39  1  0.872030  0.885600  0.046260  1.0  -0.036
  C  C40  1  0.694740  0.876100  0.948080  1.0  -0.122
  C  C41  1  0.792300  0.973300  0.132000  1.0  0.6669
  C  C42  1  0.777940  0.794300  0.871680  1.0  0.1604
  N  N43  1  0.213570  0.497300  0.649540  1.0  -0.3037
  N  N44  1  0.130830  0.220700  0.110260  1.0  -0.3238
  N  N45  1  0.564030  0.997300  0.350460  1.0  -0.3046
  N  N46  1  0.020570  0.720700  0.889740  1.0  -0.3273
  O  O47  1  0.224280  0.210100  0.341160  1.0  -0.5669
  O  O48  1  0.520880  0.331200  0.315760  1.0  -0.5893
  O  O49  1  0.413950  0.510160  0.878500  1.0  -0.6005
  O  O50  1  0.771880  0.501750  0.795560  1.0  -0.6118
  O  O51  1  0.883120  0.710100  0.658840  1.0  -0.5675
  O  O52  1  0.205120  0.831200  0.684240  1.0  -0.5905
  O  O53  1  0.535450  0.010160  0.121500  1.0  -0.6007
  O  O54  1  0.976320  0.001750  0.204440  1.0  -0.6102
