# generated using pymatgen
data_CuH8C12(NO2)2
_symmetry_space_group_name_H-M   'P 1'
_cell_length_a   4.94100000
_cell_length_b   10.96000000
_cell_length_c   12.75600000
_cell_angle_alpha   91.51270000
_cell_angle_beta   101.16700000
_cell_angle_gamma   82.16600000
_symmetry_Int_Tables_number   1
_chemical_formula_structural   CuH8C12(NO2)2
_chemical_formula_sum   'Cu2 H16 C24 N4 O8'
_cell_volume   671.37672266
_cell_formula_units_Z   2
loop_
 _symmetry_equiv_pos_site_id
 _symmetry_equiv_pos_as_xyz
  1  'x, y, z'
loop_
 _atom_site_type_symbol
 _atom_site_label
 _atom_site_symmetry_multiplicity
 _atom_site_fract_x
 _atom_site_fract_y
 _atom_site_fract_z
 _atom_site_occupancy
 _atom_site_charge
  Cu  Cu1  1  0.610590  0.442960  0.226420  1.0  0.866
  Cu  Cu2  1  0.384170  0.942960  0.773580  1.0  0.8662
  H  H3  1  0.747600  0.679900  0.335200  1.0  0.0851
  H  H4  1  0.685400  0.786000  0.489600  1.0  0.1116
  H  H5  1  0.189700  0.542800  0.544600  1.0  0.1275
  H  H6  1  0.270500  0.440500  0.391400  1.0  0.0796
  H  H7  1  0.066700  0.250400  0.195400  1.0  0.072
  H  H8  1  0.201500  0.117900  0.067800  1.0  0.1131
  H  H9  1  0.486200  0.236800  0.870400  1.0  0.1089
  H  H10  1  0.377200  0.375400  0.998800  1.0  0.092
  H  H11  1  0.412400  0.179900  0.664800  1.0  0.0847
  H  H12  1  0.195800  0.286000  0.510400  1.0  0.1108
  H  H13  1  0.645100  0.042800  0.455400  1.0  0.127
  H  H14  1  0.879100  0.940500  0.608600  1.0  0.0794
  H  H15  1  0.871300  0.750400  0.804600  1.0  0.074
  H  H16  1  0.133700  0.617900  0.932200  1.0  0.1129
  H  H17  1  0.615800  0.736800  0.129600  1.0  0.1087
  H  H18  1  0.378400  0.875400  0.001200  1.0  0.0931
  C  C19  1  0.375800  0.746500  0.633400  1.0  0.6505
  C  C20  1  0.636300  0.651900  0.378000  1.0  0.1504
  C  C21  1  0.598900  0.716300  0.470600  1.0  -0.0531
  C  C22  1  0.432200  0.675900  0.534400  1.0  -0.1035
  C  C23  1  0.304800  0.571400  0.503800  1.0  -0.1392
  C  C24  1  0.353400  0.511000  0.411200  1.0  0.1361
  C  C25  1  0.939200  0.074400  0.867400  1.0  0.6747
  C  C26  1  0.949700  0.248800  0.129000  1.0  0.1795
  C  C27  1  0.031000  0.168000  0.052800  1.0  -0.1503
  C  C28  1  0.858900  0.161300  0.953600  1.0  -0.0335
  C  C29  1  0.609000  0.239400  0.935400  1.0  -0.1166
  C  C30  1  0.542000  0.321200  0.013600  1.0  0.1417
  C  C31  1  0.742400  0.246500  0.366600  1.0  0.6498
  C  C32  1  0.258300  0.151900  0.622000  1.0  0.1497
  C  C33  1  0.128300  0.216300  0.529400  1.0  -0.0526
  C  C34  1  0.897800  0.175900  0.465600  1.0  -0.1057
  C  C35  1  0.801000  0.071400  0.496200  1.0  -0.1408
  C  C36  1  0.942200  0.011000  0.588800  1.0  0.1356
  C  C37  1  0.071800  0.574400  0.132600  1.0  0.6754
  C  C38  1  0.820700  0.748800  0.871000  1.0  0.1789
  C  C39  1  0.978200  0.668000  0.947200  1.0  -0.1505
  C  C40  1  0.905300  0.661300  0.046400  1.0  -0.0324
  C  C41  1  0.673600  0.739400  0.064600  1.0  -0.1177
  C  C42  1  0.528400  0.821200  0.986400  1.0  0.1408
  N  N43  1  0.515500  0.549700  0.348200  1.0  -0.3226
  N  N44  1  0.709000  0.325300  0.111600  1.0  -0.328
  N  N45  1  0.167300  0.049700  0.651800  1.0  -0.3222
  N  N46  1  0.597400  0.825300  0.888400  1.0  -0.3276
  O  O47  1  0.507900  0.837500  0.658600  1.0  -0.5624
  O  O48  1  0.201270  0.714500  0.682940  1.0  -0.5903
  O  O49  1  0.199400  0.036900  0.879600  1.0  -0.5825
  O  O50  1  0.751730  0.048300  0.793260  1.0  -0.6039
  O  O51  1  0.849300  0.337500  0.341400  1.0  -0.5626
  O  O52  1  0.518330  0.214500  0.317060  1.0  -0.5915
  O  O53  1  0.319800  0.536900  0.120400  1.0  -0.5824
  O  O54  1  0.958470  0.548300  0.206740  1.0  -0.6039
