# generated using pymatgen
data_CuH8C12(NO2)2
_symmetry_space_group_name_H-M   'P 1'
_cell_length_a   4.95790000
_cell_length_b   10.98810000
_cell_length_c   12.78190000
_cell_angle_alpha   91.55970000
_cell_angle_beta   101.18300000
_cell_angle_gamma   81.93220000
_symmetry_Int_Tables_number   1
_chemical_formula_structural   CuH8C12(NO2)2
_chemical_formula_sum   'Cu2 H16 C24 N4 O8'
_cell_volume   676.34871524
_cell_formula_units_Z   2
loop_
 _symmetry_equiv_pos_site_id
 _symmetry_equiv_pos_as_xyz
  1  'x, y, z'
loop_
 _atom_site_type_symbol
 _atom_site_label
 _atom_site_symmetry_multiplicity
 _atom_site_fract_x
 _atom_site_fract_y
 _atom_site_fract_z
 _atom_site_occupancy
 _atom_site_charge
  Cu  Cu1  1  0.056480  0.783730  0.226540  1.0  0.8733
  Cu  Cu2  1  0.829940  0.283730  0.773460  1.0  0.8735
  H  H3  1  0.861400  0.520700  0.663000  1.0  0.0825
  H  H4  1  0.644400  0.628500  0.511200  1.0  0.123
  H  H5  1  0.096800  0.383700  0.455400  1.0  0.1249
  H  H6  1  0.327900  0.282500  0.610400  1.0  0.0845
  H  H7  1  0.319500  0.092600  0.804200  1.0  0.0806
  H  H8  1  0.584300  0.957900  0.931600  1.0  0.1244
  H  H9  1  0.061900  0.078100  0.130000  1.0  0.124
  H  H10  1  0.825200  0.216100  0.000000  1.0  0.0858
  H  H11  1  0.198400  0.020700  0.337000  1.0  0.0824
  H  H12  1  0.133200  0.128500  0.488800  1.0  0.1232
  H  H13  1  0.641400  0.883700  0.544600  1.0  0.1257
  H  H14  1  0.717500  0.782500  0.389600  1.0  0.0849
  H  H15  1  0.515300  0.592600  0.195800  1.0  0.0795
  H  H16  1  0.652700  0.457900  0.068400  1.0  0.1248
  H  H17  1  0.931900  0.578100  0.870000  1.0  0.1248
  H  H18  1  0.825200  0.716100  0.000000  1.0  0.0843
  C  C19  1  0.705360  0.492900  0.620320  1.0  0.1584
  C  C20  1  0.576810  0.557900  0.529620  1.0  -0.1491
  C  C21  1  0.345560  0.517800  0.465520  1.0  -0.0112
  C  C22  1  0.252670  0.413100  0.496740  1.0  -0.1468
  C  C23  1  0.392390  0.352800  0.589380  1.0  0.1404
  C  C24  1  0.190950  0.587900  0.365700  1.0  0.6236
  C  C25  1  0.268790  0.090200  0.871180  1.0  0.1732
  C  C26  1  0.427370  0.008500  0.946940  1.0  -0.1578
  C  C27  1  0.352470  0.001900  0.045940  1.0  -0.0391
  C  C28  1  0.120520  0.080400  0.064440  1.0  -0.1389
  C  C29  1  0.977400  0.161500  0.985600  1.0  0.157
  C  C30  1  0.518290  0.915600  0.132180  1.0  0.6612
  C  C31  1  0.085040  0.992900  0.379680  1.0  0.16
  C  C32  1  0.047190  0.057900  0.470380  1.0  -0.1493
  C  C33  1  0.880040  0.017800  0.534480  1.0  -0.0106
  C  C34  1  0.755930  0.913100  0.503260  1.0  -0.1444
  C  C35  1  0.803010  0.852800  0.410620  1.0  0.1413
  C  C36  1  0.825250  0.087900  0.634300  1.0  0.6245
  C  C37  1  0.397610  0.590200  0.128820  1.0  0.1746
  C  C38  1  0.480430  0.508500  0.053060  1.0  -0.1576
  C  C39  1  0.306530  0.501900  0.954060  1.0  -0.0394
  C  C40  1  0.056080  0.580400  0.935560  1.0  -0.1386
  C  C41  1  0.991800  0.661500  0.014400  1.0  0.1582
  C  C42  1  0.386110  0.415600  0.867820  1.0  0.661
  N  N43  1  0.618090  0.391500  0.650580  1.0  -0.3066
  N  N44  1  0.045850  0.166100  0.889100  1.0  -0.3308
  N  N45  1  0.967510  0.891500  0.349420  1.0  -0.3074
  N  N46  1  0.156750  0.666100  0.110900  1.0  -0.3325
  O  O47  1  0.298520  0.678500  0.341240  1.0  -0.5513
  O  O48  1  0.970200  0.555100  0.317200  1.0  -0.5962
  O  O49  1  0.766890  0.878440  0.121380  1.0  -0.59
  O  O50  1  0.408530  0.887720  0.206060  1.0  -0.6033
  O  O51  1  0.957280  0.178500  0.658760  1.0  -0.5515
  O  O52  1  0.653000  0.055100  0.682800  1.0  -0.5934
  O  O53  1  0.645510  0.378440  0.878620  1.0  -0.5901
  O  O54  1  0.202470  0.387720  0.793940  1.0  -0.6032
