# generated using pymatgen
data_CuH8C12(NO2)2
_symmetry_space_group_name_H-M   'P 1'
_cell_length_a   4.98100000
_cell_length_b   11.01900000
_cell_length_c   12.77850000
_cell_angle_alpha   91.66430000
_cell_angle_beta   101.23900000
_cell_angle_gamma   81.42990000
_symmetry_Int_Tables_number   1
_chemical_formula_structural   CuH8C12(NO2)2
_chemical_formula_sum   'Cu2 H16 C24 N4 O8'
_cell_volume   680.22506799
_cell_formula_units_Z   2
loop_
 _symmetry_equiv_pos_site_id
 _symmetry_equiv_pos_as_xyz
  1  'x, y, z'
loop_
 _atom_site_type_symbol
 _atom_site_label
 _atom_site_symmetry_multiplicity
 _atom_site_fract_x
 _atom_site_fract_y
 _atom_site_fract_z
 _atom_site_occupancy
 _atom_site_charge
  Cu  Cu1  1  0.826070  0.304500  0.226780  1.0  0.8752
  Cu  Cu2  1  0.599290  0.804500  0.773220  1.0  0.8752
  H  H3  1  0.593800  0.511100  0.872000  1.0  0.1108
  H  H4  1  0.830900  0.374300  0.000800  1.0  0.0828
  H  H5  1  0.333900  0.494500  0.194200  1.0  0.0715
  H  H6  1  0.069800  0.627500  0.067000  1.0  0.1225
  H  H7  1  0.016000  0.960100  0.487400  1.0  0.1229
  H  H8  1  0.797900  0.069600  0.338800  1.0  0.0697
  H  H9  1  0.326700  0.303000  0.390400  1.0  0.0797
  H  H10  1  0.555400  0.202000  0.544800  1.0  0.1214
  H  H11  1  0.721800  0.011100  0.128000  1.0  0.1112
  H  H12  1  0.830100  0.874300  0.999200  1.0  0.0823
  H  H13  1  0.139700  0.994500  0.805800  1.0  0.0697
  H  H14  1  0.002800  0.127500  0.933000  1.0  0.1229
  H  H15  1  0.528600  0.460100  0.512600  1.0  0.1235
  H  H16  1  0.459100  0.569600  0.661200  1.0  0.0698
  H  H17  1  0.936300  0.803000  0.609600  1.0  0.0799
  H  H18  1  0.010600  0.702000  0.455200  1.0  0.1213
  C  C19  1  0.137070  0.673300  0.867940  1.0  0.6558
  C  C20  1  0.303720  0.586600  0.954240  1.0  -0.0459
  C  C21  1  0.535320  0.508700  0.936640  1.0  -0.1276
  C  C22  1  0.678960  0.427500  0.014920  1.0  0.1715
  C  C23  1  0.385410  0.497100  0.128220  1.0  0.1772
  C  C24  1  0.227050  0.578400  0.052500  1.0  -0.1617
  C  C25  1  0.462310  0.000200  0.634220  1.0  0.6267
  C  C26  1  0.308180  0.069000  0.534360  1.0  -0.0271
  C  C27  1  0.081270  0.030200  0.470140  1.0  -0.1322
  C  C28  1  0.953150  0.096200  0.380500  1.0  0.1737
  C  C29  1  0.262780  0.234000  0.410960  1.0  0.1496
  C  C30  1  0.401900  0.173600  0.503600  1.0  -0.1105
  C  C31  1  0.269130  0.173300  0.132060  1.0  0.6558
  C  C32  1  0.349480  0.086600  0.045760  1.0  -0.0469
  C  C33  1  0.598680  0.008700  0.063360  1.0  -0.1252
  C  C34  1  0.664040  0.927500  0.985080  1.0  0.1725
  C  C35  1  0.257190  0.997100  0.871780  1.0  0.1778
  C  C36  1  0.174550  0.078400  0.947500  1.0  -0.1613
  C  C37  1  0.828090  0.500200  0.365780  1.0  0.6299
  C  C38  1  0.773820  0.569000  0.465640  1.0  -0.0267
  C  C39  1  0.611130  0.530200  0.529860  1.0  -0.1316
  C  C40  1  0.572650  0.596200  0.619500  1.0  0.1751
  C  C41  1  0.851820  0.734000  0.589040  1.0  0.1484
  C  C42  1  0.898300  0.673600  0.496400  1.0  -0.1098
  N  N43  1  0.609300  0.421900  0.111200  1.0  -0.3237
  N  N44  1  0.037610  0.196600  0.349220  1.0  -0.3178
  N  N45  1  0.498100  0.921900  0.888800  1.0  -0.3262
  N  N46  1  0.688390  0.696600  0.650780  1.0  -0.3172
  O  O47  1  0.889290  0.710100  0.878380  1.0  -0.5972
  O  O48  1  0.247540  0.701200  0.795080  1.0  -0.6103
  O  O49  1  0.356010  0.909700  0.658220  1.0  -0.5619
  O  O50  1  0.682160  0.030900  0.682520  1.0  -0.5994
  O  O51  1  0.010910  0.210100  0.121620  1.0  -0.5972
  O  O52  1  0.452460  0.201200  0.204920  1.0  -0.6085
  O  O53  1  0.697790  0.409700  0.341780  1.0  -0.562
  O  O54  1  0.999640  0.530900  0.317480  1.0  -0.5981
