# generated using pymatgen
data_CuH8C12(NO2)2
_symmetry_space_group_name_H-M   'P 1'
_cell_length_a   5.00600000
_cell_length_b   11.05200000
_cell_length_c   12.82510000
_cell_angle_alpha   91.68390000
_cell_angle_beta   101.25400000
_cell_angle_gamma   81.34020000
_symmetry_Int_Tables_number   1
_chemical_formula_structural   CuH8C12(NO2)2
_chemical_formula_sum   'Cu2 H16 C24 N4 O8'
_cell_volume   687.98804973
_cell_formula_units_Z   2
loop_
 _symmetry_equiv_pos_site_id
 _symmetry_equiv_pos_as_xyz
  1  'x, y, z'
loop_
 _atom_site_type_symbol
 _atom_site_label
 _atom_site_symmetry_multiplicity
 _atom_site_fract_x
 _atom_site_fract_y
 _atom_site_fract_z
 _atom_site_occupancy
 _atom_site_charge
  Cu  Cu1  1  0.826000  0.304530  0.226750  1.0  0.8675
  Cu  Cu2  1  0.599250  0.804530  0.773250  1.0  0.8677
  H  H3  1  0.594600  0.510400  0.872200  1.0  0.1182
  H  H4  1  0.830500  0.374600  0.001200  1.0  0.0795
  H  H5  1  0.334000  0.494500  0.193600  1.0  0.0743
  H  H6  1  0.074100  0.629100  0.068000  1.0  0.1227
  H  H7  1  0.014300  0.960100  0.487400  1.0  0.1197
  H  H8  1  0.796500  0.069400  0.338000  1.0  0.0709
  H  H9  1  0.325300  0.302400  0.389800  1.0  0.0842
  H  H10  1  0.554700  0.201400  0.543800  1.0  0.1199
  H  H11  1  0.722400  0.010400  0.127800  1.0  0.1195
  H  H12  1  0.829300  0.874600  0.998800  1.0  0.079
  H  H13  1  0.140400  0.994500  0.806400  1.0  0.073
  H  H14  1  0.006100  0.129100  0.932000  1.0  0.1232
  H  H15  1  0.526900  0.460100  0.512600  1.0  0.1205
  H  H16  1  0.458500  0.569400  0.662000  1.0  0.0709
  H  H17  1  0.935500  0.802400  0.610200  1.0  0.0843
  H  H18  1  0.010900  0.701400  0.456200  1.0  0.1196
  C  C19  1  0.138180  0.672800  0.868560  1.0  0.6716
  C  C20  1  0.304080  0.587000  0.954360  1.0  -0.0245
  C  C21  1  0.536480  0.508400  0.936560  1.0  -0.1367
  C  C22  1  0.679150  0.427900  0.015100  1.0  0.1633
  C  C23  1  0.385850  0.497800  0.128100  1.0  0.1739
  C  C24  1  0.229100  0.579400  0.053000  1.0  -0.1487
  C  C25  1  0.462530  0.998800  0.634260  1.0  0.6225
  C  C26  1  0.309020  0.068100  0.534240  1.0  -0.0075
  C  C27  1  0.079920  0.029700  0.469840  1.0  -0.1286
  C  C28  1  0.950970  0.095700  0.379740  1.0  0.1598
  C  C29  1  0.261890  0.233600  0.410380  1.0  0.1482
  C  C30  1  0.401800  0.173000  0.503000  1.0  -0.1342
  C  C31  1  0.269620  0.172800  0.131440  1.0  0.6718
  C  C32  1  0.349720  0.087000  0.045640  1.0  -0.0254
  C  C33  1  0.599920  0.008400  0.063440  1.0  -0.1357
  C  C34  1  0.664050  0.927900  0.984900  1.0  0.1642
  C  C35  1  0.257750  0.997800  0.871900  1.0  0.1749
  C  C36  1  0.176100  0.079400  0.947000  1.0  -0.1562
  C  C37  1  0.828270  0.498800  0.365740  1.0  0.625
  C  C38  1  0.774780  0.568100  0.465760  1.0  -0.0062
  C  C39  1  0.610080  0.529700  0.530160  1.0  -0.1283
  C  C40  1  0.571230  0.595700  0.620260  1.0  0.1605
  C  C41  1  0.851510  0.733600  0.589620  1.0  0.1469
  C  C42  1  0.898800  0.673000  0.497000  1.0  -0.1329
  N  N43  1  0.610030  0.422700  0.110860  1.0  -0.3274
  N  N44  1  0.036950  0.196400  0.348900  1.0  -0.3178
  N  N45  1  0.499170  0.922700  0.889140  1.0  -0.3304
  N  N46  1  0.688050  0.696400  0.651100  1.0  -0.3182
  O  O47  1  0.889730  0.709900  0.878060  1.0  -0.5937
  O  O48  1  0.248270  0.701200  0.794940  1.0  -0.6183
  O  O49  1  0.355080  0.909500  0.658360  1.0  -0.5567
  O  O50  1  0.682560  0.030500  0.682320  1.0  -0.602
  O  O51  1  0.011670  0.209900  0.121940  1.0  -0.5937
  O  O52  1  0.453330  0.201200  0.205060  1.0  -0.6162
  O  O53  1  0.696720  0.409500  0.341640  1.0  -0.5571
  O  O54  1  0.000240  0.530500  0.317680  1.0  -0.6007
