# generated using pymatgen
data_Zn3P4(HO3)4
_symmetry_space_group_name_H-M   'P 1'
_cell_length_a   7.51210000
_cell_length_b   8.99270000
_cell_length_c   15.15300000
_cell_angle_alpha   90.25600000
_cell_angle_beta   93.39100000
_cell_angle_gamma   111.09100000
_symmetry_Int_Tables_number   1
_chemical_formula_structural   Zn3P4(HO3)4
_chemical_formula_sum   'Zn6 P8 H8 O24'
_cell_volume   953.03594008
_cell_formula_units_Z   2
loop_
 _symmetry_equiv_pos_site_id
 _symmetry_equiv_pos_as_xyz
  1  'x, y, z'
loop_
 _atom_site_type_symbol
 _atom_site_label
 _atom_site_symmetry_multiplicity
 _atom_site_fract_x
 _atom_site_fract_y
 _atom_site_fract_z
 _atom_site_occupancy
 _atom_site_charge
  Zn  Zn1  1  0.710130  0.552750  0.393580  1.0  1.1627
  Zn  Zn2  1  0.057510  0.200900  0.251630  1.0  1.1183
  Zn  Zn3  1  0.657450  0.581680  0.124430  1.0  1.1545
  Zn  Zn4  1  0.289870  0.447250  0.606420  1.0  1.1623
  Zn  Zn5  1  0.942490  0.799100  0.748370  1.0  1.1183
  Zn  Zn6  1  0.342550  0.418320  0.875570  1.0  1.1543
  P  P7  1  0.681420  0.288960  0.242100  1.0  1.5925
  P  P8  1  0.949590  0.812710  0.266780  1.0  1.5334
  P  P9  1  0.730990  0.508730  0.606780  1.0  1.6314
  P  P10  1  0.215450  0.395770  0.076890  1.0  1.6003
  P  P11  1  0.318580  0.711040  0.757900  1.0  1.6035
  P  P12  1  0.050410  0.187290  0.733220  1.0  1.5241
  P  P13  1  0.269010  0.491270  0.393220  1.0  1.625
  P  P14  1  0.784550  0.604230  0.923110  1.0  1.6065
  H  H15  1  0.497400  0.201100  0.238100  1.0  -0.0674
  H  H16  1  0.063600  0.749700  0.231400  1.0  -0.0934
  H  H17  1  0.834600  0.433500  0.645900  1.0  -0.0653
  H  H18  1  0.064500  0.438400  0.074300  1.0  -0.0785
  H  H19  1  0.502600  0.798900  0.761900  1.0  -0.0658
  H  H20  1  0.936400  0.250300  0.768600  1.0  -0.0976
  H  H21  1  0.165400  0.566500  0.354100  1.0  -0.0681
  H  H22  1  0.935500  0.561600  0.925700  1.0  -0.0756
  O  O23  1  0.727600  0.371800  0.331670  1.0  -0.866
  O  O24  1  0.711900  0.397800  0.164590  1.0  -0.8275
  O  O25  1  0.787600  0.173800  0.233010  1.0  -0.7444
  O  O26  1  0.058300  0.989700  0.274430  1.0  -0.8013
  O  O27  1  0.913300  0.744200  0.358200  1.0  -0.7569
  O  O28  1  0.769300  0.766500  0.205200  1.0  -0.7428
  O  O29  1  0.781600  0.665000  0.656400  1.0  -0.8164
  O  O30  1  0.788200  0.532900  0.514500  1.0  -0.8239
  O  O31  1  0.523100  0.402100  0.613300  1.0  -0.7561
  O  O32  1  0.176300  0.259300  0.139880  1.0  -0.7624
  O  O33  1  0.227400  0.336500  0.984670  1.0  -0.8285
  O  O34  1  0.385900  0.542000  0.107100  1.0  -0.7619
  O  O35  1  0.272400  0.628200  0.668330  1.0  -0.8676
  O  O36  1  0.288100  0.602200  0.835410  1.0  -0.8266
  O  O37  1  0.212400  0.826200  0.766990  1.0  -0.7434
  O  O38  1  0.941700  0.010300  0.725570  1.0  -0.8021
  O  O39  1  0.086700  0.255800  0.641800  1.0  -0.7557
  O  O40  1  0.230700  0.233500  0.794800  1.0  -0.743
  O  O41  1  0.218400  0.335000  0.343600  1.0  -0.8161
  O  O42  1  0.211800  0.467100  0.485500  1.0  -0.8256
  O  O43  1  0.476900  0.597900  0.386700  1.0  -0.7562
  O  O44  1  0.823700  0.740700  0.860120  1.0  -0.7615
  O  O45  1  0.772600  0.663500  0.015330  1.0  -0.8276
  O  O46  1  0.614100  0.458000  0.892900  1.0  -0.762
