# generated using pymatgen
data_Co3H4C9SN12O5
_symmetry_space_group_name_H-M   'P 1'
_cell_length_a   7.32460000
_cell_length_b   13.22400000
_cell_length_c   22.76690000
_cell_angle_alpha   90.00000000
_cell_angle_beta   90.00000000
_cell_angle_gamma   90.00000000
_symmetry_Int_Tables_number   1
_chemical_formula_structural   Co3H4C9SN12O5
_chemical_formula_sum   'Co12 H16 C36 S4 N48 O20'
_cell_volume   2205.21355423
_cell_formula_units_Z   4
loop_
 _symmetry_equiv_pos_site_id
 _symmetry_equiv_pos_as_xyz
  1  'x, y, z'
loop_
 _atom_site_type_symbol
 _atom_site_label
 _atom_site_symmetry_multiplicity
 _atom_site_fract_x
 _atom_site_fract_y
 _atom_site_fract_z
 _atom_site_occupancy
 _atom_site_charge
  Co  Co1  1  0.673120  0.882780  0.610610  1.0  0.9088
  Co  Co2  1  0.826880  0.117220  0.110610  1.0  0.911
  Co  Co3  1  0.326880  0.382780  0.389390  1.0  0.9094
  Co  Co4  1  0.173120  0.617220  0.889390  1.0  0.9096
  Co  Co5  1  0.326880  0.117220  0.389390  1.0  0.9092
  Co  Co6  1  0.173120  0.882780  0.889390  1.0  0.9099
  Co  Co7  1  0.673120  0.617220  0.610610  1.0  0.9102
  Co  Co8  1  0.826880  0.382780  0.110610  1.0  0.9097
  Co  Co9  1  0.656430  0.750000  0.741460  1.0  1.0409
  Co  Co10  1  0.843570  0.250000  0.241460  1.0  1.0416
  Co  Co11  1  0.343570  0.250000  0.258540  1.0  1.0436
  Co  Co12  1  0.156430  0.750000  0.758540  1.0  1.0428
  H  H13  1  0.716600  0.403100  0.871900  1.0  0.1151
  H  H14  1  0.783400  0.596900  0.371900  1.0  0.1156
  H  H15  1  0.283400  0.903100  0.128100  1.0  0.1155
  H  H16  1  0.216600  0.096900  0.628100  1.0  0.1152
  H  H17  1  0.283400  0.596900  0.128100  1.0  0.1157
  H  H18  1  0.216600  0.403100  0.628100  1.0  0.1151
  H  H19  1  0.716600  0.096900  0.871900  1.0  0.1155
  H  H20  1  0.783400  0.903100  0.371900  1.0  0.1152
  H  H21  1  0.860300  0.750000  0.650500  1.0  0.4215
  H  H22  1  0.639700  0.250000  0.150500  1.0  0.4228
  H  H23  1  0.139700  0.250000  0.349500  1.0  0.4221
  H  H24  1  0.360300  0.750000  0.849500  1.0  0.4216
  H  H25  1  0.605000  0.250000  0.721600  1.0  0.1179
  H  H26  1  0.895000  0.750000  0.221600  1.0  0.118
  H  H27  1  0.395000  0.750000  0.278400  1.0  0.1168
  H  H28  1  0.105000  0.250000  0.778400  1.0  0.1162
  C  C29  1  0.647400  0.437300  0.760130  1.0  0.3597
  C  C30  1  0.658500  0.340800  0.791870  1.0  -0.0501
  C  C31  1  0.700600  0.340900  0.851690  1.0  -0.0593
  C  C32  1  0.852600  0.562700  0.260130  1.0  0.3595
  C  C33  1  0.841500  0.659200  0.291870  1.0  -0.0504
  C  C34  1  0.799400  0.659100  0.351690  1.0  -0.0586
  C  C35  1  0.352600  0.937300  0.239870  1.0  0.3599
  C  C36  1  0.341500  0.840800  0.208130  1.0  -0.0515
  C  C37  1  0.299400  0.840900  0.148310  1.0  -0.0582
  C  C38  1  0.147400  0.062700  0.739870  1.0  0.3595
  C  C39  1  0.158500  0.159200  0.708130  1.0  -0.0507
  C  C40  1  0.200600  0.159100  0.648310  1.0  -0.0579
  C  C41  1  0.352600  0.562700  0.239870  1.0  0.3596
  C  C42  1  0.341500  0.659200  0.208130  1.0  -0.0511
  C  C43  1  0.299400  0.659100  0.148310  1.0  -0.0572
  C  C44  1  0.147400  0.437300  0.739870  1.0  0.3598
  C  C45  1  0.158500  0.340800  0.708130  1.0  -0.0507
  C  C46  1  0.200600  0.340900  0.648310  1.0  -0.0571
  C  C47  1  0.647400  0.062700  0.760130  1.0  0.3595
  C  C48  1  0.658500  0.159200  0.791870  1.0  -0.0499
  C  C49  1  0.700600  0.159100  0.851690  1.0  -0.0576
  C  C50  1  0.852600  0.937300  0.260130  1.0  0.3597
  C  C51  1  0.841500  0.840800  0.291870  1.0  -0.051
  C  C52  1  0.799400  0.840900  0.351690  1.0  -0.0591
  C  C53  1  0.635900  0.250000  0.762150  1.0  -0.0624
  C  C54  1  0.719200  0.250000  0.881630  1.0  -0.0437
  C  C55  1  0.759100  0.250000  0.945220  1.0  0.3729
  C  C56  1  0.864100  0.750000  0.262150  1.0  -0.0616
  C  C57  1  0.780800  0.750000  0.381630  1.0  -0.0442
  C  C58  1  0.740900  0.750000  0.445220  1.0  0.3732
  C  C59  1  0.364100  0.750000  0.237850  1.0  -0.062
  C  C60  1  0.280800  0.750000  0.118370  1.0  -0.043
  C  C61  1  0.240900  0.750000  0.054780  1.0  0.3728
  C  C62  1  0.135900  0.250000  0.737850  1.0  -0.0629
  C  C63  1  0.219200  0.250000  0.618370  1.0  -0.0421
  C  C64  1  0.259100  0.250000  0.554780  1.0  0.3726
  S  S65  1  0.324130  0.750000  0.647920  1.0  1.6589
  S  S66  1  0.175870  0.250000  0.147920  1.0  1.6584
  S  S67  1  0.675870  0.250000  0.352080  1.0  1.6602
  S  S68  1  0.824130  0.750000  0.852080  1.0  1.6597
  N  N69  1  0.640700  0.593400  0.742440  1.0  -0.0291
  N  N70  1  0.655200  0.544600  0.691840  1.0  -0.0838
  N  N71  1  0.634100  0.527300  0.786570  1.0  -0.2919
  N  N72  1  0.659400  0.445000  0.701710  1.0  -0.3261
  N  N73  1  0.776900  0.333620  0.977290  1.0  -0.3275
  N  N74  1  0.805700  0.300000  0.031680  1.0  -0.0698
  N  N75  1  0.859300  0.406600  0.242440  1.0  -0.0285
  N  N76  1  0.844800  0.455400  0.191840  1.0  -0.0841
  N  N77  1  0.865900  0.472700  0.286570  1.0  -0.2913
  N  N78  1  0.840600  0.555000  0.201710  1.0  -0.3239
  N  N79  1  0.723100  0.666380  0.477290  1.0  -0.3267
  N  N80  1  0.694300  0.700000  0.531680  1.0  -0.0697
  N  N81  1  0.359300  0.093400  0.257560  1.0  -0.0293
  N  N82  1  0.344800  0.044600  0.308160  1.0  -0.085
  N  N83  1  0.365900  0.027300  0.213430  1.0  -0.293
  N  N84  1  0.340600  0.945000  0.298290  1.0  -0.3253
  N  N85  1  0.223100  0.833620  0.022710  1.0  -0.3272
  N  N86  1  0.194300  0.800000  0.968320  1.0  -0.0707
  N  N87  1  0.140700  0.906600  0.757560  1.0  -0.0285
  N  N88  1  0.155200  0.955400  0.808160  1.0  -0.0854
  N  N89  1  0.134100  0.972700  0.713430  1.0  -0.2936
  N  N90  1  0.159400  0.055000  0.798290  1.0  -0.3261
  N  N91  1  0.276900  0.166380  0.522710  1.0  -0.3268
  N  N92  1  0.305700  0.200000  0.468320  1.0  -0.0699
  N  N93  1  0.359300  0.406600  0.257560  1.0  -0.0287
  N  N94  1  0.344800  0.455400  0.308160  1.0  -0.0852
  N  N95  1  0.365900  0.472700  0.213430  1.0  -0.2928
  N  N96  1  0.340600  0.555000  0.298290  1.0  -0.325
  N  N97  1  0.223100  0.666380  0.022710  1.0  -0.3262
  N  N98  1  0.194300  0.700000  0.968320  1.0  -0.0697
  N  N99  1  0.140700  0.593400  0.757560  1.0  -0.0291
  N  N100  1  0.155200  0.544600  0.808160  1.0  -0.0849
  N  N101  1  0.134100  0.527300  0.713430  1.0  -0.2937
  N  N102  1  0.159400  0.445000  0.798290  1.0  -0.3262
  N  N103  1  0.276900  0.333620  0.522710  1.0  -0.327
  N  N104  1  0.305700  0.300000  0.468320  1.0  -0.071
  N  N105  1  0.640700  0.906600  0.742440  1.0  -0.0283
  N  N106  1  0.655200  0.955400  0.691840  1.0  -0.0849
  N  N107  1  0.634100  0.972700  0.786570  1.0  -0.2919
  N  N108  1  0.659400  0.055000  0.701710  1.0  -0.3252
  N  N109  1  0.776900  0.166380  0.977290  1.0  -0.3266
  N  N110  1  0.805700  0.200000  0.031680  1.0  -0.0701
  N  N111  1  0.859300  0.093400  0.242440  1.0  -0.0292
  N  N112  1  0.844800  0.044600  0.191840  1.0  -0.0832
  N  N113  1  0.865900  0.027300  0.286570  1.0  -0.2913
  N  N114  1  0.840600  0.945000  0.201710  1.0  -0.325
  N  N115  1  0.723100  0.833620  0.477290  1.0  -0.3268
  N  N116  1  0.694300  0.800000  0.531680  1.0  -0.0695
  O  O117  1  0.389300  0.840880  0.617470  1.0  -0.6733
  O  O118  1  0.110700  0.159120  0.117470  1.0  -0.6729
  O  O119  1  0.610700  0.340880  0.382530  1.0  -0.6722
  O  O120  1  0.889300  0.659120  0.882530  1.0  -0.674
  O  O121  1  0.610700  0.159120  0.382530  1.0  -0.6732
  O  O122  1  0.889300  0.840880  0.882530  1.0  -0.6738
  O  O123  1  0.389300  0.659120  0.617470  1.0  -0.6733
  O  O124  1  0.110700  0.340880  0.117470  1.0  -0.6729
  O  O125  1  0.743900  0.750000  0.654640  1.0  -0.9501
  O  O126  1  0.395000  0.750000  0.710160  1.0  -0.8241
  O  O127  1  0.126400  0.750000  0.655610  1.0  -0.6839
  O  O128  1  0.756100  0.250000  0.154640  1.0  -0.9516
  O  O129  1  0.105000  0.250000  0.210160  1.0  -0.8234
  O  O130  1  0.373600  0.250000  0.155610  1.0  -0.6818
  O  O131  1  0.256100  0.250000  0.345360  1.0  -0.9515
  O  O132  1  0.605000  0.250000  0.289840  1.0  -0.8237
  O  O133  1  0.873600  0.250000  0.344390  1.0  -0.6814
  O  O134  1  0.243900  0.750000  0.845360  1.0  -0.9506
  O  O135  1  0.895000  0.750000  0.789840  1.0  -0.8242
  O  O136  1  0.626400  0.750000  0.844390  1.0  -0.6837
