# generated using pymatgen
data_NiH10(CN)12
_symmetry_space_group_name_H-M   'P 1'
_cell_length_a   7.54230000
_cell_length_b   12.53870000
_cell_length_c   13.68870000
_cell_angle_alpha   90.00000000
_cell_angle_beta   105.99100000
_cell_angle_gamma   90.00000000
_symmetry_Int_Tables_number   1
_chemical_formula_structural   NiH10(CN)12
_chemical_formula_sum   'Ni2 H20 C24 N24'
_cell_volume   1244.45647776
_cell_formula_units_Z   2
loop_
 _symmetry_equiv_pos_site_id
 _symmetry_equiv_pos_as_xyz
  1  'x, y, z'
loop_
 _atom_site_type_symbol
 _atom_site_label
 _atom_site_symmetry_multiplicity
 _atom_site_fract_x
 _atom_site_fract_y
 _atom_site_fract_z
 _atom_site_occupancy
 _atom_site_charge
  Ni  Ni1  1  0.500000  0.500000  0.500000  1.0  0.0754
  Ni  Ni2  1  0.000000  0.500000  0.500000  1.0  0.0754
  H  H3  1  0.542900  0.735000  0.606600  1.0  0.3106
  H  H4  1  0.570000  0.912000  0.638000  1.0  0.0744
  H  H5  1  0.457100  0.735000  0.393400  1.0  0.3097
  H  H6  1  0.781500  0.580700  0.091200  1.0  0.11
  H  H7  1  0.430000  0.912000  0.362000  1.0  0.061
  H  H8  1  0.063700  0.265000  0.606600  1.0  0.3059
  H  H9  1  0.068000  0.088000  0.638000  1.0  0.0699
  H  H10  1  0.936300  0.265000  0.393400  1.0  0.3162
  H  H11  1  0.309700  0.419300  0.091200  1.0  0.1084
  H  H12  1  0.932000  0.088000  0.362000  1.0  0.0616
  H  H13  1  0.457100  0.265000  0.393400  1.0  0.308
  H  H14  1  0.430000  0.088000  0.362000  1.0  0.072
  H  H15  1  0.542900  0.265000  0.606600  1.0  0.3131
  H  H16  1  0.218500  0.419300  0.908800  1.0  0.1098
  H  H17  1  0.570000  0.088000  0.638000  1.0  0.0598
  H  H18  1  0.936300  0.735000  0.393400  1.0  0.3118
  H  H19  1  0.932000  0.912000  0.362000  1.0  0.0772
  H  H20  1  0.063700  0.735000  0.606600  1.0  0.3096
  H  H21  1  0.690300  0.580700  0.908800  1.0  0.1086
  H  H22  1  0.068000  0.912000  0.638000  1.0  0.0592
  C  C23  1  0.660130  0.945100  0.637460  1.0  -0.0709
  C  C24  1  0.668200  0.541200  0.053600  1.0  -0.1052
  C  C25  1  0.339870  0.945100  0.362540  1.0  -0.0798
  C  C26  1  0.977330  0.054900  0.637460  1.0  -0.0733
  C  C27  1  0.385400  0.458800  0.053600  1.0  -0.1098
  C  C28  1  0.022670  0.054900  0.362540  1.0  -0.0801
  C  C29  1  0.339870  0.054900  0.362540  1.0  -0.0698
  C  C30  1  0.331800  0.458800  0.946400  1.0  -0.1047
  C  C31  1  0.660130  0.054900  0.637460  1.0  -0.0806
  C  C32  1  0.022670  0.945100  0.362540  1.0  -0.0739
  C  C33  1  0.614600  0.541200  0.946400  1.0  -0.1091
  C  C34  1  0.977330  0.945100  0.637460  1.0  -0.078
  C  C35  1  0.391280  0.500000  0.782560  1.0  0.3402
  C  C36  1  0.447300  0.500000  0.894600  1.0  -0.0347
  C  C37  1  0.608720  0.500000  0.217440  1.0  0.3408
  C  C38  1  0.552700  0.500000  0.105400  1.0  -0.0322
  C  C39  1  0.807710  0.773300  0.615420  1.0  0.1905
  C  C40  1  0.817040  0.887900  0.634080  1.0  -0.1139
  C  C41  1  0.192290  0.773300  0.384580  1.0  0.18
  C  C42  1  0.182960  0.887900  0.365920  1.0  -0.1322
  C  C43  1  0.807710  0.226700  0.615420  1.0  0.1871
  C  C44  1  0.817040  0.112100  0.634080  1.0  -0.1286
  C  C45  1  0.192290  0.226700  0.384580  1.0  0.1757
  C  C46  1  0.182960  0.112100  0.365920  1.0  -0.1176
  N  N47  1  0.696080  0.619460  0.567960  1.0  -0.0193
  N  N48  1  0.652460  0.714530  0.598720  1.0  -0.2165
  N  N49  1  0.303920  0.619460  0.432040  1.0  -0.0187
  N  N50  1  0.347540  0.714530  0.401280  1.0  -0.2309
  N  N51  1  0.871880  0.380540  0.567960  1.0  -0.0142
  N  N52  1  0.946260  0.285470  0.598720  1.0  -0.2194
  N  N53  1  0.128120  0.380540  0.432040  1.0  -0.0151
  N  N54  1  0.053740  0.285470  0.401280  1.0  -0.2329
  N  N55  1  0.303920  0.380540  0.432040  1.0  -0.0233
  N  N56  1  0.347540  0.285470  0.401280  1.0  -0.2155
  N  N57  1  0.696080  0.380540  0.567960  1.0  -0.0191
  N  N58  1  0.652460  0.285470  0.598720  1.0  -0.231
  N  N59  1  0.128120  0.619460  0.432040  1.0  -0.0161
  N  N60  1  0.053740  0.714530  0.401280  1.0  -0.2185
  N  N61  1  0.871880  0.619460  0.567960  1.0  -0.0117
  N  N62  1  0.946260  0.714530  0.598720  1.0  -0.2348
  N  N63  1  0.402940  0.500000  0.629480  1.0  0.0121
  N  N64  1  0.509840  0.500000  0.725080  1.0  -0.3801
  N  N65  1  0.597060  0.500000  0.370520  1.0  0.0128
  N  N66  1  0.490160  0.500000  0.274920  1.0  -0.3792
  N  N67  1  0.226540  0.500000  0.629480  1.0  0.01
  N  N68  1  0.215240  0.500000  0.725080  1.0  -0.386
  N  N69  1  0.773460  0.500000  0.370520  1.0  0.0102
  N  N70  1  0.784760  0.500000  0.274920  1.0  -0.3902
