# generated using pymatgen
data_CoH7C13NO4
_symmetry_space_group_name_H-M   'P 1'
_cell_length_a   10.16400000
_cell_length_b   13.36300000
_cell_length_c   22.39500000
_cell_angle_alpha   86.83300000
_cell_angle_beta   80.34600000
_cell_angle_gamma   83.22400000
_symmetry_Int_Tables_number   1
_chemical_formula_structural   CoH7C13NO4
_chemical_formula_sum   'Co6 H42 C78 N6 O24'
_cell_volume   2975.74799753
_cell_formula_units_Z   6
loop_
 _symmetry_equiv_pos_site_id
 _symmetry_equiv_pos_as_xyz
  1  'x, y, z'
loop_
 _atom_site_type_symbol
 _atom_site_label
 _atom_site_symmetry_multiplicity
 _atom_site_fract_x
 _atom_site_fract_y
 _atom_site_fract_z
 _atom_site_occupancy
 _atom_site_charge
  Co  Co1  1  0.071100  0.790270  0.723540  1.0  0.9145
  Co  Co2  1  0.676770  0.998210  0.278600  1.0  1.0497
  Co  Co3  1  0.565250  0.048400  0.835620  1.0  1.0217
  Co  Co4  1  0.928900  0.209730  0.276460  1.0  0.9189
  Co  Co5  1  0.323230  0.001790  0.721400  1.0  1.048
  Co  Co6  1  0.434750  0.951600  0.164380  1.0  1.0206
  H  H7  1  0.282900  0.831500  0.613100  1.0  0.0838
  H  H8  1  0.311100  0.882000  0.512300  1.0  0.1346
  H  H9  1  0.932000  0.822400  0.513400  1.0  0.1153
  H  H10  1  0.914500  0.780000  0.611500  1.0  0.0921
  H  H11  1  0.936500  0.910900  0.425600  1.0  0.111
  H  H12  1  0.169200  0.008500  0.274000  1.0  0.1284
  H  H13  1  0.341200  0.894900  0.417700  1.0  0.1227
  H  H14  1  0.741000  0.186800  0.751600  1.0  0.0934
  H  H15  1  0.757700  0.355000  0.721200  1.0  0.1276
  H  H16  1  0.397700  0.425800  0.825700  1.0  0.1146
  H  H17  1  0.387600  0.262100  0.852100  1.0  0.1061
  H  H18  1  0.401500  0.562300  0.744600  1.0  0.1139
  H  H19  1  0.632300  0.795600  0.716400  1.0  0.1205
  H  H20  1  0.800000  0.514200  0.749500  1.0  0.1226
  H  H21  1  0.227200  0.737700  0.833200  1.0  0.0834
  H  H22  1  0.209000  0.769200  0.934700  1.0  0.1306
  H  H23  1  0.819100  0.862800  0.935000  1.0  0.1154
  H  H24  1  0.848100  0.834900  0.833600  1.0  0.0986
  H  H25  1  0.202600  0.858600  0.009200  1.0  0.129
  H  H26  1  0.983900  0.952900  0.167900  1.0  0.11
  H  H27  1  0.800500  0.868100  0.032400  1.0  0.1143
  H  H28  1  0.717100  0.168500  0.386900  1.0  0.0844
  H  H29  1  0.688900  0.118000  0.487700  1.0  0.1335
  H  H30  1  0.068000  0.177600  0.486600  1.0  0.1154
  H  H31  1  0.085500  0.220000  0.388500  1.0  0.0916
  H  H32  1  0.063500  0.089100  0.574400  1.0  0.1115
  H  H33  1  0.830800  0.991500  0.726000  1.0  0.13
  H  H34  1  0.658800  0.105100  0.582300  1.0  0.1224
  H  H35  1  0.259000  0.813200  0.248400  1.0  0.093
  H  H36  1  0.242300  0.645000  0.278800  1.0  0.1279
  H  H37  1  0.602300  0.574200  0.174300  1.0  0.1144
  H  H38  1  0.612400  0.737900  0.147900  1.0  0.1069
  H  H39  1  0.598500  0.437700  0.255400  1.0  0.1142
  H  H40  1  0.367700  0.204400  0.283600  1.0  0.119
  H  H41  1  0.200000  0.485800  0.250500  1.0  0.1231
  H  H42  1  0.772800  0.262300  0.166800  1.0  0.0838
  H  H43  1  0.791000  0.230800  0.065300  1.0  0.13
  H  H44  1  0.180900  0.137200  0.065000  1.0  0.1151
  H  H45  1  0.151900  0.165100  0.166400  1.0  0.0989
  H  H46  1  0.797400  0.141400  0.990800  1.0  0.1263
  H  H47  1  0.016100  0.047100  0.832100  1.0  0.1103
  H  H48  1  0.199500  0.131900  0.967600  1.0  0.114
  C  C49  1  0.208700  0.830300  0.592500  1.0  0.1798
  C  C50  1  0.228100  0.860300  0.531500  1.0  -0.1938
  C  C51  1  0.122900  0.857600  0.499300  1.0  0.0905
  C  C52  1  0.007300  0.825900  0.532900  1.0  -0.1871
  C  C53  1  0.997800  0.800100  0.591400  1.0  0.1969
  C  C54  1  0.136600  0.895000  0.434400  1.0  0.0493
  C  C55  1  0.023300  0.921400  0.404600  1.0  -0.0614
  C  C56  1  0.035600  0.961200  0.346900  1.0  -0.1077
  C  C57  1  0.161200  0.978700  0.313800  1.0  -0.0769
  C  C58  1  0.274300  0.950500  0.341400  1.0  -0.1237
  C  C59  1  0.262500  0.911400  0.400000  1.0  -0.0768
  C  C60  1  0.911600  0.991500  0.316300  1.0  0.6489
  C  C61  1  0.413700  0.965100  0.305300  1.0  0.6638
  C  C62  1  0.669700  0.235700  0.767200  1.0  0.1644
  C  C63  1  0.681300  0.337900  0.748800  1.0  -0.1432
  C  C64  1  0.579900  0.414200  0.771200  1.0  0.0671
  C  C65  1  0.470900  0.378600  0.809800  1.0  -0.1639
  C  C66  1  0.465500  0.279000  0.825500  1.0  0.1651
  C  C67  1  0.592100  0.519600  0.753400  1.0  0.0482
  C  C68  1  0.486000  0.587000  0.742800  1.0  -0.0704
  C  C69  1  0.493000  0.690100  0.729500  1.0  -0.1298
  C  C70  1  0.622100  0.726200  0.724800  1.0  -0.0137
  C  C71  1  0.730000  0.658500  0.732700  1.0  -0.105
  C  C72  1  0.721400  0.558500  0.745600  1.0  -0.0486
  C  C73  1  0.373400  0.762500  0.719200  1.0  0.6712
  C  C74  1  0.865500  0.703200  0.728700  1.0  0.6333
  C  C75  1  0.143300  0.767300  0.853600  1.0  0.1938
  C  C76  1  0.133500  0.786000  0.914700  1.0  -0.1969
  C  C77  1  0.012800  0.829200  0.946400  1.0  0.1048
  C  C78  1  0.906500  0.841200  0.914400  1.0  -0.1647
  C  C79  1  0.923600  0.822800  0.854000  1.0  0.1734
  C  C80  1  0.001800  0.859100  0.011400  1.0  -0.0214
  C  C81  1  0.117300  0.873200  0.033700  1.0  -0.0909
  C  C82  1  0.109400  0.908900  0.092200  1.0  -0.1479
  C  C83  1  0.988000  0.929600  0.128300  1.0  -0.0568
  C  C84  1  0.865700  0.916100  0.106400  1.0  -0.1217
  C  C85  1  0.879100  0.879300  0.047600  1.0  -0.0599
  C  C86  1  0.236800  0.930500  0.115300  1.0  0.6575
  C  C87  1  0.733400  0.944700  0.145900  1.0  0.6224
  C  C88  1  0.791300  0.169700  0.407500  1.0  0.1789
  C  C89  1  0.771900  0.139700  0.468500  1.0  -0.1964
  C  C90  1  0.877100  0.142400  0.500700  1.0  0.0906
  C  C91  1  0.992700  0.174100  0.467100  1.0  -0.1874
  C  C92  1  0.002200  0.199900  0.408600  1.0  0.198
  C  C93  1  0.863400  0.105000  0.565600  1.0  0.0504
  C  C94  1  0.976700  0.078600  0.595400  1.0  -0.0598
  C  C95  1  0.964400  0.038800  0.653100  1.0  -0.1082
  C  C96  1  0.838800  0.021300  0.686200  1.0  -0.0772
  C  C97  1  0.725700  0.049500  0.658600  1.0  -0.1241
  C  C98  1  0.737500  0.088600  0.600000  1.0  -0.0758
  C  C99  1  0.088400  0.008500  0.683700  1.0  0.6484
  C  C100  1  0.586300  0.034900  0.694700  1.0  0.6644
  C  C101  1  0.330300  0.764300  0.232800  1.0  0.1643
  C  C102  1  0.318700  0.662100  0.251200  1.0  -0.1437
  C  C103  1  0.420100  0.585800  0.228800  1.0  0.0671
  C  C104  1  0.529100  0.621400  0.190200  1.0  -0.1624
  C  C105  1  0.534500  0.721000  0.174500  1.0  0.165
  C  C106  1  0.407900  0.480400  0.246600  1.0  0.0482
  C  C107  1  0.514000  0.413000  0.257200  1.0  -0.0716
  C  C108  1  0.507000  0.309900  0.270500  1.0  -0.1308
  C  C109  1  0.377900  0.273800  0.275200  1.0  -0.0132
  C  C110  1  0.270000  0.341500  0.267300  1.0  -0.1044
  C  C111  1  0.278600  0.441500  0.254400  1.0  -0.0484
  C  C112  1  0.626600  0.237500  0.280800  1.0  0.6713
  C  C113  1  0.134500  0.296800  0.271300  1.0  0.6344
  C  C114  1  0.856700  0.232700  0.146400  1.0  0.1927
  C  C115  1  0.866500  0.214000  0.085300  1.0  -0.1986
  C  C116  1  0.987200  0.170800  0.053600  1.0  0.1062
  C  C117  1  0.093500  0.158800  0.085600  1.0  -0.1658
  C  C118  1  0.076400  0.177200  0.146000  1.0  0.1753
  C  C119  1  0.998200  0.140900  0.988600  1.0  -0.0216
  C  C120  1  0.882700  0.126800  0.966300  1.0  -0.0913
  C  C121  1  0.890600  0.091100  0.907800  1.0  -0.1488
  C  C122  1  0.012000  0.070400  0.871700  1.0  -0.0546
  C  C123  1  0.134300  0.083900  0.893600  1.0  -0.1183
  C  C124  1  0.120900  0.120700  0.952400  1.0  -0.059
  C  C125  1  0.763200  0.069500  0.884700  1.0  0.6557
  C  C126  1  0.266600  0.055300  0.854100  1.0  0.6214
  N  N127  1  0.097900  0.800100  0.625100  1.0  -0.3841
  N  N128  1  0.560300  0.200900  0.807100  1.0  -0.3609
  N  N129  1  0.044700  0.787800  0.821900  1.0  -0.3293
  N  N130  1  0.902100  0.199900  0.374900  1.0  -0.3847
  N  N131  1  0.439700  0.799100  0.192900  1.0  -0.3603
  N  N132  1  0.955300  0.212200  0.178100  1.0  -0.3295
  O  O133  1  0.806200  0.946100  0.338800  1.0  -0.5844
  O  O134  1  0.912200  0.056200  0.274300  1.0  -0.5914
  O  O135  1  0.515400  0.947200  0.332000  1.0  -0.5967
  O  O136  1  0.424300  0.998700  0.250200  1.0  -0.6909
  O  O137  1  0.388900  0.854800  0.709800  1.0  -0.6482
  O  O138  1  0.262600  0.724500  0.720800  1.0  -0.6033
  O  O139  1  0.973500  0.641400  0.728000  1.0  -0.583
  O  O140  1  0.865500  0.796100  0.726300  1.0  -0.5613
  O  O141  1  0.348600  0.918600  0.081500  1.0  -0.5475
  O  O142  1  0.224200  0.954900  0.170200  1.0  -0.5657
  O  O143  1  0.742800  0.947300  0.203200  1.0  -0.6821
  O  O144  1  0.629400  0.927800  0.125200  1.0  -0.5927
  O  O145  1  0.193800  0.053900  0.661200  1.0  -0.5855
  O  O146  1  0.087800  0.943800  0.725700  1.0  -0.5907
  O  O147  1  0.484600  0.052800  0.668000  1.0  -0.5966
  O  O148  1  0.575700  0.001300  0.749800  1.0  -0.692
  O  O149  1  0.611100  0.145200  0.290200  1.0  -0.6481
  O  O150  1  0.737400  0.275500  0.279200  1.0  -0.6039
  O  O151  1  0.026500  0.358600  0.272000  1.0  -0.5831
  O  O152  1  0.134500  0.203900  0.273700  1.0  -0.5611
  O  O153  1  0.651400  0.081400  0.918500  1.0  -0.5476
  O  O154  1  0.775800  0.045100  0.829800  1.0  -0.5682
  O  O155  1  0.257200  0.052700  0.796800  1.0  -0.6806
  O  O156  1  0.370600  0.072200  0.874800  1.0  -0.5928
