# generated using pymatgen
data_CoH7C13NO4
_symmetry_space_group_name_H-M   'P 1'
_cell_length_a   9.28700000
_cell_length_b   16.66700000
_cell_length_c   28.24200000
_cell_angle_alpha   90.00000000
_cell_angle_beta   90.00000000
_cell_angle_gamma   97.03000000
_symmetry_Int_Tables_number   1
_chemical_formula_structural   CoH7C13NO4
_chemical_formula_sum   'Co8 H56 C104 N8 O32'
_cell_volume   4338.61444968
_cell_formula_units_Z   8
loop_
 _symmetry_equiv_pos_site_id
 _symmetry_equiv_pos_as_xyz
  1  'x, y, z'
loop_
 _atom_site_type_symbol
 _atom_site_label
 _atom_site_symmetry_multiplicity
 _atom_site_fract_x
 _atom_site_fract_y
 _atom_site_fract_z
 _atom_site_occupancy
 _atom_site_charge
  Co  Co1  1  0.807220  0.719790  0.695220  1.0  1.1272
  Co  Co2  1  0.755450  0.730610  0.575430  1.0  0.8288
  Co  Co3  1  0.192780  0.780210  0.195220  1.0  1.1273
  Co  Co4  1  0.244550  0.769390  0.075430  1.0  0.8287
  Co  Co5  1  0.192780  0.280210  0.304780  1.0  1.1281
  Co  Co6  1  0.244550  0.269390  0.424570  1.0  0.8283
  Co  Co7  1  0.807220  0.219790  0.804780  1.0  1.1281
  Co  Co8  1  0.755450  0.230610  0.924570  1.0  0.8287
  H  H9  1  0.049300  0.300000  0.510100  1.0  0.0724
  H  H10  1  0.939000  0.236700  0.575800  1.0  0.1356
  H  H11  1  0.134000  0.040800  0.542800  1.0  0.1328
  H  H12  1  0.234700  0.109400  0.477300  1.0  0.0841
  H  H13  1  0.951800  0.188500  0.650600  1.0  0.1081
  H  H14  1  0.808400  0.980900  0.718600  1.0  0.1144
  H  H15  1  0.935500  0.975300  0.581500  1.0  0.0917
  H  H16  1  0.417900  0.325100  0.514500  1.0  0.09
  H  H17  1  0.430200  0.425200  0.571500  1.0  0.1335
  H  H18  1  0.190500  0.550800  0.485400  1.0  0.137
  H  H19  1  0.190000  0.448700  0.430400  1.0  0.0844
  H  H20  1  0.511500  0.562700  0.595700  1.0  0.1014
  H  H21  1  0.284300  0.710800  0.671200  1.0  0.1231
  H  H22  1  0.095700  0.584300  0.560400  1.0  0.0968
  H  H23  1  0.950700  0.200000  0.010100  1.0  0.0724
  H  H24  1  0.061000  0.263300  0.075800  1.0  0.1359
  H  H25  1  0.866000  0.459200  0.042800  1.0  0.1328
  H  H26  1  0.765300  0.390600  0.977300  1.0  0.0841
  H  H27  1  0.048200  0.311500  0.150600  1.0  0.1084
  H  H28  1  0.191600  0.519100  0.218600  1.0  0.1142
  H  H29  1  0.064500  0.524700  0.081500  1.0  0.0922
  H  H30  1  0.582100  0.174900  0.014500  1.0  0.0878
  H  H31  1  0.569800  0.074800  0.071500  1.0  0.1336
  H  H32  1  0.809500  0.949200  0.985400  1.0  0.1369
  H  H33  1  0.810000  0.051300  0.930400  1.0  0.0838
  H  H34  1  0.488500  0.937300  0.095700  1.0  0.1005
  H  H35  1  0.715700  0.789200  0.171200  1.0  0.1229
  H  H36  1  0.904300  0.915700  0.060400  1.0  0.0971
  H  H37  1  0.950700  0.700000  0.489900  1.0  0.0724
  H  H38  1  0.061000  0.763300  0.424200  1.0  0.1362
  H  H39  1  0.866000  0.959200  0.457200  1.0  0.1325
  H  H40  1  0.765300  0.890600  0.522700  1.0  0.0841
  H  H41  1  0.048200  0.811500  0.349400  1.0  0.1077
  H  H42  1  0.191600  0.019100  0.281400  1.0  0.1144
  H  H43  1  0.064500  0.024700  0.418500  1.0  0.0918
  H  H44  1  0.582100  0.674900  0.485500  1.0  0.0884
  H  H45  1  0.569800  0.574800  0.428500  1.0  0.134
  H  H46  1  0.809500  0.449200  0.514600  1.0  0.1371
  H  H47  1  0.810000  0.551300  0.569600  1.0  0.0838
  H  H48  1  0.488500  0.437300  0.404300  1.0  0.1017
  H  H49  1  0.715700  0.289200  0.328800  1.0  0.1226
  H  H50  1  0.904300  0.415700  0.439600  1.0  0.0963
  H  H51  1  0.049300  0.800000  0.989900  1.0  0.0727
  H  H52  1  0.939000  0.736700  0.924200  1.0  0.1359
  H  H53  1  0.134000  0.540800  0.957200  1.0  0.1328
  H  H54  1  0.234700  0.609400  0.022700  1.0  0.0845
  H  H55  1  0.951800  0.688500  0.849400  1.0  0.1079
  H  H56  1  0.808400  0.480900  0.781400  1.0  0.1143
  H  H57  1  0.935500  0.475300  0.918500  1.0  0.0917
  H  H58  1  0.417900  0.825100  0.985500  1.0  0.0912
  H  H59  1  0.430200  0.925200  0.928500  1.0  0.1335
  H  H60  1  0.190500  0.050800  0.014600  1.0  0.137
  H  H61  1  0.190000  0.948700  0.069600  1.0  0.0843
  H  H62  1  0.511500  0.062700  0.904300  1.0  0.1011
  H  H63  1  0.284300  0.210800  0.828800  1.0  0.1229
  H  H64  1  0.095700  0.084300  0.939600  1.0  0.0966
  C  C65  1  0.066300  0.246100  0.516720  1.0  0.1711
  C  C66  1  0.000300  0.209000  0.556440  1.0  -0.2219
  C  C67  1  0.025300  0.131000  0.567370  1.0  0.1412
  C  C68  1  0.114200  0.094500  0.536860  1.0  -0.2297
  C  C69  1  0.174400  0.136100  0.497690  1.0  0.1598
  C  C70  1  0.959300  0.088500  0.609770  1.0  -0.0199
  C  C71  1  0.932400  0.131200  0.650530  1.0  -0.0558
  C  C72  1  0.877400  0.091200  0.691300  1.0  -0.1164
  C  C73  1  0.844700  0.008200  0.690770  1.0  0.0223
  C  C74  1  0.864300  0.963500  0.649630  1.0  -0.151
  C  C75  1  0.921700  0.004900  0.609600  1.0  -0.0642
  C  C76  1  0.848900  0.138000  0.734720  1.0  0.6336
  C  C77  1  0.825100  0.874100  0.648560  1.0  0.7154
  C  C78  1  0.369900  0.371300  0.508830  1.0  0.1539
  C  C79  1  0.377200  0.430700  0.543100  1.0  -0.2062
  C  C80  1  0.306600  0.498400  0.535900  1.0  0.1214
  C  C81  1  0.237100  0.504500  0.492450  1.0  -0.232
  C  C82  1  0.236600  0.443000  0.459960  1.0  0.1659
  C  C83  1  0.302400  0.561000  0.572990  1.0  0.0021
  C  C84  1  0.424000  0.585600  0.600940  1.0  -0.0893
  C  C85  1  0.418300  0.643000  0.636220  1.0  -0.1174
  C  C86  1  0.290100  0.674500  0.645510  1.0  -0.0089
  C  C87  1  0.170000  0.652600  0.616900  1.0  -0.119
  C  C88  1  0.177200  0.597400  0.580480  1.0  -0.0703
  C  C89  1  0.555000  0.673700  0.662350  1.0  0.6642
  C  C90  1  0.028500  0.687300  0.625010  1.0  0.6825
  C  C91  1  0.933700  0.253900  0.016720  1.0  0.1665
  C  C92  1  0.999700  0.291000  0.056440  1.0  -0.2193
  C  C93  1  0.974700  0.369000  0.067370  1.0  0.1405
  C  C94  1  0.885800  0.405500  0.036860  1.0  -0.2279
  C  C95  1  0.825600  0.363900  0.997690  1.0  0.1591
  C  C96  1  0.040700  0.411500  0.109770  1.0  -0.0196
  C  C97  1  0.067600  0.368800  0.150530  1.0  -0.0559
  C  C98  1  0.122600  0.408800  0.191300  1.0  -0.1158
  C  C99  1  0.155300  0.491800  0.190770  1.0  0.0225
  C  C100  1  0.135700  0.536500  0.149630  1.0  -0.1511
  C  C101  1  0.078300  0.495100  0.109600  1.0  -0.0644
  C  C102  1  0.151100  0.362000  0.234720  1.0  0.6347
  C  C103  1  0.174900  0.625900  0.148560  1.0  0.6994
  C  C104  1  0.630100  0.128700  0.008830  1.0  0.1523
  C  C105  1  0.622800  0.069300  0.043100  1.0  -0.2054
  C  C106  1  0.693400  0.001600  0.035900  1.0  0.1221
  C  C107  1  0.762900  0.995500  0.992450  1.0  -0.2322
  C  C108  1  0.763400  0.057000  0.959960  1.0  0.1644
  C  C109  1  0.697600  0.939000  0.072990  1.0  0.0022
  C  C110  1  0.576000  0.914400  0.100940  1.0  -0.0911
  C  C111  1  0.581700  0.857000  0.136220  1.0  -0.116
  C  C112  1  0.709900  0.825500  0.145510  1.0  -0.007
  C  C113  1  0.830000  0.847400  0.116900  1.0  -0.1197
  C  C114  1  0.822800  0.902600  0.080480  1.0  -0.0699
  C  C115  1  0.445000  0.826300  0.162350  1.0  0.6638
  C  C116  1  0.971500  0.812700  0.125010  1.0  0.6822
  C  C117  1  0.933700  0.753900  0.483280  1.0  0.1668
  C  C118  1  0.999700  0.791000  0.443560  1.0  -0.2191
  C  C119  1  0.974700  0.869000  0.432630  1.0  0.1403
  C  C120  1  0.885800  0.905500  0.463140  1.0  -0.2269
  C  C121  1  0.825600  0.863900  0.502310  1.0  0.1591
  C  C122  1  0.040700  0.911500  0.390230  1.0  -0.0199
  C  C123  1  0.067600  0.868800  0.349470  1.0  -0.0551
  C  C124  1  0.122600  0.908800  0.308700  1.0  -0.1169
  C  C125  1  0.155300  0.991800  0.309230  1.0  0.0209
  C  C126  1  0.135700  0.036500  0.350370  1.0  -0.1516
  C  C127  1  0.078300  0.995100  0.390400  1.0  -0.0642
  C  C128  1  0.151100  0.862000  0.265280  1.0  0.6343
  C  C129  1  0.174900  0.125900  0.351440  1.0  0.7006
  C  C130  1  0.630100  0.628700  0.491170  1.0  0.1544
  C  C131  1  0.622800  0.569300  0.456900  1.0  -0.2062
  C  C132  1  0.693400  0.501600  0.464100  1.0  0.122
  C  C133  1  0.762900  0.495500  0.507550  1.0  -0.2316
  C  C134  1  0.763400  0.557000  0.540040  1.0  0.1655
  C  C135  1  0.697600  0.439000  0.427010  1.0  0.0021
  C  C136  1  0.576000  0.414400  0.399060  1.0  -0.0908
  C  C137  1  0.581700  0.357000  0.363780  1.0  -0.1172
  C  C138  1  0.709900  0.325500  0.354490  1.0  -0.0083
  C  C139  1  0.830000  0.347400  0.383100  1.0  -0.1187
  C  C140  1  0.822800  0.402600  0.419520  1.0  -0.0692
  C  C141  1  0.445000  0.326300  0.337650  1.0  0.6637
  C  C142  1  0.971500  0.312700  0.374990  1.0  0.6827
  C  C143  1  0.066300  0.746100  0.983280  1.0  0.1693
  C  C144  1  0.000300  0.709000  0.943560  1.0  -0.2215
  C  C145  1  0.025300  0.631000  0.932630  1.0  0.1408
  C  C146  1  0.114200  0.594500  0.963140  1.0  -0.2268
  C  C147  1  0.174400  0.636100  0.002310  1.0  0.1607
  C  C148  1  0.959300  0.588500  0.890230  1.0  -0.0203
  C  C149  1  0.932400  0.631200  0.849470  1.0  -0.0558
  C  C150  1  0.877400  0.591200  0.808700  1.0  -0.117
  C  C151  1  0.844700  0.508200  0.809230  1.0  0.0215
  C  C152  1  0.864300  0.463500  0.850370  1.0  -0.1518
  C  C153  1  0.921700  0.504900  0.890400  1.0  -0.0638
  C  C154  1  0.848900  0.638000  0.765280  1.0  0.6341
  C  C155  1  0.825100  0.374100  0.851440  1.0  0.7167
  C  C156  1  0.369900  0.871300  0.991170  1.0  0.1537
  C  C157  1  0.377200  0.930700  0.956900  1.0  -0.2058
  C  C158  1  0.306600  0.998400  0.964100  1.0  0.122
  C  C159  1  0.237100  0.004500  0.007550  1.0  -0.2321
  C  C160  1  0.236600  0.943000  0.040040  1.0  0.1654
  C  C161  1  0.302400  0.061000  0.927010  1.0  0.0016
  C  C162  1  0.424000  0.085600  0.899060  1.0  -0.0893
  C  C163  1  0.418300  0.143000  0.863780  1.0  -0.1162
  C  C164  1  0.290100  0.174500  0.854490  1.0  -0.009
  C  C165  1  0.170000  0.152600  0.883100  1.0  -0.1189
  C  C166  1  0.177200  0.097400  0.919520  1.0  -0.0698
  C  C167  1  0.555000  0.173700  0.837650  1.0  0.6646
  C  C168  1  0.028500  0.187300  0.874990  1.0  0.6829
  N  N169  1  0.152200  0.211070  0.487170  1.0  -0.3361
  N  N170  1  0.298100  0.375730  0.467630  1.0  -0.368
  N  N171  1  0.847800  0.288930  0.987170  1.0  -0.3381
  N  N172  1  0.701900  0.124270  0.967630  1.0  -0.3682
  N  N173  1  0.847800  0.788930  0.512830  1.0  -0.3359
  N  N174  1  0.701900  0.624270  0.532370  1.0  -0.369
  N  N175  1  0.152200  0.711070  0.012830  1.0  -0.334
  N  N176  1  0.298100  0.875730  0.032370  1.0  -0.3679
  O  O177  1  0.805400  0.838740  0.687940  1.0  -0.5791
  O  O178  1  0.815000  0.841060  0.608770  1.0  -0.6154
  O  O179  1  0.811400  0.101050  0.772090  1.0  -0.5583
  O  O180  1  0.864500  0.214390  0.733310  1.0  -0.5732
  O  O181  1  0.675500  0.673920  0.640010  1.0  -0.6544
  O  O182  1  0.552600  0.699160  0.703520  1.0  -0.529
  O  O183  1  0.005800  0.712840  0.666490  1.0  -0.5916
  O  O184  1  0.947100  0.687760  0.589820  1.0  -0.5841
  O  O185  1  0.194600  0.661260  0.187940  1.0  -0.5785
  O  O186  1  0.185000  0.658940  0.108770  1.0  -0.6149
  O  O187  1  0.188600  0.398950  0.272090  1.0  -0.5581
  O  O188  1  0.135500  0.285610  0.233310  1.0  -0.5735
  O  O189  1  0.324500  0.826080  0.140010  1.0  -0.6519
  O  O190  1  0.447400  0.800840  0.203520  1.0  -0.5286
  O  O191  1  0.994200  0.787160  0.166490  1.0  -0.5926
  O  O192  1  0.052900  0.812240  0.089820  1.0  -0.5848
  O  O193  1  0.194600  0.161260  0.312060  1.0  -0.5774
  O  O194  1  0.185000  0.158940  0.391230  1.0  -0.6139
  O  O195  1  0.188600  0.898950  0.227910  1.0  -0.5579
  O  O196  1  0.135500  0.785610  0.266690  1.0  -0.5725
  O  O197  1  0.324500  0.326080  0.359990  1.0  -0.6504
  O  O198  1  0.447400  0.300840  0.296480  1.0  -0.5277
  O  O199  1  0.994200  0.287160  0.333510  1.0  -0.5911
  O  O200  1  0.052900  0.312240  0.410180  1.0  -0.5852
  O  O201  1  0.805400  0.338740  0.812060  1.0  -0.5777
  O  O202  1  0.815000  0.341060  0.891230  1.0  -0.6154
  O  O203  1  0.811400  0.601050  0.727910  1.0  -0.5565
  O  O204  1  0.864500  0.714390  0.766690  1.0  -0.5726
  O  O205  1  0.675500  0.173920  0.859990  1.0  -0.6526
  O  O206  1  0.552600  0.199160  0.796480  1.0  -0.529
  O  O207  1  0.005800  0.212840  0.833510  1.0  -0.5909
  O  O208  1  0.947100  0.187760  0.910180  1.0  -0.5844
