# generated using pymatgen
data_CoH7C13NO4
_symmetry_space_group_name_H-M   'P 1'
_cell_length_a   11.85000000
_cell_length_b   13.85300000
_cell_length_c   13.94400000
_cell_angle_alpha   90.00000000
_cell_angle_beta   114.79300000
_cell_angle_gamma   90.00000000
_symmetry_Int_Tables_number   1
_chemical_formula_structural   CoH7C13NO4
_chemical_formula_sum   'Co4 H28 C52 N4 O16'
_cell_volume   2078.03795402
_cell_formula_units_Z   4
loop_
 _symmetry_equiv_pos_site_id
 _symmetry_equiv_pos_as_xyz
  1  'x, y, z'
loop_
 _atom_site_type_symbol
 _atom_site_label
 _atom_site_symmetry_multiplicity
 _atom_site_fract_x
 _atom_site_fract_y
 _atom_site_fract_z
 _atom_site_occupancy
 _atom_site_charge
  Co  Co1  1  0.893500  0.441870  0.950040  1.0  0.9313
  Co  Co2  1  0.106500  0.941870  0.549960  1.0  0.931
  Co  Co3  1  0.106500  0.558130  0.049960  1.0  0.9306
  Co  Co4  1  0.893500  0.058130  0.450040  1.0  0.9311
  H  H5  1  0.645800  0.526100  0.896300  1.0  0.0887
  H  H6  1  0.441000  0.481800  0.851400  1.0  0.1309
  H  H7  1  0.541600  0.202500  0.850600  1.0  0.1314
  H  H8  1  0.743200  0.253600  0.898400  1.0  0.0889
  H  H9  1  0.999200  0.252200  0.737200  1.0  0.1136
  H  H10  1  0.329600  0.192400  0.726200  1.0  0.1092
  H  H11  1  0.303900  0.411100  0.908400  1.0  0.0997
  H  H12  1  0.354200  0.026100  0.603700  1.0  0.0892
  H  H13  1  0.559000  0.981800  0.648600  1.0  0.1303
  H  H14  1  0.458400  0.702500  0.649400  1.0  0.1314
  H  H15  1  0.256800  0.753600  0.601600  1.0  0.0885
  H  H16  1  0.000800  0.752200  0.762800  1.0  0.1128
  H  H17  1  0.670400  0.692400  0.773800  1.0  0.1087
  H  H18  1  0.696100  0.911100  0.591600  1.0  0.1007
  H  H19  1  0.354200  0.473900  0.103700  1.0  0.0888
  H  H20  1  0.559000  0.518200  0.148600  1.0  0.1306
  H  H21  1  0.458400  0.797500  0.149400  1.0  0.1312
  H  H22  1  0.256800  0.746400  0.101600  1.0  0.0885
  H  H23  1  0.000800  0.747800  0.262800  1.0  0.1127
  H  H24  1  0.670400  0.807600  0.273800  1.0  0.1086
  H  H25  1  0.696100  0.588900  0.091600  1.0  0.1006
  H  H26  1  0.645800  0.973900  0.396300  1.0  0.0882
  H  H27  1  0.441000  0.018200  0.351400  1.0  0.1301
  H  H28  1  0.541600  0.297500  0.350600  1.0  0.1312
  H  H29  1  0.743200  0.246400  0.398400  1.0  0.0889
  H  H30  1  0.999200  0.247800  0.237200  1.0  0.1135
  H  H31  1  0.329600  0.307600  0.226200  1.0  0.1097
  H  H32  1  0.303900  0.088900  0.408400  1.0  0.1002
  C  C33  1  0.624200  0.459600  0.888000  1.0  0.1608
  C  C34  1  0.501700  0.433500  0.860900  1.0  -0.2183
  C  C35  1  0.467500  0.336300  0.847600  1.0  0.1211
  C  C36  1  0.560800  0.269300  0.860800  1.0  -0.2123
  C  C37  1  0.680800  0.300500  0.888800  1.0  0.1571
  C  C38  1  0.085400  0.264900  0.759900  1.0  -0.0087
  C  C39  1  0.155100  0.209900  0.720400  1.0  -0.1078
  C  C40  1  0.281400  0.230700  0.751400  1.0  -0.0743
  C  C41  1  0.336100  0.308000  0.819700  1.0  -0.0071
  C  C42  1  0.266200  0.359800  0.860400  1.0  -0.0729
  C  C43  1  0.141000  0.337800  0.832000  1.0  -0.1319
  C  C44  1  0.094700  0.130600  0.642600  1.0  0.6899
  C  C45  1  0.070800  0.393500  0.881900  1.0  0.6803
  C  C46  1  0.375800  0.959600  0.612000  1.0  0.1596
  C  C47  1  0.498300  0.933500  0.639100  1.0  -0.2175
  C  C48  1  0.532500  0.836300  0.652400  1.0  0.1205
  C  C49  1  0.439200  0.769300  0.639200  1.0  -0.2112
  C  C50  1  0.319200  0.800500  0.611200  1.0  0.1593
  C  C51  1  0.914600  0.764900  0.740100  1.0  -0.0076
  C  C52  1  0.844900  0.709900  0.779600  1.0  -0.1083
  C  C53  1  0.718600  0.730700  0.748600  1.0  -0.075
  C  C54  1  0.663900  0.808000  0.680300  1.0  -0.0072
  C  C55  1  0.733800  0.859800  0.639600  1.0  -0.0729
  C  C56  1  0.859000  0.837800  0.668000  1.0  -0.1325
  C  C57  1  0.905300  0.630600  0.857400  1.0  0.6903
  C  C58  1  0.929200  0.893500  0.618100  1.0  0.6806
  C  C59  1  0.375800  0.540400  0.112000  1.0  0.1593
  C  C60  1  0.498300  0.566500  0.139100  1.0  -0.2163
  C  C61  1  0.532500  0.663700  0.152400  1.0  0.1205
  C  C62  1  0.439200  0.730700  0.139200  1.0  -0.2115
  C  C63  1  0.319200  0.699500  0.111200  1.0  0.1587
  C  C64  1  0.914600  0.735100  0.240100  1.0  -0.0074
  C  C65  1  0.844900  0.790100  0.279600  1.0  -0.1083
  C  C66  1  0.718600  0.769300  0.248600  1.0  -0.075
  C  C67  1  0.663900  0.692000  0.180300  1.0  -0.0072
  C  C68  1  0.733800  0.640200  0.139600  1.0  -0.0725
  C  C69  1  0.859000  0.662200  0.168000  1.0  -0.1324
  C  C70  1  0.905300  0.869400  0.357400  1.0  0.6905
  C  C71  1  0.929200  0.606500  0.118100  1.0  0.6801
  C  C72  1  0.624200  0.040400  0.388000  1.0  0.1611
  C  C73  1  0.501700  0.066500  0.360900  1.0  -0.2167
  C  C74  1  0.467500  0.163700  0.347600  1.0  0.1212
  C  C75  1  0.560800  0.230700  0.360800  1.0  -0.2125
  C  C76  1  0.680800  0.199500  0.388800  1.0  0.1579
  C  C77  1  0.085400  0.235100  0.259900  1.0  -0.0085
  C  C78  1  0.155100  0.290100  0.220400  1.0  -0.1076
  C  C79  1  0.281400  0.269300  0.251400  1.0  -0.0741
  C  C80  1  0.336100  0.192000  0.319700  1.0  -0.0071
  C  C81  1  0.266200  0.140200  0.360400  1.0  -0.0723
  C  C82  1  0.141000  0.162200  0.332000  1.0  -0.132
  C  C83  1  0.094700  0.369400  0.142600  1.0  0.6907
  C  C84  1  0.070800  0.106500  0.381900  1.0  0.6801
  N  N85  1  0.713800  0.393800  0.903000  1.0  -0.3266
  N  N86  1  0.286200  0.893800  0.597000  1.0  -0.3264
  N  N87  1  0.286200  0.606200  0.097000  1.0  -0.3263
  N  N88  1  0.713800  0.106200  0.403000  1.0  -0.3271
  O  O89  1  0.960700  0.366700  0.861400  1.0  -0.5764
  O  O90  1  0.126400  0.461500  0.942700  1.0  -0.6137
  O  O91  1  0.984100  0.145400  0.575300  1.0  -0.5745
  O  O92  1  0.158300  0.056300  0.649600  1.0  -0.5794
  O  O93  1  0.039300  0.866700  0.638600  1.0  -0.5763
  O  O94  1  0.873600  0.961500  0.557300  1.0  -0.6136
  O  O95  1  0.015900  0.645400  0.924700  1.0  -0.5747
  O  O96  1  0.841700  0.556300  0.850400  1.0  -0.5797
  O  O97  1  0.039300  0.633300  0.138600  1.0  -0.5759
  O  O98  1  0.873600  0.538500  0.057300  1.0  -0.6133
  O  O99  1  0.015900  0.854600  0.424700  1.0  -0.575
  O  O100  1  0.841700  0.943700  0.350400  1.0  -0.58
  O  O101  1  0.960700  0.133300  0.361400  1.0  -0.5766
  O  O102  1  0.126400  0.038500  0.442700  1.0  -0.6131
  O  O103  1  0.984100  0.354600  0.075300  1.0  -0.575
  O  O104  1  0.158300  0.443700  0.149600  1.0  -0.5795
