# generated using pymatgen
data_MnH36C30(NO)6
_symmetry_space_group_name_H-M   'P 1'
_cell_length_a   11.99400000
_cell_length_b   16.35090000
_cell_length_c   16.35090000
_cell_angle_alpha   65.77500000
_cell_angle_beta   75.84700000
_cell_angle_gamma   104.15300000
_symmetry_Int_Tables_number   1
_chemical_formula_structural   MnH36C30(NO)6
_chemical_formula_sum   'Mn3 H108 C90 N18 O18'
_cell_volume   2610.98623765
_cell_formula_units_Z   3
loop_
 _symmetry_equiv_pos_site_id
 _symmetry_equiv_pos_as_xyz
  1  'x, y, z'
loop_
 _atom_site_type_symbol
 _atom_site_label
 _atom_site_symmetry_multiplicity
 _atom_site_fract_x
 _atom_site_fract_y
 _atom_site_fract_z
 _atom_site_occupancy
 _atom_site_charge
  Mn  Mn1  1  0.500000  0.500000  0.000000  1.0  1.0153
  Mn  Mn2  1  0.500000  0.000000  0.500000  1.0  1.0153
  Mn  Mn3  1  0.000000  0.500000  0.500000  1.0  1.0153
  H  H4  1  0.919600  0.625200  0.747200  1.0  0.3451
  H  H5  1  0.675600  0.371000  0.721300  1.0  0.0942
  H  H6  1  0.416800  0.331600  0.951600  1.0  0.0777
  H  H7  1  0.430500  0.183800  0.923500  1.0  0.1219
  H  H8  1  0.354500  0.239200  0.874200  1.0  0.102
  H  H9  1  0.476100  0.265000  0.723000  1.0  0.1066
  H  H10  1  0.415800  0.153100  0.798300  1.0  0.1208
  H  H11  1  0.556200  0.213200  0.770200  1.0  0.1035
  H  H12  1  0.991900  0.830700  0.678200  1.0  0.1034
  H  H13  1  0.949300  0.855900  0.760400  1.0  0.1085
  H  H14  1  0.850600  0.809200  0.728100  1.0  0.1153
  H  H15  1  0.046000  0.755000  0.856900  1.0  0.0845
  H  H16  1  0.993100  0.564200  0.886000  1.0  0.1035
  H  H17  1  0.931800  0.585500  0.967300  1.0  0.1013
  H  H18  1  0.076100  0.611600  0.928000  1.0  0.1053
  H  H19  1  0.207400  0.733400  0.760600  1.0  0.1033
  H  H20  1  0.164200  0.810900  0.697100  1.0  0.1017
  H  H21  1  0.118900  0.705800  0.711400  1.0  0.1022
  H  H22  1  0.666800  0.747200  0.627600  1.0  0.3441
  H  H23  1  0.396900  0.721300  0.907700  1.0  0.0938
  H  H24  1  0.368400  0.951600  0.716800  1.0  0.0792
  H  H25  1  0.354000  0.923500  0.892700  1.0  0.1162
  H  H26  1  0.228700  0.874200  0.886600  1.0  0.0995
  H  H27  1  0.199100  0.723000  0.012000  1.0  0.1102
  H  H28  1  0.214100  0.798300  0.048600  1.0  0.1256
  H  H29  1  0.326400  0.770200  0.016600  1.0  0.1056
  H  H30  1  0.670100  0.678200  0.491100  1.0  0.1059
  H  H31  1  0.709700  0.760400  0.383700  1.0  0.1103
  H  H32  1  0.578700  0.728100  0.462700  1.0  0.1148
  H  H33  1  0.902900  0.856900  0.388100  1.0  0.086
  H  H34  1  0.879100  0.886000  0.549800  1.0  0.1052
  H  H35  1  0.899100  0.967300  0.447200  1.0  0.1009
  H  H36  1  0.004100  0.928000  0.460400  1.0  0.1082
  H  H37  1  0.968000  0.760600  0.506000  1.0  0.1042
  H  H38  1  0.861300  0.697100  0.492000  1.0  0.1021
  H  H39  1  0.830300  0.711400  0.582800  1.0  0.1037
  H  H40  1  0.294400  0.627600  0.625200  1.0  0.3434
  H  H41  1  0.304600  0.907700  0.371000  1.0  0.0944
  H  H42  1  0.085200  0.716800  0.331600  1.0  0.0811
  H  H43  1  0.246700  0.892700  0.183800  1.0  0.1187
  H  H44  1  0.115300  0.886600  0.239200  1.0  0.0954
  H  H45  1  0.211100  0.012000  0.265000  1.0  0.1088
  H  H46  1  0.262700  0.048600  0.153100  1.0  0.1252
  H  H47  1  0.343000  0.016600  0.213200  1.0  0.1043
  H  H48  1  0.161200  0.491100  0.830700  1.0  0.1051
  H  H49  1  0.093400  0.383700  0.855900  1.0  0.1081
  H  H50  1  0.041400  0.462700  0.809200  1.0  0.1145
  H  H51  1  0.291000  0.388100  0.755000  1.0  0.0864
  H  H52  1  0.428900  0.549800  0.564200  1.0  0.1067
  H  H53  1  0.346300  0.447200  0.585500  1.0  0.1003
  H  H54  1  0.464500  0.460400  0.611600  1.0  0.1092
  H  H55  1  0.474000  0.506000  0.733400  1.0  0.105
  H  H56  1  0.353300  0.492000  0.810900  1.0  0.102
  H  H57  1  0.413100  0.582800  0.705800  1.0  0.1054
  H  H58  1  0.080400  0.374800  0.252800  1.0  0.3434
  H  H59  1  0.324400  0.629000  0.278700  1.0  0.094
  H  H60  1  0.583200  0.668400  0.048400  1.0  0.0778
  H  H61  1  0.569500  0.816200  0.076500  1.0  0.1209
  H  H62  1  0.645500  0.760800  0.125800  1.0  0.1008
  H  H63  1  0.523900  0.735000  0.277000  1.0  0.1071
  H  H64  1  0.584200  0.846900  0.201700  1.0  0.123
  H  H65  1  0.443800  0.786800  0.229800  1.0  0.1056
  H  H66  1  0.008100  0.169300  0.321800  1.0  0.1037
  H  H67  1  0.050700  0.144100  0.239600  1.0  0.1087
  H  H68  1  0.149400  0.190800  0.271900  1.0  0.1159
  H  H69  1  0.954000  0.245000  0.143100  1.0  0.0856
  H  H70  1  0.006900  0.435800  0.114000  1.0  0.104
  H  H71  1  0.068200  0.414500  0.032700  1.0  0.1015
  H  H72  1  0.923900  0.388400  0.072000  1.0  0.1032
  H  H73  1  0.792600  0.266600  0.239400  1.0  0.1004
  H  H74  1  0.835800  0.189100  0.302900  1.0  0.1032
  H  H75  1  0.881100  0.294200  0.288600  1.0  0.1034
  H  H76  1  0.333200  0.252800  0.372400  1.0  0.3436
  H  H77  1  0.603100  0.278700  0.092300  1.0  0.0942
  H  H78  1  0.631600  0.048400  0.283200  1.0  0.0789
  H  H79  1  0.646000  0.076500  0.107300  1.0  0.1128
  H  H80  1  0.771300  0.125800  0.113400  1.0  0.0985
  H  H81  1  0.800900  0.277000  0.988000  1.0  0.1106
  H  H82  1  0.785900  0.201700  0.951400  1.0  0.125
  H  H83  1  0.673600  0.229800  0.983400  1.0  0.1073
  H  H84  1  0.329900  0.321800  0.508900  1.0  0.106
  H  H85  1  0.290300  0.239600  0.616300  1.0  0.1109
  H  H86  1  0.421300  0.271900  0.537300  1.0  0.1172
  H  H87  1  0.097100  0.143100  0.611900  1.0  0.0842
  H  H88  1  0.120900  0.114000  0.450200  1.0  0.1046
  H  H89  1  0.100900  0.032700  0.552800  1.0  0.1002
  H  H90  1  0.995900  0.072000  0.539600  1.0  0.107
  H  H91  1  0.032000  0.239400  0.494000  1.0  0.1015
  H  H92  1  0.138700  0.302900  0.508000  1.0  0.102
  H  H93  1  0.169700  0.288600  0.417200  1.0  0.1032
  H  H94  1  0.705600  0.372400  0.374800  1.0  0.3441
  H  H95  1  0.695400  0.092300  0.629000  1.0  0.0948
  H  H96  1  0.914800  0.283200  0.668400  1.0  0.0803
  H  H97  1  0.753300  0.107300  0.816200  1.0  0.1202
  H  H98  1  0.884700  0.113400  0.760800  1.0  0.0912
  H  H99  1  0.788900  0.988000  0.735000  1.0  0.1095
  H  H100  1  0.737300  0.951400  0.846900  1.0  0.1251
  H  H101  1  0.657000  0.983400  0.786800  1.0  0.1062
  H  H102  1  0.838800  0.508900  0.169300  1.0  0.1049
  H  H103  1  0.906600  0.616300  0.144100  1.0  0.1091
  H  H104  1  0.958600  0.537300  0.190800  1.0  0.1154
  H  H105  1  0.709000  0.611900  0.245000  1.0  0.0855
  H  H106  1  0.571100  0.450200  0.435800  1.0  0.1058
  H  H107  1  0.653700  0.552800  0.414500  1.0  0.1012
  H  H108  1  0.535500  0.539600  0.388400  1.0  0.1078
  H  H109  1  0.526000  0.494000  0.266600  1.0  0.1027
  H  H110  1  0.646700  0.508000  0.189100  1.0  0.1024
  H  H111  1  0.586900  0.417200  0.294200  1.0  0.1075
  C  C112  1  0.856000  0.520200  0.673400  1.0  0.6846
  C  C113  1  0.687900  0.492800  0.832300  1.0  0.1263
  C  C114  1  0.731800  0.469200  0.761000  1.0  -0.0797
  C  C115  1  0.649700  0.388600  0.767700  1.0  -0.1073
  C  C116  1  0.531400  0.332500  0.839700  1.0  0.1204
  C  C117  1  0.497300  0.365300  0.903700  1.0  0.0888
  C  C118  1  0.437000  0.237000  0.863000  1.0  -0.2185
  C  C119  1  0.474600  0.214900  0.781200  1.0  -0.3109
  C  C120  1  0.756400  0.570400  0.846600  1.0  0.4207
  C  C121  1  0.906000  0.708400  0.815400  1.0  0.1374
  C  C122  1  0.795400  0.657700  0.913500  1.0  0.5024
  C  C123  1  0.926700  0.810500  0.738400  1.0  -0.3466
  C  C124  1  0.026300  0.710200  0.832200  1.0  0.0232
  C  C125  1  0.004000  0.607000  0.912000  1.0  -0.3164
  C  C126  1  0.139800  0.743200  0.741900  1.0  -0.3669
  C  C127  1  0.529400  0.673400  0.806400  1.0  0.684
  C  C128  1  0.520200  0.832300  0.674900  1.0  0.1256
  C  C129  1  0.492800  0.761000  0.769800  1.0  -0.0792
  C  C130  1  0.417400  0.767700  0.843700  1.0  -0.1051
  C  C131  1  0.371100  0.839700  0.827800  1.0  0.1216
  C  C132  1  0.401000  0.903700  0.731000  1.0  0.089
  C  C133  1  0.300000  0.863000  0.900000  1.0  -0.2195
  C  C134  1  0.255800  0.781200  0.003900  1.0  -0.3099
  C  C135  1  0.603000  0.846600  0.583000  1.0  0.4176
  C  C136  1  0.721400  0.815400  0.476200  1.0  0.1355
  C  C137  1  0.708900  0.913500  0.428800  1.0  0.5035
  C  C138  1  0.665100  0.738400  0.451100  1.0  -0.3443
  C  C139  1  0.858500  0.832200  0.457600  1.0  0.0251
  C  C140  1  0.916000  0.912000  0.481000  1.0  -0.3149
  C  C141  1  0.881700  0.741900  0.514900  1.0  -0.3669
  C  C142  1  0.335800  0.806400  0.520200  1.0  0.6833
  C  C143  1  0.195100  0.674900  0.492800  1.0  0.1255
  C  C144  1  0.262600  0.769800  0.469200  1.0  -0.0784
  C  C145  1  0.261100  0.843700  0.388600  1.0  -0.1069
  C  C146  1  0.198900  0.827800  0.332500  1.0  0.1218
  C  C147  1  0.132000  0.731000  0.365300  1.0  0.0885
  C  C148  1  0.200000  0.900000  0.237000  1.0  -0.2197
  C  C149  1  0.259700  0.003900  0.214900  1.0  -0.309
  C  C150  1  0.186000  0.583000  0.570400  1.0  0.421
  C  C151  1  0.197600  0.476200  0.708400  1.0  0.135
  C  C152  1  0.137700  0.428800  0.657700  1.0  0.5023
  C  C153  1  0.116200  0.451100  0.810500  1.0  -0.35
  C  C154  1  0.316100  0.457600  0.710200  1.0  0.0224
  C  C155  1  0.397000  0.481000  0.607000  1.0  -0.3178
  C  C156  1  0.396600  0.514900  0.743200  1.0  -0.3654
  C  C157  1  0.144000  0.479800  0.326600  1.0  0.6825
  C  C158  1  0.312100  0.507200  0.167700  1.0  0.1254
  C  C159  1  0.268200  0.530800  0.239000  1.0  -0.0801
  C  C160  1  0.350300  0.611400  0.232300  1.0  -0.105
  C  C161  1  0.468600  0.667500  0.160300  1.0  0.1203
  C  C162  1  0.502700  0.634700  0.096300  1.0  0.0892
  C  C163  1  0.563000  0.763000  0.137000  1.0  -0.2185
  C  C164  1  0.525400  0.785100  0.218800  1.0  -0.3103
  C  C165  1  0.243600  0.429600  0.153400  1.0  0.4206
  C  C166  1  0.094000  0.291600  0.184600  1.0  0.1384
  C  C167  1  0.204600  0.342300  0.086500  1.0  0.4987
  C  C168  1  0.073300  0.189500  0.261600  1.0  -0.3491
  C  C169  1  0.973700  0.289800  0.167800  1.0  0.024
  C  C170  1  0.996000  0.393000  0.088000  1.0  -0.3149
  C  C171  1  0.860200  0.256800  0.258100  1.0  -0.3679
  C  C172  1  0.470600  0.326600  0.193600  1.0  0.6843
  C  C173  1  0.479800  0.167700  0.325100  1.0  0.1256
  C  C174  1  0.507200  0.239000  0.230200  1.0  -0.079
  C  C175  1  0.582600  0.232300  0.156300  1.0  -0.1047
  C  C176  1  0.628900  0.160300  0.172200  1.0  0.1203
  C  C177  1  0.599000  0.096300  0.269000  1.0  0.0888
  C  C178  1  0.700000  0.137000  0.100000  1.0  -0.218
  C  C179  1  0.744200  0.218800  0.996100  1.0  -0.3084
  C  C180  1  0.397000  0.153400  0.417000  1.0  0.4199
  C  C181  1  0.278600  0.184600  0.523800  1.0  0.1376
  C  C182  1  0.291100  0.086500  0.571200  1.0  0.5028
  C  C183  1  0.334900  0.261600  0.548900  1.0  -0.3455
  C  C184  1  0.141500  0.167800  0.542400  1.0  0.0243
  C  C185  1  0.084000  0.088000  0.519000  1.0  -0.315
  C  C186  1  0.118300  0.258100  0.485100  1.0  -0.3675
  C  C187  1  0.664200  0.193600  0.479800  1.0  0.6834
  C  C188  1  0.804900  0.325100  0.507200  1.0  0.1264
  C  C189  1  0.737400  0.230200  0.530800  1.0  -0.0797
  C  C190  1  0.738900  0.156300  0.611400  1.0  -0.1048
  C  C191  1  0.801100  0.172200  0.667500  1.0  0.1223
  C  C192  1  0.868000  0.269000  0.634700  1.0  0.0882
  C  C193  1  0.800000  0.100000  0.763000  1.0  -0.2163
  C  C194  1  0.740300  0.996100  0.785100  1.0  -0.3097
  C  C195  1  0.814000  0.417000  0.429600  1.0  0.4214
  C  C196  1  0.802400  0.523800  0.291600  1.0  0.1365
  C  C197  1  0.862300  0.571200  0.342300  1.0  0.5016
  C  C198  1  0.883800  0.548900  0.189500  1.0  -0.3487
  C  C199  1  0.683900  0.542400  0.289800  1.0  0.0212
  C  C200  1  0.603000  0.519000  0.393000  1.0  -0.3173
  C  C201  1  0.603400  0.485100  0.256800  1.0  -0.3637
  N  N202  1  0.571840  0.441680  0.901060  1.0  -0.3345
  N  N203  1  0.702820  0.582220  0.921060  1.0  -0.496
  N  N204  1  0.870700  0.630100  0.791700  1.0  -0.424
  N  N205  1  0.472900  0.901060  0.657260  1.0  -0.3381
  N  N206  1  0.623880  0.921060  0.496720  1.0  -0.4985
  N  N207  1  0.662400  0.791700  0.578200  1.0  -0.4266
  N  N208  1  0.130160  0.657260  0.441680  1.0  -0.334
  N  N209  1  0.120600  0.496720  0.582220  1.0  -0.4934
  N  N210  1  0.240600  0.578200  0.630100  1.0  -0.4209
  N  N211  1  0.428160  0.558320  0.098940  1.0  -0.3347
  N  N212  1  0.297180  0.417780  0.078940  1.0  -0.4965
  N  N213  1  0.129300  0.369900  0.208300  1.0  -0.4222
  N  N214  1  0.527100  0.098940  0.342740  1.0  -0.3356
  N  N215  1  0.376120  0.078940  0.503280  1.0  -0.4952
  N  N216  1  0.337600  0.208300  0.421800  1.0  -0.4261
  N  N217  1  0.869840  0.342740  0.558320  1.0  -0.3372
  N  N218  1  0.879400  0.503280  0.417780  1.0  -0.4946
  N  N219  1  0.759400  0.421800  0.369900  1.0  -0.4226
  O  O220  1  0.858100  0.495360  0.612260  1.0  -0.5913
  O  O221  1  0.947080  0.580900  0.668760  1.0  -0.5873
  O  O222  1  0.782300  0.689200  0.969600  1.0  -0.5449
  O  O223  1  0.470360  0.612260  0.892380  1.0  -0.5908
  O  O224  1  0.615840  0.668760  0.750340  1.0  -0.5864
  O  O225  1  0.751900  0.969600  0.341200  1.0  -0.5451
  O  O226  1  0.362740  0.892380  0.495360  1.0  -0.5919
  O  O227  1  0.366180  0.750340  0.580900  1.0  -0.5877
  O  O228  1  0.093100  0.341200  0.689200  1.0  -0.5378
  O  O229  1  0.141900  0.504640  0.387740  1.0  -0.5916
  O  O230  1  0.052920  0.419100  0.331240  1.0  -0.5864
  O  O231  1  0.217700  0.310800  0.030400  1.0  -0.5433
  O  O232  1  0.529640  0.387740  0.107620  1.0  -0.5927
  O  O233  1  0.384160  0.331240  0.249660  1.0  -0.5864
  O  O234  1  0.248100  0.030400  0.658800  1.0  -0.5436
  O  O235  1  0.637260  0.107620  0.504640  1.0  -0.5912
  O  O236  1  0.633820  0.249660  0.419100  1.0  -0.5863
  O  O237  1  0.906900  0.658800  0.310800  1.0  -0.5363
