# generated using pymatgen
data_Mg2H12C16N5O11
_symmetry_space_group_name_H-M   'P 1'
_cell_length_a   12.47400000
_cell_length_b   15.24800000
_cell_length_c   16.89900000
_cell_angle_alpha   90.00000000
_cell_angle_beta   90.00000000
_cell_angle_gamma   90.00000000
_symmetry_Int_Tables_number   1
_chemical_formula_structural   Mg2H12C16N5O11
_chemical_formula_sum   'Mg8 H48 C64 N20 O44'
_cell_volume   3214.24982525
_cell_formula_units_Z   4
loop_
 _symmetry_equiv_pos_site_id
 _symmetry_equiv_pos_as_xyz
  1  'x, y, z'
loop_
 _atom_site_type_symbol
 _atom_site_label
 _atom_site_symmetry_multiplicity
 _atom_site_fract_x
 _atom_site_fract_y
 _atom_site_fract_z
 _atom_site_occupancy
 _atom_site_charge
  Mg  Mg1  1  0.250000  0.500000  0.391480  1.0  1.5418
  Mg  Mg2  1  0.750000  0.000000  0.108520  1.0  1.5438
  Mg  Mg3  1  0.750000  0.500000  0.608520  1.0  1.5438
  Mg  Mg4  1  0.250000  0.000000  0.891480  1.0  1.5418
  Mg  Mg5  1  0.500000  0.500000  0.500000  1.0  1.5418
  Mg  Mg6  1  0.000000  0.000000  0.000000  1.0  1.5418
  Mg  Mg7  1  0.000000  0.500000  0.500000  1.0  1.5418
  Mg  Mg8  1  0.500000  0.000000  0.000000  1.0  1.5418
  H  H9  1  0.678500  0.761300  0.404400  1.0  0.3139
  H  H10  1  0.602200  0.691700  0.430000  1.0  0.356
  H  H11  1  0.649000  0.844300  0.282700  1.0  0.1105
  H  H12  1  0.318500  0.705600  0.259900  1.0  0.1054
  H  H13  1  0.376900  0.839300  0.103500  1.0  0.3924
  H  H14  1  0.295300  0.778000  0.136500  1.0  0.3109
  H  H15  1  0.178500  0.738700  0.095600  1.0  0.3116
  H  H16  1  0.102200  0.808300  0.070000  1.0  0.356
  H  H17  1  0.149000  0.655700  0.217300  1.0  0.1092
  H  H18  1  0.818500  0.794400  0.240100  1.0  0.1053
  H  H19  1  0.876900  0.660700  0.396500  1.0  0.3884
  H  H20  1  0.795300  0.722000  0.363500  1.0  0.3096
  H  H21  1  0.821500  0.238700  0.404400  1.0  0.3098
  H  H22  1  0.897800  0.308300  0.430000  1.0  0.3569
  H  H23  1  0.851000  0.155700  0.282700  1.0  0.1122
  H  H24  1  0.181500  0.294400  0.259900  1.0  0.1055
  H  H25  1  0.123100  0.160700  0.103500  1.0  0.3928
  H  H26  1  0.204700  0.222000  0.136500  1.0  0.3122
  H  H27  1  0.321500  0.261300  0.095600  1.0  0.3118
  H  H28  1  0.397800  0.191700  0.070000  1.0  0.3566
  H  H29  1  0.351000  0.344300  0.217300  1.0  0.1121
  H  H30  1  0.681500  0.205600  0.240100  1.0  0.1058
  H  H31  1  0.623100  0.339300  0.396500  1.0  0.3881
  H  H32  1  0.704700  0.278000  0.363500  1.0  0.3124
  H  H33  1  0.321500  0.238700  0.595600  1.0  0.3099
  H  H34  1  0.397800  0.308300  0.570000  1.0  0.3565
  H  H35  1  0.351000  0.155700  0.717300  1.0  0.1115
  H  H36  1  0.681500  0.294400  0.740100  1.0  0.1055
  H  H37  1  0.623100  0.160700  0.896500  1.0  0.3878
  H  H38  1  0.704700  0.222000  0.863500  1.0  0.3122
  H  H39  1  0.821500  0.261300  0.904400  1.0  0.312
  H  H40  1  0.897800  0.191700  0.930000  1.0  0.3565
  H  H41  1  0.851000  0.344300  0.782700  1.0  0.1124
  H  H42  1  0.181500  0.205600  0.759900  1.0  0.1058
  H  H43  1  0.123100  0.339300  0.603500  1.0  0.3923
  H  H44  1  0.204700  0.278000  0.636500  1.0  0.3119
  H  H45  1  0.178500  0.761300  0.595600  1.0  0.3131
  H  H46  1  0.102200  0.691700  0.570000  1.0  0.3563
  H  H47  1  0.149000  0.844300  0.717300  1.0  0.1102
  H  H48  1  0.818500  0.705600  0.740100  1.0  0.1054
  H  H49  1  0.876900  0.839300  0.896500  1.0  0.3889
  H  H50  1  0.795300  0.778000  0.863500  1.0  0.3117
  H  H51  1  0.678500  0.738700  0.904400  1.0  0.3128
  H  H52  1  0.602200  0.808300  0.930000  1.0  0.3563
  H  H53  1  0.649000  0.655700  0.782700  1.0  0.1097
  H  H54  1  0.318500  0.794400  0.759900  1.0  0.1052
  H  H55  1  0.376900  0.660700  0.603500  1.0  0.3928
  H  H56  1  0.295300  0.722000  0.636500  1.0  0.3099
  C  C57  1  0.548600  0.909200  0.158100  1.0  0.6955
  C  C58  1  0.417000  0.640500  0.384600  1.0  0.7192
  C  C59  1  0.452100  0.712100  0.328700  1.0  -0.1817
  C  C60  1  0.555500  0.750600  0.332600  1.0  0.2187
  C  C61  1  0.583000  0.816300  0.278300  1.0  -0.112
  C  C62  1  0.513000  0.840500  0.217500  1.0  -0.1388
  C  C63  1  0.416100  0.796200  0.208900  1.0  0.2113
  C  C64  1  0.384600  0.733400  0.265000  1.0  -0.1159
  C  C65  1  0.048600  0.590800  0.341900  1.0  0.696
  C  C66  1  0.917000  0.859500  0.115400  1.0  0.7195
  C  C67  1  0.952100  0.787900  0.171300  1.0  -0.1827
  C  C68  1  0.055500  0.749400  0.167400  1.0  0.2186
  C  C69  1  0.083000  0.683700  0.221700  1.0  -0.1134
  C  C70  1  0.013000  0.659500  0.282500  1.0  -0.1382
  C  C71  1  0.916100  0.703800  0.291100  1.0  0.2118
  C  C72  1  0.884600  0.766600  0.235000  1.0  -0.1147
  C  C73  1  0.951400  0.090800  0.158100  1.0  0.6963
  C  C74  1  0.083000  0.359500  0.384600  1.0  0.7197
  C  C75  1  0.047900  0.287900  0.328700  1.0  -0.1822
  C  C76  1  0.944500  0.249400  0.332600  1.0  0.2191
  C  C77  1  0.917000  0.183700  0.278300  1.0  -0.1142
  C  C78  1  0.987000  0.159500  0.217500  1.0  -0.1383
  C  C79  1  0.083900  0.203800  0.208900  1.0  0.2115
  C  C80  1  0.115400  0.266600  0.265000  1.0  -0.1127
  C  C81  1  0.451400  0.409200  0.341900  1.0  0.6966
  C  C82  1  0.583000  0.140500  0.115400  1.0  0.7191
  C  C83  1  0.547900  0.212100  0.171300  1.0  -0.1815
  C  C84  1  0.444500  0.250600  0.167400  1.0  0.2195
  C  C85  1  0.417000  0.316300  0.221700  1.0  -0.1131
  C  C86  1  0.487000  0.340500  0.282500  1.0  -0.1383
  C  C87  1  0.583900  0.296200  0.291100  1.0  0.2115
  C  C88  1  0.615400  0.233400  0.235000  1.0  -0.1118
  C  C89  1  0.451400  0.090800  0.841900  1.0  0.6965
  C  C90  1  0.583000  0.359500  0.615400  1.0  0.7197
  C  C91  1  0.547900  0.287900  0.671300  1.0  -0.1822
  C  C92  1  0.444500  0.249400  0.667400  1.0  0.2192
  C  C93  1  0.417000  0.183700  0.721700  1.0  -0.114
  C  C94  1  0.487000  0.159500  0.782500  1.0  -0.1381
  C  C95  1  0.583900  0.203800  0.791100  1.0  0.2116
  C  C96  1  0.615400  0.266600  0.735000  1.0  -0.1117
  C  C97  1  0.951400  0.409200  0.658100  1.0  0.6962
  C  C98  1  0.083000  0.140500  0.884600  1.0  0.7193
  C  C99  1  0.047900  0.212100  0.828700  1.0  -0.1816
  C  C100  1  0.944500  0.250600  0.832600  1.0  0.2192
  C  C101  1  0.917000  0.316300  0.778300  1.0  -0.1133
  C  C102  1  0.987000  0.340500  0.717500  1.0  -0.1386
  C  C103  1  0.083900  0.296200  0.708900  1.0  0.2111
  C  C104  1  0.115400  0.233400  0.765000  1.0  -0.1127
  C  C105  1  0.048600  0.909200  0.841900  1.0  0.6962
  C  C106  1  0.917000  0.640500  0.615400  1.0  0.719
  C  C107  1  0.952100  0.712100  0.671300  1.0  -0.182
  C  C108  1  0.055500  0.750600  0.667400  1.0  0.219
  C  C109  1  0.083000  0.816300  0.721700  1.0  -0.1123
  C  C110  1  0.013000  0.840500  0.782500  1.0  -0.1385
  C  C111  1  0.916100  0.796200  0.791100  1.0  0.2117
  C  C112  1  0.884600  0.733400  0.735000  1.0  -0.1152
  C  C113  1  0.548600  0.590800  0.658100  1.0  0.6955
  C  C114  1  0.417000  0.859500  0.884600  1.0  0.7195
  C  C115  1  0.452100  0.787900  0.828700  1.0  -0.1823
  C  C116  1  0.555500  0.749400  0.832600  1.0  0.2184
  C  C117  1  0.583000  0.683700  0.778300  1.0  -0.1131
  C  C118  1  0.513000  0.659500  0.717500  1.0  -0.1384
  C  C119  1  0.416100  0.703800  0.708900  1.0  0.2116
  C  C120  1  0.384600  0.766600  0.765000  1.0  -0.1155
  N  N121  1  0.620300  0.732200  0.397200  1.0  -0.6096
  N  N122  1  0.355100  0.805700  0.141100  1.0  -0.6476
  N  N123  1  0.120300  0.767800  0.102800  1.0  -0.6095
  N  N124  1  0.855100  0.694300  0.358900  1.0  -0.6464
  N  N125  1  0.879700  0.267800  0.397200  1.0  -0.6089
  N  N126  1  0.144900  0.194300  0.141100  1.0  -0.6467
  N  N127  1  0.379700  0.232200  0.102800  1.0  -0.6107
  N  N128  1  0.644900  0.305700  0.358900  1.0  -0.6468
  N  N129  1  0.379700  0.267800  0.602800  1.0  -0.609
  N  N130  1  0.644900  0.194300  0.858900  1.0  -0.6455
  N  N131  1  0.879700  0.232200  0.897200  1.0  -0.61
  N  N132  1  0.144900  0.305700  0.641100  1.0  -0.6472
  N  N133  1  0.120300  0.732200  0.602800  1.0  -0.6104
  N  N134  1  0.855100  0.805700  0.858900  1.0  -0.6475
  N  N135  1  0.620300  0.767800  0.897200  1.0  -0.6089
  N  N136  1  0.355100  0.694300  0.641100  1.0  -0.6473
  N  N137  1  0.250000  0.500000  0.542000  1.0  0.5835
  N  N138  1  0.750000  0.000000  0.958000  1.0  0.5839
  N  N139  1  0.750000  0.500000  0.458000  1.0  0.5839
  N  N140  1  0.250000  0.000000  0.042000  1.0  0.5835
  O  O141  1  0.632100  0.950900  0.177100  1.0  -0.6
  O  O142  1  0.496100  0.913600  0.095200  1.0  -0.6212
  O  O143  1  0.338300  0.486500  0.503600  1.0  -0.7547
  O  O144  1  0.484200  0.603900  0.425800  1.0  -0.6088
  O  O145  1  0.319400  0.621600  0.384700  1.0  -0.6079
  O  O146  1  0.132100  0.549100  0.322900  1.0  -0.5987
  O  O147  1  0.996100  0.586400  0.404800  1.0  -0.6216
  O  O148  1  0.838300  0.013500  0.996400  1.0  -0.7549
  O  O149  1  0.984200  0.896100  0.074200  1.0  -0.6084
  O  O150  1  0.819400  0.878400  0.115300  1.0  -0.6078
  O  O151  1  0.867900  0.049100  0.177100  1.0  -0.5991
  O  O152  1  0.003900  0.086400  0.095200  1.0  -0.6219
  O  O153  1  0.161700  0.513500  0.503600  1.0  -0.7539
  O  O154  1  0.015800  0.396100  0.425800  1.0  -0.6078
  O  O155  1  0.180600  0.378400  0.384700  1.0  -0.6066
  O  O156  1  0.367900  0.450900  0.322900  1.0  -0.5981
  O  O157  1  0.503900  0.413600  0.404800  1.0  -0.6214
  O  O158  1  0.661700  0.986500  0.996400  1.0  -0.7542
  O  O159  1  0.515800  0.103900  0.074200  1.0  -0.6075
  O  O160  1  0.680600  0.121600  0.115300  1.0  -0.6065
  O  O161  1  0.367900  0.049100  0.822900  1.0  -0.5983
  O  O162  1  0.503900  0.086400  0.904800  1.0  -0.6219
  O  O163  1  0.661700  0.513500  0.496400  1.0  -0.754
  O  O164  1  0.515800  0.396100  0.574200  1.0  -0.6078
  O  O165  1  0.680600  0.378400  0.615300  1.0  -0.6066
  O  O166  1  0.867900  0.450900  0.677100  1.0  -0.5997
  O  O167  1  0.003900  0.413600  0.595200  1.0  -0.6216
  O  O168  1  0.161700  0.986500  0.003600  1.0  -0.754
  O  O169  1  0.015800  0.103900  0.925800  1.0  -0.6078
  O  O170  1  0.180600  0.121600  0.884700  1.0  -0.6066
  O  O171  1  0.132100  0.950900  0.822900  1.0  -0.5986
  O  O172  1  0.996100  0.913600  0.904800  1.0  -0.6211
  O  O173  1  0.838300  0.486500  0.496400  1.0  -0.7549
  O  O174  1  0.984200  0.603900  0.574200  1.0  -0.6085
  O  O175  1  0.819400  0.621600  0.615300  1.0  -0.6077
  O  O176  1  0.632100  0.549100  0.677100  1.0  -0.5994
  O  O177  1  0.496100  0.586400  0.595200  1.0  -0.6215
  O  O178  1  0.338300  0.013500  0.003600  1.0  -0.7548
  O  O179  1  0.484200  0.896100  0.925800  1.0  -0.6084
  O  O180  1  0.319400  0.878400  0.884700  1.0  -0.6079
  O  O181  1  0.250000  0.500000  0.621600  1.0  -0.5461
  O  O182  1  0.750000  0.000000  0.878400  1.0  -0.5438
  O  O183  1  0.750000  0.500000  0.378400  1.0  -0.5438
  O  O184  1  0.250000  0.000000  0.121600  1.0  -0.5461
