# generated using pymatgen
data_Ba(CO2)2
_symmetry_space_group_name_H-M   'P 1'
_cell_length_a   6.18800000
_cell_length_b   8.73390000
_cell_length_c   9.31200000
_cell_angle_alpha   64.55300000
_cell_angle_beta   84.64000000
_cell_angle_gamma   84.13970000
_symmetry_Int_Tables_number   1
_chemical_formula_structural   Ba(CO2)2
_chemical_formula_sum   'Ba4 C8 O16'
_cell_volume   451.38167987
_cell_formula_units_Z   4
loop_
 _symmetry_equiv_pos_site_id
 _symmetry_equiv_pos_as_xyz
  1  'x, y, z'
loop_
 _atom_site_type_symbol
 _atom_site_label
 _atom_site_symmetry_multiplicity
 _atom_site_fract_x
 _atom_site_fract_y
 _atom_site_fract_z
 _atom_site_occupancy
 _atom_site_charge
  Ba  Ba1  1  0.721730  0.459670  0.709270  1.0  1.6011
  Ba  Ba2  1  0.785720  0.863530  0.918790  1.0  1.6613
  Ba  Ba3  1  0.278270  0.540330  0.290730  1.0  1.6015
  Ba  Ba4  1  0.214280  0.136470  0.081210  1.0  1.6615
  C  C5  1  0.178400  0.581800  0.827000  1.0  0.6289
  C  C6  1  0.327000  0.681900  0.870900  1.0  0.5898
  C  C7  1  0.133800  0.221600  0.680500  1.0  0.5572
  C  C8  1  0.388800  0.216200  0.685900  1.0  0.556
  C  C9  1  0.821600  0.418200  0.173000  1.0  0.6265
  C  C10  1  0.673000  0.318100  0.129100  1.0  0.5909
  C  C11  1  0.866200  0.778400  0.319500  1.0  0.5555
  C  C12  1  0.611200  0.783800  0.314100  1.0  0.5582
  O  O13  1  0.980300  0.629300  0.813800  1.0  -0.6991
  O  O14  1  0.262300  0.453600  0.807600  1.0  -0.6981
  O  O15  1  0.243200  0.753100  0.958500  1.0  -0.7071
  O  O16  1  0.523400  0.687400  0.822000  1.0  -0.6982
  O  O17  1  0.027300  0.144500  0.812800  1.0  -0.7474
  O  O18  1  0.048400  0.314400  0.549500  1.0  -0.6514
  O  O19  1  0.476500  0.133200  0.816900  1.0  -0.734
  O  O20  1  0.489200  0.306100  0.553600  1.0  -0.6588
  O  O21  1  0.019700  0.370700  0.186200  1.0  -0.7
  O  O22  1  0.737700  0.546400  0.192400  1.0  -0.6983
  O  O23  1  0.756800  0.246900  0.041500  1.0  -0.7083
  O  O24  1  0.476600  0.312600  0.178000  1.0  -0.698
  O  O25  1  0.972700  0.855500  0.187200  1.0  -0.7472
  O  O26  1  0.951600  0.685600  0.450500  1.0  -0.6488
  O  O27  1  0.523500  0.866800  0.183100  1.0  -0.735
  O  O28  1  0.510800  0.693900  0.446400  1.0  -0.6584
