# generated using pymatgen
data_Ba(CO2)2
_symmetry_space_group_name_H-M   'P 1'
_cell_length_a   6.14600000
_cell_length_b   8.69200000
_cell_length_c   9.21600000
_cell_angle_alpha   115.50000000
_cell_angle_beta   95.09400000
_cell_angle_gamma   84.50800000
_symmetry_Int_Tables_number   1
_chemical_formula_structural   Ba(CO2)2
_chemical_formula_sum   'Ba4 C8 O16'
_cell_volume   441.70747907
_cell_formula_units_Z   4
loop_
 _symmetry_equiv_pos_site_id
 _symmetry_equiv_pos_as_xyz
  1  'x, y, z'
loop_
 _atom_site_type_symbol
 _atom_site_label
 _atom_site_symmetry_multiplicity
 _atom_site_fract_x
 _atom_site_fract_y
 _atom_site_fract_z
 _atom_site_occupancy
 _atom_site_charge
  Ba  Ba1  1  0.721800  0.955800  0.790700  1.0  1.5969
  Ba  Ba2  1  0.786700  0.363500  0.581500  1.0  1.6489
  Ba  Ba3  1  0.278200  0.044200  0.209300  1.0  1.5972
  Ba  Ba4  1  0.213300  0.636500  0.418500  1.0  1.6484
  C  C5  1  0.176000  0.076000  0.677000  1.0  0.6095
  C  C6  1  0.325000  0.180000  0.627000  1.0  0.5794
  C  C7  1  0.136000  0.724000  0.820000  1.0  0.5757
  C  C8  1  0.385000  0.713000  0.817000  1.0  0.5782
  C  C9  1  0.824000  0.924000  0.323000  1.0  0.6108
  C  C10  1  0.675000  0.820000  0.373000  1.0  0.5796
  C  C11  1  0.864000  0.276000  0.180000  1.0  0.5745
  C  C12  1  0.615000  0.287000  0.183000  1.0  0.5782
  O  O13  1  0.981000  0.125000  0.686000  1.0  -0.6725
  O  O14  1  0.267000  0.953000  0.696000  1.0  -0.6821
  O  O15  1  0.238000  0.253000  0.540000  1.0  -0.7254
  O  O16  1  0.524000  0.181000  0.673000  1.0  -0.6778
  O  O17  1  0.029000  0.644000  0.689000  1.0  -0.7595
  O  O18  1  0.050000  0.815000  0.950000  1.0  -0.6554
  O  O19  1  0.475000  0.630000  0.685000  1.0  -0.7547
  O  O20  1  0.486000  0.801000  0.947000  1.0  -0.6597
  O  O21  1  0.019000  0.875000  0.314000  1.0  -0.6722
  O  O22  1  0.733000  0.047000  0.304000  1.0  -0.6825
  O  O23  1  0.762000  0.747000  0.460000  1.0  -0.7232
  O  O24  1  0.476000  0.819000  0.327000  1.0  -0.6782
  O  O25  1  0.971000  0.356000  0.311000  1.0  -0.7589
  O  O26  1  0.950000  0.185000  0.050000  1.0  -0.6563
  O  O27  1  0.525000  0.370000  0.315000  1.0  -0.7574
  O  O28  1  0.514000  0.199000  0.053000  1.0  -0.6612
