# generated using pymatgen
data_Cu2H21C22N6O5
_symmetry_space_group_name_H-M   'P 1'
_cell_length_a   9.65520000
_cell_length_b   17.19580000
_cell_length_c   20.88040000
_cell_angle_alpha   90.00000000
_cell_angle_beta   94.23100000
_cell_angle_gamma   90.00000000
_symmetry_Int_Tables_number   1
_chemical_formula_structural   Cu2H21C22N6O5
_chemical_formula_sum   'Cu8 H84 C88 N24 O20'
_cell_volume   3457.30168298
_cell_formula_units_Z   4
loop_
 _symmetry_equiv_pos_site_id
 _symmetry_equiv_pos_as_xyz
  1  'x, y, z'
loop_
 _atom_site_type_symbol
 _atom_site_label
 _atom_site_symmetry_multiplicity
 _atom_site_fract_x
 _atom_site_fract_y
 _atom_site_fract_z
 _atom_site_occupancy
 _atom_site_charge
  Cu  Cu1  1  0.299180  0.493410  0.523930  1.0  0.878
  Cu  Cu2  1  0.001040  0.521580  0.428250  1.0  0.8622
  Cu  Cu3  1  0.700820  0.993410  0.976070  1.0  0.8792
  Cu  Cu4  1  0.998960  0.021580  0.071750  1.0  0.8627
  Cu  Cu5  1  0.700820  0.506590  0.476070  1.0  0.8795
  Cu  Cu6  1  0.998960  0.478420  0.571750  1.0  0.8629
  Cu  Cu7  1  0.299180  0.006590  0.023930  1.0  0.8778
  Cu  Cu8  1  0.001040  0.978420  0.928250  1.0  0.862
  H  H9  1  0.132000  0.411100  0.484000  1.0  0.4267
  H  H10  1  0.447500  0.656900  0.473100  1.0  0.0902
  H  H11  1  0.083500  0.694300  0.383900  1.0  0.0819
  H  H12  1  0.406000  0.796100  0.421500  1.0  0.1033
  H  H13  1  0.255900  0.812000  0.390300  1.0  0.1051
  H  H14  1  0.294700  0.664900  0.299000  1.0  0.0893
  H  H15  1  0.380000  0.658800  0.198700  1.0  0.0964
  H  H16  1  0.523500  0.756400  0.165500  1.0  0.1053
  H  H17  1  0.488900  0.869000  0.331700  1.0  0.1044
  H  H18  1  0.614700  0.929100  0.255900  1.0  0.0938
  H  H19  1  0.713400  0.866500  0.228800  1.0  0.0936
  H  H20  1  0.737300  0.883300  0.106900  1.0  0.086
  H  H21  1  0.386800  0.959500  0.165300  1.0  0.0897
  H  H22  1  0.356500  0.322300  0.684600  1.0  0.1222
  H  H23  1  0.307900  0.267800  0.627300  1.0  0.1274
  H  H24  1  0.207500  0.339600  0.774900  1.0  0.1204
  H  H25  1  0.051700  0.280800  0.837400  1.0  0.0801
  H  H26  1  0.941000  0.133800  0.698900  1.0  0.0965
  H  H27  1  0.100600  0.188500  0.634200  1.0  0.1082
  H  H28  1  0.796700  0.149000  0.791100  1.0  0.1107
  H  H29  1  0.852200  0.201200  0.849000  1.0  0.122
  H  H30  1  0.868000  0.911100  0.016000  1.0  0.4263
  H  H31  1  0.552500  0.156900  0.026900  1.0  0.0897
  H  H32  1  0.916500  0.194300  0.116100  1.0  0.0812
  H  H33  1  0.594000  0.296100  0.078500  1.0  0.1032
  H  H34  1  0.744100  0.312000  0.109700  1.0  0.1057
  H  H35  1  0.705300  0.164900  0.201000  1.0  0.09
  H  H36  1  0.620000  0.158800  0.301300  1.0  0.0977
  H  H37  1  0.476500  0.256400  0.334500  1.0  0.1044
  H  H38  1  0.511100  0.369000  0.168300  1.0  0.1046
  H  H39  1  0.385300  0.429100  0.244100  1.0  0.094
  H  H40  1  0.286600  0.366500  0.271200  1.0  0.0933
  H  H41  1  0.262700  0.383300  0.393100  1.0  0.0859
  H  H42  1  0.613200  0.459500  0.334700  1.0  0.0894
  H  H43  1  0.643500  0.822300  0.815400  1.0  0.1232
  H  H44  1  0.692100  0.767800  0.872700  1.0  0.1277
  H  H45  1  0.792500  0.839600  0.725100  1.0  0.1208
  H  H46  1  0.948300  0.780800  0.662600  1.0  0.0809
  H  H47  1  0.059000  0.633800  0.801100  1.0  0.0971
  H  H48  1  0.899400  0.688500  0.865800  1.0  0.1082
  H  H49  1  0.203300  0.649000  0.708900  1.0  0.1112
  H  H50  1  0.147800  0.701200  0.651000  1.0  0.1208
  H  H51  1  0.868000  0.588900  0.516000  1.0  0.4217
  H  H52  1  0.552500  0.343100  0.526900  1.0  0.0895
  H  H53  1  0.916500  0.305700  0.616100  1.0  0.0829
  H  H54  1  0.594000  0.203900  0.578500  1.0  0.1025
  H  H55  1  0.744100  0.188000  0.609700  1.0  0.1043
  H  H56  1  0.705300  0.335100  0.701000  1.0  0.0906
  H  H57  1  0.620000  0.341200  0.801300  1.0  0.097
  H  H58  1  0.476500  0.243600  0.834500  1.0  0.1042
  H  H59  1  0.511100  0.131000  0.668300  1.0  0.1039
  H  H60  1  0.385300  0.070900  0.744100  1.0  0.0936
  H  H61  1  0.286600  0.133500  0.771200  1.0  0.0925
  H  H62  1  0.262700  0.116700  0.893100  1.0  0.0853
  H  H63  1  0.613200  0.040500  0.834700  1.0  0.0891
  H  H64  1  0.643500  0.677700  0.315400  1.0  0.1228
  H  H65  1  0.692100  0.732200  0.372700  1.0  0.127
  H  H66  1  0.792500  0.660400  0.225100  1.0  0.1205
  H  H67  1  0.948300  0.719200  0.162600  1.0  0.0807
  H  H68  1  0.059000  0.866200  0.301100  1.0  0.0971
  H  H69  1  0.899400  0.811500  0.365800  1.0  0.1084
  H  H70  1  0.203300  0.851000  0.208900  1.0  0.1109
  H  H71  1  0.147800  0.798800  0.151000  1.0  0.1211
  H  H72  1  0.132000  0.088900  0.984000  1.0  0.4223
  H  H73  1  0.447500  0.843100  0.973100  1.0  0.0906
  H  H74  1  0.083500  0.805700  0.883900  1.0  0.0831
  H  H75  1  0.406000  0.703900  0.921500  1.0  0.1038
  H  H76  1  0.255900  0.688000  0.890300  1.0  0.105
  H  H77  1  0.294700  0.835100  0.799000  1.0  0.0908
  H  H78  1  0.380000  0.841200  0.698700  1.0  0.0968
  H  H79  1  0.523500  0.743600  0.665500  1.0  0.1052
  H  H80  1  0.488900  0.631000  0.831700  1.0  0.1045
  H  H81  1  0.614700  0.570900  0.755900  1.0  0.0957
  H  H82  1  0.713400  0.633500  0.728800  1.0  0.0935
  H  H83  1  0.737300  0.616700  0.606900  1.0  0.0858
  H  H84  1  0.386800  0.540500  0.665300  1.0  0.0897
  H  H85  1  0.356500  0.177700  0.184600  1.0  0.1225
  H  H86  1  0.307900  0.232200  0.127300  1.0  0.1274
  H  H87  1  0.207500  0.160400  0.274900  1.0  0.1213
  H  H88  1  0.051700  0.219200  0.337400  1.0  0.0807
  H  H89  1  0.941000  0.366200  0.198900  1.0  0.0972
  H  H90  1  0.100600  0.311500  0.134200  1.0  0.1088
  H  H91  1  0.796700  0.351000  0.291100  1.0  0.1109
  H  H92  1  0.852200  0.298800  0.349000  1.0  0.1226
  C  C93  1  0.355900  0.650500  0.456900  1.0  0.1335
  C  C94  1  0.156600  0.670800  0.408100  1.0  0.1097
  C  C95  1  0.332100  0.775100  0.392500  1.0  -0.1121
  C  C96  1  0.384700  0.766500  0.326300  1.0  0.0798
  C  C97  1  0.351800  0.704400  0.285700  1.0  -0.1159
  C  C98  1  0.402900  0.700600  0.225700  1.0  -0.1151
  C  C99  1  0.488500  0.759300  0.205700  1.0  -0.11
  C  C100  1  0.521900  0.821900  0.245400  1.0  0.05
  C  C101  1  0.468600  0.826300  0.305400  1.0  -0.1655
  C  C102  1  0.618700  0.885700  0.226400  1.0  -0.0913
  C  C103  1  0.649200  0.905300  0.107000  1.0  0.1293
  C  C104  1  0.457700  0.946900  0.139300  1.0  0.1288
  C  C105  1  0.226200  0.376700  0.617800  1.0  0.7085
  C  C106  1  0.276700  0.306800  0.656600  1.0  -0.3925
  C  C107  1  0.171300  0.269800  0.697100  1.0  0.119
  C  C108  1  0.154900  0.297600  0.758800  1.0  -0.1578
  C  C109  1  0.059800  0.262500  0.796000  1.0  -0.1232
  C  C110  1  0.979200  0.203300  0.774800  1.0  0.0898
  C  C111  1  0.995200  0.175500  0.714300  1.0  -0.1359
  C  C112  1  0.091300  0.208400  0.675100  1.0  -0.1385
  C  C113  1  0.879500  0.164300  0.817100  1.0  -0.3733
  C  C114  1  0.942600  0.092900  0.851100  1.0  0.7422
  C  C115  1  0.644100  0.150500  0.043100  1.0  0.1337
  C  C116  1  0.843400  0.170800  0.091900  1.0  0.1119
  C  C117  1  0.667900  0.275100  0.107500  1.0  -0.1129
  C  C118  1  0.615300  0.266500  0.173700  1.0  0.079
  C  C119  1  0.648200  0.204400  0.214300  1.0  -0.1153
  C  C120  1  0.597100  0.200600  0.274300  1.0  -0.1148
  C  C121  1  0.511500  0.259300  0.294300  1.0  -0.1114
  C  C122  1  0.478100  0.321900  0.254600  1.0  0.0502
  C  C123  1  0.531400  0.326300  0.194600  1.0  -0.1692
  C  C124  1  0.381300  0.385700  0.273600  1.0  -0.0904
  C  C125  1  0.350800  0.405300  0.393000  1.0  0.1303
  C  C126  1  0.542300  0.446900  0.360700  1.0  0.128
  C  C127  1  0.773800  0.876700  0.882200  1.0  0.71
  C  C128  1  0.723300  0.806800  0.843400  1.0  -0.3948
  C  C129  1  0.828700  0.769800  0.802900  1.0  0.119
  C  C130  1  0.845100  0.797600  0.741200  1.0  -0.1591
  C  C131  1  0.940200  0.762500  0.704000  1.0  -0.1211
  C  C132  1  0.020800  0.703300  0.725200  1.0  0.0888
  C  C133  1  0.004800  0.675500  0.785700  1.0  -0.1361
  C  C134  1  0.908700  0.708400  0.824900  1.0  -0.1378
  C  C135  1  0.120500  0.664300  0.682900  1.0  -0.3722
  C  C136  1  0.057400  0.592900  0.648900  1.0  0.741
  C  C137  1  0.644100  0.349500  0.543100  1.0  0.1333
  C  C138  1  0.843400  0.329200  0.591900  1.0  0.1122
  C  C139  1  0.667900  0.224900  0.607500  1.0  -0.1102
  C  C140  1  0.615300  0.233500  0.673700  1.0  0.079
  C  C141  1  0.648200  0.295600  0.714300  1.0  -0.1165
  C  C142  1  0.597100  0.299400  0.774300  1.0  -0.1121
  C  C143  1  0.511500  0.240700  0.794300  1.0  -0.112
  C  C144  1  0.478100  0.178100  0.754600  1.0  0.0502
  C  C145  1  0.531400  0.173700  0.694600  1.0  -0.1675
  C  C146  1  0.381300  0.114300  0.773600  1.0  -0.0905
  C  C147  1  0.350800  0.094700  0.893000  1.0  0.1292
  C  C148  1  0.542300  0.053100  0.860700  1.0  0.1277
  C  C149  1  0.773800  0.623300  0.382200  1.0  0.71
  C  C150  1  0.723300  0.693200  0.343400  1.0  -0.3942
  C  C151  1  0.828700  0.730200  0.302900  1.0  0.1193
  C  C152  1  0.845100  0.702400  0.241200  1.0  -0.1594
  C  C153  1  0.940200  0.737500  0.204000  1.0  -0.1232
  C  C154  1  0.020800  0.796700  0.225200  1.0  0.0887
  C  C155  1  0.004800  0.824500  0.285700  1.0  -0.1369
  C  C156  1  0.908700  0.791600  0.324900  1.0  -0.1371
  C  C157  1  0.120500  0.835700  0.182900  1.0  -0.3713
  C  C158  1  0.057400  0.907100  0.148900  1.0  0.7407
  C  C159  1  0.355900  0.849500  0.956900  1.0  0.1331
  C  C160  1  0.156600  0.829200  0.908100  1.0  0.1103
  C  C161  1  0.332100  0.724900  0.892500  1.0  -0.1103
  C  C162  1  0.384700  0.733500  0.826300  1.0  0.0798
  C  C163  1  0.351800  0.795600  0.785700  1.0  -0.1169
  C  C164  1  0.402900  0.799400  0.725700  1.0  -0.115
  C  C165  1  0.488500  0.740700  0.705700  1.0  -0.1111
  C  C166  1  0.521900  0.678100  0.745400  1.0  0.0498
  C  C167  1  0.468600  0.673700  0.805400  1.0  -0.1661
  C  C168  1  0.618700  0.614300  0.726400  1.0  -0.091
  C  C169  1  0.649200  0.594700  0.607000  1.0  0.1295
  C  C170  1  0.457700  0.553100  0.639300  1.0  0.1291
  C  C171  1  0.226200  0.123300  0.117800  1.0  0.7086
  C  C172  1  0.276700  0.193200  0.156600  1.0  -0.3935
  C  C173  1  0.171300  0.230200  0.197100  1.0  0.1193
  C  C174  1  0.154900  0.202400  0.258800  1.0  -0.1605
  C  C175  1  0.059800  0.237500  0.296000  1.0  -0.1245
  C  C176  1  0.979200  0.296700  0.274800  1.0  0.0897
  C  C177  1  0.995200  0.324500  0.214300  1.0  -0.1382
  C  C178  1  0.091300  0.291600  0.175100  1.0  -0.1381
  C  C179  1  0.879500  0.335700  0.317100  1.0  -0.3728
  C  C180  1  0.942600  0.407100  0.351100  1.0  0.7413
  N  N181  1  0.277800  0.590200  0.468100  1.0  -0.2483
  N  N182  1  0.149900  0.603100  0.436500  1.0  -0.277
  N  N183  1  0.284500  0.701500  0.418800  1.0  0.0213
  N  N184  1  0.579900  0.932700  0.056600  1.0  -0.2773
  N  N185  1  0.455700  0.960100  0.077800  1.0  -0.2762
  N  N186  1  0.577600  0.912500  0.159200  1.0  0.0379
  N  N187  1  0.722200  0.090200  0.031900  1.0  -0.2477
  N  N188  1  0.850100  0.103100  0.063500  1.0  -0.2764
  N  N189  1  0.715500  0.201500  0.081200  1.0  0.022
  N  N190  1  0.420100  0.432700  0.443400  1.0  -0.2779
  N  N191  1  0.544300  0.460100  0.422200  1.0  -0.2769
  N  N192  1  0.422400  0.412500  0.340800  1.0  0.0382
  N  N193  1  0.722200  0.409800  0.531900  1.0  -0.2472
  N  N194  1  0.850100  0.396900  0.563500  1.0  -0.276
  N  N195  1  0.715500  0.298500  0.581200  1.0  0.0224
  N  N196  1  0.420100  0.067300  0.943400  1.0  -0.2778
  N  N197  1  0.544300  0.039900  0.922200  1.0  -0.277
  N  N198  1  0.422400  0.087500  0.840800  1.0  0.0379
  N  N199  1  0.277800  0.909800  0.968100  1.0  -0.2482
  N  N200  1  0.149900  0.896900  0.936500  1.0  -0.2768
  N  N201  1  0.284500  0.798500  0.918800  1.0  0.0222
  N  N202  1  0.579900  0.567300  0.556600  1.0  -0.2771
  N  N203  1  0.455700  0.539900  0.577800  1.0  -0.2767
  N  N204  1  0.577600  0.587500  0.659200  1.0  0.0374
  O  O205  1  0.312700  0.404300  0.581600  1.0  -0.5879
  O  O206  1  0.107200  0.402700  0.625530  1.0  -0.5931
  O  O207  1  0.049800  0.062600  0.833400  1.0  -0.6347
  O  O208  1  0.881000  0.067600  0.898600  1.0  -0.6215
  O  O209  1  0.123000  0.459800  0.485120  1.0  -0.9961
  O  O210  1  0.687300  0.904300  0.918400  1.0  -0.5875
  O  O211  1  0.892800  0.902700  0.874470  1.0  -0.5934
  O  O212  1  0.950200  0.562600  0.666667  1.0  -0.6349
  O  O213  1  0.119000  0.567600  0.601400  1.0  -0.6209
  O  O214  1  0.877000  0.959800  0.014880  1.0  -0.996
  O  O215  1  0.687300  0.595700  0.418400  1.0  -0.5873
  O  O216  1  0.892800  0.597300  0.374470  1.0  -0.5932
  O  O217  1  0.950200  0.937400  0.166600  1.0  -0.6338
  O  O218  1  0.119000  0.932400  0.101400  1.0  -0.621
  O  O219  1  0.877000  0.540200  0.514880  1.0  -0.9962
  O  O220  1  0.312700  0.095700  0.081600  1.0  -0.5876
  O  O221  1  0.107200  0.097300  0.125530  1.0  -0.5932
  O  O222  1  0.049800  0.437400  0.333400  1.0  -0.634
  O  O223  1  0.881000  0.432400  0.398600  1.0  -0.6211
  O  O224  1  0.123000  0.040200  0.985120  1.0  -0.996
