# generated using pymatgen
data_Cu2H21C22N6O5
_symmetry_space_group_name_H-M   'P 1'
_cell_length_a   9.66910000
_cell_length_b   17.45980000
_cell_length_c   20.44870000
_cell_angle_alpha   90.00000000
_cell_angle_beta   94.89100000
_cell_angle_gamma   90.00000000
_symmetry_Int_Tables_number   1
_chemical_formula_structural   Cu2H21C22N6O5
_chemical_formula_sum   'Cu8 H84 C88 N24 O20'
_cell_volume   3439.59047615
_cell_formula_units_Z   4
loop_
 _symmetry_equiv_pos_site_id
 _symmetry_equiv_pos_as_xyz
  1  'x, y, z'
loop_
 _atom_site_type_symbol
 _atom_site_label
 _atom_site_symmetry_multiplicity
 _atom_site_fract_x
 _atom_site_fract_y
 _atom_site_fract_z
 _atom_site_occupancy
 _atom_site_charge
  Cu  Cu1  1  0.300000  0.507520  0.524430  1.0  0.9138
  Cu  Cu2  1  0.999850  0.477580  0.427030  1.0  0.8918
  Cu  Cu3  1  0.700000  0.007520  0.975570  1.0  0.9148
  Cu  Cu4  1  0.000150  0.977580  0.072970  1.0  0.891
  Cu  Cu5  1  0.700000  0.492480  0.475570  1.0  0.9146
  Cu  Cu6  1  0.000150  0.522420  0.572970  1.0  0.8896
  Cu  Cu7  1  0.300000  0.992480  0.024430  1.0  0.9135
  Cu  Cu8  1  0.999850  0.022420  0.927030  1.0  0.8918
  H  H9  1  0.124000  0.582000  0.465000  1.0  0.3298
  H  H10  1  0.448800  0.347100  0.474400  1.0  0.0879
  H  H11  1  0.083500  0.307400  0.384100  1.0  0.0779
  H  H12  1  0.257300  0.190600  0.393200  1.0  0.1115
  H  H13  1  0.406500  0.207400  0.426000  1.0  0.1048
  H  H14  1  0.298100  0.332100  0.297300  1.0  0.0953
  H  H15  1  0.386900  0.333800  0.195700  1.0  0.0982
  H  H16  1  0.534000  0.237600  0.166800  1.0  0.108
  H  H17  1  0.492400  0.132800  0.337500  1.0  0.106
  H  H18  1  0.717500  0.130100  0.233500  1.0  0.1012
  H  H19  1  0.619300  0.069400  0.262100  1.0  0.1025
  H  H20  1  0.393300  0.033800  0.169800  1.0  0.0871
  H  H21  1  0.738000  0.115800  0.109400  1.0  0.1004
  H  H22  1  0.354600  0.815700  0.183600  1.0  0.1149
  H  H23  1  0.306900  0.767400  0.121300  1.0  0.1205
  H  H24  1  0.188000  0.829800  0.269900  1.0  0.1176
  H  H25  1  0.023900  0.768000  0.327000  1.0  0.0882
  H  H26  1  0.952100  0.622100  0.182200  1.0  0.0956
  H  H27  1  0.114700  0.682500  0.124000  1.0  0.107
  H  H28  1  0.819100  0.680400  0.325000  1.0  0.115
  H  H29  1  0.801400  0.620000  0.268100  1.0  0.1124
  H  H30  1  0.876000  0.082000  0.035000  1.0  0.3286
  H  H31  1  0.551200  0.847100  0.025600  1.0  0.0864
  H  H32  1  0.916500  0.807400  0.115900  1.0  0.0778
  H  H33  1  0.742700  0.690600  0.106800  1.0  0.111
  H  H34  1  0.593500  0.707400  0.074000  1.0  0.1021
  H  H35  1  0.701900  0.832100  0.202700  1.0  0.0948
  H  H36  1  0.613100  0.833800  0.304300  1.0  0.0979
  H  H37  1  0.466000  0.737600  0.333200  1.0  0.1073
  H  H38  1  0.507600  0.632800  0.162500  1.0  0.1048
  H  H39  1  0.282500  0.630100  0.266500  1.0  0.1
  H  H40  1  0.380700  0.569400  0.237900  1.0  0.1009
  H  H41  1  0.606700  0.533800  0.330200  1.0  0.0874
  H  H42  1  0.262000  0.615800  0.390600  1.0  0.1002
  H  H43  1  0.645400  0.315700  0.316400  1.0  0.1164
  H  H44  1  0.693100  0.267400  0.378700  1.0  0.1212
  H  H45  1  0.812000  0.329800  0.230100  1.0  0.1179
  H  H46  1  0.976100  0.268000  0.173000  1.0  0.0901
  H  H47  1  0.047900  0.122100  0.317800  1.0  0.0961
  H  H48  1  0.885300  0.182500  0.376000  1.0  0.106
  H  H49  1  0.180900  0.180400  0.175000  1.0  0.1152
  H  H50  1  0.198600  0.120000  0.231900  1.0  0.1122
  H  H51  1  0.876000  0.418000  0.535000  1.0  0.3317
  H  H52  1  0.551200  0.652900  0.525600  1.0  0.0868
  H  H53  1  0.916500  0.692600  0.615900  1.0  0.0778
  H  H54  1  0.742700  0.809400  0.606800  1.0  0.1117
  H  H55  1  0.593500  0.792600  0.574000  1.0  0.103
  H  H56  1  0.701900  0.667900  0.702700  1.0  0.0951
  H  H57  1  0.613100  0.666200  0.804300  1.0  0.0989
  H  H58  1  0.466000  0.762400  0.833200  1.0  0.1073
  H  H59  1  0.507600  0.867200  0.662500  1.0  0.1055
  H  H60  1  0.282500  0.869900  0.766500  1.0  0.1008
  H  H61  1  0.380700  0.930600  0.737900  1.0  0.1013
  H  H62  1  0.606700  0.966200  0.830200  1.0  0.0877
  H  H63  1  0.262000  0.884200  0.890600  1.0  0.1009
  H  H64  1  0.645400  0.184300  0.816400  1.0  0.1156
  H  H65  1  0.693100  0.232600  0.878700  1.0  0.1207
  H  H66  1  0.812000  0.170200  0.730100  1.0  0.1176
  H  H67  1  0.976100  0.232000  0.673000  1.0  0.0893
  H  H68  1  0.047900  0.377900  0.817800  1.0  0.0951
  H  H69  1  0.885300  0.317500  0.876000  1.0  0.1061
  H  H70  1  0.180900  0.319600  0.675000  1.0  0.1149
  H  H71  1  0.198600  0.380000  0.731900  1.0  0.1117
  H  H72  1  0.124000  0.918000  0.965000  1.0  0.3322
  H  H73  1  0.448800  0.152900  0.974400  1.0  0.0876
  H  H74  1  0.083500  0.192600  0.884100  1.0  0.0781
  H  H75  1  0.257300  0.309400  0.893200  1.0  0.1112
  H  H76  1  0.406500  0.292600  0.926000  1.0  0.1045
  H  H77  1  0.298100  0.167900  0.797300  1.0  0.0946
  H  H78  1  0.386900  0.166200  0.695700  1.0  0.0967
  H  H79  1  0.534000  0.262400  0.666800  1.0  0.1081
  H  H80  1  0.492400  0.367200  0.837500  1.0  0.1056
  H  H81  1  0.717500  0.369900  0.733500  1.0  0.1014
  H  H82  1  0.619300  0.430600  0.762100  1.0  0.1003
  H  H83  1  0.393300  0.466200  0.669800  1.0  0.0869
  H  H84  1  0.738000  0.384200  0.609400  1.0  0.1003
  H  H85  1  0.354600  0.684300  0.683600  1.0  0.1149
  H  H86  1  0.306900  0.732600  0.621300  1.0  0.1204
  H  H87  1  0.188000  0.670200  0.769900  1.0  0.1183
  H  H88  1  0.023900  0.732000  0.827000  1.0  0.0884
  H  H89  1  0.952100  0.877900  0.682200  1.0  0.0955
  H  H90  1  0.114700  0.817500  0.624000  1.0  0.108
  H  H91  1  0.819100  0.819600  0.825000  1.0  0.1155
  H  H92  1  0.801400  0.880000  0.768100  1.0  0.1125
  C  C93  1  0.356500  0.352300  0.458200  1.0  0.1287
  C  C94  1  0.157000  0.330800  0.408600  1.0  0.124
  C  C95  1  0.333200  0.227100  0.395200  1.0  -0.1206
  C  C96  1  0.386800  0.232900  0.328400  1.0  0.0652
  C  C97  1  0.355400  0.292600  0.285500  1.0  -0.1195
  C  C98  1  0.409300  0.293800  0.224700  1.0  -0.1126
  C  C99  1  0.496100  0.235800  0.207100  1.0  -0.1241
  C  C100  1  0.526700  0.174900  0.249300  1.0  0.0656
  C  C101  1  0.472100  0.173800  0.309200  1.0  -0.1876
  C  C102  1  0.622900  0.111200  0.231000  1.0  -0.0924
  C  C103  1  0.462600  0.047700  0.143300  1.0  0.1304
  C  C104  1  0.651700  0.092400  0.109900  1.0  0.1259
  C  C105  1  0.227300  0.875300  0.117600  1.0  0.7119
  C  C106  1  0.275300  0.803100  0.153200  1.0  -0.4045
  C  C107  1  0.168300  0.763000  0.191000  1.0  0.0776
  C  C108  1  0.140800  0.787700  0.251200  1.0  -0.1603
  C  C109  1  0.041300  0.750000  0.285700  1.0  -0.1034
  C  C110  1  0.970600  0.689200  0.261200  1.0  0.1058
  C  C111  1  0.999300  0.664400  0.200500  1.0  -0.1216
  C  C112  1  0.097300  0.700700  0.165300  1.0  -0.1393
  C  C113  1  0.868800  0.644800  0.299100  1.0  -0.36
  C  C114  1  0.937200  0.585400  0.343600  1.0  0.7324
  C  C115  1  0.643500  0.852300  0.041800  1.0  0.1281
  C  C116  1  0.843000  0.830800  0.091400  1.0  0.1251
  C  C117  1  0.666800  0.727100  0.104800  1.0  -0.1202
  C  C118  1  0.613200  0.732900  0.171600  1.0  0.0656
  C  C119  1  0.644600  0.792600  0.214500  1.0  -0.1207
  C  C120  1  0.590700  0.793800  0.275300  1.0  -0.1089
  C  C121  1  0.503900  0.735800  0.292900  1.0  -0.1251
  C  C122  1  0.473300  0.674900  0.250700  1.0  0.0659
  C  C123  1  0.527900  0.673800  0.190800  1.0  -0.1906
  C  C124  1  0.377100  0.611200  0.269000  1.0  -0.0916
  C  C125  1  0.537400  0.547700  0.356700  1.0  0.1294
  C  C126  1  0.348300  0.592400  0.390100  1.0  0.1264
  C  C127  1  0.772700  0.375300  0.382400  1.0  0.713
  C  C128  1  0.724700  0.303100  0.346800  1.0  -0.4072
  C  C129  1  0.831700  0.263000  0.309000  1.0  0.0776
  C  C130  1  0.859200  0.287700  0.248800  1.0  -0.1602
  C  C131  1  0.958700  0.250000  0.214300  1.0  -0.1024
  C  C132  1  0.029400  0.189200  0.238800  1.0  0.1064
  C  C133  1  0.000700  0.164400  0.299500  1.0  -0.1212
  C  C134  1  0.902700  0.200700  0.334700  1.0  -0.1399
  C  C135  1  0.131200  0.144800  0.200900  1.0  -0.359
  C  C136  1  0.062800  0.085400  0.156400  1.0  0.7317
  C  C137  1  0.643500  0.647700  0.541800  1.0  0.1284
  C  C138  1  0.843000  0.669200  0.591400  1.0  0.1251
  C  C139  1  0.666800  0.772900  0.604800  1.0  -0.1205
  C  C140  1  0.613200  0.767100  0.671600  1.0  0.0657
  C  C141  1  0.644600  0.707400  0.714500  1.0  -0.1215
  C  C142  1  0.590700  0.706200  0.775300  1.0  -0.1119
  C  C143  1  0.503900  0.764200  0.792900  1.0  -0.1253
  C  C144  1  0.473300  0.825100  0.750700  1.0  0.0668
  C  C145  1  0.527900  0.826200  0.690800  1.0  -0.1931
  C  C146  1  0.377100  0.888800  0.769000  1.0  -0.0914
  C  C147  1  0.537400  0.952300  0.856700  1.0  0.1286
  C  C148  1  0.348300  0.907600  0.890100  1.0  0.127
  C  C149  1  0.772700  0.124700  0.882400  1.0  0.7172
  C  C150  1  0.724700  0.196900  0.846800  1.0  -0.407
  C  C151  1  0.831700  0.237000  0.809000  1.0  0.078
  C  C152  1  0.859200  0.212300  0.748800  1.0  -0.1587
  C  C153  1  0.958700  0.250000  0.714300  1.0  -0.1023
  C  C154  1  0.029400  0.310800  0.738800  1.0  0.1063
  C  C155  1  0.000700  0.335600  0.799500  1.0  -0.1207
  C  C156  1  0.902700  0.299300  0.834700  1.0  -0.1395
  C  C157  1  0.131200  0.355200  0.700900  1.0  -0.3587
  C  C158  1  0.062800  0.414600  0.656400  1.0  0.7321
  C  C159  1  0.356500  0.147700  0.958200  1.0  0.1291
  C  C160  1  0.157000  0.169200  0.908600  1.0  0.1234
  C  C161  1  0.333200  0.272900  0.895200  1.0  -0.1212
  C  C162  1  0.386800  0.267100  0.828400  1.0  0.0656
  C  C163  1  0.355400  0.207400  0.785500  1.0  -0.1198
  C  C164  1  0.409300  0.206200  0.724700  1.0  -0.1129
  C  C165  1  0.496100  0.264200  0.707100  1.0  -0.1235
  C  C166  1  0.526700  0.325100  0.749300  1.0  0.0665
  C  C167  1  0.472100  0.326200  0.809200  1.0  -0.1868
  C  C168  1  0.622900  0.388800  0.731000  1.0  -0.0921
  C  C169  1  0.462600  0.452300  0.643300  1.0  0.1288
  C  C170  1  0.651700  0.407600  0.609900  1.0  0.1255
  C  C171  1  0.227300  0.624700  0.617600  1.0  0.7159
  C  C172  1  0.275300  0.696900  0.653200  1.0  -0.4059
  C  C173  1  0.168300  0.737000  0.691000  1.0  0.0779
  C  C174  1  0.140800  0.712300  0.751200  1.0  -0.1597
  C  C175  1  0.041300  0.750000  0.785700  1.0  -0.1034
  C  C176  1  0.970600  0.810800  0.761200  1.0  0.1058
  C  C177  1  0.999300  0.835600  0.700500  1.0  -0.1246
  C  C178  1  0.097300  0.799300  0.665300  1.0  -0.1399
  C  C179  1  0.868800  0.855200  0.799100  1.0  -0.3607
  C  C180  1  0.937200  0.914600  0.843600  1.0  0.7321
  N  N181  1  0.277900  0.411000  0.469160  1.0  -0.2622
  N  N182  1  0.150600  0.397100  0.436450  1.0  -0.2658
  N  N183  1  0.284500  0.300300  0.420100  1.0  0.0071
  N  N184  1  0.458900  0.036400  0.080320  1.0  -0.2383
  N  N185  1  0.580300  0.064300  0.058200  1.0  -0.2774
  N  N186  1  0.583000  0.082700  0.164000  1.0  0.0355
  N  N187  1  0.722100  0.911000  0.030840  1.0  -0.2611
  N  N188  1  0.849400  0.897100  0.063550  1.0  -0.2646
  N  N189  1  0.715500  0.800300  0.079900  1.0  0.0063
  N  N190  1  0.541100  0.536400  0.419680  1.0  -0.2373
  N  N191  1  0.419700  0.564300  0.441800  1.0  -0.279
  N  N192  1  0.417000  0.582700  0.336000  1.0  0.0355
  N  N193  1  0.722100  0.589000  0.530840  1.0  -0.2618
  N  N194  1  0.849400  0.602900  0.563550  1.0  -0.264
  N  N195  1  0.715500  0.699700  0.579900  1.0  0.0061
  N  N196  1  0.541100  0.963600  0.919680  1.0  -0.2373
  N  N197  1  0.419700  0.935700  0.941800  1.0  -0.279
  N  N198  1  0.417000  0.917300  0.836000  1.0  0.035
  N  N199  1  0.277900  0.089000  0.969160  1.0  -0.2621
  N  N200  1  0.150600  0.102900  0.936450  1.0  -0.2662
  N  N201  1  0.284500  0.199700  0.920100  1.0  0.0057
  N  N202  1  0.458900  0.463600  0.580320  1.0  -0.2381
  N  N203  1  0.580300  0.435700  0.558200  1.0  -0.2778
  N  N204  1  0.583000  0.417300  0.664000  1.0  0.0351
  O  O205  1  0.313500  0.903000  0.081530  1.0  -0.6037
  O  O206  1  0.108700  0.901600  0.125550  1.0  -0.5912
  O  O207  1  0.048100  0.556200  0.329300  1.0  -0.598
  O  O208  1  0.877100  0.564400  0.392580  1.0  -0.6169
  O  O209  1  0.121300  0.539400  0.484740  1.0  -0.9933
  O  O210  1  0.686500  0.403000  0.418470  1.0  -0.6027
  O  O211  1  0.891300  0.401600  0.374450  1.0  -0.5915
  O  O212  1  0.951900  0.056200  0.170700  1.0  -0.5989
  O  O213  1  0.122900  0.064400  0.107420  1.0  -0.6167
  O  O214  1  0.878700  0.039400  0.015260  1.0  -0.9949
  O  O215  1  0.686500  0.097000  0.918470  1.0  -0.603
  O  O216  1  0.891300  0.098400  0.874450  1.0  -0.5912
  O  O217  1  0.951900  0.443800  0.670700  1.0  -0.5986
  O  O218  1  0.122900  0.435600  0.607420  1.0  -0.6172
  O  O219  1  0.878700  0.460600  0.515260  1.0  -0.9965
  O  O220  1  0.313500  0.597000  0.581530  1.0  -0.6038
  O  O221  1  0.108700  0.598400  0.625550  1.0  -0.5912
  O  O222  1  0.048100  0.943800  0.829300  1.0  -0.5974
  O  O223  1  0.877100  0.935600  0.892580  1.0  -0.6171
  O  O224  1  0.121300  0.960600  0.984740  1.0  -0.9956
