# generated using pymatgen
data_Nd2Co3H24(C4O5)6
_symmetry_space_group_name_H-M   'P 1'
_cell_length_a   15.08410000
_cell_length_b   15.08410000
_cell_length_c   15.42760000
_cell_angle_alpha   90.00000000
_cell_angle_beta   90.00000000
_cell_angle_gamma   120.00000000
_symmetry_Int_Tables_number   1
_chemical_formula_structural   Nd2Co3H24(C4O5)6
_chemical_formula_sum   'Nd4 Co6 H48 C48 O60'
_cell_volume   3039.95956927
_cell_formula_units_Z   2
loop_
 _symmetry_equiv_pos_site_id
 _symmetry_equiv_pos_as_xyz
  1  'x, y, z'
loop_
 _atom_site_type_symbol
 _atom_site_label
 _atom_site_symmetry_multiplicity
 _atom_site_fract_x
 _atom_site_fract_y
 _atom_site_fract_z
 _atom_site_occupancy
 _atom_site_charge
  Nd  Nd1  1  0.333333  0.666667  0.750000  1.0  2.2188
  Nd  Nd2  1  0.666667  0.333333  0.750000  1.0  2.2188
  Nd  Nd3  1  0.666667  0.333333  0.250000  1.0  2.2188
  Nd  Nd4  1  0.333333  0.666667  0.250000  1.0  2.2188
  Co  Co5  1  0.500000  0.500000  0.000000  1.0  1.1388
  Co  Co6  1  0.000000  0.500000  0.000000  1.0  1.1388
  Co  Co7  1  0.500000  0.000000  0.000000  1.0  1.1388
  Co  Co8  1  0.000000  0.500000  0.500000  1.0  1.1388
  Co  Co9  1  0.500000  0.500000  0.500000  1.0  1.1388
  Co  Co10  1  0.500000  0.000000  0.500000  1.0  1.1388
  H  H11  1  0.285200  0.375800  0.764400  1.0  0.0849
  H  H12  1  0.207700  0.367200  0.836400  1.0  0.0968
  H  H13  1  0.090600  0.714800  0.764400  1.0  0.0849
  H  H14  1  0.159500  0.792300  0.836400  1.0  0.0965
  H  H15  1  0.624200  0.909400  0.764400  1.0  0.0849
  H  H16  1  0.632800  0.840500  0.836400  1.0  0.0952
  H  H17  1  0.714800  0.624200  0.764400  1.0  0.0849
  H  H18  1  0.792300  0.632800  0.836400  1.0  0.0971
  H  H19  1  0.909400  0.285200  0.764400  1.0  0.0845
  H  H20  1  0.840500  0.207700  0.836400  1.0  0.096
  H  H21  1  0.375800  0.090600  0.764400  1.0  0.0848
  H  H22  1  0.367200  0.159500  0.836400  1.0  0.0954
  H  H23  1  0.909400  0.624200  0.735600  1.0  0.0844
  H  H24  1  0.840500  0.632800  0.663600  1.0  0.0967
  H  H25  1  0.375800  0.285200  0.735600  1.0  0.0846
  H  H26  1  0.367200  0.207700  0.663600  1.0  0.0957
  H  H27  1  0.714800  0.090600  0.735600  1.0  0.0848
  H  H28  1  0.792300  0.159500  0.663600  1.0  0.0955
  H  H29  1  0.090600  0.375800  0.735600  1.0  0.0849
  H  H30  1  0.159500  0.367200  0.663600  1.0  0.0964
  H  H31  1  0.624200  0.714800  0.735600  1.0  0.0841
  H  H32  1  0.632800  0.792300  0.663600  1.0  0.0964
  H  H33  1  0.285200  0.909400  0.735600  1.0  0.0846
  H  H34  1  0.207700  0.840500  0.663600  1.0  0.0946
  H  H35  1  0.714800  0.624200  0.235600  1.0  0.0845
  H  H36  1  0.792300  0.632800  0.163600  1.0  0.0969
  H  H37  1  0.909400  0.285200  0.235600  1.0  0.0843
  H  H38  1  0.840500  0.207700  0.163600  1.0  0.0959
  H  H39  1  0.375800  0.090600  0.235600  1.0  0.0852
  H  H40  1  0.367200  0.159500  0.163600  1.0  0.0945
  H  H41  1  0.285200  0.375800  0.235600  1.0  0.085
  H  H42  1  0.207700  0.367200  0.163600  1.0  0.0962
  H  H43  1  0.090600  0.714800  0.235600  1.0  0.0845
  H  H44  1  0.159500  0.792300  0.163600  1.0  0.0963
  H  H45  1  0.624200  0.909400  0.235600  1.0  0.0844
  H  H46  1  0.632800  0.840500  0.163600  1.0  0.0956
  H  H47  1  0.090600  0.375800  0.264400  1.0  0.0849
  H  H48  1  0.159500  0.367200  0.336400  1.0  0.0973
  H  H49  1  0.624200  0.714800  0.264400  1.0  0.0846
  H  H50  1  0.632800  0.792300  0.336400  1.0  0.096
  H  H51  1  0.285200  0.909400  0.264400  1.0  0.0849
  H  H52  1  0.207700  0.840500  0.336400  1.0  0.0951
  H  H53  1  0.909400  0.624200  0.264400  1.0  0.0847
  H  H54  1  0.840500  0.632800  0.336400  1.0  0.0968
  H  H55  1  0.375800  0.285200  0.264400  1.0  0.0847
  H  H56  1  0.367200  0.207700  0.336400  1.0  0.0966
  H  H57  1  0.714800  0.090600  0.264400  1.0  0.0847
  H  H58  1  0.792300  0.159500  0.336400  1.0  0.0954
  C  C59  1  0.353000  0.484000  0.858900  1.0  0.7316
  C  C60  1  0.265200  0.414900  0.801300  1.0  -0.053
  C  C61  1  0.131000  0.647000  0.858900  1.0  0.7294
  C  C62  1  0.149700  0.734800  0.801300  1.0  -0.0511
  C  C63  1  0.516000  0.869000  0.858900  1.0  0.7305
  C  C64  1  0.585100  0.850300  0.801300  1.0  -0.0519
  C  C65  1  0.647000  0.516000  0.858900  1.0  0.7306
  C  C66  1  0.734800  0.585100  0.801300  1.0  -0.0528
  C  C67  1  0.869000  0.353000  0.858900  1.0  0.7302
  C  C68  1  0.850300  0.265200  0.801300  1.0  -0.0517
  C  C69  1  0.484000  0.131000  0.858900  1.0  0.7298
  C  C70  1  0.414900  0.149700  0.801300  1.0  -0.0513
  C  C71  1  0.869000  0.516000  0.641100  1.0  0.7305
  C  C72  1  0.850300  0.585100  0.698700  1.0  -0.0532
  C  C73  1  0.484000  0.353000  0.641100  1.0  0.7297
  C  C74  1  0.414900  0.265200  0.698700  1.0  -0.0505
  C  C75  1  0.647000  0.131000  0.641100  1.0  0.73
  C  C76  1  0.734800  0.149700  0.698700  1.0  -0.0516
  C  C77  1  0.131000  0.484000  0.641100  1.0  0.7311
  C  C78  1  0.149700  0.414900  0.698700  1.0  -0.0521
  C  C79  1  0.516000  0.647000  0.641100  1.0  0.7297
  C  C80  1  0.585100  0.734800  0.698700  1.0  -0.0524
  C  C81  1  0.353000  0.869000  0.641100  1.0  0.7297
  C  C82  1  0.265200  0.850300  0.698700  1.0  -0.0508
  C  C83  1  0.647000  0.516000  0.141100  1.0  0.7306
  C  C84  1  0.734800  0.585100  0.198700  1.0  -0.0527
  C  C85  1  0.869000  0.353000  0.141100  1.0  0.7301
  C  C86  1  0.850300  0.265200  0.198700  1.0  -0.0518
  C  C87  1  0.484000  0.131000  0.141100  1.0  0.7294
  C  C88  1  0.414900  0.149700  0.198700  1.0  -0.0508
  C  C89  1  0.353000  0.484000  0.141100  1.0  0.7311
  C  C90  1  0.265200  0.414900  0.198700  1.0  -0.0524
  C  C91  1  0.131000  0.647000  0.141100  1.0  0.7293
  C  C92  1  0.149700  0.734800  0.198700  1.0  -0.0509
  C  C93  1  0.516000  0.869000  0.141100  1.0  0.7303
  C  C94  1  0.585100  0.850300  0.198700  1.0  -0.0519
  C  C95  1  0.131000  0.484000  0.358900  1.0  0.7311
  C  C96  1  0.149700  0.414900  0.301300  1.0  -0.0527
  C  C97  1  0.516000  0.647000  0.358900  1.0  0.73
  C  C98  1  0.585100  0.734800  0.301300  1.0  -0.0519
  C  C99  1  0.353000  0.869000  0.358900  1.0  0.7299
  C  C100  1  0.265200  0.850300  0.301300  1.0  -0.0512
  C  C101  1  0.869000  0.516000  0.358900  1.0  0.731
  C  C102  1  0.850300  0.585100  0.301300  1.0  -0.0533
  C  C103  1  0.484000  0.353000  0.358900  1.0  0.7295
  C  C104  1  0.414900  0.265200  0.301300  1.0  -0.051
  C  C105  1  0.647000  0.131000  0.358900  1.0  0.7304
  C  C106  1  0.734800  0.149700  0.301300  1.0  -0.0517
  O  O107  1  0.383600  0.578300  0.856500  1.0  -0.7033
  O  O108  1  0.388200  0.441500  0.905800  1.0  -0.6366
  O  O109  1  0.194700  0.616400  0.856500  1.0  -0.7024
  O  O110  1  0.053300  0.611800  0.905800  1.0  -0.6364
  O  O111  1  0.421700  0.805300  0.856500  1.0  -0.703
  O  O112  1  0.558500  0.946700  0.905800  1.0  -0.6363
  O  O113  1  0.616400  0.421700  0.856500  1.0  -0.7026
  O  O114  1  0.611800  0.558500  0.905800  1.0  -0.6357
  O  O115  1  0.805300  0.383600  0.856500  1.0  -0.7026
  O  O116  1  0.946700  0.388200  0.905800  1.0  -0.6362
  O  O117  1  0.578300  0.194700  0.856500  1.0  -0.702
  O  O118  1  0.441500  0.053300  0.905800  1.0  -0.6365
  O  O119  1  0.805300  0.421700  0.643500  1.0  -0.7022
  O  O120  1  0.946700  0.558500  0.594200  1.0  -0.6366
  O  O121  1  0.578300  0.383600  0.643500  1.0  -0.7025
  O  O122  1  0.441500  0.388200  0.594200  1.0  -0.6355
  O  O123  1  0.616400  0.194700  0.643500  1.0  -0.7019
  O  O124  1  0.611800  0.053300  0.594200  1.0  -0.6359
  O  O125  1  0.194700  0.578300  0.643500  1.0  -0.7022
  O  O126  1  0.053300  0.441500  0.594200  1.0  -0.6359
  O  O127  1  0.421700  0.616400  0.643500  1.0  -0.702
  O  O128  1  0.558500  0.611800  0.594200  1.0  -0.6363
  O  O129  1  0.383600  0.805300  0.643500  1.0  -0.7026
  O  O130  1  0.388200  0.946700  0.594200  1.0  -0.6372
  O  O131  1  0.616400  0.421700  0.143500  1.0  -0.7019
  O  O132  1  0.611800  0.558500  0.094200  1.0  -0.6366
  O  O133  1  0.805300  0.383600  0.143500  1.0  -0.7024
  O  O134  1  0.946700  0.388200  0.094200  1.0  -0.6361
  O  O135  1  0.578300  0.194700  0.143500  1.0  -0.7021
  O  O136  1  0.441500  0.053300  0.094200  1.0  -0.6368
  O  O137  1  0.383600  0.578300  0.143500  1.0  -0.7024
  O  O138  1  0.388200  0.441500  0.094200  1.0  -0.6371
  O  O139  1  0.194700  0.616400  0.143500  1.0  -0.702
  O  O140  1  0.053300  0.611800  0.094200  1.0  -0.6363
  O  O141  1  0.421700  0.805300  0.143500  1.0  -0.7025
  O  O142  1  0.558500  0.946700  0.094200  1.0  -0.6376
  O  O143  1  0.194700  0.578300  0.356500  1.0  -0.7033
  O  O144  1  0.053300  0.441500  0.405800  1.0  -0.6365
  O  O145  1  0.421700  0.616400  0.356500  1.0  -0.7027
  O  O146  1  0.558500  0.611800  0.405800  1.0  -0.6371
  O  O147  1  0.383600  0.805300  0.356500  1.0  -0.7028
  O  O148  1  0.388200  0.946700  0.405800  1.0  -0.6379
  O  O149  1  0.805300  0.421700  0.356500  1.0  -0.7027
  O  O150  1  0.946700  0.558500  0.405800  1.0  -0.6371
  O  O151  1  0.578300  0.383600  0.356500  1.0  -0.7024
  O  O152  1  0.441500  0.388200  0.405800  1.0  -0.6369
  O  O153  1  0.616400  0.194700  0.356500  1.0  -0.7021
  O  O154  1  0.611800  0.053300  0.405800  1.0  -0.6364
  O  O155  1  0.236050  0.472100  0.750000  1.0  -0.349
  O  O156  1  0.236050  0.763950  0.750000  1.0  -0.3496
  O  O157  1  0.527900  0.763950  0.750000  1.0  -0.349
  O  O158  1  0.763950  0.527900  0.750000  1.0  -0.3499
  O  O159  1  0.763950  0.236050  0.750000  1.0  -0.3484
  O  O160  1  0.472100  0.236050  0.750000  1.0  -0.349
  O  O161  1  0.763950  0.527900  0.250000  1.0  -0.3499
  O  O162  1  0.763950  0.236050  0.250000  1.0  -0.3484
  O  O163  1  0.472100  0.236050  0.250000  1.0  -0.349
  O  O164  1  0.236050  0.472100  0.250000  1.0  -0.349
  O  O165  1  0.236050  0.763950  0.250000  1.0  -0.3496
  O  O166  1  0.527900  0.763950  0.250000  1.0  -0.349
