# generated using pymatgen
data_CdHC4O3
_symmetry_space_group_name_H-M   'P 1'
_cell_length_a   26.88800000
_cell_length_b   26.88800000
_cell_length_c   7.23850000
_cell_angle_alpha   90.00000000
_cell_angle_beta   90.00000000
_cell_angle_gamma   120.00000000
_symmetry_Int_Tables_number   1
_chemical_formula_structural   CdHC4O3
_chemical_formula_sum   'Cd18 H18 C72 O54'
_cell_volume   4532.06582816
_cell_formula_units_Z   18
loop_
 _symmetry_equiv_pos_site_id
 _symmetry_equiv_pos_as_xyz
  1  'x, y, z'
loop_
 _atom_site_type_symbol
 _atom_site_label
 _atom_site_symmetry_multiplicity
 _atom_site_fract_x
 _atom_site_fract_y
 _atom_site_fract_z
 _atom_site_occupancy
 _atom_site_charge
  Cd  Cd1  1  0.724280  0.704560  0.802320  1.0  1.0928
  Cd  Cd2  1  0.390950  0.037890  0.135650  1.0  1.0927
  Cd  Cd3  1  0.057610  0.371230  0.468990  1.0  1.0928
  Cd  Cd4  1  0.295440  0.019720  0.802320  1.0  1.1023
  Cd  Cd5  1  0.962110  0.353050  0.135650  1.0  1.0902
  Cd  Cd6  1  0.628770  0.686390  0.468990  1.0  1.0903
  Cd  Cd7  1  0.980280  0.275720  0.802320  1.0  1.1047
  Cd  Cd8  1  0.646950  0.609050  0.135650  1.0  1.0935
  Cd  Cd9  1  0.313610  0.942390  0.468990  1.0  1.0934
  Cd  Cd10  1  0.275720  0.295440  0.197680  1.0  1.0929
  Cd  Cd11  1  0.942390  0.628770  0.531010  1.0  1.0929
  Cd  Cd12  1  0.609050  0.962110  0.864350  1.0  1.093
  Cd  Cd13  1  0.704560  0.980280  0.197680  1.0  1.1044
  Cd  Cd14  1  0.371230  0.313610  0.531010  1.0  1.0927
  Cd  Cd15  1  0.037890  0.646950  0.864350  1.0  1.0926
  Cd  Cd16  1  0.019720  0.724280  0.197680  1.0  1.1042
  Cd  Cd17  1  0.686390  0.057610  0.531010  1.0  1.0925
  Cd  Cd18  1  0.353050  0.390950  0.864350  1.0  1.0926
  H  H19  1  0.852970  0.688270  0.473280  1.0  0.1268
  H  H20  1  0.519640  0.021600  0.806610  1.0  0.1259
  H  H21  1  0.186300  0.354940  0.139950  1.0  0.1259
  H  H22  1  0.311730  0.164700  0.473280  1.0  0.1267
  H  H23  1  0.978400  0.498030  0.806610  1.0  0.1257
  H  H24  1  0.645060  0.831370  0.139950  1.0  0.1257
  H  H25  1  0.835300  0.147030  0.473280  1.0  0.1261
  H  H26  1  0.501970  0.480360  0.806610  1.0  0.1254
  H  H27  1  0.168630  0.813700  0.139950  1.0  0.1254
  H  H28  1  0.147030  0.311730  0.526720  1.0  0.1261
  H  H29  1  0.813700  0.645060  0.860050  1.0  0.1247
  H  H30  1  0.480360  0.978400  0.193390  1.0  0.1247
  H  H31  1  0.688270  0.835300  0.526720  1.0  0.1261
  H  H32  1  0.354940  0.168630  0.860050  1.0  0.1248
  H  H33  1  0.021600  0.501970  0.193390  1.0  0.1248
  H  H34  1  0.164700  0.852970  0.526720  1.0  0.126
  H  H35  1  0.831370  0.186300  0.860050  1.0  0.1251
  H  H36  1  0.498030  0.519640  0.193390  1.0  0.1251
  C  C37  1  0.755400  0.681300  0.413800  1.0  0.7449
  C  C38  1  0.793100  0.671800  0.279200  1.0  -0.243
  C  C39  1  0.845300  0.679600  0.348500  1.0  -0.0671
  C  C40  1  0.886000  0.675200  0.244500  1.0  0.34
  C  C41  1  0.422070  0.014630  0.747130  1.0  0.7451
  C  C42  1  0.459770  0.005130  0.612530  1.0  -0.2436
  C  C43  1  0.511970  0.012930  0.681830  1.0  -0.0636
  C  C44  1  0.552670  0.008530  0.577830  1.0  0.3396
  C  C45  1  0.088730  0.347970  0.080470  1.0  0.7449
  C  C46  1  0.126430  0.338470  0.945870  1.0  -0.243
  C  C47  1  0.178630  0.346270  0.015170  1.0  -0.0643
  C  C48  1  0.219330  0.341870  0.911170  1.0  0.3399
  C  C49  1  0.318700  0.074100  0.413800  1.0  0.748
  C  C50  1  0.328200  0.121300  0.279200  1.0  -0.2426
  C  C51  1  0.320400  0.165700  0.348500  1.0  -0.0657
  C  C52  1  0.324800  0.210800  0.244500  1.0  0.3377
  C  C53  1  0.985370  0.407430  0.747130  1.0  0.7478
  C  C54  1  0.994870  0.454630  0.612530  1.0  -0.2416
  C  C55  1  0.987070  0.499030  0.681830  1.0  -0.0649
  C  C56  1  0.991470  0.544130  0.577830  1.0  0.3381
  C  C57  1  0.652030  0.740770  0.080470  1.0  0.748
  C  C58  1  0.661530  0.787970  0.945870  1.0  -0.2426
  C  C59  1  0.653730  0.832370  0.015170  1.0  -0.0642
  C  C60  1  0.658130  0.877470  0.911170  1.0  0.3378
  C  C61  1  0.925900  0.244600  0.413800  1.0  0.7459
  C  C62  1  0.878700  0.206900  0.279200  1.0  -0.2426
  C  C63  1  0.834300  0.154700  0.348500  1.0  -0.0649
  C  C64  1  0.789200  0.114000  0.244500  1.0  0.3366
  C  C65  1  0.592570  0.577930  0.747130  1.0  0.7459
  C  C66  1  0.545370  0.540230  0.612530  1.0  -0.243
  C  C67  1  0.500970  0.488030  0.681830  1.0  -0.0632
  C  C68  1  0.455870  0.447330  0.577830  1.0  0.3353
  C  C69  1  0.259230  0.911270  0.080470  1.0  0.7459
  C  C70  1  0.212030  0.873570  0.945870  1.0  -0.2426
  C  C71  1  0.167630  0.821370  0.015170  1.0  -0.0632
  C  C72  1  0.122530  0.780670  0.911170  1.0  0.3366
  C  C73  1  0.244600  0.318700  0.586200  1.0  0.7465
  C  C74  1  0.206900  0.328200  0.720800  1.0  -0.2412
  C  C75  1  0.154700  0.320400  0.651500  1.0  -0.0654
  C  C76  1  0.114000  0.324800  0.755500  1.0  0.3464
  C  C77  1  0.911270  0.652030  0.919530  1.0  0.7464
  C  C78  1  0.873570  0.661530  0.054130  1.0  -0.241
  C  C79  1  0.821370  0.653730  0.984830  1.0  -0.0616
  C  C80  1  0.780670  0.658130  0.088830  1.0  0.3463
  C  C81  1  0.577930  0.985370  0.252870  1.0  0.7466
  C  C82  1  0.540230  0.994870  0.387470  1.0  -0.2417
  C  C83  1  0.488030  0.987070  0.318170  1.0  -0.0609
  C  C84  1  0.447330  0.991470  0.422170  1.0  0.346
  C  C85  1  0.681300  0.925900  0.586200  1.0  0.7472
  C  C86  1  0.671800  0.878700  0.720800  1.0  -0.2434
  C  C87  1  0.679600  0.834300  0.651500  1.0  -0.0638
  C  C88  1  0.675200  0.789200  0.755500  1.0  0.3417
  C  C89  1  0.347970  0.259230  0.919530  1.0  0.7472
  C  C90  1  0.338470  0.212030  0.054130  1.0  -0.2434
  C  C91  1  0.346270  0.167630  0.984830  1.0  -0.062
  C  C92  1  0.341870  0.122530  0.088830  1.0  0.3418
  C  C93  1  0.014630  0.592570  0.252870  1.0  0.7471
  C  C94  1  0.005130  0.545370  0.387470  1.0  -0.2425
  C  C95  1  0.012930  0.500970  0.318170  1.0  -0.0627
  C  C96  1  0.008530  0.455870  0.422170  1.0  0.3424
  C  C97  1  0.074100  0.755400  0.586200  1.0  0.7475
  C  C98  1  0.121300  0.793100  0.720800  1.0  -0.2429
  C  C99  1  0.165700  0.845300  0.651500  1.0  -0.0634
  C  C100  1  0.210800  0.886000  0.755500  1.0  0.3434
  C  C101  1  0.740770  0.088730  0.919530  1.0  0.7475
  C  C102  1  0.787970  0.126430  0.054130  1.0  -0.2429
  C  C103  1  0.832370  0.178630  0.984830  1.0  -0.0619
  C  C104  1  0.877470  0.219330  0.088830  1.0  0.3434
  C  C105  1  0.407430  0.422070  0.252870  1.0  0.7475
  C  C106  1  0.454630  0.459770  0.387470  1.0  -0.2434
  C  C107  1  0.499030  0.511970  0.318170  1.0  -0.0619
  C  C108  1  0.544130  0.552670  0.422170  1.0  0.3421
  O  O109  1  0.708420  0.675700  0.359200  1.0  -0.7025
  O  O110  1  0.774400  0.697600  0.571900  1.0  -0.637
  O  O111  1  0.934780  0.685500  0.328600  1.0  -0.6577
  O  O112  1  0.375090  0.009030  0.692530  1.0  -0.7017
  O  O113  1  0.441070  0.030930  0.905230  1.0  -0.6394
  O  O114  1  0.601450  0.018830  0.661930  1.0  -0.6576
  O  O115  1  0.041750  0.342370  0.025870  1.0  -0.7016
  O  O116  1  0.107730  0.364270  0.238570  1.0  -0.6392
  O  O117  1  0.268110  0.352170  0.995270  1.0  -0.6576
  O  O118  1  0.324300  0.032720  0.359200  1.0  -0.7075
  O  O119  1  0.302400  0.076800  0.571900  1.0  -0.6382
  O  O120  1  0.314500  0.249280  0.328600  1.0  -0.6579
  O  O121  1  0.990970  0.366050  0.692530  1.0  -0.7073
  O  O122  1  0.969070  0.410130  0.905230  1.0  -0.6407
  O  O123  1  0.981170  0.582610  0.661930  1.0  -0.6585
  O  O124  1  0.657630  0.699390  0.025870  1.0  -0.7084
  O  O125  1  0.635730  0.743470  0.238570  1.0  -0.6405
  O  O126  1  0.647830  0.915950  0.995270  1.0  -0.6579
  O  O127  1  0.967280  0.291580  0.359200  1.0  -0.7026
  O  O128  1  0.923200  0.225600  0.571900  1.0  -0.6324
  O  O129  1  0.750720  0.065220  0.328600  1.0  -0.6605
  O  O130  1  0.633950  0.624910  0.692530  1.0  -0.7024
  O  O131  1  0.589870  0.558930  0.905230  1.0  -0.6384
  O  O132  1  0.417390  0.398550  0.661930  1.0  -0.66
  O  O133  1  0.300610  0.958250  0.025870  1.0  -0.7026
  O  O134  1  0.256530  0.892270  0.238570  1.0  -0.6385
  O  O135  1  0.084050  0.731890  0.995270  1.0  -0.6605
  O  O136  1  0.291580  0.324300  0.640800  1.0  -0.7039
  O  O137  1  0.225600  0.302400  0.428100  1.0  -0.6377
  O  O138  1  0.065220  0.314500  0.671400  1.0  -0.6578
  O  O139  1  0.958250  0.657630  0.974130  1.0  -0.703
  O  O140  1  0.892270  0.635730  0.761430  1.0  -0.64
  O  O141  1  0.731890  0.647830  0.004730  1.0  -0.6578
  O  O142  1  0.624910  0.990970  0.307470  1.0  -0.7031
  O  O143  1  0.558930  0.969070  0.094770  1.0  -0.6401
  O  O144  1  0.398550  0.981170  0.338070  1.0  -0.6578
  O  O145  1  0.675700  0.967280  0.640800  1.0  -0.7077
  O  O146  1  0.697600  0.923200  0.428100  1.0  -0.6389
  O  O147  1  0.685500  0.750720  0.671400  1.0  -0.6572
  O  O148  1  0.342370  0.300610  0.974130  1.0  -0.7086
  O  O149  1  0.364270  0.256530  0.761430  1.0  -0.6409
  O  O150  1  0.352170  0.084050  0.004730  1.0  -0.6572
  O  O151  1  0.009030  0.633950  0.307470  1.0  -0.7076
  O  O152  1  0.030930  0.589870  0.094770  1.0  -0.641
  O  O153  1  0.018830  0.417390  0.338070  1.0  -0.6578
  O  O154  1  0.032720  0.708420  0.640800  1.0  -0.7042
  O  O155  1  0.076800  0.774400  0.428100  1.0  -0.6331
  O  O156  1  0.249280  0.934780  0.671400  1.0  -0.661
  O  O157  1  0.699390  0.041750  0.974130  1.0  -0.7042
  O  O158  1  0.743470  0.107730  0.761430  1.0  -0.6398
  O  O159  1  0.915950  0.268110  0.004730  1.0  -0.661
  O  O160  1  0.366050  0.375090  0.307470  1.0  -0.7039
  O  O161  1  0.410130  0.441070  0.094770  1.0  -0.6396
  O  O162  1  0.582610  0.601450  0.338070  1.0  -0.6606
