# generated using pymatgen
data_Ag11H30(C7N4)6
_symmetry_space_group_name_H-M   'P 1'
_cell_length_a   10.86250000
_cell_length_b   14.48030000
_cell_length_c   15.30770000
_cell_angle_alpha   113.14200000
_cell_angle_beta   90.45700000
_cell_angle_gamma   107.81800000
_symmetry_Int_Tables_number   1
_chemical_formula_structural   Ag11H30(C7N4)6
_chemical_formula_sum   'Ag11 H30 C42 N24'
_cell_volume   2085.10027276
_cell_formula_units_Z   1
loop_
 _symmetry_equiv_pos_site_id
 _symmetry_equiv_pos_as_xyz
  1  'x, y, z'
loop_
 _atom_site_type_symbol
 _atom_site_label
 _atom_site_symmetry_multiplicity
 _atom_site_fract_x
 _atom_site_fract_y
 _atom_site_fract_z
 _atom_site_occupancy
 _atom_site_charge
  Ag  Ag1  1  0.546700  0.972260  0.610900  1.0  0.3591
  Ag  Ag2  1  0.084300  0.577110  0.298750  1.0  0.2602
  Ag  Ag3  1  0.978500  0.338270  0.047350  1.0  0.2062
  Ag  Ag4  1  0.027200  0.123210  0.111880  1.0  0.2603
  Ag  Ag5  1  0.802400  0.198250  0.771720  1.0  0.259
  Ag  Ag6  1  0.453300  0.027740  0.389100  1.0  0.3577
  Ag  Ag7  1  0.915700  0.422890  0.701250  1.0  0.2591
  Ag  Ag8  1  0.021500  0.661730  0.952650  1.0  0.2043
  Ag  Ag9  1  0.972800  0.876790  0.888120  1.0  0.2625
  Ag  Ag10  1  0.197600  0.801750  0.228280  1.0  0.2616
  Ag  Ag11  1  0.000000  0.500000  0.500000  1.0  0.2998
  H  H12  1  0.293200  0.560200  0.405800  1.0  0.1045
  H  H13  1  0.301000  0.451500  0.483100  1.0  0.1188
  H  H14  1  0.322100  0.524200  0.648200  1.0  0.096
  H  H15  1  0.343600  0.700700  0.735800  1.0  0.1158
  H  H16  1  0.334800  0.805200  0.658200  1.0  0.1028
  H  H17  1  0.070700  0.325500  0.489000  1.0  0.0971
  H  H18  1  0.041700  0.215400  0.570200  1.0  0.0983
  H  H19  1  0.912800  0.039400  0.495800  1.0  0.1029
  H  H20  1  0.820000  0.969800  0.339600  1.0  0.1012
  H  H21  1  0.845200  0.077600  0.254700  1.0  0.1257
  H  H22  1  0.706800  0.815200  0.774500  1.0  0.1137
  H  H23  1  0.606900  0.676000  0.627100  1.0  0.0966
  H  H24  1  0.604600  0.708300  0.491000  1.0  0.0992
  H  H25  1  0.719600  0.876500  0.499200  1.0  0.0947
  H  H26  1  0.826500  0.014900  0.645000  1.0  0.0969
  H  H27  1  0.706800  0.439800  0.594200  1.0  0.104
  H  H28  1  0.699000  0.548500  0.516900  1.0  0.1188
  H  H29  1  0.677900  0.475800  0.351800  1.0  0.096
  H  H30  1  0.656400  0.299300  0.264200  1.0  0.1158
  H  H31  1  0.665200  0.194800  0.341800  1.0  0.1035
  H  H32  1  0.929300  0.674500  0.511000  1.0  0.0972
  H  H33  1  0.958300  0.784600  0.429800  1.0  0.0981
  H  H34  1  0.087200  0.960600  0.504200  1.0  0.1033
  H  H35  1  0.180000  0.030200  0.660400  1.0  0.0994
  H  H36  1  0.154800  0.922400  0.745300  1.0  0.1257
  H  H37  1  0.293200  0.184800  0.225500  1.0  0.1144
  H  H38  1  0.393100  0.324000  0.372900  1.0  0.0959
  H  H39  1  0.395400  0.291700  0.509000  1.0  0.0992
  H  H40  1  0.280400  0.123500  0.500800  1.0  0.0945
  H  H41  1  0.173500  0.985100  0.355000  1.0  0.0979
  C  C42  1  0.305200  0.760300  0.471500  1.0  0.3291
  C  C43  1  0.312600  0.694000  0.523600  1.0  -0.0716
  C  C44  1  0.302900  0.588000  0.472500  1.0  -0.0704
  C  C45  1  0.307000  0.522200  0.518000  1.0  -0.2033
  C  C46  1  0.321000  0.567000  0.616000  1.0  -0.0907
  C  C47  1  0.333000  0.673000  0.669100  1.0  -0.1434
  C  C48  1  0.327800  0.734400  0.622700  1.0  -0.0289
  C  C49  1  0.972900  0.281400  0.314600  1.0  0.3242
  C  C50  1  0.960200  0.213400  0.365500  1.0  -0.0568
  C  C51  1  0.019100  0.254100  0.458300  1.0  -0.1366
  C  C52  1  0.001000  0.188000  0.507200  1.0  -0.067
  C  C53  1  0.926000  0.082700  0.462800  1.0  -0.1012
  C  C54  1  0.870000  0.041800  0.370000  1.0  -0.1187
  C  C55  1  0.884500  0.106100  0.318100  1.0  -0.1876
  C  C56  1  0.843300  0.013700  0.819200  1.0  0.2994
  C  C57  1  0.778000  0.929900  0.724000  1.0  -0.0654
  C  C58  1  0.710100  0.827100  0.719000  1.0  -0.1378
  C  C59  1  0.648600  0.744300  0.631000  1.0  -0.1175
  C  C60  1  0.649300  0.763000  0.549400  1.0  -0.1177
  C  C61  1  0.717300  0.864500  0.554700  1.0  -0.2148
  C  C62  1  0.781400  0.947500  0.642000  1.0  -0.1261
  C  C63  1  0.694800  0.239700  0.528500  1.0  0.331
  C  C64  1  0.687400  0.306000  0.476400  1.0  -0.0725
  C  C65  1  0.697100  0.412000  0.527500  1.0  -0.0726
  C  C66  1  0.693000  0.477800  0.482000  1.0  -0.2054
  C  C67  1  0.679000  0.433000  0.384000  1.0  -0.0922
  C  C68  1  0.667000  0.327000  0.330900  1.0  -0.1445
  C  C69  1  0.672200  0.265600  0.377300  1.0  -0.0296
  C  C70  1  0.027100  0.718600  0.685400  1.0  0.3234
  C  C71  1  0.039800  0.786600  0.634500  1.0  -0.0572
  C  C72  1  0.980900  0.745900  0.541700  1.0  -0.138
  C  C73  1  0.999000  0.812000  0.492800  1.0  -0.07
  C  C74  1  0.074000  0.917300  0.537200  1.0  -0.1005
  C  C75  1  0.130000  0.958200  0.630000  1.0  -0.1141
  C  C76  1  0.115500  0.893900  0.681900  1.0  -0.1901
  C  C77  1  0.156700  0.986300  0.180800  1.0  0.3022
  C  C78  1  0.222000  0.070100  0.276000  1.0  -0.0678
  C  C79  1  0.289900  0.172900  0.281000  1.0  -0.1357
  C  C80  1  0.351400  0.255700  0.369000  1.0  -0.1172
  C  C81  1  0.350700  0.237000  0.450600  1.0  -0.1173
  C  C82  1  0.282700  0.135500  0.445300  1.0  -0.2139
  C  C83  1  0.218600  0.052500  0.358000  1.0  -0.1264
  N  N84  1  0.373400  0.864000  0.501900  1.0  -0.2487
  N  N85  1  0.342000  0.891200  0.434500  1.0  -0.0254
  N  N86  1  0.256400  0.808300  0.366600  1.0  -0.0867
  N  N87  1  0.231000  0.724400  0.388700  1.0  -0.2516
  N  N88  1  0.987900  0.386000  0.356500  1.0  -0.2832
  N  N89  1  0.988000  0.416700  0.283600  1.0  -0.0561
  N  N90  1  0.973200  0.334500  0.202600  1.0  -0.081
  N  N91  1  0.964300  0.248600  0.220200  1.0  -0.2397
  N  N92  1  0.894300  0.999000  0.890200  1.0  -0.2534
  N  N93  1  0.936200  0.095000  0.964400  1.0  -0.0199
  N  N94  1  0.913000  0.166600  0.940500  1.0  -0.1291
  N  N95  1  0.855100  0.117500  0.848800  1.0  -0.2791
  N  N96  1  0.626600  0.136000  0.498100  1.0  -0.2494
  N  N97  1  0.658000  0.108800  0.565500  1.0  -0.0259
  N  N98  1  0.743600  0.191700  0.633400  1.0  -0.0895
  N  N99  1  0.769000  0.275600  0.611300  1.0  -0.2522
  N  N100  1  0.012100  0.614000  0.643500  1.0  -0.2842
  N  N101  1  0.012000  0.583300  0.716400  1.0  -0.0557
  N  N102  1  0.026800  0.665500  0.797400  1.0  -0.0775
  N  N103  1  0.035700  0.751400  0.779800  1.0  -0.2427
  N  N104  1  0.105700  0.001000  0.109800  1.0  -0.2523
  N  N105  1  0.063800  0.905000  0.035600  1.0  -0.0184
  N  N106  1  0.087000  0.833400  0.059500  1.0  -0.1266
  N  N107  1  0.144900  0.882500  0.151200  1.0  -0.2786
