# generated using pymatgen
data_Ag2H5C7N4
_symmetry_space_group_name_H-M   'P 1'
_cell_length_a   14.34490000
_cell_length_b   14.69940000
_cell_length_c   20.03220000
_cell_angle_alpha   108.67500000
_cell_angle_beta   90.12300000
_cell_angle_gamma   107.78600000
_symmetry_Int_Tables_number   1
_chemical_formula_structural   Ag2H5C7N4
_chemical_formula_sum   'Ag20 H50 C70 N40'
_cell_volume   3786.89815074
_cell_formula_units_Z   10
loop_
 _symmetry_equiv_pos_site_id
 _symmetry_equiv_pos_as_xyz
  1  'x, y, z'
loop_
 _atom_site_type_symbol
 _atom_site_label
 _atom_site_symmetry_multiplicity
 _atom_site_fract_x
 _atom_site_fract_y
 _atom_site_fract_z
 _atom_site_occupancy
 _atom_site_charge
  Ag  Ag1  1  0.484250  0.401400  0.540640  1.0  0.417
  Ag  Ag2  1  0.397840  0.594250  0.148370  1.0  0.2598
  Ag  Ag3  1  0.237500  0.977690  0.256040  1.0  0.3795
  Ag  Ag4  1  0.058440  0.139440  0.028940  1.0  0.2437
  Ag  Ag5  1  0.216920  0.220320  0.230940  1.0  0.4201
  Ag  Ag6  1  0.307240  0.494650  0.298780  1.0  0.4012
  Ag  Ag7  1  0.493900  0.788800  0.044150  1.0  0.0943
  Ag  Ag8  1  0.367500  0.326700  0.834350  1.0  0.2823
  Ag  Ag9  1  0.329000  0.961800  0.077800  1.0  0.4749
  Ag  Ag10  1  0.408900  0.952600  0.059800  1.0  0.5663
  Ag  Ag11  1  0.515750  0.598600  0.459360  1.0  0.4178
  Ag  Ag12  1  0.602160  0.405750  0.851630  1.0  0.263
  Ag  Ag13  1  0.762500  0.022310  0.743960  1.0  0.3823
  Ag  Ag14  1  0.941560  0.860560  0.971060  1.0  0.2436
  Ag  Ag15  1  0.783080  0.779680  0.769060  1.0  0.4198
  Ag  Ag16  1  0.692760  0.505350  0.701220  1.0  0.4014
  Ag  Ag17  1  0.506100  0.211200  0.955850  1.0  0.0918
  Ag  Ag18  1  0.632500  0.673300  0.165650  1.0  0.2788
  Ag  Ag19  1  0.671000  0.038200  0.922200  1.0  0.4698
  Ag  Ag20  1  0.591100  0.047400  0.940200  1.0  0.5654
  H  H21  1  0.297100  0.352600  0.571300  1.0  0.082
  H  H22  1  0.138500  0.268100  0.507400  1.0  0.0882
  H  H23  1  0.037700  0.128600  0.524400  1.0  0.0878
  H  H24  1  0.099600  0.049200  0.595900  1.0  0.0971
  H  H25  1  0.249100  0.131600  0.659400  1.0  0.0899
  H  H26  1  0.172400  0.125600  0.332400  1.0  0.0744
  H  H27  1  0.103600  0.973800  0.352600  1.0  0.0976
  H  H28  1  0.200600  0.922500  0.417000  1.0  0.0706
  H  H29  1  0.342600  0.030900  0.480500  1.0  0.0988
  H  H30  1  0.417900  0.182700  0.457600  1.0  0.098
  H  H31  1  0.111600  0.766900  0.001700  1.0  0.1208
  H  H32  1  0.108000  0.600800  0.989500  1.0  0.0713
  H  H33  1  0.062800  0.533100  0.073700  1.0  0.0975
  H  H34  1  0.023400  0.631800  0.182400  1.0  0.0924
  H  H35  1  0.031000  0.799700  0.199400  1.0  0.11
  H  H36  1  0.258400  0.521000  0.020500  1.0  0.11
  H  H37  1  0.246700  0.520200  0.905800  1.0  0.0838
  H  H38  1  0.211800  0.377100  0.809200  1.0  0.0995
  H  H39  1  0.195200  0.223100  0.828300  1.0  0.0843
  H  H40  1  0.186400  0.215700  0.943200  1.0  0.1037
  H  H41  1  0.198300  0.598400  0.201900  1.0  0.0874
  H  H42  1  0.127700  0.541400  0.293500  1.0  0.1019
  H  H43  1  0.194500  0.620400  0.399400  1.0  0.0666
  H  H44  1  0.318900  0.784400  0.436700  1.0  0.1037
  H  H45  1  0.358700  0.857300  0.345900  1.0  0.0657
  H  H46  1  0.702900  0.647400  0.428700  1.0  0.0833
  H  H47  1  0.861500  0.731900  0.492600  1.0  0.0882
  H  H48  1  0.962300  0.871400  0.475600  1.0  0.0875
  H  H49  1  0.900400  0.950800  0.404100  1.0  0.097
  H  H50  1  0.750900  0.868400  0.340600  1.0  0.09
  H  H51  1  0.827600  0.874400  0.667600  1.0  0.0743
  H  H52  1  0.896400  0.026200  0.647400  1.0  0.098
  H  H53  1  0.799400  0.077500  0.583000  1.0  0.0703
  H  H54  1  0.657400  0.969100  0.519500  1.0  0.0984
  H  H55  1  0.582100  0.817300  0.542400  1.0  0.0979
  H  H56  1  0.888400  0.233100  0.998300  1.0  0.1211
  H  H57  1  0.892000  0.399200  0.010500  1.0  0.0728
  H  H58  1  0.937200  0.466900  0.926300  1.0  0.0973
  H  H59  1  0.976600  0.368200  0.817600  1.0  0.092
  H  H60  1  0.969000  0.200300  0.800600  1.0  0.1102
  H  H61  1  0.741600  0.479000  0.979500  1.0  0.1107
  H  H62  1  0.753300  0.479800  0.094200  1.0  0.0853
  H  H63  1  0.788200  0.622900  0.190800  1.0  0.1004
  H  H64  1  0.804800  0.776900  0.171700  1.0  0.084
  H  H65  1  0.813600  0.784300  0.056800  1.0  0.1051
  H  H66  1  0.801700  0.401600  0.798100  1.0  0.0879
  H  H67  1  0.872300  0.458600  0.706500  1.0  0.1016
  H  H68  1  0.805500  0.379600  0.600600  1.0  0.067
  H  H69  1  0.681100  0.215600  0.563300  1.0  0.1031
  H  H70  1  0.641300  0.142700  0.654100  1.0  0.0647
  C  C71  1  0.391800  0.296800  0.657700  1.0  0.3844
  C  C72  1  0.293100  0.250500  0.620500  1.0  -0.0214
  C  C73  1  0.257800  0.292300  0.576300  1.0  -0.1168
  C  C74  1  0.160400  0.241500  0.538400  1.0  -0.1315
  C  C75  1  0.102000  0.158000  0.546900  1.0  -0.0953
  C  C76  1  0.138000  0.111000  0.592500  1.0  -0.131
  C  C77  1  0.228000  0.158400  0.628400  1.0  -0.1308
  C  C78  1  0.345600  0.271400  0.386900  1.0  0.2262
  C  C79  1  0.302700  0.172500  0.393600  1.0  -0.039
  C  C80  1  0.208000  0.106800  0.361500  1.0  -0.0885
  C  C81  1  0.167200  0.015400  0.372300  1.0  -0.2367
  C  C82  1  0.224400  0.987200  0.413800  1.0  -0.093
  C  C83  1  0.310700  0.048600  0.448500  1.0  -0.1393
  C  C84  1  0.354600  0.141900  0.436700  1.0  -0.1365
  C  C85  1  0.083500  0.904600  0.112500  1.0  0.3357
  C  C86  1  0.075800  0.799600  0.103100  1.0  -0.077
  C  C87  1  0.096000  0.741200  0.038500  1.0  -0.1799
  C  C88  1  0.092000  0.640000  0.031400  1.0  -0.0937
  C  C89  1  0.066000  0.599700  0.081000  1.0  -0.1456
  C  C90  1  0.041900  0.659600  0.146900  1.0  -0.1252
  C  C91  1  0.046800  0.760300  0.157400  1.0  -0.1684
  C  C92  1  0.223700  0.361100  0.066500  1.0  0.2667
  C  C93  1  0.219200  0.369000  0.994600  1.0  -0.0931
  C  C94  1  0.240900  0.460000  0.982900  1.0  -0.1775
  C  C95  1  0.236000  0.458000  0.913000  1.0  -0.1449
  C  C96  1  0.216100  0.374000  0.854700  1.0  -0.2007
  C  C97  1  0.202600  0.282000  0.866600  1.0  -0.2327
  C  C98  1  0.200200  0.277600  0.936000  1.0  -0.1068
  C  C99  1  0.312900  0.777600  0.208200  1.0  0.307
  C  C100  1  0.284700  0.739000  0.266100  1.0  0.0284
  C  C101  1  0.217600  0.639400  0.249100  1.0  -0.1324
  C  C102  1  0.180000  0.602000  0.304000  1.0  -0.1233
  C  C103  1  0.216000  0.650000  0.365300  1.0  -0.1425
  C  C104  1  0.291000  0.751000  0.389900  1.0  -0.1377
  C  C105  1  0.317000  0.791000  0.334100  1.0  -0.1035
  C  C106  1  0.608200  0.703200  0.342300  1.0  0.3851
  C  C107  1  0.706900  0.749500  0.379500  1.0  -0.0212
  C  C108  1  0.742200  0.707700  0.423700  1.0  -0.1171
  C  C109  1  0.839600  0.758500  0.461600  1.0  -0.1288
  C  C110  1  0.898000  0.842000  0.453100  1.0  -0.0923
  C  C111  1  0.862000  0.889000  0.407500  1.0  -0.1308
  C  C112  1  0.772000  0.841600  0.371600  1.0  -0.1298
  C  C113  1  0.654400  0.728600  0.613100  1.0  0.2267
  C  C114  1  0.697300  0.827500  0.606400  1.0  -0.0405
  C  C115  1  0.792000  0.893200  0.638500  1.0  -0.0871
  C  C116  1  0.832800  0.984600  0.627700  1.0  -0.2362
  C  C117  1  0.775600  0.012800  0.586200  1.0  -0.0941
  C  C118  1  0.689300  0.951400  0.551500  1.0  -0.1402
  C  C119  1  0.645400  0.858100  0.563300  1.0  -0.1404
  C  C120  1  0.916500  0.095400  0.887500  1.0  0.3373
  C  C121  1  0.924200  0.200400  0.896900  1.0  -0.0767
  C  C122  1  0.904000  0.258800  0.961500  1.0  -0.1827
  C  C123  1  0.908000  0.360000  0.968600  1.0  -0.0927
  C  C124  1  0.934000  0.400300  0.919000  1.0  -0.1475
  C  C125  1  0.958100  0.340400  0.853100  1.0  -0.125
  C  C126  1  0.953200  0.239700  0.842600  1.0  -0.1689
  C  C127  1  0.776300  0.638900  0.933500  1.0  0.2654
  C  C128  1  0.780800  0.631000  0.005400  1.0  -0.0914
  C  C129  1  0.759100  0.540000  0.017100  1.0  -0.1753
  C  C130  1  0.764000  0.542000  0.087000  1.0  -0.1461
  C  C131  1  0.783900  0.626000  0.145300  1.0  -0.2
  C  C132  1  0.797400  0.718000  0.133400  1.0  -0.2303
  C  C133  1  0.799800  0.722400  0.064000  1.0  -0.1083
  C  C134  1  0.687100  0.222400  0.791800  1.0  0.3076
  C  C135  1  0.715300  0.261000  0.733900  1.0  0.0294
  C  C136  1  0.782400  0.360600  0.750900  1.0  -0.1326
  C  C137  1  0.820000  0.398000  0.696000  1.0  -0.1196
  C  C138  1  0.784000  0.350000  0.634700  1.0  -0.1455
  C  C139  1  0.709000  0.249000  0.610100  1.0  -0.1391
  C  C140  1  0.683000  0.209000  0.665900  1.0  -0.1047
  N  N141  1  0.467700  0.341100  0.632000  1.0  -0.219
  N  N142  1  0.543700  0.376100  0.683400  1.0  -0.0131
  N  N143  1  0.513800  0.357600  0.737800  1.0  -0.0093
  N  N144  1  0.415000  0.307200  0.726300  1.0  -0.3533
  N  N145  1  0.319100  0.295000  0.330000  1.0  -0.2912
  N  N146  1  0.368800  0.394800  0.344600  1.0  -0.0886
  N  N147  1  0.422000  0.427800  0.403800  1.0  -0.0665
  N  N148  1  0.407000  0.352400  0.432400  1.0  -0.247
  N  N149  1  0.044100  0.937500  0.069800  1.0  -0.2031
  N  N150  1  0.073800  0.039000  0.098900  1.0  -0.134
  N  N151  1  0.134300  0.069000  0.155400  1.0  -0.2347
  N  N152  1  0.138300  0.981600  0.167700  1.0  -0.2938
  N  N153  1  0.272400  0.442000  0.124400  1.0  -0.342
  N  N154  1  0.257200  0.407400  0.178800  1.0  -0.0682
  N  N155  1  0.199000  0.311700  0.154500  1.0  -0.1093
  N  N156  1  0.180500  0.283700  0.085100  1.0  -0.1772
  N  N157  1  0.300200  0.857900  0.198600  1.0  -0.2248
  N  N158  1  0.334600  0.861400  0.136700  1.0  -0.1428
  N  N159  1  0.368800  0.783400  0.109100  1.0  -0.1472
  N  N160  1  0.353600  0.728800  0.153300  1.0  -0.2651
  N  N161  1  0.532300  0.658900  0.368000  1.0  -0.2225
  N  N162  1  0.456300  0.623900  0.316600  1.0  -0.0128
  N  N163  1  0.486200  0.642400  0.262200  1.0  -0.0104
  N  N164  1  0.585000  0.692800  0.273700  1.0  -0.356
  N  N165  1  0.680900  0.705000  0.670000  1.0  -0.2887
  N  N166  1  0.631200  0.605200  0.655400  1.0  -0.0884
  N  N167  1  0.578000  0.572200  0.596200  1.0  -0.0674
  N  N168  1  0.593000  0.647600  0.567600  1.0  -0.2484
  N  N169  1  0.955900  0.062500  0.930200  1.0  -0.2018
  N  N170  1  0.926200  0.961000  0.901100  1.0  -0.1346
  N  N171  1  0.865700  0.931000  0.844600  1.0  -0.232
  N  N172  1  0.861700  0.018400  0.832300  1.0  -0.2934
  N  N173  1  0.727600  0.558000  0.875600  1.0  -0.34
  N  N174  1  0.742800  0.592600  0.821200  1.0  -0.0694
  N  N175  1  0.801000  0.688300  0.845500  1.0  -0.1104
  N  N176  1  0.819500  0.716300  0.914900  1.0  -0.1809
  N  N177  1  0.699800  0.142100  0.801400  1.0  -0.2218
  N  N178  1  0.665400  0.138600  0.863300  1.0  -0.1394
  N  N179  1  0.631200  0.216600  0.890900  1.0  -0.1444
  N  N180  1  0.646400  0.271200  0.846700  1.0  -0.2617
