# generated using pymatgen
data_Ag13H56(C2N)32
_symmetry_space_group_name_H-M   'P 1'
_cell_length_a   24.97300000
_cell_length_b   19.35060000
_cell_length_c   21.38330000
_cell_angle_alpha   90.00000000
_cell_angle_beta   96.04500000
_cell_angle_gamma   90.00000000
_symmetry_Int_Tables_number   1
_chemical_formula_structural   Ag13H56(C2N)32
_chemical_formula_sum   'Ag52 H224 C256 N128'
_cell_volume   10275.86156591
_cell_formula_units_Z   4
loop_
 _symmetry_equiv_pos_site_id
 _symmetry_equiv_pos_as_xyz
  1  'x, y, z'
loop_
 _atom_site_type_symbol
 _atom_site_label
 _atom_site_symmetry_multiplicity
 _atom_site_fract_x
 _atom_site_fract_y
 _atom_site_fract_z
 _atom_site_occupancy
 _atom_site_charge
  Ag  Ag1  1  0.699700  0.210570  0.442710  1.0  0.8382
  Ag  Ag2  1  0.903290  0.216330  0.629670  1.0  0.2885
  Ag  Ag3  1  0.009560  0.567980  0.933770  1.0  0.3894
  Ag  Ag4  1  0.945200  0.482520  0.770030  1.0  0.4569
  Ag  Ag5  1  0.963950  0.287340  0.784860  1.0  0.2847
  Ag  Ag6  1  0.580720  0.289740  0.375330  1.0  0.2629
  Ag  Ag7  1  0.767990  0.326340  0.574060  1.0  0.2951
  Ag  Ag8  1  0.512430  0.205650  0.222650  1.0  0.2841
  Ag  Ag9  1  0.559950  0.016700  0.233020  1.0  0.4081
  Ag  Ag10  1  0.523180  0.063580  0.939170  1.0  1.1361
  Ag  Ag11  1  0.526000  0.586800  0.564100  1.0  0.8608
  Ag  Ag12  1  0.660000  0.190700  0.481300  1.0  0.8443
  Ag  Ag13  1  0.429000  0.526700  0.559200  1.0  0.788
  Ag  Ag14  1  0.300300  0.710570  0.057290  1.0  0.836
  Ag  Ag15  1  0.096710  0.716330  0.870330  1.0  0.2926
  Ag  Ag16  1  0.990440  0.067980  0.566230  1.0  0.3866
  Ag  Ag17  1  0.054800  0.982520  0.729970  1.0  0.4571
  Ag  Ag18  1  0.036050  0.787340  0.715140  1.0  0.2842
  Ag  Ag19  1  0.419280  0.789740  0.124670  1.0  0.2588
  Ag  Ag20  1  0.232010  0.826340  0.925940  1.0  0.2972
  Ag  Ag21  1  0.487570  0.705650  0.277350  1.0  0.2838
  Ag  Ag22  1  0.440050  0.516700  0.266980  1.0  0.4097
  Ag  Ag23  1  0.476820  0.563580  0.560830  1.0  1.1373
  Ag  Ag24  1  0.474000  0.086800  0.935900  1.0  0.8616
  Ag  Ag25  1  0.340000  0.690700  0.018700  1.0  0.8464
  Ag  Ag26  1  0.571000  0.026700  0.940800  1.0  0.7931
  Ag  Ag27  1  0.300300  0.789430  0.557290  1.0  0.8351
  Ag  Ag28  1  0.096710  0.783670  0.370330  1.0  0.2902
  Ag  Ag29  1  0.990440  0.432020  0.066230  1.0  0.3876
  Ag  Ag30  1  0.054800  0.517480  0.229970  1.0  0.4576
  Ag  Ag31  1  0.036050  0.712660  0.215140  1.0  0.2846
  Ag  Ag32  1  0.419280  0.710260  0.624670  1.0  0.2583
  Ag  Ag33  1  0.232010  0.673660  0.425940  1.0  0.2971
  Ag  Ag34  1  0.487570  0.794350  0.777350  1.0  0.2843
  Ag  Ag35  1  0.440050  0.983300  0.766980  1.0  0.4078
  Ag  Ag36  1  0.476820  0.936420  0.060830  1.0  1.1369
  Ag  Ag37  1  0.474000  0.413200  0.435900  1.0  0.8612
  Ag  Ag38  1  0.340000  0.809300  0.518700  1.0  0.848
  Ag  Ag39  1  0.571000  0.473300  0.440800  1.0  0.7955
  Ag  Ag40  1  0.699700  0.289430  0.942710  1.0  0.836
  Ag  Ag41  1  0.903290  0.283670  0.129670  1.0  0.2882
  Ag  Ag42  1  0.009560  0.932020  0.433770  1.0  0.3902
  Ag  Ag43  1  0.945200  0.017480  0.270030  1.0  0.4575
  Ag  Ag44  1  0.963950  0.212660  0.284860  1.0  0.2849
  Ag  Ag45  1  0.580720  0.210260  0.875330  1.0  0.2629
  Ag  Ag46  1  0.767990  0.173660  0.074060  1.0  0.2955
  Ag  Ag47  1  0.512430  0.294350  0.722650  1.0  0.2847
  Ag  Ag48  1  0.559950  0.483300  0.733020  1.0  0.408
  Ag  Ag49  1  0.523180  0.436420  0.439170  1.0  1.1356
  Ag  Ag50  1  0.526000  0.913200  0.064100  1.0  0.8599
  Ag  Ag51  1  0.660000  0.309300  0.981300  1.0  0.8453
  Ag  Ag52  1  0.429000  0.973300  0.059200  1.0  0.7912
  H  H53  1  0.902800  0.244700  0.891900  1.0  0.0996
  H  H54  1  0.885100  0.139900  0.940200  1.0  0.0845
  H  H55  1  0.931200  0.109900  0.033100  1.0  0.0699
  H  H56  1  0.012900  0.286200  0.038900  1.0  0.0763
  H  H57  1  0.038400  0.206300  0.118000  1.0  0.1063
  H  H58  1  0.991600  0.159300  0.137000  1.0  0.1101
  H  H59  1  0.033700  0.129500  0.094700  1.0  0.1034
  H  H60  1  0.810100  0.449400  0.540200  1.0  0.0836
  H  H61  1  0.771700  0.550500  0.496700  1.0  0.0828
  H  H62  1  0.769400  0.649500  0.559700  1.0  0.0821
  H  H63  1  0.851300  0.547800  0.702000  1.0  0.0725
  H  H64  1  0.825100  0.659700  0.719700  1.0  0.0946
  H  H65  1  0.826700  0.707400  0.660600  1.0  0.0863
  H  H66  1  0.771300  0.684600  0.682100  1.0  0.1032
  H  H67  1  0.689500  0.401400  0.653800  1.0  0.1
  H  H68  1  0.696100  0.492800  0.725900  1.0  0.0759
  H  H69  1  0.673800  0.600200  0.693600  1.0  0.0652
  H  H70  1  0.624400  0.532300  0.521700  1.0  0.0846
  H  H71  1  0.638200  0.680300  0.621000  1.0  0.0991
  H  H72  1  0.653100  0.664500  0.553100  1.0  0.0867
  H  H73  1  0.594100  0.652600  0.569500  1.0  0.1421
  H  H74  1  0.791500  0.136900  0.337400  1.0  0.0953
  H  H75  1  0.790800  0.048900  0.263500  1.0  0.0767
  H  H76  1  0.826900  0.941700  0.292500  1.0  0.0787
  H  H77  1  0.864400  0.010400  0.469000  1.0  0.088
  H  H78  1  0.869500  0.865100  0.370700  1.0  0.1064
  H  H79  1  0.909300  0.902500  0.421500  1.0  0.1129
  H  H80  1  0.852300  0.879100  0.438000  1.0  0.1017
  H  H81  1  0.686600  0.076500  0.462500  1.0  0.0908
  H  H82  1  0.741600  0.987900  0.507100  1.0  0.0877
  H  H83  1  0.753000  0.889100  0.448700  1.0  0.0729
  H  H84  1  0.659400  0.967300  0.303900  1.0  0.0795
  H  H85  1  0.695800  0.856800  0.291600  1.0  0.1016
  H  H86  1  0.754300  0.851600  0.326000  1.0  0.1057
  H  H87  1  0.706800  0.812400  0.352900  1.0  0.0932
  H  H88  1  0.064600  0.221900  0.842600  1.0  0.0815
  H  H89  1  0.008000  0.028200  0.841700  1.0  0.0823
  H  H90  1  0.036500  0.018400  0.947300  1.0  0.0833
  H  H91  1  0.084800  0.105000  0.997200  1.0  0.0855
  H  H92  1  0.121900  0.219400  0.002400  1.0  0.1107
  H  H93  1  0.143000  0.241000  0.938700  1.0  0.0949
  H  H94  1  0.089600  0.273100  0.958300  1.0  0.1102
  H  H95  1  0.581400  0.249800  0.125600  1.0  0.0842
  H  H96  1  0.605700  0.357500  0.089900  1.0  0.0986
  H  H97  1  0.568000  0.395900  0.994200  1.0  0.0697
  H  H98  1  0.481200  0.220100  0.969000  1.0  0.0698
  H  H99  1  0.467800  0.309500  0.890300  1.0  0.1054
  H  H100  1  0.473900  0.384700  0.917300  1.0  0.1087
  H  H101  1  0.519800  0.352500  0.881900  1.0  0.1078
  H  H102  1  0.487700  0.460200  0.159700  1.0  0.1053
  H  H103  1  0.452600  0.471500  0.054700  1.0  0.0663
  H  H104  1  0.402400  0.390700  0.005400  1.0  0.0879
  H  H105  1  0.409700  0.278500  0.163500  1.0  0.0886
  H  H106  1  0.355900  0.237200  0.072400  1.0  0.1016
  H  H107  1  0.329400  0.295300  0.028400  1.0  0.0995
  H  H108  1  0.380300  0.256000  0.010000  1.0  0.0982
  H  H109  1  0.097200  0.744700  0.608100  1.0  0.0996
  H  H110  1  0.114900  0.639900  0.559800  1.0  0.0846
  H  H111  1  0.068800  0.609900  0.466900  1.0  0.0699
  H  H112  1  0.987100  0.786200  0.461100  1.0  0.0773
  H  H113  1  0.961600  0.706300  0.382000  1.0  0.1054
  H  H114  1  0.008400  0.659300  0.363000  1.0  0.1097
  H  H115  1  0.966300  0.629500  0.405300  1.0  0.1022
  H  H116  1  0.189900  0.949400  0.959800  1.0  0.0836
  H  H117  1  0.228300  0.050500  0.003300  1.0  0.0831
  H  H118  1  0.230600  0.149500  0.940300  1.0  0.0819
  H  H119  1  0.148700  0.047800  0.798000  1.0  0.0726
  H  H120  1  0.174900  0.159700  0.780300  1.0  0.0959
  H  H121  1  0.173300  0.207400  0.839400  1.0  0.0853
  H  H122  1  0.228700  0.184600  0.817900  1.0  0.1006
  H  H123  1  0.310500  0.901400  0.846200  1.0  0.0995
  H  H124  1  0.303900  0.992800  0.774100  1.0  0.0751
  H  H125  1  0.326200  0.100200  0.806400  1.0  0.0651
  H  H126  1  0.375600  0.032300  0.978300  1.0  0.0836
  H  H127  1  0.361800  0.180300  0.879000  1.0  0.0985
  H  H128  1  0.346900  0.164500  0.946900  1.0  0.0871
  H  H129  1  0.405900  0.152600  0.930500  1.0  0.1419
  H  H130  1  0.208500  0.636900  0.162600  1.0  0.0946
  H  H131  1  0.209200  0.548900  0.236500  1.0  0.0761
  H  H132  1  0.173100  0.441700  0.207500  1.0  0.079
  H  H133  1  0.135600  0.510400  0.031000  1.0  0.088
  H  H134  1  0.130500  0.365100  0.129300  1.0  0.1069
  H  H135  1  0.090700  0.402500  0.078500  1.0  0.1104
  H  H136  1  0.147700  0.379100  0.062000  1.0  0.1005
  H  H137  1  0.313400  0.576500  0.037500  1.0  0.0916
  H  H138  1  0.258400  0.487900  0.992900  1.0  0.087
  H  H139  1  0.247000  0.389100  0.051300  1.0  0.0725
  H  H140  1  0.340600  0.467300  0.196100  1.0  0.0801
  H  H141  1  0.304200  0.356800  0.208400  1.0  0.1012
  H  H142  1  0.245700  0.351600  0.174000  1.0  0.1046
  H  H143  1  0.293200  0.312400  0.147100  1.0  0.0916
  H  H144  1  0.935400  0.721900  0.657400  1.0  0.0816
  H  H145  1  0.992000  0.528200  0.658300  1.0  0.0827
  H  H146  1  0.963500  0.518400  0.552700  1.0  0.0831
  H  H147  1  0.915200  0.605000  0.502800  1.0  0.0865
  H  H148  1  0.878100  0.719400  0.497600  1.0  0.1102
  H  H149  1  0.857000  0.741000  0.561300  1.0  0.0953
  H  H150  1  0.910400  0.773100  0.541700  1.0  0.1085
  H  H151  1  0.418600  0.749800  0.374400  1.0  0.0843
  H  H152  1  0.394300  0.857500  0.410100  1.0  0.0987
  H  H153  1  0.432000  0.895900  0.505800  1.0  0.0697
  H  H154  1  0.518800  0.720100  0.531000  1.0  0.0703
  H  H155  1  0.532200  0.809500  0.609700  1.0  0.106
  H  H156  1  0.526100  0.884700  0.582700  1.0  0.1083
  H  H157  1  0.480200  0.852500  0.618100  1.0  0.1086
  H  H158  1  0.512300  0.960200  0.340300  1.0  0.1053
  H  H159  1  0.547400  0.971500  0.445300  1.0  0.0665
  H  H160  1  0.597600  0.890700  0.494600  1.0  0.0856
  H  H161  1  0.590300  0.778500  0.336500  1.0  0.088
  H  H162  1  0.644100  0.737200  0.427600  1.0  0.1012
  H  H163  1  0.670600  0.795300  0.471600  1.0  0.101
  H  H164  1  0.619700  0.756000  0.490000  1.0  0.0989
  H  H165  1  0.097200  0.755300  0.108100  1.0  0.0997
  H  H166  1  0.114900  0.860100  0.059800  1.0  0.0846
  H  H167  1  0.068800  0.890100  0.966900  1.0  0.07
  H  H168  1  0.987100  0.713800  0.961100  1.0  0.0767
  H  H169  1  0.961600  0.793700  0.882000  1.0  0.1049
  H  H170  1  0.008400  0.840700  0.863000  1.0  0.1098
  H  H171  1  0.966300  0.870500  0.905300  1.0  0.103
  H  H172  1  0.189900  0.550600  0.459800  1.0  0.0833
  H  H173  1  0.228300  0.449500  0.503300  1.0  0.0832
  H  H174  1  0.230600  0.350500  0.440300  1.0  0.0822
  H  H175  1  0.148700  0.452200  0.298000  1.0  0.0727
  H  H176  1  0.174900  0.340300  0.280300  1.0  0.0961
  H  H177  1  0.173300  0.292600  0.339400  1.0  0.0858
  H  H178  1  0.228700  0.315400  0.317900  1.0  0.0998
  H  H179  1  0.310500  0.598600  0.346200  1.0  0.0995
  H  H180  1  0.303900  0.507200  0.274100  1.0  0.0753
  H  H181  1  0.326200  0.399800  0.306400  1.0  0.065
  H  H182  1  0.375600  0.467700  0.478300  1.0  0.0837
  H  H183  1  0.361800  0.319700  0.379000  1.0  0.0979
  H  H184  1  0.346900  0.335500  0.446900  1.0  0.087
  H  H185  1  0.405900  0.347400  0.430500  1.0  0.1426
  H  H186  1  0.208500  0.863100  0.662600  1.0  0.0952
  H  H187  1  0.209200  0.951100  0.736500  1.0  0.0759
  H  H188  1  0.173100  0.058300  0.707500  1.0  0.079
  H  H189  1  0.135600  0.989600  0.531000  1.0  0.088
  H  H190  1  0.130500  0.134900  0.629300  1.0  0.1063
  H  H191  1  0.090700  0.097500  0.578500  1.0  0.1108
  H  H192  1  0.147700  0.120900  0.562000  1.0  0.101
  H  H193  1  0.313400  0.923500  0.537500  1.0  0.0918
  H  H194  1  0.258400  0.012100  0.492900  1.0  0.0869
  H  H195  1  0.247000  0.110900  0.551300  1.0  0.0726
  H  H196  1  0.340600  0.032700  0.696100  1.0  0.0803
  H  H197  1  0.304200  0.143200  0.708400  1.0  0.1006
  H  H198  1  0.245700  0.148400  0.674000  1.0  0.1044
  H  H199  1  0.293200  0.187600  0.647100  1.0  0.0929
  H  H200  1  0.935400  0.778100  0.157400  1.0  0.0818
  H  H201  1  0.992000  0.971800  0.158300  1.0  0.0828
  H  H202  1  0.963500  0.981600  0.052700  1.0  0.0833
  H  H203  1  0.915200  0.895000  0.002800  1.0  0.0869
  H  H204  1  0.878100  0.780600  0.997600  1.0  0.11
  H  H205  1  0.857000  0.759000  0.061300  1.0  0.096
  H  H206  1  0.910400  0.726900  0.041700  1.0  0.1091
  H  H207  1  0.418600  0.750200  0.874400  1.0  0.0839
  H  H208  1  0.394300  0.642500  0.910100  1.0  0.0978
  H  H209  1  0.432000  0.604100  0.005800  1.0  0.0703
  H  H210  1  0.518800  0.779900  0.031000  1.0  0.0701
  H  H211  1  0.532200  0.690500  0.109700  1.0  0.1059
  H  H212  1  0.526100  0.615300  0.082700  1.0  0.11
  H  H213  1  0.480200  0.647500  0.118100  1.0  0.1085
  H  H214  1  0.512300  0.539800  0.840300  1.0  0.1046
  H  H215  1  0.547400  0.528500  0.945300  1.0  0.0665
  H  H216  1  0.597600  0.609300  0.994600  1.0  0.0857
  H  H217  1  0.590300  0.721500  0.836500  1.0  0.0874
  H  H218  1  0.644100  0.762800  0.927600  1.0  0.1019
  H  H219  1  0.670600  0.704700  0.971600  1.0  0.1007
  H  H220  1  0.619700  0.744000  0.990000  1.0  0.0987
  H  H221  1  0.902800  0.255300  0.391900  1.0  0.0997
  H  H222  1  0.885100  0.360100  0.440200  1.0  0.0856
  H  H223  1  0.931200  0.390100  0.533100  1.0  0.0699
  H  H224  1  0.012900  0.213800  0.538900  1.0  0.0765
  H  H225  1  0.038400  0.293700  0.618000  1.0  0.1064
  H  H226  1  0.991600  0.340700  0.637000  1.0  0.1102
  H  H227  1  0.033700  0.370500  0.594700  1.0  0.1029
  H  H228  1  0.810100  0.050600  0.040200  1.0  0.0839
  H  H229  1  0.771700  0.949500  0.996700  1.0  0.0829
  H  H230  1  0.769400  0.850500  0.059700  1.0  0.082
  H  H231  1  0.851300  0.952200  0.202000  1.0  0.0725
  H  H232  1  0.825100  0.840300  0.219700  1.0  0.0937
  H  H233  1  0.826700  0.792600  0.160600  1.0  0.0863
  H  H234  1  0.771300  0.815400  0.182100  1.0  0.1036
  H  H235  1  0.689500  0.098600  0.153800  1.0  0.0993
  H  H236  1  0.696100  0.007200  0.225900  1.0  0.0761
  H  H237  1  0.673800  0.899800  0.193600  1.0  0.0654
  H  H238  1  0.624400  0.967700  0.021700  1.0  0.0844
  H  H239  1  0.638200  0.819700  0.121000  1.0  0.0989
  H  H240  1  0.653100  0.835500  0.053100  1.0  0.0867
  H  H241  1  0.594100  0.847400  0.069500  1.0  0.1418
  H  H242  1  0.791500  0.363100  0.837400  1.0  0.0944
  H  H243  1  0.790800  0.451100  0.763500  1.0  0.076
  H  H244  1  0.826900  0.558300  0.792500  1.0  0.0792
  H  H245  1  0.864400  0.489600  0.969000  1.0  0.0879
  H  H246  1  0.869500  0.634900  0.870700  1.0  0.1062
  H  H247  1  0.909300  0.597500  0.921500  1.0  0.1123
  H  H248  1  0.852300  0.620900  0.938000  1.0  0.1014
  H  H249  1  0.686600  0.423500  0.962500  1.0  0.0917
  H  H250  1  0.741600  0.512100  0.007100  1.0  0.088
  H  H251  1  0.753000  0.610900  0.948700  1.0  0.0722
  H  H252  1  0.659400  0.532700  0.803900  1.0  0.0793
  H  H253  1  0.695800  0.643200  0.791600  1.0  0.1006
  H  H254  1  0.754300  0.648400  0.826000  1.0  0.1058
  H  H255  1  0.706800  0.687600  0.852900  1.0  0.0923
  H  H256  1  0.064600  0.278100  0.342600  1.0  0.081
  H  H257  1  0.008000  0.471800  0.341700  1.0  0.0834
  H  H258  1  0.036500  0.481600  0.447300  1.0  0.0829
  H  H259  1  0.084800  0.395000  0.497200  1.0  0.0855
  H  H260  1  0.121900  0.280600  0.502400  1.0  0.1106
  H  H261  1  0.143000  0.259000  0.438700  1.0  0.0948
  H  H262  1  0.089600  0.226900  0.458300  1.0  0.1097
  H  H263  1  0.581400  0.250200  0.625600  1.0  0.0842
  H  H264  1  0.605700  0.142500  0.589900  1.0  0.0986
  H  H265  1  0.568000  0.104100  0.494200  1.0  0.0705
  H  H266  1  0.481200  0.279900  0.469000  1.0  0.0702
  H  H267  1  0.467800  0.190500  0.390300  1.0  0.1055
  H  H268  1  0.473900  0.115300  0.417300  1.0  0.109
  H  H269  1  0.519800  0.147500  0.381900  1.0  0.1082
  H  H270  1  0.487700  0.039800  0.659700  1.0  0.1054
  H  H271  1  0.452600  0.028500  0.554700  1.0  0.066
  H  H272  1  0.402400  0.109300  0.505400  1.0  0.0874
  H  H273  1  0.409700  0.221500  0.663500  1.0  0.0876
  H  H274  1  0.355900  0.262800  0.572400  1.0  0.1015
  H  H275  1  0.329400  0.204700  0.528400  1.0  0.1002
  H  H276  1  0.380300  0.244000  0.510000  1.0  0.0982
  C  C277  1  0.960800  0.276600  0.961300  1.0  -0.1189
  C  C278  1  0.921300  0.232400  0.930300  1.0  -0.1409
  C  C279  1  0.911200  0.169600  0.959200  1.0  -0.1603
  C  C280  1  0.939000  0.151800  0.014800  1.0  -0.1446
  C  C281  1  0.978100  0.193100  0.045200  1.0  0.0445
  C  C282  1  0.987700  0.256500  0.018200  1.0  -0.1175
  C  C283  1  0.013800  0.169900  0.104300  1.0  -0.4025
  C  C284  1  0.970600  0.343600  0.932400  1.0  0.3187
  C  C285  1  0.833900  0.489100  0.626200  1.0  -0.1129
  C  C286  1  0.810200  0.489400  0.564300  1.0  -0.1227
  C  C287  1  0.786500  0.549600  0.538500  1.0  -0.1273
  C  C288  1  0.785400  0.609300  0.576500  1.0  -0.1286
  C  C289  1  0.807800  0.608300  0.637700  1.0  0.0304
  C  C290  1  0.833800  0.547800  0.661400  1.0  -0.158
  C  C291  1  0.807700  0.670500  0.678700  1.0  -0.4293
  C  C292  1  0.857800  0.424500  0.652400  1.0  0.2997
  C  C293  1  0.656500  0.457700  0.579700  1.0  -0.1098
  C  C294  1  0.678200  0.445500  0.641200  1.0  -0.1164
  C  C295  1  0.682900  0.500600  0.684200  1.0  -0.1643
  C  C296  1  0.668400  0.563900  0.665100  1.0  -0.1387
  C  C297  1  0.645500  0.578000  0.604400  1.0  0.0471
  C  C298  1  0.639800  0.524100  0.562600  1.0  -0.1386
  C  C299  1  0.631500  0.650300  0.585300  1.0  -0.424
  C  C300  1  0.651800  0.400300  0.534800  1.0  0.2409
  C  C301  1  0.828000  0.082400  0.410500  1.0  -0.1436
  C  C302  1  0.806000  0.093900  0.348900  1.0  -0.1085
  C  C303  1  0.805600  0.041200  0.304700  1.0  -0.1367
  C  C304  1  0.827200  0.977000  0.322000  1.0  -0.1444
  C  C305  1  0.849300  0.965500  0.383600  1.0  0.053
  C  C306  1  0.849700  0.018200  0.427800  1.0  -0.0994
  C  C307  1  0.872200  0.896900  0.405400  1.0  -0.4431
  C  C308  1  0.821500  0.145800  0.455600  1.0  0.2711
  C  C309  1  0.667700  0.031200  0.378300  1.0  -0.1313
  C  C310  1  0.692000  0.037000  0.439300  1.0  -0.1521
  C  C311  1  0.724600  0.983700  0.466400  1.0  -0.1392
  C  C312  1  0.731100  0.924400  0.431100  1.0  -0.1419
  C  C313  1  0.706000  0.916400  0.371200  1.0  0.0043
  C  C314  1  0.675300  0.971100  0.345000  1.0  -0.1292
  C  C315  1  0.716700  0.853500  0.331800  1.0  -0.4126
  C  C316  1  0.638100  0.091000  0.349800  1.0  0.2993
  C  C317  1  0.060000  0.180400  0.863400  1.0  -0.1296
  C  C318  1  0.025600  0.065100  0.862900  1.0  -0.0883
  C  C319  1  0.043400  0.058600  0.925600  1.0  -0.169
  C  C320  1  0.070900  0.111100  0.955500  1.0  -0.1667
  C  C321  1  0.079500  0.173900  0.926300  1.0  0.0412
  C  C322  1  0.033400  0.125900  0.830700  1.0  -0.0807
  C  C323  1  0.111400  0.232200  0.959400  1.0  -0.4222
  C  C324  1  0.014000  0.134600  0.763700  1.0  0.3302
  C  C325  1  0.528500  0.226400  0.050800  1.0  -0.1078
  C  C326  1  0.566000  0.266200  0.086900  1.0  -0.0745
  C  C327  1  0.580700  0.330400  0.065800  1.0  -0.2225
  C  C328  1  0.557600  0.353100  0.008500  1.0  -0.1241
  C  C329  1  0.519100  0.314800  0.970300  1.0  0.0669
  C  C330  1  0.505500  0.248300  0.993100  1.0  -0.0931
  C  C331  1  0.492800  0.342900  0.909500  1.0  -0.4232
  C  C332  1  0.515500  0.155600  0.074500  1.0  0.2991
  C  C333  1  0.450100  0.368700  0.174200  1.0  -0.0641
  C  C334  1  0.464900  0.426600  0.140600  1.0  -0.2073
  C  C335  1  0.444200  0.432300  0.076900  1.0  -0.1286
  C  C336  1  0.414000  0.385200  0.047900  1.0  -0.1539
  C  C337  1  0.398500  0.326800  0.079100  1.0  0.0621
  C  C338  1  0.418200  0.318400  0.142400  1.0  -0.1616
  C  C339  1  0.469200  0.358900  0.240100  1.0  0.315
  C  C340  1  0.362800  0.274100  0.044300  1.0  -0.4402
  C  C341  1  0.039200  0.776600  0.538700  1.0  -0.1188
  C  C342  1  0.078700  0.732400  0.569700  1.0  -0.1415
  C  C343  1  0.088800  0.669600  0.540800  1.0  -0.1584
  C  C344  1  0.061000  0.651800  0.485200  1.0  -0.1443
  C  C345  1  0.021900  0.693100  0.454800  1.0  0.0443
  C  C346  1  0.012300  0.756500  0.481800  1.0  -0.1172
  C  C347  1  0.986200  0.669900  0.395700  1.0  -0.4014
  C  C348  1  0.029400  0.843600  0.567600  1.0  0.3185
  C  C349  1  0.166100  0.989100  0.873800  1.0  -0.1134
  C  C350  1  0.189800  0.989400  0.935700  1.0  -0.1256
  C  C351  1  0.213500  0.049600  0.961500  1.0  -0.1247
  C  C352  1  0.214600  0.109300  0.923500  1.0  -0.1295
  C  C353  1  0.192200  0.108300  0.862300  1.0  0.0306
  C  C354  1  0.166200  0.047800  0.838600  1.0  -0.1594
  C  C355  1  0.192300  0.170500  0.821300  1.0  -0.4279
  C  C356  1  0.142200  0.924500  0.847600  1.0  0.2996
  C  C357  1  0.343500  0.957700  0.920300  1.0  -0.1086
  C  C358  1  0.321800  0.945500  0.858800  1.0  -0.1158
  C  C359  1  0.317100  0.000600  0.815800  1.0  -0.1677
  C  C360  1  0.331600  0.063900  0.834900  1.0  -0.1382
  C  C361  1  0.354500  0.078000  0.895600  1.0  0.0475
  C  C362  1  0.360200  0.024100  0.937400  1.0  -0.1381
  C  C363  1  0.368500  0.150300  0.914700  1.0  -0.4241
  C  C364  1  0.348200  0.900300  0.965200  1.0  0.2396
  C  C365  1  0.172000  0.582400  0.089500  1.0  -0.1437
  C  C366  1  0.194000  0.593900  0.151100  1.0  -0.108
  C  C367  1  0.194400  0.541200  0.195300  1.0  -0.1343
  C  C368  1  0.172800  0.477000  0.178000  1.0  -0.1443
  C  C369  1  0.150700  0.465500  0.116400  1.0  0.0522
  C  C370  1  0.150300  0.518200  0.072200  1.0  -0.1005
  C  C371  1  0.127800  0.396900  0.094600  1.0  -0.4412
  C  C372  1  0.178500  0.645800  0.044400  1.0  0.2696
  C  C373  1  0.332300  0.531200  0.121700  1.0  -0.1317
  C  C374  1  0.308000  0.537000  0.060700  1.0  -0.1502
  C  C375  1  0.275400  0.483700  0.033600  1.0  -0.1411
  C  C376  1  0.268900  0.424400  0.068900  1.0  -0.1421
  C  C377  1  0.294000  0.416400  0.128800  1.0  0.003
  C  C378  1  0.324700  0.471100  0.155000  1.0  -0.1309
  C  C379  1  0.283300  0.353500  0.168200  1.0  -0.4122
  C  C380  1  0.361900  0.591000  0.150200  1.0  0.299
  C  C381  1  0.940000  0.680400  0.636600  1.0  -0.1279
  C  C382  1  0.974400  0.565100  0.637100  1.0  -0.0871
  C  C383  1  0.956600  0.558600  0.574400  1.0  -0.1692
  C  C384  1  0.929100  0.611100  0.544500  1.0  -0.1669
  C  C385  1  0.920500  0.673900  0.573700  1.0  0.0417
  C  C386  1  0.966600  0.625900  0.669300  1.0  -0.0799
  C  C387  1  0.888600  0.732200  0.540600  1.0  -0.4197
  C  C388  1  0.986000  0.634600  0.736300  1.0  0.3287
  C  C389  1  0.471500  0.726400  0.449200  1.0  -0.1087
  C  C390  1  0.434000  0.766200  0.413100  1.0  -0.0722
  C  C391  1  0.419300  0.830400  0.434200  1.0  -0.221
  C  C392  1  0.442400  0.853100  0.491500  1.0  -0.124
  C  C393  1  0.480900  0.814800  0.529700  1.0  0.0666
  C  C394  1  0.494500  0.748300  0.506900  1.0  -0.0919
  C  C395  1  0.507200  0.842900  0.590500  1.0  -0.4249
  C  C396  1  0.484500  0.655600  0.425500  1.0  0.2988
  C  C397  1  0.549900  0.868700  0.325800  1.0  -0.0655
  C  C398  1  0.535100  0.926600  0.359400  1.0  -0.2092
  C  C399  1  0.555800  0.932300  0.423100  1.0  -0.1276
  C  C400  1  0.586000  0.885200  0.452100  1.0  -0.1521
  C  C401  1  0.601500  0.826800  0.420900  1.0  0.0615
  C  C402  1  0.581800  0.818400  0.357600  1.0  -0.1616
  C  C403  1  0.530800  0.858900  0.259900  1.0  0.3154
  C  C404  1  0.637200  0.774100  0.455700  1.0  -0.4405
  C  C405  1  0.039200  0.723400  0.038700  1.0  -0.1189
  C  C406  1  0.078700  0.767600  0.069700  1.0  -0.1411
  C  C407  1  0.088800  0.830400  0.040800  1.0  -0.1578
  C  C408  1  0.061000  0.848200  0.985200  1.0  -0.1453
  C  C409  1  0.021900  0.806900  0.954800  1.0  0.0441
  C  C410  1  0.012300  0.743500  0.981800  1.0  -0.1158
  C  C411  1  0.986200  0.830100  0.895700  1.0  -0.401
  C  C412  1  0.029400  0.656400  0.067600  1.0  0.3183
  C  C413  1  0.166100  0.510900  0.373800  1.0  -0.1136
  C  C414  1  0.189800  0.510600  0.435700  1.0  -0.1255
  C  C415  1  0.213500  0.450400  0.461500  1.0  -0.1243
  C  C416  1  0.214600  0.390700  0.423500  1.0  -0.1296
  C  C417  1  0.192200  0.391700  0.362300  1.0  0.0303
  C  C418  1  0.166200  0.452200  0.338600  1.0  -0.1588
  C  C419  1  0.192300  0.329500  0.321300  1.0  -0.4295
  C  C420  1  0.142200  0.575500  0.347600  1.0  0.3006
  C  C421  1  0.343500  0.542300  0.420300  1.0  -0.1084
  C  C422  1  0.321800  0.554500  0.358800  1.0  -0.1177
  C  C423  1  0.317100  0.499400  0.315800  1.0  -0.1679
  C  C424  1  0.331600  0.436100  0.334900  1.0  -0.1384
  C  C425  1  0.354500  0.422000  0.395600  1.0  0.0477
  C  C426  1  0.360200  0.475900  0.437400  1.0  -0.1383
  C  C427  1  0.368500  0.349700  0.414700  1.0  -0.4248
  C  C428  1  0.348200  0.599700  0.465200  1.0  0.2394
  C  C429  1  0.172000  0.917600  0.589500  1.0  -0.1437
  C  C430  1  0.194000  0.906100  0.651100  1.0  -0.1077
  C  C431  1  0.194400  0.958800  0.695300  1.0  -0.1354
  C  C432  1  0.172800  0.023000  0.678000  1.0  -0.1444
  C  C433  1  0.150700  0.034500  0.616400  1.0  0.0522
  C  C434  1  0.150300  0.981800  0.572200  1.0  -0.1011
  C  C435  1  0.127800  0.103100  0.594600  1.0  -0.4399
  C  C436  1  0.178500  0.854200  0.544400  1.0  0.2706
  C  C437  1  0.332300  0.968800  0.621700  1.0  -0.1321
  C  C438  1  0.308000  0.963000  0.560700  1.0  -0.1501
  C  C439  1  0.275400  0.016300  0.533600  1.0  -0.1414
  C  C440  1  0.268900  0.075600  0.568900  1.0  -0.1422
  C  C441  1  0.294000  0.083600  0.628800  1.0  0.0024
  C  C442  1  0.324700  0.028900  0.655000  1.0  -0.1306
  C  C443  1  0.283300  0.146500  0.668200  1.0  -0.4123
  C  C444  1  0.361900  0.909000  0.650200  1.0  0.2983
  C  C445  1  0.940000  0.819600  0.136600  1.0  -0.1281
  C  C446  1  0.974400  0.934900  0.137100  1.0  -0.0879
  C  C447  1  0.956600  0.941400  0.074400  1.0  -0.1686
  C  C448  1  0.929100  0.888900  0.044500  1.0  -0.1678
  C  C449  1  0.920500  0.826100  0.073700  1.0  0.0418
  C  C450  1  0.966600  0.874100  0.169300  1.0  -0.0798
  C  C451  1  0.888600  0.767800  0.040600  1.0  -0.4195
  C  C452  1  0.986000  0.865400  0.236300  1.0  0.3285
  C  C453  1  0.471500  0.773600  0.949200  1.0  -0.1086
  C  C454  1  0.434000  0.733800  0.913100  1.0  -0.0727
  C  C455  1  0.419300  0.669600  0.934200  1.0  -0.2224
  C  C456  1  0.442400  0.646900  0.991500  1.0  -0.1249
  C  C457  1  0.480900  0.685200  0.029700  1.0  0.0665
  C  C458  1  0.494500  0.751700  0.006900  1.0  -0.092
  C  C459  1  0.507200  0.657100  0.090500  1.0  -0.4247
  C  C460  1  0.484500  0.844400  0.925500  1.0  0.2979
  C  C461  1  0.549900  0.631300  0.825800  1.0  -0.0653
  C  C462  1  0.535100  0.573400  0.859400  1.0  -0.2082
  C  C463  1  0.555800  0.567700  0.923100  1.0  -0.1275
  C  C464  1  0.586000  0.614800  0.952100  1.0  -0.1526
  C  C465  1  0.601500  0.673200  0.920900  1.0  0.0622
  C  C466  1  0.581800  0.681600  0.857600  1.0  -0.162
  C  C467  1  0.530800  0.641100  0.759900  1.0  0.3154
  C  C468  1  0.637200  0.725900  0.955700  1.0  -0.4402
  C  C469  1  0.960800  0.223400  0.461300  1.0  -0.1197
  C  C470  1  0.921300  0.267600  0.430300  1.0  -0.1407
  C  C471  1  0.911200  0.330400  0.459200  1.0  -0.16
  C  C472  1  0.939000  0.348200  0.514800  1.0  -0.1451
  C  C473  1  0.978100  0.306900  0.545200  1.0  0.0448
  C  C474  1  0.987700  0.243500  0.518200  1.0  -0.1161
  C  C475  1  0.013800  0.330100  0.604300  1.0  -0.4026
  C  C476  1  0.970600  0.156400  0.432400  1.0  0.318
  C  C477  1  0.833900  0.010900  0.126200  1.0  -0.1133
  C  C478  1  0.810200  0.010600  0.064300  1.0  -0.1229
  C  C479  1  0.786500  0.950400  0.038500  1.0  -0.127
  C  C480  1  0.785400  0.890700  0.076500  1.0  -0.1279
  C  C481  1  0.807800  0.891700  0.137700  1.0  0.0304
  C  C482  1  0.833800  0.952200  0.161400  1.0  -0.1576
  C  C483  1  0.807700  0.829500  0.178700  1.0  -0.4292
  C  C484  1  0.857800  0.075500  0.152400  1.0  0.3005
  C  C485  1  0.656500  0.042300  0.079700  1.0  -0.1096
  C  C486  1  0.678200  0.054500  0.141200  1.0  -0.1166
  C  C487  1  0.682900  0.999400  0.184200  1.0  -0.165
  C  C488  1  0.668400  0.936100  0.165100  1.0  -0.1384
  C  C489  1  0.645500  0.922000  0.104400  1.0  0.0477
  C  C490  1  0.639800  0.975900  0.062600  1.0  -0.1391
  C  C491  1  0.631500  0.849700  0.085300  1.0  -0.4245
  C  C492  1  0.651800  0.099700  0.034800  1.0  0.2409
  C  C493  1  0.828000  0.417600  0.910500  1.0  -0.1435
  C  C494  1  0.806000  0.406100  0.848900  1.0  -0.1067
  C  C495  1  0.805600  0.458800  0.804700  1.0  -0.1382
  C  C496  1  0.827200  0.523000  0.822000  1.0  -0.1449
  C  C497  1  0.849300  0.534500  0.883600  1.0  0.0529
  C  C498  1  0.849700  0.481800  0.927800  1.0  -0.0995
  C  C499  1  0.872200  0.603100  0.905400  1.0  -0.4419
  C  C500  1  0.821500  0.354200  0.955600  1.0  0.2718
  C  C501  1  0.667700  0.468800  0.878300  1.0  -0.1321
  C  C502  1  0.692000  0.463000  0.939300  1.0  -0.152
  C  C503  1  0.724600  0.516300  0.966400  1.0  -0.1393
  C  C504  1  0.731100  0.575600  0.931100  1.0  -0.1416
  C  C505  1  0.706000  0.583600  0.871200  1.0  0.0039
  C  C506  1  0.675300  0.528900  0.845000  1.0  -0.1289
  C  C507  1  0.716700  0.646500  0.831800  1.0  -0.412
  C  C508  1  0.638100  0.409000  0.849800  1.0  0.2983
  C  C509  1  0.060000  0.319600  0.363400  1.0  -0.1297
  C  C510  1  0.025600  0.434900  0.362900  1.0  -0.0881
  C  C511  1  0.043400  0.441400  0.425600  1.0  -0.1681
  C  C512  1  0.070900  0.388900  0.455500  1.0  -0.1663
  C  C513  1  0.079500  0.326100  0.426300  1.0  0.041
  C  C514  1  0.033400  0.374100  0.330700  1.0  -0.0808
  C  C515  1  0.111400  0.267800  0.459400  1.0  -0.4215
  C  C516  1  0.014000  0.365400  0.263700  1.0  0.3302
  C  C517  1  0.528500  0.273600  0.550800  1.0  -0.1084
  C  C518  1  0.566000  0.233800  0.586900  1.0  -0.0747
  C  C519  1  0.580700  0.169600  0.565800  1.0  -0.2242
  C  C520  1  0.557600  0.146900  0.508500  1.0  -0.1249
  C  C521  1  0.519100  0.185200  0.470300  1.0  0.0666
  C  C522  1  0.505500  0.251700  0.493100  1.0  -0.0934
  C  C523  1  0.492800  0.157100  0.409500  1.0  -0.4239
  C  C524  1  0.515500  0.344400  0.574500  1.0  0.2988
  C  C525  1  0.450100  0.131300  0.674200  1.0  -0.0642
  C  C526  1  0.464900  0.073400  0.640600  1.0  -0.2066
  C  C527  1  0.444200  0.067700  0.576900  1.0  -0.1282
  C  C528  1  0.414000  0.114800  0.547900  1.0  -0.1533
  C  C529  1  0.398500  0.173200  0.579100  1.0  0.0622
  C  C530  1  0.418200  0.181600  0.642400  1.0  -0.1617
  C  C531  1  0.469200  0.141100  0.740100  1.0  0.3148
  C  C532  1  0.362800  0.225900  0.544300  1.0  -0.4394
  N  N533  1  0.980900  0.402800  0.964900  1.0  -0.3478
  N  N534  1  0.982400  0.451800  0.919600  1.0  -0.0292
  N  N535  1  0.974300  0.423600  0.863700  1.0  -0.1453
  N  N536  1  0.966200  0.354200  0.871200  1.0  -0.2895
  N  N537  1  0.841100  0.360800  0.632300  1.0  -0.3204
  N  N538  1  0.873000  0.316500  0.667600  1.0  -0.1455
  N  N539  1  0.905100  0.348900  0.707200  1.0  -0.0833
  N  N540  1  0.897000  0.419400  0.699300  1.0  -0.3261
  N  N541  1  0.623200  0.334800  0.457600  1.0  -0.1069
  N  N542  1  0.664700  0.304200  0.489900  1.0  -0.0112
  N  N543  1  0.682900  0.342900  0.537500  1.0  -0.2484
  N  N544  1  0.788800  0.194700  0.465800  1.0  -0.2668
  N  N545  1  0.809200  0.224700  0.521300  1.0  -0.0916
  N  N546  1  0.852900  0.194400  0.542000  1.0  -0.0866
  N  N547  1  0.862500  0.143000  0.502800  1.0  -0.3243
  N  N548  1  0.997600  0.114900  0.665100  1.0  -0.1083
  N  N549  1  0.019200  0.085800  0.719700  1.0  -0.3357
  N  N550  1  0.990400  0.189400  0.738700  1.0  -0.2255
  N  N551  1  0.980300  0.176500  0.677200  1.0  -0.0233
  N  N552  1  0.644000  0.153900  0.373500  1.0  -0.3
  N  N553  1  0.612900  0.194600  0.333400  1.0  -0.1505
  N  N554  1  0.603600  0.090700  0.298000  1.0  -0.2785
  N  N555  1  0.587800  0.156100  0.289400  1.0  -0.0865
  N  N556  1  0.502100  0.100400  0.039400  1.0  -0.3151
  N  N557  1  0.505900  0.073300  0.138600  1.0  -0.1384
  N  N558  1  0.517300  0.141400  0.135900  1.0  -0.3446
  N  N559  1  0.500500  0.317700  0.328400  1.0  -0.0913
  N  N560  1  0.488400  0.382200  0.338100  1.0  -0.1015
  N  N561  1  0.467600  0.410400  0.283000  1.0  -0.3061
  N  N562  1  0.487400  0.302300  0.267100  1.0  -0.237
  N  N563  1  0.614200  0.395700  0.484100  1.0  -0.2807
  N  N564  1  0.497200  0.049200  0.081500  1.0  -0.1629
  N  N565  1  0.019100  0.902800  0.535100  1.0  -0.3481
  N  N566  1  0.017600  0.951800  0.580400  1.0  -0.0279
  N  N567  1  0.025700  0.923600  0.636300  1.0  -0.1459
  N  N568  1  0.033800  0.854200  0.628800  1.0  -0.2889
  N  N569  1  0.158900  0.860800  0.867700  1.0  -0.3198
  N  N570  1  0.127000  0.816500  0.832400  1.0  -0.1472
  N  N571  1  0.094900  0.848900  0.792800  1.0  -0.0841
  N  N572  1  0.103000  0.919400  0.800700  1.0  -0.3254
  N  N573  1  0.376800  0.834800  0.042400  1.0  -0.1051
  N  N574  1  0.335300  0.804200  0.010100  1.0  -0.0093
  N  N575  1  0.317100  0.842900  0.962500  1.0  -0.2472
  N  N576  1  0.211200  0.694700  0.034200  1.0  -0.2669
  N  N577  1  0.190800  0.724700  0.978700  1.0  -0.0908
  N  N578  1  0.147100  0.694400  0.958000  1.0  -0.0901
  N  N579  1  0.137500  0.643000  0.997200  1.0  -0.3247
  N  N580  1  0.002400  0.614900  0.834900  1.0  -0.1091
  N  N581  1  0.980800  0.585800  0.780300  1.0  -0.3385
  N  N582  1  0.009600  0.689400  0.761300  1.0  -0.2258
  N  N583  1  0.019700  0.676500  0.822800  1.0  -0.0232
  N  N584  1  0.356000  0.653900  0.126500  1.0  -0.3009
  N  N585  1  0.387100  0.694600  0.166600  1.0  -0.1508
  N  N586  1  0.396400  0.590700  0.202000  1.0  -0.2766
  N  N587  1  0.412200  0.656100  0.210600  1.0  -0.0857
  N  N588  1  0.497900  0.600400  0.460600  1.0  -0.3136
  N  N589  1  0.494100  0.573300  0.361400  1.0  -0.1407
  N  N590  1  0.482700  0.641400  0.364100  1.0  -0.3412
  N  N591  1  0.499500  0.817700  0.171600  1.0  -0.0926
  N  N592  1  0.511600  0.882200  0.161900  1.0  -0.0984
  N  N593  1  0.532400  0.910400  0.217000  1.0  -0.3072
  N  N594  1  0.512600  0.802300  0.232900  1.0  -0.2374
  N  N595  1  0.385800  0.895700  0.015900  1.0  -0.2807
  N  N596  1  0.502800  0.549200  0.418500  1.0  -0.1619
  N  N597  1  0.019100  0.597200  0.035100  1.0  -0.3476
  N  N598  1  0.017600  0.548200  0.080400  1.0  -0.0264
  N  N599  1  0.025700  0.576400  0.136300  1.0  -0.1456
  N  N600  1  0.033800  0.645800  0.128800  1.0  -0.2901
  N  N601  1  0.158900  0.639200  0.367700  1.0  -0.3215
  N  N602  1  0.127000  0.683500  0.332400  1.0  -0.1473
  N  N603  1  0.094900  0.651100  0.292800  1.0  -0.0823
  N  N604  1  0.103000  0.580600  0.300700  1.0  -0.3263
  N  N605  1  0.376800  0.665200  0.542400  1.0  -0.1072
  N  N606  1  0.335300  0.695800  0.510100  1.0  -0.009
  N  N607  1  0.317100  0.657100  0.462500  1.0  -0.2474
  N  N608  1  0.211200  0.805300  0.534200  1.0  -0.2666
  N  N609  1  0.190800  0.775300  0.478700  1.0  -0.089
  N  N610  1  0.147100  0.805600  0.458000  1.0  -0.0905
  N  N611  1  0.137500  0.857000  0.497200  1.0  -0.3235
  N  N612  1  0.002400  0.885100  0.334900  1.0  -0.1105
  N  N613  1  0.980800  0.914200  0.280300  1.0  -0.3362
  N  N614  1  0.009600  0.810600  0.261300  1.0  -0.2267
  N  N615  1  0.019700  0.823500  0.322800  1.0  -0.0236
  N  N616  1  0.356000  0.846100  0.626500  1.0  -0.2957
  N  N617  1  0.387100  0.805400  0.666667  1.0  -0.1338
  N  N618  1  0.396400  0.909300  0.702000  1.0  -0.2763
  N  N619  1  0.412200  0.843900  0.710600  1.0  -0.086
  N  N620  1  0.497900  0.899600  0.960600  1.0  -0.3141
  N  N621  1  0.494100  0.926700  0.861400  1.0  -0.1398
  N  N622  1  0.482700  0.858600  0.864100  1.0  -0.3431
  N  N623  1  0.499500  0.682300  0.671600  1.0  -0.0921
  N  N624  1  0.511600  0.617800  0.661900  1.0  -0.0983
  N  N625  1  0.532400  0.589600  0.717000  1.0  -0.3067
  N  N626  1  0.512600  0.697700  0.732900  1.0  -0.239
  N  N627  1  0.385800  0.604300  0.515900  1.0  -0.2808
  N  N628  1  0.502800  0.950800  0.918500  1.0  -0.1623
  N  N629  1  0.980900  0.097200  0.464900  1.0  -0.3467
  N  N630  1  0.982400  0.048200  0.419600  1.0  -0.0306
  N  N631  1  0.974300  0.076400  0.363700  1.0  -0.1454
  N  N632  1  0.966200  0.145800  0.371200  1.0  -0.2889
  N  N633  1  0.841100  0.139200  0.132300  1.0  -0.3216
  N  N634  1  0.873000  0.183500  0.167600  1.0  -0.1457
  N  N635  1  0.905100  0.151100  0.207200  1.0  -0.0832
  N  N636  1  0.897000  0.080600  0.199300  1.0  -0.3264
  N  N637  1  0.623200  0.165200  0.957600  1.0  -0.1083
  N  N638  1  0.664700  0.195800  0.989900  1.0  -0.0097
  N  N639  1  0.682900  0.157100  0.037500  1.0  -0.2505
  N  N640  1  0.788800  0.305300  0.965800  1.0  -0.2666
  N  N641  1  0.809200  0.275300  0.021300  1.0  -0.0907
  N  N642  1  0.852900  0.305600  0.042000  1.0  -0.0874
  N  N643  1  0.862500  0.357000  0.002800  1.0  -0.3258
  N  N644  1  0.997600  0.385100  0.165100  1.0  -0.1073
  N  N645  1  0.019200  0.414200  0.219700  1.0  -0.3363
  N  N646  1  0.990400  0.310600  0.238700  1.0  -0.2255
  N  N647  1  0.980300  0.323500  0.177200  1.0  -0.0237
  N  N648  1  0.644000  0.346100  0.873500  1.0  -0.2991
  N  N649  1  0.612900  0.305400  0.833400  1.0  -0.1498
  N  N650  1  0.603600  0.409300  0.798000  1.0  -0.2775
  N  N651  1  0.587800  0.343900  0.789400  1.0  -0.0868
  N  N652  1  0.502100  0.399600  0.539400  1.0  -0.3141
  N  N653  1  0.505900  0.426700  0.638600  1.0  -0.1397
  N  N654  1  0.517300  0.358600  0.635900  1.0  -0.3439
  N  N655  1  0.500500  0.182300  0.828400  1.0  -0.0913
  N  N656  1  0.488400  0.117800  0.838100  1.0  -0.1005
  N  N657  1  0.467600  0.089600  0.783000  1.0  -0.3095
  N  N658  1  0.487400  0.197700  0.767100  1.0  -0.2375
  N  N659  1  0.614200  0.104300  0.984100  1.0  -0.2808
  N  N660  1  0.497200  0.450800  0.581500  1.0  -0.164
