# generated using pymatgen
data_ZnH20(C5N3)4
_symmetry_space_group_name_H-M   'P 1'
_cell_length_a   12.40300000
_cell_length_b   15.72900000
_cell_length_c   15.72900000
_cell_angle_alpha   120.00000000
_cell_angle_beta   90.00000000
_cell_angle_gamma   90.00000000
_symmetry_Int_Tables_number   1
_chemical_formula_structural   ZnH20(C5N3)4
_chemical_formula_sum   'Zn3 H60 C60 N36'
_cell_volume   2657.41633500
_cell_formula_units_Z   3
loop_
 _symmetry_equiv_pos_site_id
 _symmetry_equiv_pos_as_xyz
  1  'x, y, z'
loop_
 _atom_site_type_symbol
 _atom_site_label
 _atom_site_symmetry_multiplicity
 _atom_site_fract_x
 _atom_site_fract_y
 _atom_site_fract_z
 _atom_site_occupancy
 _atom_site_charge
  Zn  Zn1  1  0.833330  0.000000  0.578770  1.0  0.7264
  Zn  Zn2  1  0.500000  0.578770  0.000000  1.0  0.7257
  Zn  Zn3  1  0.166670  0.421230  0.421230  1.0  0.7253
  H  H4  1  0.843700  0.817700  0.367500  1.0  0.085
  H  H5  1  0.023300  0.053500  0.472500  1.0  0.0934
  H  H6  1  0.220500  0.058600  0.251100  1.0  0.103
  H  H7  1  0.163800  0.958000  0.182400  1.0  0.1026
  H  H8  1  0.232600  0.971500  0.272000  1.0  0.0908
  H  H9  1  0.184300  0.195300  0.327300  1.0  0.0891
  H  H10  1  0.934400  0.371500  0.429400  1.0  0.0877
  H  H11  1  0.702000  0.284800  0.351800  1.0  0.0831
  H  H12  1  0.767200  0.372800  0.434400  1.0  0.0922
  H  H13  1  0.666000  0.331600  0.461800  1.0  0.0983
  H  H14  1  0.510370  0.549800  0.182300  1.0  0.084
  H  H15  1  0.689970  0.419000  0.946500  1.0  0.093
  H  H16  1  0.887170  0.192500  0.941400  1.0  0.1021
  H  H17  1  0.830470  0.224400  0.042000  1.0  0.1019
  H  H18  1  0.899270  0.300500  0.028500  1.0  0.0895
  H  H19  1  0.850970  0.132000  0.804700  1.0  0.0888
  H  H20  1  0.601070  0.057900  0.628500  1.0  0.0858
  H  H21  1  0.368670  0.067000  0.715200  1.0  0.083
  H  H22  1  0.433870  0.061600  0.627200  1.0  0.0923
  H  H23  1  0.332670  0.130200  0.668400  1.0  0.096
  H  H24  1  0.177030  0.632500  0.450200  1.0  0.0858
  H  H25  1  0.356630  0.527500  0.581000  1.0  0.0915
  H  H26  1  0.553830  0.748900  0.807500  1.0  0.1022
  H  H27  1  0.497130  0.817600  0.775600  1.0  0.1027
  H  H28  1  0.565930  0.728000  0.699500  1.0  0.0906
  H  H29  1  0.517630  0.672700  0.868000  1.0  0.0888
  H  H30  1  0.267730  0.570600  0.942100  1.0  0.087
  H  H31  1  0.035330  0.648200  0.933000  1.0  0.0847
  H  H32  1  0.100530  0.565600  0.938400  1.0  0.0929
  H  H33  1  0.999330  0.538200  0.869800  1.0  0.0981
  H  H34  1  0.156300  0.450200  0.632500  1.0  0.0841
  H  H35  1  0.976700  0.581000  0.527500  1.0  0.0919
  H  H36  1  0.779500  0.807500  0.748900  1.0  0.1029
  H  H37  1  0.836200  0.775600  0.817600  1.0  0.1022
  H  H38  1  0.767400  0.699500  0.728000  1.0  0.0899
  H  H39  1  0.815700  0.868000  0.672700  1.0  0.0888
  H  H40  1  0.065600  0.942100  0.570600  1.0  0.0861
  H  H41  1  0.298000  0.933000  0.648200  1.0  0.0831
  H  H42  1  0.232800  0.938400  0.565600  1.0  0.0923
  H  H43  1  0.334000  0.869800  0.538200  1.0  0.1001
  H  H44  1  0.489630  0.367500  0.817700  1.0  0.0855
  H  H45  1  0.310030  0.472500  0.053500  1.0  0.0912
  H  H46  1  0.112830  0.251100  0.058600  1.0  0.1032
  H  H47  1  0.169530  0.182400  0.958000  1.0  0.1001
  H  H48  1  0.100730  0.272000  0.971500  1.0  0.0895
  H  H49  1  0.149030  0.327300  0.195300  1.0  0.0894
  H  H50  1  0.398930  0.429400  0.371500  1.0  0.0868
  H  H51  1  0.631330  0.351800  0.284800  1.0  0.0833
  H  H52  1  0.566130  0.434400  0.372800  1.0  0.0925
  H  H53  1  0.667330  0.461800  0.331600  1.0  0.1015
  H  H54  1  0.822970  0.182300  0.549800  1.0  0.0844
  H  H55  1  0.643370  0.946500  0.419000  1.0  0.0928
  H  H56  1  0.446170  0.941400  0.192500  1.0  0.1014
  H  H57  1  0.502870  0.042000  0.224400  1.0  0.1028
  H  H58  1  0.434070  0.028500  0.300500  1.0  0.0896
  H  H59  1  0.482370  0.804700  0.132000  1.0  0.0905
  H  H60  1  0.732270  0.628500  0.057900  1.0  0.0876
  H  H61  1  0.964670  0.715200  0.067000  1.0  0.083
  H  H62  1  0.899470  0.627200  0.061600  1.0  0.0904
  H  H63  1  0.000670  0.668400  0.130200  1.0  0.0993
  C  C64  1  0.920800  0.835400  0.264300  1.0  0.3112
  C  C65  1  0.889900  0.859300  0.358800  1.0  -0.0373
  C  C66  1  0.994800  0.997000  0.419700  1.0  -0.0545
  C  C67  1  0.023800  0.972000  0.325100  1.0  0.3227
  C  C68  1  0.184600  0.003400  0.248800  1.0  -0.1505
  C  C69  1  0.050100  0.131000  0.345300  1.0  0.3074
  C  C70  1  0.113000  0.206900  0.348400  1.0  -0.1419
  C  C71  1  0.965900  0.310400  0.408100  1.0  -0.1037
  C  C72  1  0.904100  0.233600  0.404100  1.0  0.3303
  C  C73  1  0.727000  0.314600  0.418600  1.0  -0.1474
  C  C74  1  0.587470  0.428900  0.164600  1.0  0.3113
  C  C75  1  0.556570  0.499500  0.140700  1.0  -0.0367
  C  C76  1  0.661470  0.422700  0.003000  1.0  -0.0583
  C  C77  1  0.690470  0.353100  0.028000  1.0  0.3224
  C  C78  1  0.851270  0.245400  0.996600  1.0  -0.1506
  C  C79  1  0.716770  0.214300  0.869000  1.0  0.3069
  C  C80  1  0.779670  0.141500  0.793100  1.0  -0.1432
  C  C81  1  0.632570  0.097700  0.689600  1.0  -0.1067
  C  C82  1  0.570770  0.170500  0.766400  1.0  0.3302
  C  C83  1  0.393670  0.104000  0.685400  1.0  -0.1473
  C  C84  1  0.254130  0.735700  0.571100  1.0  0.3105
  C  C85  1  0.223230  0.641200  0.500500  1.0  -0.0352
  C  C86  1  0.328130  0.580300  0.577300  1.0  -0.0599
  C  C87  1  0.357130  0.674900  0.646900  1.0  0.3221
  C  C88  1  0.517930  0.751200  0.754600  1.0  -0.1497
  C  C89  1  0.383430  0.654700  0.785700  1.0  0.3074
  C  C90  1  0.446330  0.651600  0.858500  1.0  -0.1416
  C  C91  1  0.299230  0.591900  0.902300  1.0  -0.1119
  C  C92  1  0.237430  0.595900  0.829500  1.0  0.331
  C  C93  1  0.060330  0.581400  0.896000  1.0  -0.1468
  C  C94  1  0.079200  0.571100  0.735700  1.0  0.3097
  C  C95  1  0.110100  0.500500  0.641200  1.0  -0.0359
  C  C96  1  0.005200  0.577300  0.580300  1.0  -0.0612
  C  C97  1  0.976200  0.646900  0.674900  1.0  0.3232
  C  C98  1  0.815400  0.754600  0.751200  1.0  -0.1501
  C  C99  1  0.949900  0.785700  0.654700  1.0  0.3069
  C  C100  1  0.887000  0.858500  0.651600  1.0  -0.1372
  C  C101  1  0.034100  0.902300  0.591900  1.0  -0.1014
  C  C102  1  0.095900  0.829500  0.595900  1.0  0.3277
  C  C103  1  0.273000  0.896000  0.581400  1.0  -0.1471
  C  C104  1  0.412530  0.264300  0.835400  1.0  0.3088
  C  C105  1  0.443430  0.358800  0.859300  1.0  -0.034
  C  C106  1  0.338530  0.419700  0.997000  1.0  -0.061
  C  C107  1  0.309530  0.325100  0.972000  1.0  0.3225
  C  C108  1  0.148730  0.248800  0.003400  1.0  -0.1486
  C  C109  1  0.283230  0.345300  0.131000  1.0  0.3072
  C  C110  1  0.220330  0.348400  0.206900  1.0  -0.1342
  C  C111  1  0.367430  0.408100  0.310400  1.0  -0.1059
  C  C112  1  0.429230  0.404100  0.233600  1.0  0.3286
  C  C113  1  0.606330  0.418600  0.314600  1.0  -0.1464
  C  C114  1  0.745870  0.164600  0.428900  1.0  0.31
  C  C115  1  0.776770  0.140700  0.499500  1.0  -0.0365
  C  C116  1  0.671870  0.003000  0.422700  1.0  -0.0601
  C  C117  1  0.642870  0.028000  0.353100  1.0  0.3229
  C  C118  1  0.482070  0.996600  0.245400  1.0  -0.1488
  C  C119  1  0.616570  0.869000  0.214300  1.0  0.3075
  C  C120  1  0.553670  0.793100  0.141500  1.0  -0.1359
  C  C121  1  0.700770  0.689600  0.097700  1.0  -0.1056
  C  C122  1  0.762570  0.766400  0.170500  1.0  0.3281
  C  C123  1  0.939670  0.685400  0.104000  1.0  -0.1469
  N  N124  1  0.989300  0.890500  0.246900  1.0  -0.4867
  N  N125  1  0.925500  0.940600  0.436900  1.0  -0.2936
  N  N126  1  0.089800  0.036800  0.310300  1.0  -0.1714
  N  N127  1  0.946400  0.145300  0.373000  1.0  -0.486
  N  N128  1  0.069200  0.296200  0.381700  1.0  -0.277
  N  N129  1  0.796000  0.245200  0.429800  1.0  -0.204
  N  N130  1  0.655970  0.356400  0.109500  1.0  -0.4851
  N  N131  1  0.592170  0.496300  0.059400  1.0  -0.2958
  N  N132  1  0.756470  0.273500  0.963200  1.0  -0.1719
  N  N133  1  0.613070  0.227700  0.854700  1.0  -0.4856
  N  N134  1  0.735870  0.085500  0.703800  1.0  -0.2757
  N  N135  1  0.462670  0.184600  0.754800  1.0  -0.203
  N  N136  1  0.322630  0.753100  0.643600  1.0  -0.4843
  N  N137  1  0.258830  0.563100  0.503700  1.0  -0.295
  N  N138  1  0.423130  0.689700  0.726500  1.0  -0.1723
  N  N139  1  0.279730  0.627000  0.772300  1.0  -0.4845
  N  N140  1  0.402530  0.618300  0.914500  1.0  -0.2759
  N  N141  1  0.129330  0.570200  0.815400  1.0  -0.2044
  N  N142  1  0.010700  0.643600  0.753100  1.0  -0.4856
  N  N143  1  0.074500  0.503700  0.563100  1.0  -0.2959
  N  N144  1  0.910200  0.726500  0.689700  1.0  -0.1724
  N  N145  1  0.053600  0.772300  0.627000  1.0  -0.4853
  N  N146  1  0.930800  0.914500  0.618300  1.0  -0.275
  N  N147  1  0.204000  0.815400  0.570200  1.0  -0.2038
  N  N148  1  0.344030  0.246900  0.890500  1.0  -0.4868
  N  N149  1  0.407830  0.436900  0.940600  1.0  -0.2945
  N  N150  1  0.243530  0.310300  0.036800  1.0  -0.1726
  N  N151  1  0.386930  0.373000  0.145300  1.0  -0.4849
  N  N152  1  0.264130  0.381700  0.296200  1.0  -0.276
  N  N153  1  0.537330  0.429800  0.245200  1.0  -0.2037
  N  N154  1  0.677370  0.109500  0.356400  1.0  -0.4856
  N  N155  1  0.741170  0.059400  0.496300  1.0  -0.294
  N  N156  1  0.576870  0.963200  0.273500  1.0  -0.1718
  N  N157  1  0.720270  0.854700  0.227700  1.0  -0.4848
  N  N158  1  0.597470  0.703800  0.085500  1.0  -0.277
  N  N159  1  0.870670  0.754800  0.184600  1.0  -0.2038
