# generated using pymatgen
data_CoH11C17NO4
_symmetry_space_group_name_H-M   'P 1'
_cell_length_a   18.33640000
_cell_length_b   18.53550000
_cell_length_c   18.53550000
_cell_angle_alpha   70.31220000
_cell_angle_beta   70.74620000
_cell_angle_gamma   109.25400000
_symmetry_Int_Tables_number   1
_chemical_formula_structural   CoH11C17NO4
_chemical_formula_sum   'Co12 H132 C204 N12 O48'
_cell_volume   4862.48010709
_cell_formula_units_Z   12
loop_
 _symmetry_equiv_pos_site_id
 _symmetry_equiv_pos_as_xyz
  1  'x, y, z'
loop_
 _atom_site_type_symbol
 _atom_site_label
 _atom_site_symmetry_multiplicity
 _atom_site_fract_x
 _atom_site_fract_y
 _atom_site_fract_z
 _atom_site_occupancy
 _atom_site_charge
  Co  Co1  1  0.984030  0.928760  0.576290  1.0  0.9427
  Co  Co2  1  0.560320  0.576290  0.494950  1.0  0.9425
  Co  Co3  1  0.055270  0.494950  0.928760  1.0  0.9426
  Co  Co4  1  0.939680  0.494950  0.576290  1.0  0.9424
  Co  Co5  1  0.444730  0.928760  0.494950  1.0  0.9426
  Co  Co6  1  0.515970  0.576290  0.928760  1.0  0.9424
  Co  Co7  1  0.015970  0.071240  0.423710  1.0  0.9424
  Co  Co8  1  0.439680  0.423710  0.505050  1.0  0.9425
  Co  Co9  1  0.944730  0.505050  0.071240  1.0  0.9424
  Co  Co10  1  0.060320  0.505050  0.423710  1.0  0.9425
  Co  Co11  1  0.555270  0.071240  0.505050  1.0  0.9425
  Co  Co12  1  0.484030  0.423710  0.071240  1.0  0.9426
  H  H13  1  0.840800  0.828900  0.753000  1.0  0.121
  H  H14  1  0.284600  0.279900  0.347800  1.0  0.1056
  H  H15  1  0.066400  0.756000  0.839400  1.0  0.1038
  H  H16  1  0.162700  0.826500  0.689400  1.0  0.1192
  H  H17  1  0.120400  0.890300  0.590600  1.0  0.0732
  H  H18  1  0.917700  0.706400  0.962600  1.0  0.1121
  H  H19  1  0.742000  0.757300  0.902800  1.0  0.0917
  H  H20  1  0.131300  0.991900  0.233800  1.0  0.1116
  H  H21  1  0.780800  0.697700  0.007300  1.0  0.0926
  H  H22  1  0.593800  0.753000  0.418100  1.0  0.1212
  H  H23  1  0.632400  0.347800  0.372300  1.0  0.1056
  H  H24  1  0.905800  0.839400  0.404600  1.0  0.1038
  H  H25  1  0.852100  0.689400  0.484100  1.0  0.1171
  H  H26  1  0.711000  0.590600  0.519100  1.0  0.075
  H  H27  1  0.880300  0.962600  0.331000  1.0  0.1136
  H  H28  1  0.644800  0.902800  0.339900  1.0  0.0908
  H  H29  1  0.365100  0.233800  0.774300  1.0  0.1111
  H  H30  1  0.788100  0.007300  0.295000  1.0  0.094
  H  H31  1  0.011900  0.418100  0.828900  1.0  0.1212
  H  H32  1  0.004700  0.372300  0.279900  1.0  0.1058
  H  H33  1  0.310400  0.404600  0.756000  1.0  0.1031
  H  H34  1  0.336200  0.484100  0.826500  1.0  0.1172
  H  H35  1  0.230100  0.519100  0.890300  1.0  0.0746
  H  H36  1  0.211300  0.331000  0.706400  1.0  0.1133
  H  H37  1  0.984700  0.339900  0.757300  1.0  0.0901
  H  H38  1  0.139400  0.774300  0.991900  1.0  0.11
  H  H39  1  0.083100  0.295000  0.697700  1.0  0.0932
  H  H40  1  0.906200  0.418100  0.753000  1.0  0.1214
  H  H41  1  0.867600  0.372300  0.347800  1.0  0.1054
  H  H42  1  0.594200  0.404600  0.839400  1.0  0.1029
  H  H43  1  0.647900  0.484100  0.689400  1.0  0.117
  H  H44  1  0.789000  0.519100  0.590600  1.0  0.0739
  H  H45  1  0.619700  0.331000  0.962600  1.0  0.1132
  H  H46  1  0.855200  0.339900  0.902800  1.0  0.0907
  H  H47  1  0.134900  0.774300  0.233800  1.0  0.1098
  H  H48  1  0.711900  0.295000  0.007300  1.0  0.0935
  H  H49  1  0.488100  0.828900  0.418100  1.0  0.1215
  H  H50  1  0.495300  0.279900  0.372300  1.0  0.1051
  H  H51  1  0.189600  0.756000  0.404600  1.0  0.1041
  H  H52  1  0.163800  0.826500  0.484100  1.0  0.1195
  H  H53  1  0.269900  0.890300  0.519100  1.0  0.0736
  H  H54  1  0.288700  0.706400  0.331000  1.0  0.1126
  H  H55  1  0.515300  0.757300  0.339900  1.0  0.0918
  H  H56  1  0.360600  0.991900  0.774300  1.0  0.1112
  H  H57  1  0.416900  0.697700  0.295000  1.0  0.0929
  H  H58  1  0.659200  0.753000  0.828900  1.0  0.1221
  H  H59  1  0.215400  0.347800  0.279900  1.0  0.1061
  H  H60  1  0.433600  0.839400  0.756000  1.0  0.1044
  H  H61  1  0.337300  0.689400  0.826500  1.0  0.1169
  H  H62  1  0.379600  0.590600  0.890300  1.0  0.0753
  H  H63  1  0.582300  0.962600  0.706400  1.0  0.1139
  H  H64  1  0.758000  0.902800  0.757300  1.0  0.0906
  H  H65  1  0.368700  0.233800  0.991900  1.0  0.1112
  H  H66  1  0.719200  0.007300  0.697700  1.0  0.0932
  H  H67  1  0.159200  0.171100  0.247000  1.0  0.1219
  H  H68  1  0.715400  0.720100  0.652200  1.0  0.1055
  H  H69  1  0.933600  0.244000  0.160600  1.0  0.1036
  H  H70  1  0.837300  0.173500  0.310600  1.0  0.1194
  H  H71  1  0.879600  0.109700  0.409400  1.0  0.0737
  H  H72  1  0.082300  0.293600  0.037400  1.0  0.1125
  H  H73  1  0.258000  0.242700  0.097200  1.0  0.0918
  H  H74  1  0.868700  0.008100  0.766200  1.0  0.111
  H  H75  1  0.219200  0.302300  0.992700  1.0  0.0927
  H  H76  1  0.406200  0.247000  0.581900  1.0  0.1222
  H  H77  1  0.367600  0.652200  0.627700  1.0  0.1057
  H  H78  1  0.094200  0.160600  0.595400  1.0  0.1043
  H  H79  1  0.147900  0.310600  0.515900  1.0  0.1169
  H  H80  1  0.289000  0.409400  0.480900  1.0  0.0742
  H  H81  1  0.119700  0.037400  0.669000  1.0  0.1138
  H  H82  1  0.355200  0.097200  0.660100  1.0  0.0908
  H  H83  1  0.634900  0.766200  0.225700  1.0  0.1109
  H  H84  1  0.211900  0.992700  0.705000  1.0  0.0939
  H  H85  1  0.988100  0.581900  0.171100  1.0  0.1215
  H  H86  1  0.995300  0.627700  0.720100  1.0  0.1055
  H  H87  1  0.689600  0.595400  0.244000  1.0  0.1035
  H  H88  1  0.663800  0.515900  0.173500  1.0  0.1169
  H  H89  1  0.769900  0.480900  0.109700  1.0  0.074
  H  H90  1  0.788700  0.669000  0.293600  1.0  0.1133
  H  H91  1  0.015300  0.660100  0.242700  1.0  0.0906
  H  H92  1  0.860600  0.225700  0.008100  1.0  0.1104
  H  H93  1  0.916900  0.705000  0.302300  1.0  0.093
  H  H94  1  0.093800  0.581900  0.247000  1.0  0.1214
  H  H95  1  0.132400  0.627700  0.652200  1.0  0.1057
  H  H96  1  0.405800  0.595400  0.160600  1.0  0.1028
  H  H97  1  0.352100  0.515900  0.310600  1.0  0.1173
  H  H98  1  0.211000  0.480900  0.409400  1.0  0.0748
  H  H99  1  0.380300  0.669000  0.037400  1.0  0.1136
  H  H100  1  0.144800  0.660100  0.097200  1.0  0.0905
  H  H101  1  0.865100  0.225700  0.766200  1.0  0.11
  H  H102  1  0.288100  0.705000  0.992700  1.0  0.093
  H  H103  1  0.511900  0.171100  0.581900  1.0  0.1209
  H  H104  1  0.504700  0.720100  0.627700  1.0  0.1056
  H  H105  1  0.810400  0.244000  0.595400  1.0  0.1042
  H  H106  1  0.836200  0.173500  0.515900  1.0  0.1192
  H  H107  1  0.730100  0.109700  0.480900  1.0  0.0731
  H  H108  1  0.711300  0.293600  0.669000  1.0  0.1122
  H  H109  1  0.484700  0.242700  0.660100  1.0  0.0916
  H  H110  1  0.639400  0.008100  0.225700  1.0  0.1113
  H  H111  1  0.583100  0.302300  0.705000  1.0  0.0925
  H  H112  1  0.340800  0.247000  0.171100  1.0  0.1214
  H  H113  1  0.784600  0.652200  0.720100  1.0  0.1057
  H  H114  1  0.566400  0.160600  0.244000  1.0  0.104
  H  H115  1  0.662700  0.310600  0.173500  1.0  0.117
  H  H116  1  0.620400  0.409400  0.109700  1.0  0.0737
  H  H117  1  0.417700  0.037400  0.293600  1.0  0.1133
  H  H118  1  0.242000  0.097200  0.242700  1.0  0.0903
  H  H119  1  0.631300  0.766200  0.008100  1.0  0.1109
  H  H120  1  0.280800  0.992700  0.302300  1.0  0.0945
  H  H121  1  0.017950  0.767950  0.464100  1.0  0.1067
  H  H122  1  0.171650  0.921650  0.156700  1.0  0.1111
  H  H123  1  0.482050  0.464100  0.767950  1.0  0.1074
  H  H124  1  0.328350  0.156700  0.921650  1.0  0.1104
  H  H125  1  0.250000  0.767950  0.767950  1.0  0.1062
  H  H126  1  0.250000  0.921650  0.921650  1.0  0.1112
  H  H127  1  0.982050  0.232050  0.535900  1.0  0.1059
  H  H128  1  0.828350  0.078350  0.843300  1.0  0.111
  H  H129  1  0.517950  0.535900  0.232050  1.0  0.107
  H  H130  1  0.671650  0.843300  0.078350  1.0  0.1108
  H  H131  1  0.750000  0.232050  0.232050  1.0  0.1063
  H  H132  1  0.750000  0.078350  0.078350  1.0  0.1103
  H  H133  1  0.274200  0.048400  0.475800  1.0  0.1084
  H  H134  1  0.428000  0.356000  0.322000  1.0  0.1061
  H  H135  1  0.750000  0.475800  0.475800  1.0  0.1069
  H  H136  1  0.750000  0.322000  0.322000  1.0  0.1052
  H  H137  1  0.225800  0.475800  0.048400  1.0  0.1072
  H  H138  1  0.072000  0.322000  0.356000  1.0  0.1056
  H  H139  1  0.725800  0.951600  0.524200  1.0  0.1082
  H  H140  1  0.572000  0.644000  0.678000  1.0  0.1058
  H  H141  1  0.250000  0.524200  0.524200  1.0  0.1067
  H  H142  1  0.250000  0.678000  0.678000  1.0  0.1056
  H  H143  1  0.774200  0.524200  0.951600  1.0  0.1067
  H  H144  1  0.928000  0.678000  0.644000  1.0  0.1053
  C  C145  1  0.857550  0.805030  0.794710  1.0  -0.1842
  C  C146  1  0.050400  0.930410  0.409130  1.0  0.6589
  C  C147  1  0.263400  0.155890  0.418010  1.0  -0.1504
  C  C148  1  0.942580  0.813140  0.765950  1.0  0.1587
  C  C149  1  0.311210  0.248290  0.369560  1.0  -0.0461
  C  C150  1  0.168200  0.106690  0.441740  1.0  0.6812
  C  C151  1  0.073840  0.886980  0.356850  1.0  -0.1324
  C  C152  1  0.965890  0.775610  0.829040  1.0  -0.0038
  C  C153  1  0.049500  0.781360  0.798460  1.0  -0.0117
  C  C154  1  0.106190  0.822880  0.710710  1.0  -0.1757
  C  C155  1  0.079590  0.860360  0.652010  1.0  0.1837
  C  C156  1  0.902930  0.732000  0.919710  1.0  -0.023
  C  C157  1  0.799220  0.762380  0.883520  1.0  -0.0702
  C  C158  1  0.117320  0.932330  0.265130  1.0  -0.039
  C  C159  1  0.822010  0.726290  0.946160  1.0  -0.0815
  C  C160  1  0.652260  0.794710  0.400260  1.0  -0.1851
  C  C161  1  0.459530  0.409130  0.660460  1.0  0.6589
  C  C162  1  0.681410  0.418010  0.426100  1.0  -0.1508
  C  C163  1  0.708530  0.765950  0.420910  1.0  0.1575
  C  C164  1  0.680770  0.369560  0.382150  1.0  -0.0468
  C  C165  1  0.609940  0.441740  0.451570  1.0  0.6811
  C  C166  1  0.430690  0.356850  0.756170  1.0  -0.1297
  C  C167  1  0.794930  0.829040  0.395350  1.0  -0.0075
  C  C168  1  0.847960  0.798460  0.420180  1.0  -0.0144
  C  C169  1  0.816900  0.710710  0.466410  1.0  -0.1729
  C  C170  1  0.731600  0.652010  0.487630  1.0  0.1837
  C  C171  1  0.822640  0.919710  0.348290  1.0  -0.024
  C  C172  1  0.682740  0.883520  0.354100  1.0  -0.0709
  C  C173  1  0.382450  0.265130  0.802540  1.0  -0.0416
  C  C174  1  0.768170  0.946160  0.327550  1.0  -0.0845
  C  C175  1  0.052520  0.400260  0.805030  1.0  -0.186
  C  C176  1  0.119990  0.660460  0.930410  1.0  0.6584
  C  C177  1  0.107510  0.426100  0.155890  1.0  -0.1499
  C  C178  1  0.129440  0.420910  0.813140  1.0  0.1571
  C  C179  1  0.062920  0.382150  0.248290  1.0  -0.048
  C  C180  1  0.061510  0.451570  0.106690  1.0  0.6844
  C  C181  1  0.186860  0.756170  0.886980  1.0  -0.1311
  C  C182  1  0.190280  0.395350  0.775610  1.0  0.0011
  C  C183  1  0.268140  0.420180  0.781360  1.0  -0.0154
  C  C184  1  0.283310  0.466410  0.822880  1.0  -0.1729
  C  C185  1  0.219230  0.487630  0.860360  1.0  0.1826
  C  C186  1  0.170930  0.348290  0.732000  1.0  -0.025
  C  C187  1  0.036840  0.354100  0.762380  1.0  -0.0663
  C  C188  1  0.184990  0.802540  0.932330  1.0  -0.0433
  C  C189  1  0.095720  0.327550  0.726290  1.0  -0.0809
  C  C190  1  0.847740  0.400260  0.794710  1.0  -0.1868
  C  C191  1  0.040470  0.660460  0.409130  1.0  0.6582
  C  C192  1  0.818590  0.426100  0.418010  1.0  -0.1509
  C  C193  1  0.791470  0.420910  0.765950  1.0  0.1568
  C  C194  1  0.819230  0.382150  0.369560  1.0  -0.0461
  C  C195  1  0.890060  0.451570  0.441740  1.0  0.6845
  C  C196  1  0.069310  0.756170  0.356850  1.0  -0.1307
  C  C197  1  0.705070  0.395350  0.829040  1.0  0.0009
  C  C198  1  0.652040  0.420180  0.798460  1.0  -0.0145
  C  C199  1  0.683100  0.466410  0.710710  1.0  -0.1741
  C  C200  1  0.768400  0.487630  0.652010  1.0  0.1826
  C  C201  1  0.677360  0.348290  0.919710  1.0  -0.0247
  C  C202  1  0.817260  0.354100  0.883520  1.0  -0.0679
  C  C203  1  0.117550  0.802540  0.265130  1.0  -0.0413
  C  C204  1  0.731830  0.327550  0.946160  1.0  -0.0813
  C  C205  1  0.447480  0.805030  0.400260  1.0  -0.1843
  C  C206  1  0.380010  0.930410  0.660460  1.0  0.6586
  C  C207  1  0.392490  0.155890  0.426100  1.0  -0.151
  C  C208  1  0.370560  0.813140  0.420910  1.0  0.1572
  C  C209  1  0.437080  0.248290  0.382150  1.0  -0.047
  C  C210  1  0.438490  0.106690  0.451570  1.0  0.6828
  C  C211  1  0.313140  0.886980  0.756170  1.0  -0.1293
  C  C212  1  0.309720  0.775610  0.395350  1.0  -0.007
  C  C213  1  0.231860  0.781360  0.420180  1.0  -0.0118
  C  C214  1  0.216690  0.822880  0.466410  1.0  -0.1759
  C  C215  1  0.280770  0.860360  0.487630  1.0  0.1841
  C  C216  1  0.329070  0.732000  0.348290  1.0  -0.0217
  C  C217  1  0.463160  0.762380  0.354100  1.0  -0.0693
  C  C218  1  0.315010  0.932330  0.802540  1.0  -0.0429
  C  C219  1  0.404280  0.726290  0.327550  1.0  -0.0824
  C  C220  1  0.642450  0.794710  0.805030  1.0  -0.1867
  C  C221  1  0.449600  0.409130  0.930410  1.0  0.6592
  C  C222  1  0.236600  0.418010  0.155890  1.0  -0.1505
  C  C223  1  0.557420  0.765950  0.813140  1.0  0.1592
  C  C224  1  0.188790  0.369560  0.248290  1.0  -0.0478
  C  C225  1  0.331800  0.441740  0.106690  1.0  0.683
  C  C226  1  0.426160  0.356850  0.886980  1.0  -0.1291
  C  C227  1  0.534110  0.829040  0.775610  1.0  -0.0075
  C  C228  1  0.450500  0.798460  0.781360  1.0  -0.0138
  C  C229  1  0.393810  0.710710  0.822880  1.0  -0.1744
  C  C230  1  0.420410  0.652010  0.860360  1.0  0.1836
  C  C231  1  0.597070  0.919710  0.732000  1.0  -0.0256
  C  C232  1  0.700780  0.883520  0.762380  1.0  -0.0723
  C  C233  1  0.382680  0.265130  0.932330  1.0  -0.0422
  C  C234  1  0.677990  0.946160  0.726290  1.0  -0.0825
  C  C235  1  0.142450  0.194970  0.205290  1.0  -0.1854
  C  C236  1  0.949600  0.069590  0.590870  1.0  0.6585
  C  C237  1  0.736600  0.844110  0.581990  1.0  -0.1512
  C  C238  1  0.057420  0.186860  0.234050  1.0  0.1563
  C  C239  1  0.688790  0.751710  0.630440  1.0  -0.0471
  C  C240  1  0.831800  0.893310  0.558260  1.0  0.683
  C  C241  1  0.926160  0.113020  0.643150  1.0  -0.1294
  C  C242  1  0.034110  0.224390  0.170960  1.0  -0.0079
  C  C243  1  0.950500  0.218640  0.201540  1.0  -0.0118
  C  C244  1  0.893810  0.177120  0.289290  1.0  -0.1761
  C  C245  1  0.920410  0.139640  0.347990  1.0  0.1843
  C  C246  1  0.097070  0.268000  0.080290  1.0  -0.0212
  C  C247  1  0.200780  0.237620  0.116480  1.0  -0.0698
  C  C248  1  0.882680  0.067670  0.734870  1.0  -0.0414
  C  C249  1  0.177990  0.273710  0.053840  1.0  -0.0823
  C  C250  1  0.347740  0.205290  0.599740  1.0  -0.1864
  C  C251  1  0.540470  0.590870  0.339540  1.0  0.6591
  C  C252  1  0.318590  0.581990  0.573900  1.0  -0.1505
  C  C253  1  0.291470  0.234050  0.579090  1.0  0.1591
  C  C254  1  0.319230  0.630440  0.617850  1.0  -0.0483
  C  C255  1  0.390060  0.558260  0.548430  1.0  0.6827
  C  C256  1  0.569310  0.643150  0.243830  1.0  -0.129
  C  C257  1  0.205070  0.170960  0.604650  1.0  -0.0068
  C  C258  1  0.152040  0.201540  0.579820  1.0  -0.0144
  C  C259  1  0.183100  0.289290  0.533590  1.0  -0.1753
  C  C260  1  0.268400  0.347990  0.512370  1.0  0.1832
  C  C261  1  0.177360  0.080290  0.651710  1.0  -0.0253
  C  C262  1  0.317260  0.116480  0.645900  1.0  -0.072
  C  C263  1  0.617550  0.734870  0.197460  1.0  -0.0402
  C  C264  1  0.231830  0.053840  0.672450  1.0  -0.0826
  C  C265  1  0.947480  0.599740  0.194970  1.0  -0.1858
  C  C266  1  0.880010  0.339540  0.069590  1.0  0.6583
  C  C267  1  0.892490  0.573900  0.844110  1.0  -0.1508
  C  C268  1  0.870560  0.579090  0.186860  1.0  0.1568
  C  C269  1  0.937080  0.617850  0.751710  1.0  -0.0466
  C  C270  1  0.938490  0.548430  0.893310  1.0  0.6843
  C  C271  1  0.813140  0.243830  0.113020  1.0  -0.1306
  C  C272  1  0.809720  0.604650  0.224390  1.0  -0.0007
  C  C273  1  0.731860  0.579820  0.218640  1.0  -0.0142
  C  C274  1  0.716690  0.533590  0.177120  1.0  -0.1737
  C  C275  1  0.780770  0.512370  0.139640  1.0  0.1823
  C  C276  1  0.829070  0.651710  0.268000  1.0  -0.0246
  C  C277  1  0.963160  0.645900  0.237620  1.0  -0.0661
  C  C278  1  0.815010  0.197460  0.067670  1.0  -0.0411
  C  C279  1  0.904280  0.672450  0.273710  1.0  -0.08
  C  C280  1  0.152260  0.599740  0.205290  1.0  -0.1854
  C  C281  1  0.959530  0.339540  0.590870  1.0  0.6588
  C  C282  1  0.181410  0.573900  0.581990  1.0  -0.15
  C  C283  1  0.208530  0.579090  0.234050  1.0  0.1569
  C  C284  1  0.180770  0.617850  0.630440  1.0  -0.0485
  C  C285  1  0.109940  0.548430  0.558260  1.0  0.6842
  C  C286  1  0.930690  0.243830  0.643150  1.0  -0.1309
  C  C287  1  0.294930  0.604650  0.170960  1.0  -0.0004
  C  C288  1  0.347960  0.579820  0.201540  1.0  -0.0149
  C  C289  1  0.316900  0.533590  0.289290  1.0  -0.1726
  C  C290  1  0.231600  0.512370  0.347990  1.0  0.1826
  C  C291  1  0.322640  0.651710  0.080290  1.0  -0.0231
  C  C292  1  0.182740  0.645900  0.116480  1.0  -0.0652
  C  C293  1  0.882450  0.197460  0.734870  1.0  -0.0438
  C  C294  1  0.268170  0.672450  0.053840  1.0  -0.0791
  C  C295  1  0.552520  0.194970  0.599740  1.0  -0.1846
  C  C296  1  0.619990  0.069590  0.339540  1.0  0.6589
  C  C297  1  0.607510  0.844110  0.573900  1.0  -0.1504
  C  C298  1  0.629440  0.186860  0.579090  1.0  0.157
  C  C299  1  0.562920  0.751710  0.617850  1.0  -0.0465
  C  C300  1  0.561510  0.893310  0.548430  1.0  0.681
  C  C301  1  0.686860  0.113020  0.243830  1.0  -0.1322
  C  C302  1  0.690280  0.224390  0.604650  1.0  -0.003
  C  C303  1  0.768140  0.218640  0.579820  1.0  -0.0115
  C  C304  1  0.783310  0.177120  0.533590  1.0  -0.1757
  C  C305  1  0.719230  0.139640  0.512370  1.0  0.1836
  C  C306  1  0.670930  0.268000  0.651710  1.0  -0.0224
  C  C307  1  0.536840  0.237620  0.645900  1.0  -0.0695
  C  C308  1  0.684990  0.067670  0.197460  1.0  -0.0407
  C  C309  1  0.595720  0.273710  0.672450  1.0  -0.082
  C  C310  1  0.357550  0.205290  0.194970  1.0  -0.1855
  C  C311  1  0.550400  0.590870  0.069590  1.0  0.6587
  C  C312  1  0.763400  0.581990  0.844110  1.0  -0.151
  C  C313  1  0.442580  0.234050  0.186860  1.0  0.1577
  C  C314  1  0.811210  0.630440  0.751710  1.0  -0.047
  C  C315  1  0.668200  0.558260  0.893310  1.0  0.6808
  C  C316  1  0.573840  0.643150  0.113020  1.0  -0.1295
  C  C317  1  0.465890  0.170960  0.224390  1.0  -0.0081
  C  C318  1  0.549500  0.201540  0.218640  1.0  -0.0151
  C  C319  1  0.606190  0.289290  0.177120  1.0  -0.1735
  C  C320  1  0.579590  0.347990  0.139640  1.0  0.1834
  C  C321  1  0.402930  0.080290  0.268000  1.0  -0.0245
  C  C322  1  0.299220  0.116480  0.237620  1.0  -0.0701
  C  C323  1  0.617320  0.734870  0.067670  1.0  -0.0423
  C  C324  1  0.322010  0.053840  0.273710  1.0  -0.0837
  C  C325  1  0.049300  0.799300  0.401400  1.0  -0.0303
  C  C326  1  0.140290  0.890290  0.219420  1.0  -0.1165
  C  C327  1  0.450700  0.401400  0.799300  1.0  -0.0282
  C  C328  1  0.359710  0.219420  0.890290  1.0  -0.1172
  C  C329  1  0.250000  0.799300  0.799300  1.0  -0.0305
  C  C330  1  0.250000  0.890290  0.890290  1.0  -0.1186
  C  C331  1  0.950700  0.200700  0.598600  1.0  -0.0306
  C  C332  1  0.859710  0.109710  0.780580  1.0  -0.1194
  C  C333  1  0.549300  0.598600  0.200700  1.0  -0.0288
  C  C334  1  0.640290  0.780580  0.109710  1.0  -0.1145
  C  C335  1  0.750000  0.200700  0.200700  1.0  -0.0302
  C  C336  1  0.750000  0.109710  0.109710  1.0  -0.1169
  C  C337  1  0.305540  0.111080  0.444460  1.0  -0.0285
  C  C338  1  0.396690  0.293380  0.353310  1.0  -0.0908
  C  C339  1  0.750000  0.444460  0.444460  1.0  -0.0312
  C  C340  1  0.750000  0.353310  0.353310  1.0  -0.0938
  C  C341  1  0.194460  0.444460  0.111080  1.0  -0.0299
  C  C342  1  0.103310  0.353310  0.293380  1.0  -0.0948
  C  C343  1  0.694460  0.888920  0.555540  1.0  -0.0285
  C  C344  1  0.603310  0.706620  0.646690  1.0  -0.092
  C  C345  1  0.250000  0.555540  0.555540  1.0  -0.0302
  C  C346  1  0.250000  0.646690  0.646690  1.0  -0.0955
  C  C347  1  0.805540  0.555540  0.888920  1.0  -0.0313
  C  C348  1  0.896690  0.646690  0.706620  1.0  -0.0942
  N  N349  1  0.001810  0.856840  0.676390  1.0  -0.3799
  N  N350  1  0.678200  0.676390  0.466770  1.0  -0.3822
  N  N351  1  0.144970  0.466770  0.856840  1.0  -0.3808
  N  N352  1  0.821800  0.466770  0.676390  1.0  -0.3823
  N  N353  1  0.355030  0.856840  0.466770  1.0  -0.382
  N  N354  1  0.498190  0.676390  0.856840  1.0  -0.3832
  N  N355  1  0.998190  0.143160  0.323610  1.0  -0.3815
  N  N356  1  0.321800  0.323610  0.533230  1.0  -0.3833
  N  N357  1  0.855030  0.533230  0.143160  1.0  -0.3821
  N  N358  1  0.178200  0.533230  0.323610  1.0  -0.3808
  N  N359  1  0.644970  0.143160  0.533230  1.0  -0.3803
  N  N360  1  0.501810  0.323610  0.143160  1.0  -0.3814
  O  O361  1  0.119160  0.030480  0.508690  1.0  -0.6037
  O  O362  1  0.030580  0.891670  0.488710  1.0  -0.5704
  O  O363  1  0.141990  0.144820  0.393590  1.0  -0.5761
  O  O364  1  0.050530  0.000840  0.370360  1.0  -0.5815
  O  O365  1  0.627850  0.508690  0.460830  1.0  -0.604
  O  O366  1  0.519290  0.488710  0.619620  1.0  -0.5707
  O  O367  1  0.535580  0.393590  0.461590  1.0  -0.5763
  O  O368  1  0.420890  0.370360  0.628800  1.0  -0.583
  O  O369  1  0.088680  0.460830  0.030480  1.0  -0.6018
  O  O370  1  0.138910  0.619620  0.891670  1.0  -0.5716
  O  O371  1  0.997170  0.461590  0.144820  1.0  -0.5754
  O  O372  1  0.049690  0.628800  0.000840  1.0  -0.5822
  O  O373  1  0.872150  0.460830  0.508690  1.0  -0.6027
  O  O374  1  0.980710  0.619620  0.488710  1.0  -0.5702
  O  O375  1  0.964420  0.461590  0.393590  1.0  -0.5752
  O  O376  1  0.079110  0.628800  0.370360  1.0  -0.5822
  O  O377  1  0.411320  0.030480  0.460830  1.0  -0.6037
  O  O378  1  0.361090  0.891670  0.619620  1.0  -0.5703
  O  O379  1  0.502830  0.144820  0.461590  1.0  -0.5759
  O  O380  1  0.450310  0.000840  0.628800  1.0  -0.582
  O  O381  1  0.380840  0.508690  0.030480  1.0  -0.6033
  O  O382  1  0.469420  0.488710  0.891670  1.0  -0.5703
  O  O383  1  0.358010  0.393590  0.144820  1.0  -0.575
  O  O384  1  0.449470  0.370360  0.000840  1.0  -0.5829
  O  O385  1  0.880840  0.969520  0.491310  1.0  -0.6035
  O  O386  1  0.969420  0.108330  0.511290  1.0  -0.57
  O  O387  1  0.858010  0.855180  0.606410  1.0  -0.576
  O  O388  1  0.949470  0.999160  0.629640  1.0  -0.5816
  O  O389  1  0.372150  0.491310  0.539170  1.0  -0.6033
  O  O390  1  0.480710  0.511290  0.380380  1.0  -0.5701
  O  O391  1  0.464420  0.606410  0.538410  1.0  -0.5753
  O  O392  1  0.579110  0.629640  0.371200  1.0  -0.5827
  O  O393  1  0.911320  0.539170  0.969520  1.0  -0.6026
  O  O394  1  0.861090  0.380380  0.108330  1.0  -0.5701
  O  O395  1  0.002830  0.538410  0.855180  1.0  -0.5749
  O  O396  1  0.950310  0.371200  0.999160  1.0  -0.5825
  O  O397  1  0.127850  0.539170  0.491310  1.0  -0.6019
  O  O398  1  0.019290  0.380380  0.511290  1.0  -0.5712
  O  O399  1  0.035580  0.538410  0.606410  1.0  -0.5748
  O  O400  1  0.920890  0.371200  0.629640  1.0  -0.5824
  O  O401  1  0.588680  0.969520  0.539170  1.0  -0.6038
  O  O402  1  0.638910  0.108330  0.380380  1.0  -0.5705
  O  O403  1  0.497170  0.855180  0.538410  1.0  -0.5763
  O  O404  1  0.549690  0.999160  0.371200  1.0  -0.5814
  O  O405  1  0.619160  0.491310  0.969520  1.0  -0.6035
  O  O406  1  0.530580  0.511290  0.108330  1.0  -0.5702
  O  O407  1  0.641990  0.606410  0.855180  1.0  -0.5763
  O  O408  1  0.550530  0.629640  0.999160  1.0  -0.583
