# generated using pymatgen
data_ZnH11C17NO4
_symmetry_space_group_name_H-M   'P 1'
_cell_length_a   18.27910000
_cell_length_b   18.49140000
_cell_length_c   18.49140000
_cell_angle_alpha   70.29740000
_cell_angle_beta   70.76120000
_cell_angle_gamma   109.23900000
_symmetry_Int_Tables_number   1
_chemical_formula_structural   ZnH11C17NO4
_chemical_formula_sum   'Zn12 H132 C204 N12 O48'
_cell_volume   4825.13356086
_cell_formula_units_Z   12
loop_
 _symmetry_equiv_pos_site_id
 _symmetry_equiv_pos_as_xyz
  1  'x, y, z'
loop_
 _atom_site_type_symbol
 _atom_site_label
 _atom_site_symmetry_multiplicity
 _atom_site_fract_x
 _atom_site_fract_y
 _atom_site_fract_z
 _atom_site_occupancy
 _atom_site_charge
  Zn  Zn1  1  0.440180  0.505910  0.074010  1.0  0.9311
  Zn  Zn2  1  0.514190  0.074010  0.420080  1.0  0.9305
  Zn  Zn3  1  0.934270  0.420080  0.505910  1.0  0.931
  Zn  Zn4  1  0.985810  0.420080  0.074010  1.0  0.9309
  Zn  Zn5  1  0.565730  0.505910  0.420080  1.0  0.931
  Zn  Zn6  1  0.059820  0.074010  0.505910  1.0  0.931
  Zn  Zn7  1  0.559820  0.494090  0.925990  1.0  0.9311
  Zn  Zn8  1  0.485810  0.925990  0.579920  1.0  0.9303
  Zn  Zn9  1  0.065730  0.579920  0.494090  1.0  0.9311
  Zn  Zn10  1  0.014190  0.579920  0.925990  1.0  0.931
  Zn  Zn11  1  0.434270  0.494090  0.579920  1.0  0.9311
  Zn  Zn12  1  0.940180  0.925990  0.494090  1.0  0.9312
  H  H13  1  0.504000  0.372000  0.279100  1.0  0.0972
  H  H14  1  0.360200  0.225600  0.007000  1.0  0.1038
  H  H15  1  0.419300  0.705900  0.304300  1.0  0.0887
  H  H16  1  0.189900  0.599200  0.245900  1.0  0.0944
  H  H17  1  0.161200  0.518000  0.176700  1.0  0.1252
  H  H18  1  0.265900  0.480500  0.113400  1.0  0.0795
  H  H19  1  0.516200  0.658300  0.245000  1.0  0.0926
  H  H20  1  0.290000  0.671200  0.296300  1.0  0.1139
  H  H21  1  0.486000  0.578600  0.175500  1.0  0.1215
  H  H22  1  0.783100  0.279100  0.348900  1.0  0.097
  H  H23  1  0.367200  0.007000  0.767400  1.0  0.1047
  H  H24  1  0.723600  0.304300  0.989800  1.0  0.0886
  H  H25  1  0.435800  0.245900  0.154900  1.0  0.0956
  H  H26  1  0.337900  0.176700  0.305300  1.0  0.1263
  H  H27  1  0.379300  0.113400  0.406100  1.0  0.0793
  H  H28  1  0.761200  0.245000  0.096700  1.0  0.0942
  H  H29  1  0.586300  0.296300  0.032500  1.0  0.1136
  H  H30  1  0.661500  0.175500  0.245900  1.0  0.1216
  H  H31  1  0.132000  0.348900  0.372000  1.0  0.0969
  H  H32  1  0.134600  0.767400  0.225600  1.0  0.1047
  H  H33  1  0.713400  0.989800  0.705900  1.0  0.0895
  H  H34  1  0.590700  0.154900  0.599200  1.0  0.096
  H  H35  1  0.643200  0.305300  0.518000  1.0  0.1256
  H  H36  1  0.785400  0.406100  0.480500  1.0  0.0801
  H  H37  1  0.857900  0.096700  0.658300  1.0  0.0932
  H  H38  1  0.618800  0.032500  0.671200  1.0  0.1144
  H  H39  1  0.907400  0.245900  0.578600  1.0  0.1228
  H  H40  1  0.716900  0.348900  0.279100  1.0  0.0972
  H  H41  1  0.132800  0.767400  0.007000  1.0  0.1048
  H  H42  1  0.776400  0.989800  0.304300  1.0  0.0901
  H  H43  1  0.064200  0.154900  0.245900  1.0  0.0952
  H  H44  1  0.162100  0.305300  0.176700  1.0  0.1252
  H  H45  1  0.120700  0.406100  0.113400  1.0  0.0798
  H  H46  1  0.738800  0.096700  0.245000  1.0  0.0923
  H  H47  1  0.913700  0.032500  0.296300  1.0  0.1142
  H  H48  1  0.838500  0.245900  0.175500  1.0  0.1219
  H  H49  1  0.368000  0.372000  0.348900  1.0  0.0973
  H  H50  1  0.365400  0.225600  0.767400  1.0  0.1039
  H  H51  1  0.786600  0.705900  0.989800  1.0  0.0893
  H  H52  1  0.909300  0.599200  0.154900  1.0  0.095
  H  H53  1  0.856800  0.518000  0.305300  1.0  0.1253
  H  H54  1  0.714600  0.480500  0.406100  1.0  0.0804
  H  H55  1  0.642100  0.658300  0.096700  1.0  0.0923
  H  H56  1  0.881200  0.671200  0.032500  1.0  0.1142
  H  H57  1  0.592600  0.578600  0.245900  1.0  0.1209
  H  H58  1  0.996000  0.279100  0.372000  1.0  0.0966
  H  H59  1  0.139800  0.007000  0.225600  1.0  0.1046
  H  H60  1  0.080700  0.304300  0.705900  1.0  0.0887
  H  H61  1  0.310100  0.245900  0.599200  1.0  0.0961
  H  H62  1  0.338800  0.176700  0.518000  1.0  0.1268
  H  H63  1  0.234100  0.113400  0.480500  1.0  0.0783
  H  H64  1  0.983800  0.245000  0.658300  1.0  0.0941
  H  H65  1  0.210000  0.296300  0.671200  1.0  0.1134
  H  H66  1  0.014000  0.175500  0.578600  1.0  0.1207
  H  H67  1  0.496000  0.628000  0.720900  1.0  0.0973
  H  H68  1  0.639800  0.774400  0.993000  1.0  0.1031
  H  H69  1  0.580700  0.294100  0.695700  1.0  0.0892
  H  H70  1  0.810100  0.400800  0.754100  1.0  0.0944
  H  H71  1  0.838800  0.482000  0.823300  1.0  0.1253
  H  H72  1  0.734100  0.519500  0.886600  1.0  0.08
  H  H73  1  0.483800  0.341700  0.755000  1.0  0.0921
  H  H74  1  0.710000  0.328800  0.703700  1.0  0.1141
  H  H75  1  0.514000  0.421400  0.824500  1.0  0.121
  H  H76  1  0.216900  0.720900  0.651100  1.0  0.0968
  H  H77  1  0.632800  0.993000  0.232600  1.0  0.1047
  H  H78  1  0.276400  0.695700  0.010200  1.0  0.0885
  H  H79  1  0.564200  0.754100  0.845100  1.0  0.096
  H  H80  1  0.662100  0.823300  0.694700  1.0  0.1268
  H  H81  1  0.620700  0.886600  0.593900  1.0  0.0784
  H  H82  1  0.238800  0.755000  0.903300  1.0  0.0942
  H  H83  1  0.413700  0.703700  0.967500  1.0  0.1131
  H  H84  1  0.338500  0.824500  0.754100  1.0  0.1209
  H  H85  1  0.868000  0.651100  0.628000  1.0  0.0969
  H  H86  1  0.865400  0.232600  0.774400  1.0  0.1048
  H  H87  1  0.286600  0.010200  0.294100  1.0  0.0902
  H  H88  1  0.409300  0.845100  0.400800  1.0  0.0957
  H  H89  1  0.356800  0.694700  0.482000  1.0  0.1252
  H  H90  1  0.214600  0.593900  0.519500  1.0  0.0808
  H  H91  1  0.142100  0.903300  0.341700  1.0  0.0927
  H  H92  1  0.381200  0.967500  0.328800  1.0  0.1145
  H  H93  1  0.092600  0.754100  0.421400  1.0  0.1218
  H  H94  1  0.283100  0.651100  0.720900  1.0  0.097
  H  H95  1  0.867200  0.232600  0.993000  1.0  0.1048
  H  H96  1  0.223600  0.010200  0.695700  1.0  0.0893
  H  H97  1  0.935800  0.845100  0.754100  1.0  0.0953
  H  H98  1  0.837900  0.694700  0.823300  1.0  0.1254
  H  H99  1  0.879300  0.593900  0.886600  1.0  0.0809
  H  H100  1  0.261200  0.903300  0.755000  1.0  0.0929
  H  H101  1  0.086300  0.967500  0.703700  1.0  0.1145
  H  H102  1  0.161500  0.754100  0.824500  1.0  0.1225
  H  H103  1  0.632000  0.628000  0.651100  1.0  0.0971
  H  H104  1  0.634600  0.774400  0.232600  1.0  0.1029
  H  H105  1  0.213400  0.294100  0.010200  1.0  0.0889
  H  H106  1  0.090700  0.400800  0.845100  1.0  0.0947
  H  H107  1  0.143200  0.482000  0.694700  1.0  0.1255
  H  H108  1  0.285400  0.519500  0.593900  1.0  0.0796
  H  H109  1  0.357900  0.341700  0.903300  1.0  0.0928
  H  H110  1  0.118800  0.328800  0.967500  1.0  0.1138
  H  H111  1  0.407400  0.421400  0.754100  1.0  0.1213
  H  H112  1  0.004000  0.720900  0.628000  1.0  0.097
  H  H113  1  0.860200  0.993000  0.774400  1.0  0.1043
  H  H114  1  0.919300  0.695700  0.294100  1.0  0.0886
  H  H115  1  0.689900  0.754100  0.400800  1.0  0.0956
  H  H116  1  0.661200  0.823300  0.482000  1.0  0.1264
  H  H117  1  0.765900  0.886600  0.519500  1.0  0.0792
  H  H118  1  0.016200  0.755000  0.341700  1.0  0.0942
  H  H119  1  0.790000  0.703700  0.328800  1.0  0.1135
  H  H120  1  0.986000  0.824500  0.421400  1.0  0.1214
  H  H121  1  0.726500  0.476500  0.047000  1.0  0.099
  H  H122  1  0.571900  0.321900  0.356200  1.0  0.1076
  H  H123  1  0.773500  0.047000  0.476500  1.0  0.0996
  H  H124  1  0.928100  0.356200  0.321900  1.0  0.108
  H  H125  1  0.250000  0.476500  0.476500  1.0  0.0986
  H  H126  1  0.250000  0.321900  0.321900  1.0  0.1073
  H  H127  1  0.273500  0.523500  0.953000  1.0  0.0986
  H  H128  1  0.428100  0.678100  0.643800  1.0  0.1073
  H  H129  1  0.226500  0.953000  0.523500  1.0  0.1002
  H  H130  1  0.071900  0.643800  0.678100  1.0  0.108
  H  H131  1  0.750000  0.523500  0.523500  1.0  0.0984
  H  H132  1  0.750000  0.678100  0.678100  1.0  0.1076
  H  H133  1  0.250000  0.232050  0.232050  1.0  0.1025
  H  H134  1  0.250000  0.077600  0.077600  1.0  0.1053
  H  H135  1  0.482050  0.232050  0.535900  1.0  0.1017
  H  H136  1  0.327600  0.077600  0.844800  1.0  0.1081
  H  H137  1  0.017950  0.535900  0.232050  1.0  0.1032
  H  H138  1  0.172400  0.844800  0.077600  1.0  0.1067
  H  H139  1  0.750000  0.767950  0.767950  1.0  0.1019
  H  H140  1  0.750000  0.922400  0.922400  1.0  0.1063
  H  H141  1  0.517950  0.767950  0.464100  1.0  0.1027
  H  H142  1  0.672400  0.922400  0.155200  1.0  0.1072
  H  H143  1  0.982050  0.464100  0.767950  1.0  0.1028
  H  H144  1  0.827600  0.155200  0.922400  1.0  0.1062
  C  C145  1  0.560980  0.451220  0.105630  1.0  0.6733
  C  C146  1  0.607360  0.425880  0.155590  1.0  -0.1628
  C  C147  1  0.562520  0.382190  0.247560  1.0  -0.0325
  C  C148  1  0.380010  0.340100  0.068820  1.0  0.6668
  C  C149  1  0.313350  0.244000  0.112070  1.0  -0.1551
  C  C150  1  0.314880  0.197280  0.066730  1.0  -0.0284
  C  C151  1  0.405520  0.672930  0.276280  1.0  -0.0888
  C  C152  1  0.231200  0.582140  0.221280  1.0  0.0129
  C  C153  1  0.214500  0.535120  0.180110  1.0  -0.1915
  C  C154  1  0.277460  0.512370  0.142930  1.0  0.1818
  C  C155  1  0.463710  0.644600  0.240210  1.0  -0.0352
  C  C156  1  0.309460  0.605540  0.227460  1.0  -0.0223
  C  C157  1  0.329680  0.653030  0.270840  1.0  -0.0908
  C  C158  1  0.369410  0.578760  0.190090  1.0  0.2265
  C  C159  1  0.446410  0.597930  0.198550  1.0  -0.1712
  C  C160  1  0.666667  0.105630  0.443150  1.0  0.671
  C  C161  1  0.762950  0.155590  0.418530  1.0  -0.1592
  C  C162  1  0.810080  0.247560  0.370250  1.0  -0.0326
  C  C163  1  0.448830  0.068820  0.591080  1.0  0.6667
  C  C164  1  0.425420  0.112070  0.643930  1.0  -0.1554
  C  C165  1  0.381610  0.066730  0.735990  1.0  -0.0268
  C  C166  1  0.681800  0.276280  0.050790  1.0  -0.0905
  C  C167  1  0.452480  0.221280  0.196580  1.0  0.0152
  C  C168  1  0.394610  0.180110  0.284770  1.0  -0.1935
  C  C169  1  0.420390  0.142930  0.344700  1.0  0.1835
  C  C170  1  0.703920  0.240210  0.115190  1.0  -0.0374
  C  C171  1  0.536920  0.227460  0.167000  1.0  -0.0293
  C  C172  1  0.600520  0.270840  0.076130  1.0  -0.0902
  C  C173  1  0.559500  0.190090  0.231150  1.0  0.2276
  C  C174  1  0.644960  0.198550  0.203520  1.0  -0.1702
  C  C175  1  0.109760  0.443150  0.451220  1.0  0.6709
  C  C176  1  0.181480  0.418530  0.425880  1.0  -0.1639
  C  C177  1  0.180330  0.370250  0.382190  1.0  -0.032
  C  C178  1  0.039910  0.591080  0.340100  1.0  0.6672
  C  C179  1  0.069350  0.643930  0.244000  1.0  -0.1552
  C  C180  1  0.117600  0.735990  0.197280  1.0  -0.0267
  C  C181  1  0.732590  0.050790  0.672930  1.0  -0.0909
  C  C182  1  0.649060  0.196580  0.582140  1.0  0.0132
  C  C183  1  0.679380  0.284770  0.535120  1.0  -0.1923
  C  C184  1  0.765090  0.344700  0.512370  1.0  0.1825
  C  C185  1  0.819110  0.115190  0.644600  1.0  -0.0412
  C  C186  1  0.703920  0.167000  0.605540  1.0  -0.028
  C  C187  1  0.676650  0.076130  0.653030  1.0  -0.0917
  C  C188  1  0.790650  0.231150  0.578760  1.0  0.2276
  C  C189  1  0.848480  0.203520  0.597930  1.0  -0.1718
  C  C190  1  0.833390  0.443150  0.105630  1.0  0.6724
  C  C191  1  0.737050  0.418530  0.155590  1.0  -0.1633
  C  C192  1  0.689920  0.370250  0.247560  1.0  -0.0338
  C  C193  1  0.051170  0.591080  0.068820  1.0  0.6661
  C  C194  1  0.074580  0.643930  0.112070  1.0  -0.156
  C  C195  1  0.118390  0.735990  0.066730  1.0  -0.0269
  C  C196  1  0.818200  0.050790  0.276280  1.0  -0.0911
  C  C197  1  0.047520  0.196580  0.221280  1.0  0.0122
  C  C198  1  0.105390  0.284770  0.180110  1.0  -0.1912
  C  C199  1  0.079610  0.344700  0.142930  1.0  0.1829
  C  C200  1  0.796080  0.115190  0.240210  1.0  -0.0386
  C  C201  1  0.963080  0.167000  0.227460  1.0  -0.0288
  C  C202  1  0.899480  0.076130  0.270840  1.0  -0.0909
  C  C203  1  0.940500  0.231150  0.190090  1.0  0.2269
  C  C204  1  0.855040  0.203520  0.198550  1.0  -0.1711
  C  C205  1  0.390240  0.451220  0.443150  1.0  0.6731
  C  C206  1  0.318520  0.425880  0.418530  1.0  -0.164
  C  C207  1  0.319670  0.382190  0.370250  1.0  -0.0321
  C  C208  1  0.460090  0.340100  0.591080  1.0  0.6665
  C  C209  1  0.430650  0.244000  0.643930  1.0  -0.1552
  C  C210  1  0.382400  0.197280  0.735990  1.0  -0.0296
  C  C211  1  0.767410  0.672930  0.050790  1.0  -0.0882
  C  C212  1  0.850940  0.582140  0.196580  1.0  0.013
  C  C213  1  0.820620  0.535120  0.284770  1.0  -0.191
  C  C214  1  0.734910  0.512370  0.344700  1.0  0.1823
  C  C215  1  0.680890  0.644600  0.115190  1.0  -0.0338
  C  C216  1  0.796080  0.605540  0.167000  1.0  -0.0218
  C  C217  1  0.823350  0.653030  0.076130  1.0  -0.0907
  C  C218  1  0.709350  0.578760  0.231150  1.0  0.2258
  C  C219  1  0.651520  0.597930  0.203520  1.0  -0.1708
  C  C220  1  0.939020  0.105630  0.451220  1.0  0.6726
  C  C221  1  0.892640  0.155590  0.425880  1.0  -0.1635
  C  C222  1  0.937480  0.247560  0.382190  1.0  -0.0327
  C  C223  1  0.119990  0.068820  0.340100  1.0  0.6668
  C  C224  1  0.186650  0.112070  0.244000  1.0  -0.1563
  C  C225  1  0.185120  0.066730  0.197280  1.0  -0.0256
  C  C226  1  0.094480  0.276280  0.672930  1.0  -0.0904
  C  C227  1  0.268800  0.221280  0.582140  1.0  0.0144
  C  C228  1  0.285500  0.180110  0.535120  1.0  -0.194
  C  C229  1  0.222540  0.142930  0.512370  1.0  0.1829
  C  C230  1  0.036290  0.240210  0.644600  1.0  -0.0385
  C  C231  1  0.190540  0.227460  0.605540  1.0  -0.0263
  C  C232  1  0.170320  0.270840  0.653030  1.0  -0.0895
  C  C233  1  0.130590  0.190090  0.578760  1.0  0.2277
  C  C234  1  0.053590  0.198550  0.597930  1.0  -0.1702
  C  C235  1  0.439020  0.548780  0.894370  1.0  0.6734
  C  C236  1  0.392640  0.574120  0.844410  1.0  -0.1637
  C  C237  1  0.437480  0.617810  0.752440  1.0  -0.0322
  C  C238  1  0.619990  0.659900  0.931180  1.0  0.6661
  C  C239  1  0.686650  0.756000  0.887930  1.0  -0.1555
  C  C240  1  0.685120  0.802720  0.933270  1.0  -0.0294
  C  C241  1  0.594480  0.327070  0.723720  1.0  -0.0891
  C  C242  1  0.768800  0.417860  0.778720  1.0  0.0121
  C  C243  1  0.785500  0.464880  0.819890  1.0  -0.1916
  C  C244  1  0.722540  0.487630  0.857070  1.0  0.182
  C  C245  1  0.536290  0.355400  0.759790  1.0  -0.0345
  C  C246  1  0.690540  0.394460  0.772540  1.0  -0.0214
  C  C247  1  0.670320  0.346970  0.729160  1.0  -0.091
  C  C248  1  0.630590  0.421240  0.809910  1.0  0.2258
  C  C249  1  0.553590  0.402070  0.801450  1.0  -0.1712
  C  C250  1  0.333390  0.894370  0.556850  1.0  0.6725
  C  C251  1  0.237050  0.844410  0.581470  1.0  -0.1639
  C  C252  1  0.189920  0.752440  0.629750  1.0  -0.0325
  C  C253  1  0.551170  0.931180  0.408920  1.0  0.6668
  C  C254  1  0.574580  0.887930  0.356070  1.0  -0.1559
  C  C255  1  0.618390  0.933270  0.264010  1.0  -0.0249
  C  C256  1  0.318200  0.723720  0.949210  1.0  -0.0906
  C  C257  1  0.547520  0.778720  0.803420  1.0  0.0138
  C  C258  1  0.605390  0.819890  0.715230  1.0  -0.1936
  C  C259  1  0.579610  0.857070  0.655300  1.0  0.183
  C  C260  1  0.296080  0.759790  0.884810  1.0  -0.0388
  C  C261  1  0.463080  0.772540  0.833000  1.0  -0.0268
  C  C262  1  0.399480  0.729160  0.923870  1.0  -0.0895
  C  C263  1  0.440500  0.809910  0.768850  1.0  0.2272
  C  C264  1  0.355040  0.801450  0.796480  1.0  -0.1695
  C  C265  1  0.890240  0.556850  0.548780  1.0  0.6725
  C  C266  1  0.818520  0.581470  0.574120  1.0  -0.1633
  C  C267  1  0.819670  0.629750  0.617810  1.0  -0.0341
  C  C268  1  0.960090  0.408920  0.659900  1.0  0.6664
  C  C269  1  0.930650  0.356070  0.756000  1.0  -0.156
  C  C270  1  0.882400  0.264010  0.802720  1.0  -0.0266
  C  C271  1  0.267410  0.949210  0.327070  1.0  -0.0913
  C  C272  1  0.350940  0.803420  0.417860  1.0  0.0129
  C  C273  1  0.320620  0.715230  0.464880  1.0  -0.1907
  C  C274  1  0.234910  0.655300  0.487630  1.0  0.1832
  C  C275  1  0.180890  0.884810  0.355400  1.0  -0.0398
  C  C276  1  0.296080  0.833000  0.394460  1.0  -0.0277
  C  C277  1  0.323350  0.923870  0.346970  1.0  -0.0911
  C  C278  1  0.209350  0.768850  0.421240  1.0  0.2267
  C  C279  1  0.151520  0.796480  0.402070  1.0  -0.1704
  C  C280  1  0.166610  0.556850  0.894370  1.0  0.6709
  C  C281  1  0.262950  0.581470  0.844410  1.0  -0.1638
  C  C282  1  0.310080  0.629750  0.752440  1.0  -0.0323
  C  C283  1  0.948830  0.408920  0.931180  1.0  0.6673
  C  C284  1  0.925420  0.356070  0.887930  1.0  -0.1553
  C  C285  1  0.881610  0.264010  0.933270  1.0  -0.0267
  C  C286  1  0.181800  0.949210  0.723720  1.0  -0.0915
  C  C287  1  0.952480  0.803420  0.778720  1.0  0.0133
  C  C288  1  0.894610  0.715230  0.819890  1.0  -0.1919
  C  C289  1  0.920390  0.655300  0.857070  1.0  0.183
  C  C290  1  0.203920  0.884810  0.759790  1.0  -0.0416
  C  C291  1  0.036920  0.833000  0.772540  1.0  -0.0283
  C  C292  1  0.100520  0.923870  0.729160  1.0  -0.0925
  C  C293  1  0.059500  0.768850  0.809910  1.0  0.2276
  C  C294  1  0.144960  0.796480  0.801450  1.0  -0.1718
  C  C295  1  0.609760  0.548780  0.556850  1.0  0.6734
  C  C296  1  0.681480  0.574120  0.581470  1.0  -0.1627
  C  C297  1  0.680330  0.617810  0.629750  1.0  -0.0327
  C  C298  1  0.539910  0.659900  0.408920  1.0  0.6668
  C  C299  1  0.569350  0.756000  0.356070  1.0  -0.1555
  C  C300  1  0.617600  0.802720  0.264010  1.0  -0.0279
  C  C301  1  0.232590  0.327070  0.949210  1.0  -0.0889
  C  C302  1  0.149060  0.417860  0.803420  1.0  0.0123
  C  C303  1  0.179380  0.464880  0.715230  1.0  -0.1919
  C  C304  1  0.265090  0.487630  0.655300  1.0  0.1822
  C  C305  1  0.319110  0.355400  0.884810  1.0  -0.0371
  C  C306  1  0.203920  0.394460  0.833000  1.0  -0.0219
  C  C307  1  0.176650  0.346970  0.923870  1.0  -0.0905
  C  C308  1  0.290650  0.421240  0.768850  1.0  0.2262
  C  C309  1  0.348480  0.402070  0.796480  1.0  -0.1723
  C  C310  1  0.060980  0.894370  0.548780  1.0  0.6703
  C  C311  1  0.107360  0.844410  0.574120  1.0  -0.1629
  C  C312  1  0.062520  0.752440  0.617810  1.0  -0.0325
  C  C313  1  0.880010  0.931180  0.659900  1.0  0.667
  C  C314  1  0.813350  0.887930  0.756000  1.0  -0.1551
  C  C315  1  0.814880  0.933270  0.802720  1.0  -0.0273
  C  C316  1  0.905520  0.723720  0.327070  1.0  -0.0909
  C  C317  1  0.731200  0.778720  0.417860  1.0  0.0148
  C  C318  1  0.714500  0.819890  0.464880  1.0  -0.193
  C  C319  1  0.777460  0.857070  0.487630  1.0  0.1831
  C  C320  1  0.963710  0.759790  0.355400  1.0  -0.0373
  C  C321  1  0.809460  0.772540  0.394460  1.0  -0.0279
  C  C322  1  0.829680  0.729160  0.346970  1.0  -0.0911
  C  C323  1  0.869410  0.809910  0.421240  1.0  0.227
  C  C324  1  0.946410  0.801450  0.402070  1.0  -0.1695
  C  C325  1  0.695130  0.445130  0.109740  1.0  -0.0098
  C  C326  1  0.603330  0.353330  0.293340  1.0  -0.1092
  C  C327  1  0.804870  0.109740  0.445130  1.0  -0.0082
  C  C328  1  0.896670  0.293340  0.353330  1.0  -0.1057
  C  C329  1  0.250000  0.445130  0.445130  1.0  -0.0105
  C  C330  1  0.250000  0.353330  0.353330  1.0  -0.1076
  C  C331  1  0.304870  0.554870  0.890260  1.0  -0.0107
  C  C332  1  0.396670  0.646670  0.706660  1.0  -0.108
  C  C333  1  0.195130  0.890260  0.554870  1.0  -0.0082
  C  C334  1  0.103330  0.706660  0.646670  1.0  -0.1062
  C  C335  1  0.750000  0.554870  0.554870  1.0  -0.01
  C  C336  1  0.750000  0.646670  0.646670  1.0  -0.1096
  C  C337  1  0.250000  0.200650  0.200650  1.0  -0.0178
  C  C338  1  0.250000  0.109010  0.109010  1.0  -0.1222
  C  C339  1  0.450650  0.200650  0.598700  1.0  -0.018
  C  C340  1  0.359010  0.109010  0.781980  1.0  -0.1232
  C  C341  1  0.049350  0.598700  0.200650  1.0  -0.0164
  C  C342  1  0.140990  0.781980  0.109010  1.0  -0.1222
  C  C343  1  0.750000  0.799350  0.799350  1.0  -0.0175
  C  C344  1  0.750000  0.890990  0.890990  1.0  -0.1221
  C  C345  1  0.549350  0.799350  0.401300  1.0  -0.0174
  C  C346  1  0.640990  0.890990  0.218020  1.0  -0.1216
  C  C347  1  0.950650  0.401300  0.799350  1.0  -0.0158
  C  C348  1  0.859010  0.218020  0.890990  1.0  -0.1238
  N  N349  1  0.352300  0.532920  0.146800  1.0  -0.3539
  N  N350  1  0.499100  0.146800  0.320280  1.0  -0.3527
  N  N351  1  0.819380  0.320280  0.532920  1.0  -0.3554
  N  N352  1  0.000900  0.320280  0.146800  1.0  -0.3544
  N  N353  1  0.680620  0.532920  0.320280  1.0  -0.354
  N  N354  1  0.147700  0.146800  0.532920  1.0  -0.354
  N  N355  1  0.647700  0.467080  0.853200  1.0  -0.3535
  N  N356  1  0.500900  0.853200  0.679720  1.0  -0.354
  N  N357  1  0.180620  0.679720  0.467080  1.0  -0.3546
  N  N358  1  0.999100  0.679720  0.853200  1.0  -0.3545
  N  N359  1  0.319380  0.467080  0.679720  1.0  -0.3534
  N  N360  1  0.852300  0.853200  0.467080  1.0  -0.3536
  O  O361  1  0.496870  0.461050  0.143660  1.0  -0.5734
  O  O362  1  0.360980  0.379840  0.108680  1.0  -0.5769
  O  O363  1  0.589320  0.460290  0.029470  1.0  -0.6098
  O  O364  1  0.449880  0.372090  0.997490  1.0  -0.5912
  O  O365  1  0.640530  0.143660  0.395290  1.0  -0.5745
  O  O366  1  0.469660  0.108680  0.511480  1.0  -0.5769
  O  O367  1  0.618790  0.029470  0.510240  1.0  -0.6104
  O  O368  1  0.447370  0.997490  0.630420  1.0  -0.5909
  O  O369  1  0.035820  0.395290  0.461050  1.0  -0.5736
  O  O370  1  0.981140  0.511480  0.379840  1.0  -0.5773
  O  O371  1  0.129030  0.510240  0.460290  1.0  -0.6106
  O  O372  1  0.077790  0.630420  0.372090  1.0  -0.5915
  O  O373  1  0.859470  0.395290  0.143660  1.0  -0.5733
  O  O374  1  0.030340  0.511480  0.108680  1.0  -0.5777
  O  O375  1  0.881210  0.510240  0.029470  1.0  -0.6105
  O  O376  1  0.052630  0.630420  0.997490  1.0  -0.5917
  O  O377  1  0.464180  0.461050  0.395290  1.0  -0.573
  O  O378  1  0.518860  0.379840  0.511480  1.0  -0.5779
  O  O379  1  0.370970  0.460290  0.510240  1.0  -0.6088
  O  O380  1  0.422210  0.372090  0.630420  1.0  -0.5913
  O  O381  1  0.003130  0.143660  0.461050  1.0  -0.5742
  O  O382  1  0.139020  0.108680  0.379840  1.0  -0.577
  O  O383  1  0.910680  0.029470  0.460290  1.0  -0.6106
  O  O384  1  0.050120  0.997490  0.372090  1.0  -0.5909
  O  O385  1  0.503130  0.538950  0.856340  1.0  -0.573
  O  O386  1  0.639020  0.620160  0.891320  1.0  -0.5783
  O  O387  1  0.410680  0.539710  0.970530  1.0  -0.6075
  O  O388  1  0.550120  0.627910  0.002510  1.0  -0.5912
  O  O389  1  0.359470  0.856340  0.604710  1.0  -0.5742
  O  O390  1  0.530340  0.891320  0.488520  1.0  -0.5767
  O  O391  1  0.381210  0.970530  0.489760  1.0  -0.6095
  O  O392  1  0.552630  0.002510  0.369580  1.0  -0.5911
  O  O393  1  0.964180  0.604710  0.538950  1.0  -0.5734
  O  O394  1  0.018860  0.488520  0.620160  1.0  -0.5782
  O  O395  1  0.870970  0.489760  0.539710  1.0  -0.609
  O  O396  1  0.922210  0.369580  0.627910  1.0  -0.5919
  O  O397  1  0.140530  0.604710  0.856340  1.0  -0.5733
  O  O398  1  0.969660  0.488520  0.891320  1.0  -0.5774
  O  O399  1  0.118790  0.489760  0.970530  1.0  -0.6088
  O  O400  1  0.947370  0.369580  0.002510  1.0  -0.5916
  O  O401  1  0.535820  0.538950  0.604710  1.0  -0.5733
  O  O402  1  0.481140  0.620160  0.488520  1.0  -0.577
  O  O403  1  0.629030  0.539710  0.489760  1.0  -0.6087
  O  O404  1  0.577790  0.627910  0.369580  1.0  -0.591
  O  O405  1  0.996870  0.856340  0.538950  1.0  -0.574
  O  O406  1  0.860980  0.891320  0.620160  1.0  -0.5767
  O  O407  1  0.089320  0.970530  0.539710  1.0  -0.6093
  O  O408  1  0.949880  0.002510  0.627910  1.0  -0.5912
