# generated using pymatgen
data_CuH11C17NO4
_symmetry_space_group_name_H-M   'P 1'
_cell_length_a   18.38000000
_cell_length_b   18.55570000
_cell_length_c   18.55570000
_cell_angle_alpha   70.33780000
_cell_angle_beta   70.72040000
_cell_angle_gamma   109.28000000
_symmetry_Int_Tables_number   1
_chemical_formula_structural   CuH11C17NO4
_chemical_formula_sum   'Cu12 H132 C204 N12 O48'
_cell_volume   4883.12169599
_cell_formula_units_Z   12
loop_
 _symmetry_equiv_pos_site_id
 _symmetry_equiv_pos_as_xyz
  1  'x, y, z'
loop_
 _atom_site_type_symbol
 _atom_site_label
 _atom_site_symmetry_multiplicity
 _atom_site_fract_x
 _atom_site_fract_y
 _atom_site_fract_z
 _atom_site_occupancy
 _atom_site_charge
  Cu  Cu1  1  0.512090  0.571610  0.935290  1.0  0.8333
  Cu  Cu2  1  0.447380  0.935290  0.493100  1.0  0.8335
  Cu  Cu3  1  0.940480  0.493100  0.571610  1.0  0.8339
  Cu  Cu4  1  0.052620  0.493100  0.935290  1.0  0.8339
  Cu  Cu5  1  0.559520  0.571610  0.493100  1.0  0.8335
  Cu  Cu6  1  0.987910  0.935290  0.571610  1.0  0.8334
  Cu  Cu7  1  0.487910  0.428390  0.064710  1.0  0.8335
  Cu  Cu8  1  0.552620  0.064710  0.506900  1.0  0.8339
  Cu  Cu9  1  0.059520  0.506900  0.428390  1.0  0.834
  Cu  Cu10  1  0.947380  0.506900  0.064710  1.0  0.8339
  Cu  Cu11  1  0.440480  0.428390  0.506900  1.0  0.8333
  Cu  Cu12  1  0.012090  0.064710  0.428390  1.0  0.8331
  H  H13  1  0.386700  0.598300  0.879300  1.0  0.0704
  H  H14  1  0.659900  0.756100  0.830700  1.0  0.1227
  H  H15  1  0.346000  0.698400  0.818000  1.0  0.1214
  H  H16  1  0.759200  0.905200  0.761100  1.0  0.0906
  H  H17  1  0.588700  0.968400  0.707600  1.0  0.1117
  H  H18  1  0.441500  0.847500  0.754400  1.0  0.0923
  H  H19  1  0.723500  0.010400  0.698600  1.0  0.089
  H  H20  1  0.219300  0.351600  0.270700  1.0  0.1046
  H  H21  1  0.376200  0.238700  0.986500  1.0  0.099
  H  H22  1  0.266000  0.879300  0.522400  1.0  0.0687
  H  H23  1  0.490600  0.830700  0.413200  1.0  0.122
  H  H24  1  0.164000  0.818000  0.483600  1.0  0.1226
  H  H25  1  0.520300  0.761100  0.333700  1.0  0.0918
  H  H26  1  0.296300  0.707600  0.324000  1.0  0.1105
  H  H27  1  0.195900  0.754400  0.398100  1.0  0.0915
  H  H28  1  0.422100  0.698600  0.291000  1.0  0.0885
  H  H29  1  0.490000  0.270700  0.377700  1.0  0.1036
  H  H30  1  0.362700  0.986500  0.774800  1.0  0.0989
  H  H31  1  0.788400  0.522400  0.598300  1.0  0.0699
  H  H32  1  0.903800  0.413200  0.756100  1.0  0.1219
  H  H33  1  0.647600  0.483600  0.698400  1.0  0.1211
  H  H34  1  0.854000  0.333700  0.905200  1.0  0.0903
  H  H35  1  0.620300  0.324000  0.968400  1.0  0.1109
  H  H36  1  0.594000  0.398100  0.847500  1.0  0.0921
  H  H37  1  0.713100  0.291000  0.010400  1.0  0.088
  H  H38  1  0.867700  0.377700  0.351600  1.0  0.1048
  H  H39  1  0.137500  0.774800  0.238700  1.0  0.0972
  H  H40  1  0.234000  0.522400  0.879300  1.0  0.0701
  H  H41  1  0.009400  0.413200  0.830700  1.0  0.1218
  H  H42  1  0.336000  0.483600  0.818000  1.0  0.121
  H  H43  1  0.979700  0.333700  0.761100  1.0  0.0898
  H  H44  1  0.203700  0.324000  0.707600  1.0  0.1108
  H  H45  1  0.304100  0.398100  0.754400  1.0  0.0912
  H  H46  1  0.077900  0.291000  0.698600  1.0  0.0882
  H  H47  1  0.010000  0.377700  0.270700  1.0  0.1045
  H  H48  1  0.137300  0.774800  0.986500  1.0  0.0971
  H  H49  1  0.711600  0.598300  0.522400  1.0  0.0707
  H  H50  1  0.596200  0.756100  0.413200  1.0  0.1225
  H  H51  1  0.852400  0.698400  0.483600  1.0  0.1216
  H  H52  1  0.646000  0.905200  0.333700  1.0  0.0901
  H  H53  1  0.879700  0.968400  0.324000  1.0  0.1113
  H  H54  1  0.906000  0.847500  0.398100  1.0  0.0921
  H  H55  1  0.786900  0.010400  0.291000  1.0  0.09
  H  H56  1  0.632300  0.351600  0.377700  1.0  0.104
  H  H57  1  0.362500  0.238700  0.774800  1.0  0.0991
  H  H58  1  0.113300  0.879300  0.598300  1.0  0.0684
  H  H59  1  0.840100  0.830700  0.756100  1.0  0.1222
  H  H60  1  0.154000  0.818000  0.698400  1.0  0.1225
  H  H61  1  0.740800  0.761100  0.905200  1.0  0.0918
  H  H62  1  0.911300  0.707600  0.968400  1.0  0.1098
  H  H63  1  0.058500  0.754400  0.847500  1.0  0.0922
  H  H64  1  0.776500  0.698600  0.010400  1.0  0.0883
  H  H65  1  0.280700  0.270700  0.351600  1.0  0.1043
  H  H66  1  0.123800  0.986500  0.238700  1.0  0.0992
  H  H67  1  0.613300  0.401700  0.120700  1.0  0.0698
  H  H68  1  0.340100  0.243900  0.169300  1.0  0.1229
  H  H69  1  0.654000  0.301600  0.182000  1.0  0.1213
  H  H70  1  0.240800  0.094800  0.238900  1.0  0.0896
  H  H71  1  0.411300  0.031600  0.292400  1.0  0.1109
  H  H72  1  0.558500  0.152500  0.245600  1.0  0.0921
  H  H73  1  0.276500  0.989600  0.301400  1.0  0.0901
  H  H74  1  0.780700  0.648400  0.729300  1.0  0.1042
  H  H75  1  0.623800  0.761300  0.013500  1.0  0.099
  H  H76  1  0.734000  0.120700  0.477600  1.0  0.0687
  H  H77  1  0.509400  0.169300  0.586800  1.0  0.1218
  H  H78  1  0.836000  0.182000  0.516400  1.0  0.1225
  H  H79  1  0.479700  0.238900  0.666300  1.0  0.0913
  H  H80  1  0.703700  0.292400  0.676000  1.0  0.1102
  H  H81  1  0.804100  0.245600  0.601900  1.0  0.092
  H  H82  1  0.577900  0.301400  0.709000  1.0  0.0882
  H  H83  1  0.510000  0.729300  0.622300  1.0  0.104
  H  H84  1  0.637300  0.013500  0.225200  1.0  0.099
  H  H85  1  0.211600  0.477600  0.401700  1.0  0.0708
  H  H86  1  0.096200  0.586800  0.243900  1.0  0.1218
  H  H87  1  0.352400  0.516400  0.301600  1.0  0.1215
  H  H88  1  0.146000  0.666300  0.094800  1.0  0.0899
  H  H89  1  0.379700  0.676000  0.031600  1.0  0.111
  H  H90  1  0.406000  0.601900  0.152500  1.0  0.0918
  H  H91  1  0.286900  0.709000  0.989600  1.0  0.0882
  H  H92  1  0.132300  0.622300  0.648400  1.0  0.1043
  H  H93  1  0.862500  0.225200  0.761300  1.0  0.0974
  H  H94  1  0.766000  0.477600  0.120700  1.0  0.07
  H  H95  1  0.990600  0.586800  0.169300  1.0  0.122
  H  H96  1  0.664000  0.516400  0.182000  1.0  0.1212
  H  H97  1  0.020300  0.666300  0.238900  1.0  0.0904
  H  H98  1  0.796300  0.676000  0.292400  1.0  0.1112
  H  H99  1  0.695900  0.601900  0.245600  1.0  0.0913
  H  H100  1  0.922100  0.709000  0.301400  1.0  0.0878
  H  H101  1  0.990000  0.622300  0.729300  1.0  0.1048
  H  H102  1  0.862700  0.225200  0.013500  1.0  0.0981
  H  H103  1  0.288400  0.401700  0.477600  1.0  0.0697
  H  H104  1  0.403800  0.243900  0.586800  1.0  0.123
  H  H105  1  0.147600  0.301600  0.516400  1.0  0.1215
  H  H106  1  0.354000  0.094800  0.666300  1.0  0.0905
  H  H107  1  0.120300  0.031600  0.676000  1.0  0.1117
  H  H108  1  0.094000  0.152500  0.601900  1.0  0.0923
  H  H109  1  0.213100  0.989600  0.709000  1.0  0.0894
  H  H110  1  0.367700  0.648400  0.622300  1.0  0.1042
  H  H111  1  0.637500  0.761300  0.225200  1.0  0.0989
  H  H112  1  0.886700  0.120700  0.401700  1.0  0.0689
  H  H113  1  0.159900  0.169300  0.243900  1.0  0.1221
  H  H114  1  0.846000  0.182000  0.301600  1.0  0.1227
  H  H115  1  0.259200  0.238900  0.094800  1.0  0.0916
  H  H116  1  0.088700  0.292400  0.031600  1.0  0.1105
  H  H117  1  0.941500  0.245600  0.152500  1.0  0.0921
  H  H118  1  0.223500  0.301400  0.989600  1.0  0.0882
  H  H119  1  0.719300  0.729300  0.648400  1.0  0.1038
  H  H120  1  0.876200  0.013500  0.761300  1.0  0.0992
  H  H121  1  0.228800  0.478800  0.042400  1.0  0.0928
  H  H122  1  0.077100  0.327100  0.345800  1.0  0.1039
  H  H123  1  0.271200  0.042400  0.478800  1.0  0.0945
  H  H124  1  0.422900  0.345800  0.327100  1.0  0.1031
  H  H125  1  0.750000  0.478800  0.478800  1.0  0.0924
  H  H126  1  0.750000  0.327100  0.327100  1.0  0.1036
  H  H127  1  0.771200  0.521200  0.957600  1.0  0.0925
  H  H128  1  0.922900  0.672900  0.654200  1.0  0.1037
  H  H129  1  0.728800  0.957600  0.521200  1.0  0.0943
  H  H130  1  0.577100  0.654200  0.672900  1.0  0.104
  H  H131  1  0.250000  0.521200  0.521200  1.0  0.0924
  H  H132  1  0.250000  0.672900  0.672900  1.0  0.1036
  H  H133  1  0.484050  0.468100  0.765950  1.0  0.0998
  H  H134  1  0.330550  0.161100  0.919450  1.0  0.1181
  H  H135  1  0.250000  0.765950  0.765950  1.0  0.0988
  H  H136  1  0.250000  0.919450  0.919450  1.0  0.1169
  H  H137  1  0.015950  0.765950  0.468100  1.0  0.0987
  H  H138  1  0.169450  0.919450  0.161100  1.0  0.118
  H  H139  1  0.515950  0.531900  0.234050  1.0  0.1006
  H  H140  1  0.669450  0.838900  0.080550  1.0  0.1184
  H  H141  1  0.750000  0.234050  0.234050  1.0  0.0986
  H  H142  1  0.750000  0.080550  0.080550  1.0  0.1165
  H  H143  1  0.984050  0.234050  0.531900  1.0  0.0989
  H  H144  1  0.830550  0.080550  0.838900  1.0  0.1178
  C  C145  1  0.561600  0.770500  0.811500  1.0  0.2358
  C  C146  1  0.427200  0.659300  0.852400  1.0  0.1919
  C  C147  1  0.644100  0.798200  0.805900  1.0  -0.1794
  C  C148  1  0.539100  0.834300  0.773900  1.0  -0.0282
  C  C149  1  0.401700  0.718700  0.816100  1.0  -0.1968
  C  C150  1  0.702800  0.886500  0.764600  1.0  -0.048
  C  C151  1  0.602700  0.924600  0.732500  1.0  -0.0906
  C  C152  1  0.458200  0.805900  0.778200  1.0  0.0032
  C  C153  1  0.681600  0.949600  0.727500  1.0  -0.0952
  C  C154  1  0.335100  0.445700  0.097800  1.0  0.6541
  C  C155  1  0.239200  0.421000  0.148100  1.0  -0.1403
  C  C156  1  0.192900  0.373600  0.239000  1.0  -0.0364
  C  C157  1  0.454900  0.413500  0.927300  1.0  0.6426
  C  C158  1  0.430300  0.361800  0.884000  1.0  -0.1403
  C  C159  1  0.387700  0.270100  0.927900  1.0  -0.019
  C  C160  1  0.373100  0.811500  0.418000  1.0  0.2364
  C  C161  1  0.279600  0.852400  0.488300  1.0  0.1916
  C  C162  1  0.450000  0.805900  0.395900  1.0  -0.1781
  C  C163  1  0.313000  0.773900  0.391800  1.0  -0.0271
  C  C164  1  0.217800  0.816100  0.465200  1.0  -0.1975
  C  C165  1  0.467400  0.764600  0.348900  1.0  -0.0435
  C  C166  1  0.335200  0.732500  0.342900  1.0  -0.0877
  C  C167  1  0.236400  0.778200  0.415900  1.0  0.005
  C  C168  1  0.409100  0.727500  0.322900  1.0  -0.0941
  C  C169  1  0.432900  0.097800  0.456500  1.0  0.6539
  C  C170  1  0.387300  0.148100  0.430900  1.0  -0.1415
  C  C171  1  0.431900  0.239000  0.387400  1.0  -0.0384
  C  C172  1  0.382200  0.927300  0.659200  1.0  0.6429
  C  C173  1  0.314300  0.884000  0.754200  1.0  -0.1383
  C  C174  1  0.315600  0.927900  0.802000  1.0  -0.0198
  C  C175  1  0.791100  0.418000  0.770500  1.0  0.2365
  C  C176  1  0.767900  0.488300  0.659300  1.0  0.1911
  C  C177  1  0.845900  0.395900  0.798200  1.0  -0.1778
  C  C178  1  0.704800  0.391800  0.834300  1.0  -0.0226
  C  C179  1  0.683000  0.465200  0.718700  1.0  -0.197
  C  C180  1  0.816300  0.348900  0.886500  1.0  -0.0431
  C  C181  1  0.678100  0.342900  0.924600  1.0  -0.0919
  C  C182  1  0.652300  0.415900  0.805900  1.0  0.003
  C  C183  1  0.732000  0.322900  0.949600  1.0  -0.0934
  C  C184  1  0.889400  0.456500  0.445700  1.0  0.655
  C  C185  1  0.818200  0.430900  0.421000  1.0  -0.1415
  C  C186  1  0.819300  0.387400  0.373600  1.0  -0.0365
  C  C187  1  0.041400  0.659200  0.413500  1.0  0.6428
  C  C188  1  0.068500  0.754200  0.361800  1.0  -0.1399
  C  C189  1  0.117600  0.802000  0.270100  1.0  -0.0222
  C  C190  1  0.126900  0.418000  0.811500  1.0  0.2364
  C  C191  1  0.220400  0.488300  0.852400  1.0  0.1907
  C  C192  1  0.050000  0.395900  0.805900  1.0  -0.1788
  C  C193  1  0.187000  0.391800  0.773900  1.0  -0.0225
  C  C194  1  0.282200  0.465200  0.816100  1.0  -0.195
  C  C195  1  0.032600  0.348900  0.764600  1.0  -0.0418
  C  C196  1  0.164800  0.342900  0.732500  1.0  -0.0933
  C  C197  1  0.263600  0.415900  0.778200  1.0  0.0031
  C  C198  1  0.090900  0.322900  0.727500  1.0  -0.0919
  C  C199  1  0.067100  0.456500  0.097800  1.0  0.6546
  C  C200  1  0.112700  0.430900  0.148100  1.0  -0.1417
  C  C201  1  0.068100  0.387400  0.239000  1.0  -0.0351
  C  C202  1  0.117800  0.659200  0.927300  1.0  0.6426
  C  C203  1  0.185700  0.754200  0.884000  1.0  -0.1397
  C  C204  1  0.184400  0.802000  0.927900  1.0  -0.0267
  C  C205  1  0.708900  0.770500  0.418000  1.0  0.2362
  C  C206  1  0.732100  0.659300  0.488300  1.0  0.1921
  C  C207  1  0.654100  0.798200  0.395900  1.0  -0.1784
  C  C208  1  0.795200  0.834300  0.391800  1.0  -0.0283
  C  C209  1  0.817000  0.718700  0.465200  1.0  -0.1949
  C  C210  1  0.683700  0.886500  0.348900  1.0  -0.0464
  C  C211  1  0.821900  0.924600  0.342900  1.0  -0.0904
  C  C212  1  0.847700  0.805900  0.415900  1.0  0.0018
  C  C213  1  0.768000  0.949600  0.322900  1.0  -0.0963
  C  C214  1  0.610600  0.445700  0.456500  1.0  0.6523
  C  C215  1  0.681800  0.421000  0.430900  1.0  -0.141
  C  C216  1  0.680700  0.373600  0.387400  1.0  -0.0338
  C  C217  1  0.458600  0.413500  0.659200  1.0  0.6411
  C  C218  1  0.431500  0.361800  0.754200  1.0  -0.1395
  C  C219  1  0.382400  0.270100  0.802000  1.0  -0.0225
  C  C220  1  0.938400  0.811500  0.770500  1.0  0.237
  C  C221  1  0.072800  0.852400  0.659300  1.0  0.1922
  C  C222  1  0.855900  0.805900  0.798200  1.0  -0.1776
  C  C223  1  0.960900  0.773900  0.834300  1.0  -0.0255
  C  C224  1  0.098300  0.816100  0.718700  1.0  -0.1972
  C  C225  1  0.797200  0.764600  0.886500  1.0  -0.0451
  C  C226  1  0.897300  0.732500  0.924600  1.0  -0.0869
  C  C227  1  0.041800  0.778200  0.805900  1.0  0.0061
  C  C228  1  0.818400  0.727500  0.949600  1.0  -0.0951
  C  C229  1  0.164900  0.097800  0.445700  1.0  0.6522
  C  C230  1  0.260800  0.148100  0.421000  1.0  -0.1423
  C  C231  1  0.307100  0.239000  0.373600  1.0  -0.0352
  C  C232  1  0.045100  0.927300  0.413500  1.0  0.6424
  C  C233  1  0.069700  0.884000  0.361800  1.0  -0.1392
  C  C234  1  0.112300  0.927900  0.270100  1.0  -0.023
  C  C235  1  0.438400  0.229500  0.188500  1.0  0.2361
  C  C236  1  0.572800  0.340700  0.147600  1.0  0.1917
  C  C237  1  0.355900  0.201800  0.194100  1.0  -0.1789
  C  C238  1  0.460900  0.165700  0.226100  1.0  -0.0283
  C  C239  1  0.598300  0.281300  0.183900  1.0  -0.1955
  C  C240  1  0.297200  0.113500  0.235400  1.0  -0.0455
  C  C241  1  0.397300  0.075400  0.267500  1.0  -0.0903
  C  C242  1  0.541800  0.194100  0.221800  1.0  0.0016
  C  C243  1  0.318400  0.050400  0.272500  1.0  -0.0952
  C  C244  1  0.664900  0.554300  0.902200  1.0  0.6522
  C  C245  1  0.760800  0.579000  0.851900  1.0  -0.1411
  C  C246  1  0.807100  0.626400  0.761000  1.0  -0.0351
  C  C247  1  0.545100  0.586500  0.072700  1.0  0.641
  C  C248  1  0.569700  0.638200  0.116000  1.0  -0.1396
  C  C249  1  0.612300  0.729900  0.072100  1.0  -0.02
  C  C250  1  0.626900  0.188500  0.582000  1.0  0.2375
  C  C251  1  0.720400  0.147600  0.511700  1.0  0.192
  C  C252  1  0.550000  0.194100  0.604100  1.0  -0.1777
  C  C253  1  0.687000  0.226100  0.608200  1.0  -0.0252
  C  C254  1  0.782200  0.183900  0.534800  1.0  -0.1973
  C  C255  1  0.532600  0.235400  0.651100  1.0  -0.0444
  C  C256  1  0.664800  0.267500  0.657100  1.0  -0.0871
  C  C257  1  0.763600  0.221800  0.584100  1.0  0.0065
  C  C258  1  0.590900  0.272500  0.677100  1.0  -0.0955
  C  C259  1  0.567100  0.902200  0.543500  1.0  0.6521
  C  C260  1  0.612700  0.851900  0.569100  1.0  -0.1419
  C  C261  1  0.568100  0.761000  0.612600  1.0  -0.0366
  C  C262  1  0.617800  0.072700  0.340800  1.0  0.6431
  C  C263  1  0.685700  0.116000  0.245800  1.0  -0.1399
  C  C264  1  0.684400  0.072100  0.198000  1.0  -0.0194
  C  C265  1  0.208900  0.582000  0.229500  1.0  0.2363
  C  C266  1  0.232100  0.511700  0.340700  1.0  0.1909
  C  C267  1  0.154100  0.604100  0.201800  1.0  -0.1782
  C  C268  1  0.295200  0.608200  0.165700  1.0  -0.023
  C  C269  1  0.317000  0.534800  0.281300  1.0  -0.195
  C  C270  1  0.183700  0.651100  0.113500  1.0  -0.0415
  C  C271  1  0.321900  0.657100  0.075400  1.0  -0.0897
  C  C272  1  0.347700  0.584100  0.194100  1.0  0.0032
  C  C273  1  0.268000  0.677100  0.050400  1.0  -0.0906
  C  C274  1  0.110600  0.543500  0.554300  1.0  0.6546
  C  C275  1  0.181800  0.569100  0.579000  1.0  -0.142
  C  C276  1  0.180700  0.612600  0.626400  1.0  -0.037
  C  C277  1  0.958600  0.340800  0.586500  1.0  0.6422
  C  C278  1  0.931500  0.245800  0.638200  1.0  -0.1389
  C  C279  1  0.882400  0.198000  0.729900  1.0  -0.0225
  C  C280  1  0.873100  0.582000  0.188500  1.0  0.2369
  C  C281  1  0.779600  0.511700  0.147600  1.0  0.1907
  C  C282  1  0.950000  0.604100  0.194100  1.0  -0.1774
  C  C283  1  0.813000  0.608200  0.226100  1.0  -0.0232
  C  C284  1  0.717800  0.534800  0.183900  1.0  -0.1963
  C  C285  1  0.967400  0.651100  0.235400  1.0  -0.0422
  C  C286  1  0.835200  0.657100  0.267500  1.0  -0.0898
  C  C287  1  0.736400  0.584100  0.221800  1.0  0.0035
  C  C288  1  0.909100  0.677100  0.272500  1.0  -0.0929
  C  C289  1  0.932900  0.543500  0.902200  1.0  0.6549
  C  C290  1  0.887300  0.569100  0.851900  1.0  -0.1419
  C  C291  1  0.931900  0.612600  0.761000  1.0  -0.0366
  C  C292  1  0.882200  0.340800  0.072700  1.0  0.6423
  C  C293  1  0.814300  0.245800  0.116000  1.0  -0.1389
  C  C294  1  0.815600  0.198000  0.072100  1.0  -0.027
  C  C295  1  0.291100  0.229500  0.582000  1.0  0.2361
  C  C296  1  0.267900  0.340700  0.511700  1.0  0.1915
  C  C297  1  0.345900  0.201800  0.604100  1.0  -0.1794
  C  C298  1  0.204800  0.165700  0.608200  1.0  -0.0276
  C  C299  1  0.183000  0.281300  0.534800  1.0  -0.1975
  C  C300  1  0.316300  0.113500  0.651100  1.0  -0.0482
  C  C301  1  0.178100  0.075400  0.657100  1.0  -0.0894
  C  C302  1  0.152300  0.194100  0.584100  1.0  0.0029
  C  C303  1  0.232000  0.050400  0.677100  1.0  -0.0945
  C  C304  1  0.389400  0.554300  0.543500  1.0  0.6541
  C  C305  1  0.318200  0.579000  0.569100  1.0  -0.1403
  C  C306  1  0.319300  0.626400  0.612600  1.0  -0.0358
  C  C307  1  0.541400  0.586500  0.340800  1.0  0.6426
  C  C308  1  0.568500  0.638200  0.245800  1.0  -0.1401
  C  C309  1  0.617600  0.729900  0.198000  1.0  -0.0239
  C  C310  1  0.061600  0.188500  0.229500  1.0  0.2369
  C  C311  1  0.927200  0.147600  0.340700  1.0  0.1918
  C  C312  1  0.144100  0.194100  0.201800  1.0  -0.1784
  C  C313  1  0.039100  0.226100  0.165700  1.0  -0.0276
  C  C314  1  0.901700  0.183900  0.281300  1.0  -0.1977
  C  C315  1  0.202800  0.235400  0.113500  1.0  -0.0436
  C  C316  1  0.102700  0.267500  0.075400  1.0  -0.087
  C  C317  1  0.958200  0.221800  0.194100  1.0  0.0055
  C  C318  1  0.181600  0.272500  0.050400  1.0  -0.0936
  C  C319  1  0.835100  0.902200  0.554300  1.0  0.6541
  C  C320  1  0.739200  0.851900  0.579000  1.0  -0.1413
  C  C321  1  0.692900  0.761000  0.626400  1.0  -0.0375
  C  C322  1  0.954900  0.072700  0.586500  1.0  0.6424
  C  C323  1  0.930300  0.116000  0.638200  1.0  -0.1388
  C  C324  1  0.887700  0.072100  0.729900  1.0  -0.0228
  C  C325  1  0.197500  0.447500  0.105000  1.0  -0.0087
  C  C326  1  0.108400  0.358400  0.283200  1.0  -0.0879
  C  C327  1  0.302500  0.105000  0.447500  1.0  -0.0078
  C  C328  1  0.391600  0.283200  0.358400  1.0  -0.086
  C  C329  1  0.750000  0.447500  0.447500  1.0  -0.0104
  C  C330  1  0.750000  0.358400  0.358400  1.0  -0.0876
  C  C331  1  0.802500  0.552500  0.895000  1.0  -0.0103
  C  C332  1  0.891600  0.641600  0.716800  1.0  -0.0888
  C  C333  1  0.697500  0.895000  0.552500  1.0  -0.0087
  C  C334  1  0.608400  0.716800  0.641600  1.0  -0.0862
  C  C335  1  0.250000  0.552500  0.552500  1.0  -0.0091
  C  C336  1  0.250000  0.641600  0.641600  1.0  -0.0892
  C  C337  1  0.452750  0.405500  0.797250  1.0  -0.0079
  C  C338  1  0.361850  0.223700  0.888150  1.0  -0.1303
  C  C339  1  0.250000  0.797250  0.797250  1.0  -0.0096
  C  C340  1  0.250000  0.888150  0.888150  1.0  -0.1294
  C  C341  1  0.047250  0.797250  0.405500  1.0  -0.009
  C  C342  1  0.138150  0.888150  0.223700  1.0  -0.1282
  C  C343  1  0.547250  0.594500  0.202750  1.0  -0.0075
  C  C344  1  0.638150  0.776300  0.111850  1.0  -0.128
  C  C345  1  0.750000  0.202750  0.202750  1.0  -0.0097
  C  C346  1  0.750000  0.111850  0.111850  1.0  -0.1289
  C  C347  1  0.952750  0.202750  0.594500  1.0  -0.0103
  C  C348  1  0.861850  0.111850  0.776300  1.0  -0.1299
  N  N349  1  0.502800  0.681200  0.852400  1.0  -0.3781
  N  N350  1  0.355200  0.852400  0.466400  1.0  -0.3778
  N  N351  1  0.821600  0.466400  0.681200  1.0  -0.379
  N  N352  1  0.144800  0.466400  0.852400  1.0  -0.3786
  N  N353  1  0.678400  0.681200  0.466400  1.0  -0.3781
  N  N354  1  0.997200  0.852400  0.681200  1.0  -0.377
  N  N355  1  0.497200  0.318800  0.147600  1.0  -0.3791
  N  N356  1  0.644800  0.147600  0.533600  1.0  -0.3768
  N  N357  1  0.178400  0.533600  0.318800  1.0  -0.3786
  N  N358  1  0.855200  0.533600  0.147600  1.0  -0.3792
  N  N359  1  0.321600  0.318800  0.533600  1.0  -0.3796
  N  N360  1  0.002800  0.147600  0.318800  1.0  -0.3768
  O  O361  1  0.382700  0.514200  0.023200  1.0  -0.5703
  O  O362  1  0.476200  0.493800  0.888800  1.0  -0.5391
  O  O363  1  0.453000  0.373100  0.999100  1.0  -0.5513
  O  O364  1  0.363900  0.399100  0.132500  1.0  -0.5414
  O  O365  1  0.405900  0.023200  0.462600  1.0  -0.5706
  O  O366  1  0.365000  0.888800  0.617400  1.0  -0.5402
  O  O367  1  0.452100  0.999100  0.627800  1.0  -0.5503
  O  O368  1  0.496400  0.132500  0.468400  1.0  -0.5422
  O  O369  1  0.868500  0.462600  0.514200  1.0  -0.5703
  O  O370  1  0.982400  0.617400  0.493800  1.0  -0.5408
  O  O371  1  0.079900  0.627800  0.373100  1.0  -0.5508
  O  O372  1  0.964800  0.468400  0.399100  1.0  -0.5417
  O  O373  1  0.094100  0.462600  0.023200  1.0  -0.5709
  O  O374  1  0.135000  0.617400  0.888800  1.0  -0.5401
  O  O375  1  0.047900  0.627800  0.999100  1.0  -0.5509
  O  O376  1  0.003600  0.468400  0.132500  1.0  -0.5415
  O  O377  1  0.631500  0.514200  0.462600  1.0  -0.5709
  O  O378  1  0.517600  0.493800  0.617400  1.0  -0.54
  O  O379  1  0.420100  0.373100  0.627800  1.0  -0.5517
  O  O380  1  0.535200  0.399100  0.468400  1.0  -0.5422
  O  O381  1  0.117300  0.023200  0.514200  1.0  -0.571
  O  O382  1  0.023800  0.888800  0.493800  1.0  -0.5411
  O  O383  1  0.047000  0.999100  0.373100  1.0  -0.5505
  O  O384  1  0.136100  0.132500  0.399100  1.0  -0.5415
  O  O385  1  0.617300  0.485800  0.976800  1.0  -0.5707
  O  O386  1  0.523800  0.506200  0.111200  1.0  -0.54
  O  O387  1  0.547000  0.626900  0.000900  1.0  -0.551
  O  O388  1  0.636100  0.600900  0.867500  1.0  -0.5421
  O  O389  1  0.594100  0.976800  0.537400  1.0  -0.5708
  O  O390  1  0.635000  0.111200  0.382600  1.0  -0.5406
  O  O391  1  0.547900  0.000900  0.372200  1.0  -0.5504
  O  O392  1  0.503600  0.867500  0.531600  1.0  -0.5413
  O  O393  1  0.131500  0.537400  0.485800  1.0  -0.5706
  O  O394  1  0.017600  0.382600  0.506200  1.0  -0.5401
  O  O395  1  0.920100  0.372200  0.626900  1.0  -0.5508
  O  O396  1  0.035200  0.531600  0.600900  1.0  -0.5418
  O  O397  1  0.905900  0.537400  0.976800  1.0  -0.5699
  O  O398  1  0.865000  0.382600  0.111200  1.0  -0.5407
  O  O399  1  0.952100  0.372200  0.000900  1.0  -0.5506
  O  O400  1  0.996400  0.531600  0.867500  1.0  -0.5418
  O  O401  1  0.368500  0.485800  0.537400  1.0  -0.5703
  O  O402  1  0.482400  0.506200  0.382600  1.0  -0.5397
  O  O403  1  0.579900  0.626900  0.372200  1.0  -0.5508
  O  O404  1  0.464800  0.600900  0.531600  1.0  -0.5416
  O  O405  1  0.882700  0.976800  0.485800  1.0  -0.5704
  O  O406  1  0.976200  0.111200  0.506200  1.0  -0.5394
  O  O407  1  0.953000  0.000900  0.626900  1.0  -0.55
  O  O408  1  0.863900  0.867500  0.600900  1.0  -0.5418
