# generated using pymatgen
data_CoH24C29N4(ClO4)2
_symmetry_space_group_name_H-M   'P 1'
_cell_length_a   13.06780000
_cell_length_b   13.06780000
_cell_length_c   25.91400000
_cell_angle_alpha   90.00000000
_cell_angle_beta   90.00000000
_cell_angle_gamma   90.00000000
_symmetry_Int_Tables_number   1
_chemical_formula_structural   CoH24C29N4(ClO4)2
_chemical_formula_sum   'Co4 H96 C116 N16 Cl8 O32'
_cell_volume   4425.26632171
_cell_formula_units_Z   4
loop_
 _symmetry_equiv_pos_site_id
 _symmetry_equiv_pos_as_xyz
  1  'x, y, z'
loop_
 _atom_site_type_symbol
 _atom_site_label
 _atom_site_symmetry_multiplicity
 _atom_site_fract_x
 _atom_site_fract_y
 _atom_site_fract_z
 _atom_site_occupancy
 _atom_site_charge
  Co  Co1  1  0.750000  0.750000  0.381300  1.0  0.6054
  Co  Co2  1  0.250000  0.250000  0.881300  1.0  0.6054
  Co  Co3  1  0.250000  0.250000  0.618700  1.0  0.6078
  Co  Co4  1  0.750000  0.750000  0.118700  1.0  0.6078
  H  H5  1  0.761100  0.885300  0.480000  1.0  0.0802
  H  H6  1  0.869700  0.925000  0.550100  1.0  0.1394
  H  H7  1  0.093500  0.765700  0.476200  1.0  0.1337
  H  H8  1  0.972800  0.726500  0.412200  1.0  0.0749
  H  H9  1  0.294400  0.864200  0.580700  1.0  0.0918
  H  H10  1  0.210000  0.900400  0.618600  1.0  0.0703
  H  H11  1  0.359300  0.708100  0.683200  1.0  0.0817
  H  H12  1  0.400700  0.785800  0.643000  1.0  0.0822
  H  H13  1  0.214000  0.982000  0.735600  1.0  0.1183
  H  H14  1  0.167700  0.119200  0.787800  1.0  0.0649
  H  H15  1  0.438900  0.118100  0.854100  1.0  0.0744
  H  H16  1  0.490500  0.982900  0.804400  1.0  0.1308
  H  H17  1  0.738900  0.614700  0.480000  1.0  0.0794
  H  H18  1  0.630300  0.575000  0.550100  1.0  0.139
  H  H19  1  0.406500  0.734300  0.476200  1.0  0.1338
  H  H20  1  0.527200  0.773500  0.412200  1.0  0.0757
  H  H21  1  0.205600  0.635800  0.580700  1.0  0.0904
  H  H22  1  0.290000  0.599600  0.618600  1.0  0.0718
  H  H23  1  0.140700  0.791900  0.683200  1.0  0.0818
  H  H24  1  0.099300  0.714200  0.643000  1.0  0.082
  H  H25  1  0.286000  0.518000  0.735600  1.0  0.1188
  H  H26  1  0.332300  0.380800  0.787800  1.0  0.0645
  H  H27  1  0.061100  0.381900  0.854100  1.0  0.0742
  H  H28  1  0.009500  0.517100  0.804400  1.0  0.1306
  H  H29  1  0.114700  0.261100  0.980000  1.0  0.08
  H  H30  1  0.075000  0.369700  0.050100  1.0  0.1398
  H  H31  1  0.234300  0.593500  0.976200  1.0  0.1327
  H  H32  1  0.273500  0.472800  0.912200  1.0  0.0755
  H  H33  1  0.135800  0.794400  0.080700  1.0  0.0901
  H  H34  1  0.099600  0.710000  0.118600  1.0  0.0675
  H  H35  1  0.291900  0.859300  0.183200  1.0  0.0796
  H  H36  1  0.214200  0.900700  0.143000  1.0  0.0826
  H  H37  1  0.018000  0.714000  0.235600  1.0  0.1188
  H  H38  1  0.880800  0.667700  0.287800  1.0  0.065
  H  H39  1  0.881900  0.938900  0.354100  1.0  0.0743
  H  H40  1  0.017100  0.990500  0.304400  1.0  0.1295
  H  H41  1  0.385300  0.238900  0.980000  1.0  0.0798
  H  H42  1  0.425000  0.130300  0.050100  1.0  0.14
  H  H43  1  0.265700  0.906500  0.976200  1.0  0.1322
  H  H44  1  0.226500  0.027200  0.912200  1.0  0.0752
  H  H45  1  0.364200  0.705600  0.080700  1.0  0.0905
  H  H46  1  0.400400  0.790000  0.118600  1.0  0.0708
  H  H47  1  0.208100  0.640700  0.183200  1.0  0.0796
  H  H48  1  0.285800  0.599300  0.143000  1.0  0.0804
  H  H49  1  0.482000  0.786000  0.235600  1.0  0.1188
  H  H50  1  0.619200  0.832300  0.287800  1.0  0.0647
  H  H51  1  0.618100  0.561100  0.354100  1.0  0.0749
  H  H52  1  0.482900  0.509500  0.304400  1.0  0.1301
  H  H53  1  0.238900  0.114700  0.520000  1.0  0.0792
  H  H54  1  0.130300  0.075000  0.449900  1.0  0.1393
  H  H55  1  0.906500  0.234300  0.523800  1.0  0.1338
  H  H56  1  0.027200  0.273500  0.587800  1.0  0.0752
  H  H57  1  0.705600  0.135800  0.419300  1.0  0.0904
  H  H58  1  0.790000  0.099600  0.381400  1.0  0.0715
  H  H59  1  0.640700  0.291900  0.316800  1.0  0.0818
  H  H60  1  0.599300  0.214200  0.357000  1.0  0.0819
  H  H61  1  0.786000  0.018000  0.264400  1.0  0.1184
  H  H62  1  0.832300  0.880800  0.212200  1.0  0.0646
  H  H63  1  0.561100  0.881900  0.145900  1.0  0.0742
  H  H64  1  0.509500  0.017100  0.195600  1.0  0.1304
  H  H65  1  0.261100  0.385300  0.520000  1.0  0.0788
  H  H66  1  0.369700  0.425000  0.449900  1.0  0.1389
  H  H67  1  0.593500  0.265700  0.523800  1.0  0.1336
  H  H68  1  0.472800  0.226500  0.587800  1.0  0.0749
  H  H69  1  0.794400  0.364200  0.419300  1.0  0.0899
  H  H70  1  0.710000  0.400400  0.381400  1.0  0.0709
  H  H71  1  0.859300  0.208100  0.316800  1.0  0.0805
  H  H72  1  0.900700  0.285800  0.357000  1.0  0.0817
  H  H73  1  0.714000  0.482000  0.264400  1.0  0.1182
  H  H74  1  0.667700  0.619200  0.212200  1.0  0.0647
  H  H75  1  0.938900  0.618100  0.145900  1.0  0.0742
  H  H76  1  0.990500  0.482900  0.195600  1.0  0.1307
  H  H77  1  0.885300  0.738900  0.020000  1.0  0.0795
  H  H78  1  0.925000  0.630300  0.949900  1.0  0.14
  H  H79  1  0.765700  0.406500  0.023800  1.0  0.1322
  H  H80  1  0.726500  0.527200  0.087800  1.0  0.0752
  H  H81  1  0.864200  0.205600  0.919300  1.0  0.0898
  H  H82  1  0.900400  0.290000  0.881400  1.0  0.0717
  H  H83  1  0.708100  0.140700  0.816800  1.0  0.0789
  H  H84  1  0.785800  0.099300  0.857000  1.0  0.0813
  H  H85  1  0.982000  0.286000  0.764400  1.0  0.1184
  H  H86  1  0.119200  0.332300  0.712200  1.0  0.0649
  H  H87  1  0.118100  0.061100  0.645900  1.0  0.0745
  H  H88  1  0.982900  0.009500  0.695600  1.0  0.1297
  H  H89  1  0.614700  0.761100  0.020000  1.0  0.0792
  H  H90  1  0.575000  0.869700  0.949900  1.0  0.1392
  H  H91  1  0.734300  0.093500  0.023800  1.0  0.132
  H  H92  1  0.773500  0.972800  0.087800  1.0  0.0748
  H  H93  1  0.635800  0.294400  0.919300  1.0  0.0897
  H  H94  1  0.599600  0.210000  0.881400  1.0  0.0677
  H  H95  1  0.791900  0.359300  0.816800  1.0  0.0792
  H  H96  1  0.714200  0.400700  0.857000  1.0  0.0819
  H  H97  1  0.518000  0.214000  0.764400  1.0  0.1185
  H  H98  1  0.380800  0.167700  0.712200  1.0  0.0652
  H  H99  1  0.381900  0.438900  0.645900  1.0  0.0745
  H  H100  1  0.517100  0.490500  0.695600  1.0  0.1293
  C  C101  1  0.829000  0.859000  0.480200  1.0  0.1385
  C  C102  1  0.893000  0.885000  0.522100  1.0  -0.1482
  C  C103  1  0.994000  0.847000  0.519900  1.0  -0.0623
  C  C104  1  0.025000  0.790000  0.478900  1.0  -0.1486
  C  C105  1  0.952000  0.768000  0.440500  1.0  0.1532
  C  C106  1  0.063000  0.869000  0.565100  1.0  0.574
  C  C107  1  0.232000  0.846000  0.597200  1.0  0.0792
  C  C108  1  0.344000  0.768000  0.663800  1.0  0.0854
  C  C109  1  0.390000  0.885000  0.730900  1.0  0.5801
  C  C110  1  0.359000  0.969000  0.763500  1.0  -0.0393
  C  C111  1  0.262000  0.010000  0.759500  1.0  -0.1386
  C  C112  1  0.235000  0.091000  0.791000  1.0  0.1557
  C  C113  1  0.392000  0.091000  0.829600  1.0  0.1424
  C  C114  1  0.424000  0.010000  0.800000  1.0  -0.1325
  C  C115  1  0.671000  0.641000  0.480200  1.0  0.1377
  C  C116  1  0.607000  0.615000  0.522100  1.0  -0.1471
  C  C117  1  0.506000  0.653000  0.519900  1.0  -0.0622
  C  C118  1  0.475000  0.710000  0.478900  1.0  -0.1486
  C  C119  1  0.548000  0.732000  0.440500  1.0  0.1532
  C  C120  1  0.437000  0.631000  0.565100  1.0  0.5734
  C  C121  1  0.268000  0.654000  0.597200  1.0  0.0789
  C  C122  1  0.156000  0.732000  0.663800  1.0  0.0854
  C  C123  1  0.110000  0.615000  0.730900  1.0  0.5815
  C  C124  1  0.141000  0.531000  0.763500  1.0  -0.0369
  C  C125  1  0.238000  0.490000  0.759500  1.0  -0.1381
  C  C126  1  0.265000  0.409000  0.791000  1.0  0.1556
  C  C127  1  0.108000  0.409000  0.829600  1.0  0.1429
  C  C128  1  0.076000  0.490000  0.800000  1.0  -0.1294
  C  C129  1  0.141000  0.329000  0.980200  1.0  0.1382
  C  C130  1  0.115000  0.393000  0.022100  1.0  -0.1481
  C  C131  1  0.153000  0.494000  0.019900  1.0  -0.0622
  C  C132  1  0.210000  0.525000  0.978900  1.0  -0.1487
  C  C133  1  0.232000  0.452000  0.940500  1.0  0.1546
  C  C134  1  0.131000  0.563000  0.065100  1.0  0.5737
  C  C135  1  0.154000  0.732000  0.097200  1.0  0.0789
  C  C136  1  0.232000  0.844000  0.163800  1.0  0.0858
  C  C137  1  0.115000  0.890000  0.230900  1.0  0.5796
  C  C138  1  0.031000  0.859000  0.263500  1.0  -0.0424
  C  C139  1  0.990000  0.762000  0.259500  1.0  -0.1401
  C  C140  1  0.909000  0.735000  0.291000  1.0  0.1564
  C  C141  1  0.909000  0.892000  0.329600  1.0  0.1418
  C  C142  1  0.990000  0.924000  0.300000  1.0  -0.1325
  C  C143  1  0.359000  0.171000  0.980200  1.0  0.1378
  C  C144  1  0.385000  0.107000  0.022100  1.0  -0.149
  C  C145  1  0.347000  0.006000  0.019900  1.0  -0.0635
  C  C146  1  0.290000  0.975000  0.978900  1.0  -0.1475
  C  C147  1  0.268000  0.048000  0.940500  1.0  0.1541
  C  C148  1  0.369000  0.937000  0.065100  1.0  0.5726
  C  C149  1  0.346000  0.768000  0.097200  1.0  0.0794
  C  C150  1  0.268000  0.656000  0.163800  1.0  0.0859
  C  C151  1  0.385000  0.610000  0.230900  1.0  0.5815
  C  C152  1  0.469000  0.641000  0.263500  1.0  -0.0385
  C  C153  1  0.510000  0.738000  0.259500  1.0  -0.1388
  C  C154  1  0.591000  0.765000  0.291000  1.0  0.1553
  C  C155  1  0.591000  0.608000  0.329600  1.0  0.1411
  C  C156  1  0.510000  0.576000  0.300000  1.0  -0.1298
  C  C157  1  0.250000  0.750000  0.630600  1.0  -0.0879
  C  C158  1  0.250000  0.750000  0.130600  1.0  -0.0879
  C  C159  1  0.171000  0.141000  0.519800  1.0  0.1372
  C  C160  1  0.107000  0.115000  0.477900  1.0  -0.1475
  C  C161  1  0.006000  0.153000  0.480100  1.0  -0.0621
  C  C162  1  0.975000  0.210000  0.521100  1.0  -0.1494
  C  C163  1  0.048000  0.232000  0.559500  1.0  0.1522
  C  C164  1  0.937000  0.131000  0.434900  1.0  0.5732
  C  C165  1  0.768000  0.154000  0.402800  1.0  0.0792
  C  C166  1  0.656000  0.232000  0.336200  1.0  0.0834
  C  C167  1  0.610000  0.115000  0.269100  1.0  0.5809
  C  C168  1  0.641000  0.031000  0.236500  1.0  -0.0383
  C  C169  1  0.738000  0.990000  0.240500  1.0  -0.1377
  C  C170  1  0.765000  0.909000  0.209000  1.0  0.1559
  C  C171  1  0.608000  0.909000  0.170400  1.0  0.1429
  C  C172  1  0.576000  0.990000  0.200000  1.0  -0.1292
  C  C173  1  0.329000  0.359000  0.519800  1.0  0.1385
  C  C174  1  0.393000  0.385000  0.477900  1.0  -0.1474
  C  C175  1  0.494000  0.347000  0.480100  1.0  -0.0624
  C  C176  1  0.525000  0.290000  0.521100  1.0  -0.1489
  C  C177  1  0.452000  0.268000  0.559500  1.0  0.1535
  C  C178  1  0.563000  0.369000  0.434900  1.0  0.5743
  C  C179  1  0.732000  0.346000  0.402800  1.0  0.0777
  C  C180  1  0.844000  0.268000  0.336200  1.0  0.0855
  C  C181  1  0.890000  0.385000  0.269100  1.0  0.5796
  C  C182  1  0.859000  0.469000  0.236500  1.0  -0.0397
  C  C183  1  0.762000  0.510000  0.240500  1.0  -0.1389
  C  C184  1  0.735000  0.591000  0.209000  1.0  0.1555
  C  C185  1  0.892000  0.591000  0.170400  1.0  0.1424
  C  C186  1  0.924000  0.510000  0.200000  1.0  -0.1323
  C  C187  1  0.859000  0.671000  0.019800  1.0  0.1381
  C  C188  1  0.885000  0.607000  0.977900  1.0  -0.149
  C  C189  1  0.847000  0.506000  0.980100  1.0  -0.0643
  C  C190  1  0.790000  0.475000  0.021100  1.0  -0.1479
  C  C191  1  0.768000  0.548000  0.059500  1.0  0.1539
  C  C192  1  0.869000  0.437000  0.934900  1.0  0.5728
  C  C193  1  0.846000  0.268000  0.902800  1.0  0.0802
  C  C194  1  0.768000  0.156000  0.836200  1.0  0.0853
  C  C195  1  0.885000  0.110000  0.769100  1.0  0.5805
  C  C196  1  0.969000  0.141000  0.736500  1.0  -0.0395
  C  C197  1  0.010000  0.238000  0.740500  1.0  -0.1385
  C  C198  1  0.091000  0.265000  0.709000  1.0  0.1559
  C  C199  1  0.091000  0.108000  0.670400  1.0  0.141
  C  C200  1  0.010000  0.076000  0.700000  1.0  -0.1295
  C  C201  1  0.641000  0.829000  0.019800  1.0  0.1377
  C  C202  1  0.615000  0.893000  0.977900  1.0  -0.1484
  C  C203  1  0.653000  0.994000  0.980100  1.0  -0.062
  C  C204  1  0.710000  0.025000  0.021100  1.0  -0.1493
  C  C205  1  0.732000  0.952000  0.059500  1.0  0.1543
  C  C206  1  0.631000  0.063000  0.934900  1.0  0.5737
  C  C207  1  0.654000  0.232000  0.902800  1.0  0.078
  C  C208  1  0.732000  0.344000  0.836200  1.0  0.085
  C  C209  1  0.615000  0.390000  0.769100  1.0  0.5794
  C  C210  1  0.531000  0.359000  0.736500  1.0  -0.0435
  C  C211  1  0.490000  0.262000  0.740500  1.0  -0.1398
  C  C212  1  0.409000  0.235000  0.709000  1.0  0.1558
  C  C213  1  0.409000  0.392000  0.670400  1.0  0.1413
  C  C214  1  0.490000  0.424000  0.700000  1.0  -0.1319
  C  C215  1  0.750000  0.250000  0.369400  1.0  -0.0876
  C  C216  1  0.750000  0.250000  0.869400  1.0  -0.0876
  N  N217  1  0.857000  0.800000  0.441000  1.0  -0.2682
  N  N218  1  0.298000  0.133000  0.825600  1.0  -0.2877
  N  N219  1  0.643000  0.700000  0.441000  1.0  -0.2653
  N  N220  1  0.202000  0.367000  0.825600  1.0  -0.2881
  N  N221  1  0.200000  0.357000  0.941000  1.0  -0.2659
  N  N222  1  0.867000  0.798000  0.325600  1.0  -0.288
  N  N223  1  0.300000  0.143000  0.941000  1.0  -0.2656
  N  N224  1  0.633000  0.702000  0.325600  1.0  -0.2877
  N  N225  1  0.143000  0.200000  0.559000  1.0  -0.2644
  N  N226  1  0.702000  0.867000  0.174400  1.0  -0.2877
  N  N227  1  0.357000  0.300000  0.559000  1.0  -0.2672
  N  N228  1  0.798000  0.633000  0.174400  1.0  -0.2883
  N  N229  1  0.800000  0.643000  0.059000  1.0  -0.2651
  N  N230  1  0.133000  0.202000  0.674400  1.0  -0.2875
  N  N231  1  0.700000  0.857000  0.059000  1.0  -0.2649
  N  N232  1  0.367000  0.298000  0.674400  1.0  -0.2883
  Cl  Cl233  1  0.672200  0.917600  0.381000  1.0  -0.5399
  Cl  Cl234  1  0.827800  0.582400  0.381000  1.0  -0.5416
  Cl  Cl235  1  0.082400  0.172200  0.881000  1.0  -0.5407
  Cl  Cl236  1  0.417600  0.327800  0.881000  1.0  -0.5412
  Cl  Cl237  1  0.327800  0.082400  0.619000  1.0  -0.541
  Cl  Cl238  1  0.172200  0.417600  0.619000  1.0  -0.5398
  Cl  Cl239  1  0.917600  0.827800  0.119000  1.0  -0.5408
  Cl  Cl240  1  0.582400  0.672200  0.119000  1.0  -0.5404
  O  O241  1  0.037000  0.920000  0.601100  1.0  -0.4692
  O  O242  1  0.154100  0.825500  0.557900  1.0  -0.2958
  O  O243  1  0.317100  0.850900  0.697700  1.0  -0.2963
  O  O244  1  0.474000  0.845000  0.732300  1.0  -0.4775
  O  O245  1  0.463000  0.580000  0.601100  1.0  -0.4693
  O  O246  1  0.345900  0.674500  0.557900  1.0  -0.296
  O  O247  1  0.182900  0.649100  0.697700  1.0  -0.2955
  O  O248  1  0.026000  0.655000  0.732300  1.0  -0.479
  O  O249  1  0.080000  0.537000  0.101100  1.0  -0.4702
  O  O250  1  0.174500  0.654100  0.057900  1.0  -0.2951
  O  O251  1  0.149100  0.817100  0.197700  1.0  -0.297
  O  O252  1  0.155000  0.974000  0.232300  1.0  -0.4786
  O  O253  1  0.420000  0.963000  0.101100  1.0  -0.4708
  O  O254  1  0.325500  0.845900  0.057900  1.0  -0.2964
  O  O255  1  0.350900  0.682900  0.197700  1.0  -0.2969
  O  O256  1  0.345000  0.526000  0.232300  1.0  -0.4791
  O  O257  1  0.963000  0.080000  0.398900  1.0  -0.4692
  O  O258  1  0.845900  0.174500  0.442100  1.0  -0.297
  O  O259  1  0.682900  0.149100  0.302300  1.0  -0.2961
  O  O260  1  0.526000  0.155000  0.267700  1.0  -0.479
  O  O261  1  0.537000  0.420000  0.398900  1.0  -0.4691
  O  O262  1  0.654100  0.325500  0.442100  1.0  -0.2961
  O  O263  1  0.817100  0.350900  0.302300  1.0  -0.2969
  O  O264  1  0.974000  0.345000  0.267700  1.0  -0.4773
  O  O265  1  0.920000  0.463000  0.898900  1.0  -0.4701
  O  O266  1  0.825500  0.345900  0.942100  1.0  -0.2974
  O  O267  1  0.850900  0.182900  0.802300  1.0  -0.2976
  O  O268  1  0.845000  0.026000  0.767700  1.0  -0.4798
  O  O269  1  0.580000  0.037000  0.898900  1.0  -0.4706
  O  O270  1  0.674500  0.154100  0.942100  1.0  -0.2959
  O  O271  1  0.649100  0.317100  0.802300  1.0  -0.2969
  O  O272  1  0.655000  0.474000  0.767700  1.0  -0.4785
