# generated using pymatgen
data_ErAgH8C18(NO2)4
_symmetry_space_group_name_H-M   'P 1'
_cell_length_a   8.47590000
_cell_length_b   25.28500000
_cell_length_c   17.76500000
_cell_angle_alpha   90.00000000
_cell_angle_beta   90.00000000
_cell_angle_gamma   90.00000000
_symmetry_Int_Tables_number   1
_chemical_formula_structural   ErAgH8C18(NO2)4
_chemical_formula_sum   'Er8 Ag8 H64 C144 N32 O64'
_cell_volume   3807.27278110
_cell_formula_units_Z   8
loop_
 _symmetry_equiv_pos_site_id
 _symmetry_equiv_pos_as_xyz
  1  'x, y, z'
loop_
 _atom_site_type_symbol
 _atom_site_label
 _atom_site_symmetry_multiplicity
 _atom_site_fract_x
 _atom_site_fract_y
 _atom_site_fract_z
 _atom_site_occupancy
 _atom_site_charge
  Er  Er1  1  0.166690  0.023250  0.282370  1.0  1.4524
  Er  Er2  1  0.666667  0.976750  0.217630  1.0  1.45
  Er  Er3  1  0.666667  0.523250  0.717630  1.0  1.4478
  Er  Er4  1  0.166690  0.476750  0.782370  1.0  1.455
  Er  Er5  1  0.333333  0.476750  0.282370  1.0  1.4478
  Er  Er6  1  0.833310  0.523250  0.217630  1.0  1.4545
  Er  Er7  1  0.833310  0.976750  0.717630  1.0  1.453
  Er  Er8  1  0.333333  0.023250  0.782370  1.0  1.4488
  Ag  Ag9  1  0.461430  0.727670  0.452130  1.0  0.3835
  Ag  Ag10  1  0.961430  0.272330  0.047870  1.0  0.3844
  Ag  Ag11  1  0.961430  0.227670  0.547870  1.0  0.3841
  Ag  Ag12  1  0.461430  0.772330  0.952130  1.0  0.384
  Ag  Ag13  1  0.038570  0.772330  0.452130  1.0  0.3839
  Ag  Ag14  1  0.538570  0.227670  0.047870  1.0  0.3838
  Ag  Ag15  1  0.538570  0.272330  0.547870  1.0  0.3843
  Ag  Ag16  1  0.038570  0.727670  0.952130  1.0  0.3832
  H  H17  1  0.685700  0.798200  0.340900  1.0  0.1281
  H  H18  1  0.560300  0.096600  0.642300  1.0  0.312
  H  H19  1  0.744000  0.163700  0.672100  1.0  0.1075
  H  H20  1  0.899600  0.140600  0.417100  1.0  0.1237
  H  H21  1  0.466000  0.045100  0.508400  1.0  0.1213
  H  H22  1  0.722900  0.869500  0.606600  1.0  0.3046
  H  H23  1  0.886500  0.932700  0.496600  1.0  0.1457
  H  H24  1  0.559100  0.794400  0.601400  1.0  0.1113
  H  H25  1  0.185700  0.201800  0.159100  1.0  0.1282
  H  H26  1  0.060300  0.903400  0.857700  1.0  0.312
  H  H27  1  0.244000  0.836300  0.827900  1.0  0.1086
  H  H28  1  0.399600  0.859400  0.082900  1.0  0.1246
  H  H29  1  0.966000  0.954900  0.991600  1.0  0.1214
  H  H30  1  0.222900  0.130500  0.893400  1.0  0.3052
  H  H31  1  0.386500  0.067300  0.003400  1.0  0.1457
  H  H32  1  0.059100  0.205600  0.898600  1.0  0.1114
  H  H33  1  0.185700  0.298200  0.659100  1.0  0.1286
  H  H34  1  0.060300  0.596600  0.357700  1.0  0.3115
  H  H35  1  0.244000  0.663700  0.327900  1.0  0.1081
  H  H36  1  0.399600  0.640600  0.582900  1.0  0.1235
  H  H37  1  0.966000  0.545100  0.491600  1.0  0.1213
  H  H38  1  0.222900  0.369500  0.393400  1.0  0.3046
  H  H39  1  0.386500  0.432700  0.503400  1.0  0.146
  H  H40  1  0.059100  0.294400  0.398600  1.0  0.1112
  H  H41  1  0.685700  0.701800  0.840900  1.0  0.1281
  H  H42  1  0.560300  0.403400  0.142300  1.0  0.3124
  H  H43  1  0.744000  0.336300  0.172100  1.0  0.1078
  H  H44  1  0.899600  0.359400  0.917100  1.0  0.1247
  H  H45  1  0.466000  0.454900  0.008400  1.0  0.1213
  H  H46  1  0.722900  0.630500  0.106600  1.0  0.3051
  H  H47  1  0.886500  0.567300  0.996600  1.0  0.1458
  H  H48  1  0.559100  0.705600  0.101400  1.0  0.1111
  H  H49  1  0.814300  0.701800  0.340900  1.0  0.1282
  H  H50  1  0.939700  0.403400  0.642300  1.0  0.313
  H  H51  1  0.756000  0.336300  0.672100  1.0  0.1077
  H  H52  1  0.600400  0.359400  0.417100  1.0  0.1251
  H  H53  1  0.034000  0.454900  0.508400  1.0  0.1209
  H  H54  1  0.777100  0.630500  0.606600  1.0  0.3049
  H  H55  1  0.613500  0.567300  0.496600  1.0  0.1456
  H  H56  1  0.940900  0.705600  0.601400  1.0  0.1111
  H  H57  1  0.314300  0.298200  0.159100  1.0  0.1283
  H  H58  1  0.439700  0.596600  0.857700  1.0  0.3122
  H  H59  1  0.256000  0.663700  0.827900  1.0  0.1086
  H  H60  1  0.100400  0.640600  0.082900  1.0  0.1238
  H  H61  1  0.534000  0.545100  0.991600  1.0  0.1211
  H  H62  1  0.277100  0.369500  0.893400  1.0  0.3051
  H  H63  1  0.113500  0.432700  0.003400  1.0  0.1457
  H  H64  1  0.440900  0.294400  0.898600  1.0  0.1112
  H  H65  1  0.314300  0.201800  0.659100  1.0  0.1282
  H  H66  1  0.439700  0.903400  0.357700  1.0  0.3125
  H  H67  1  0.256000  0.836300  0.327900  1.0  0.1083
  H  H68  1  0.100400  0.859400  0.582900  1.0  0.1249
  H  H69  1  0.534000  0.954900  0.491600  1.0  0.1209
  H  H70  1  0.277100  0.130500  0.393400  1.0  0.3057
  H  H71  1  0.113500  0.067300  0.503400  1.0  0.1454
  H  H72  1  0.440900  0.205600  0.398600  1.0  0.1116
  H  H73  1  0.814300  0.798200  0.840900  1.0  0.128
  H  H74  1  0.939700  0.096600  0.142300  1.0  0.3129
  H  H75  1  0.756000  0.163700  0.172100  1.0  0.108
  H  H76  1  0.600400  0.140600  0.917100  1.0  0.1242
  H  H77  1  0.034000  0.045100  0.008400  1.0  0.121
  H  H78  1  0.777100  0.869500  0.106600  1.0  0.3045
  H  H79  1  0.613500  0.932700  0.996600  1.0  0.1455
  H  H80  1  0.940900  0.794400  0.101400  1.0  0.1111
  C  C81  1  0.953600  0.953300  0.353900  1.0  0.6522
  C  C82  1  0.866300  0.907700  0.388000  1.0  -0.0884
  C  C83  1  0.808800  0.866300  0.340800  1.0  -0.0541
  C  C84  1  0.722700  0.825500  0.371300  1.0  -0.1915
  C  C85  1  0.841400  0.863900  0.257000  1.0  0.6841
  C  C86  1  0.510400  0.017600  0.370600  1.0  0.691
  C  C87  1  0.811400  0.073300  0.314400  1.0  0.6856
  C  C88  1  0.741200  0.083600  0.389500  1.0  -0.0776
  C  C89  1  0.731000  0.148200  0.625100  1.0  0.2653
  C  C90  1  0.815100  0.120800  0.435100  1.0  -0.1301
  C  C91  1  0.604600  0.056000  0.416200  1.0  -0.0562
  C  C92  1  0.637700  0.096700  0.535800  1.0  0.1554
  C  C93  1  0.554100  0.062920  0.490300  1.0  -0.1476
  C  C94  1  0.844100  0.906800  0.465400  1.0  -0.0907
  C  C95  1  0.691700  0.825600  0.448300  1.0  0.1341
  C  C96  1  0.759800  0.127820  0.508100  1.0  0.1364
  C  C97  1  0.754800  0.865100  0.494100  1.0  0.0821
  C  C98  1  0.610000  0.809800  0.560600  1.0  0.2492
  C  C99  1  0.453600  0.046700  0.146100  1.0  0.6532
  C  C100  1  0.366300  0.092300  0.112000  1.0  -0.0878
  C  C101  1  0.308800  0.133700  0.159200  1.0  -0.0526
  C  C102  1  0.222700  0.174500  0.128700  1.0  -0.1929
  C  C103  1  0.341400  0.136100  0.243000  1.0  0.6852
  C  C104  1  0.010400  0.982400  0.129400  1.0  0.6903
  C  C105  1  0.311400  0.926700  0.185600  1.0  0.6856
  C  C106  1  0.241200  0.916400  0.110500  1.0  -0.0768
  C  C107  1  0.231000  0.851800  0.874900  1.0  0.2649
  C  C108  1  0.315100  0.879200  0.064900  1.0  -0.1298
  C  C109  1  0.104600  0.944000  0.083800  1.0  -0.0561
  C  C110  1  0.137700  0.903300  0.964200  1.0  0.1558
  C  C111  1  0.054100  0.937080  0.009700  1.0  -0.1489
  C  C112  1  0.344100  0.093200  0.034600  1.0  -0.0904
  C  C113  1  0.191700  0.174400  0.051700  1.0  0.1333
  C  C114  1  0.259800  0.872180  0.991900  1.0  0.137
  C  C115  1  0.254800  0.134900  0.005900  1.0  0.0824
  C  C116  1  0.110000  0.190200  0.939400  1.0  0.2493
  C  C117  1  0.453600  0.453300  0.646100  1.0  0.6525
  C  C118  1  0.366300  0.407700  0.612000  1.0  -0.0881
  C  C119  1  0.308800  0.366300  0.659200  1.0  -0.0531
  C  C120  1  0.222700  0.325500  0.628700  1.0  -0.1914
  C  C121  1  0.341400  0.363900  0.743000  1.0  0.6856
  C  C122  1  0.010400  0.517600  0.629400  1.0  0.6905
  C  C123  1  0.311400  0.573300  0.685600  1.0  0.6857
  C  C124  1  0.241200  0.583600  0.610500  1.0  -0.0761
  C  C125  1  0.231000  0.648200  0.374900  1.0  0.2652
  C  C126  1  0.315100  0.620800  0.564900  1.0  -0.13
  C  C127  1  0.104600  0.556000  0.583800  1.0  -0.0566
  C  C128  1  0.137700  0.596700  0.464200  1.0  0.1558
  C  C129  1  0.054100  0.562920  0.509700  1.0  -0.1477
  C  C130  1  0.344100  0.406800  0.534600  1.0  -0.0909
  C  C131  1  0.191700  0.325600  0.551700  1.0  0.1343
  C  C132  1  0.259800  0.627820  0.491900  1.0  0.1367
  C  C133  1  0.254800  0.365100  0.505900  1.0  0.0819
  C  C134  1  0.110000  0.309800  0.439400  1.0  0.2491
  C  C135  1  0.953600  0.546700  0.853900  1.0  0.6528
  C  C136  1  0.866300  0.592300  0.888000  1.0  -0.0879
  C  C137  1  0.808800  0.633700  0.840800  1.0  -0.0534
  C  C138  1  0.722700  0.674500  0.871300  1.0  -0.1931
  C  C139  1  0.841400  0.636100  0.757000  1.0  0.6836
  C  C140  1  0.510400  0.482400  0.870600  1.0  0.6906
  C  C141  1  0.811400  0.426700  0.814400  1.0  0.6849
  C  C142  1  0.741200  0.416400  0.889500  1.0  -0.078
  C  C143  1  0.731000  0.351800  0.125100  1.0  0.2661
  C  C144  1  0.815100  0.379200  0.935100  1.0  -0.1306
  C  C145  1  0.604600  0.444000  0.916200  1.0  -0.0558
  C  C146  1  0.637700  0.403300  0.035800  1.0  0.1553
  C  C147  1  0.554100  0.437080  0.990300  1.0  -0.1487
  C  C148  1  0.844100  0.593200  0.965400  1.0  -0.0898
  C  C149  1  0.691700  0.674400  0.948300  1.0  0.1335
  C  C150  1  0.759800  0.372180  0.008100  1.0  0.1366
  C  C151  1  0.754800  0.634900  0.994100  1.0  0.0826
  C  C152  1  0.610000  0.690200  0.060600  1.0  0.2487
  C  C153  1  0.546400  0.546700  0.353900  1.0  0.6531
  C  C154  1  0.633700  0.592300  0.388000  1.0  -0.0876
  C  C155  1  0.691200  0.633700  0.340800  1.0  -0.0532
  C  C156  1  0.777300  0.674500  0.371300  1.0  -0.1917
  C  C157  1  0.658600  0.636100  0.257000  1.0  0.6837
  C  C158  1  0.989600  0.482400  0.370600  1.0  0.6918
  C  C159  1  0.688600  0.426700  0.314400  1.0  0.6848
  C  C160  1  0.758800  0.416400  0.389500  1.0  -0.0778
  C  C161  1  0.769000  0.351800  0.625100  1.0  0.2656
  C  C162  1  0.684900  0.379200  0.435100  1.0  -0.1305
  C  C163  1  0.895400  0.444000  0.416200  1.0  -0.0561
  C  C164  1  0.862300  0.403300  0.535800  1.0  0.1561
  C  C165  1  0.945900  0.437080  0.490300  1.0  -0.1478
  C  C166  1  0.655900  0.593200  0.465400  1.0  -0.091
  C  C167  1  0.808300  0.674400  0.448300  1.0  0.1336
  C  C168  1  0.740200  0.372180  0.508100  1.0  0.1358
  C  C169  1  0.745200  0.634900  0.494100  1.0  0.0828
  C  C170  1  0.890000  0.690200  0.560600  1.0  0.2494
  C  C171  1  0.046400  0.453300  0.146100  1.0  0.6521
  C  C172  1  0.133700  0.407700  0.112000  1.0  -0.0874
  C  C173  1  0.191200  0.366300  0.159200  1.0  -0.0528
  C  C174  1  0.277300  0.325500  0.128700  1.0  -0.1895
  C  C175  1  0.158600  0.363900  0.243000  1.0  0.6855
  C  C176  1  0.489600  0.517600  0.129400  1.0  0.6914
  C  C177  1  0.188600  0.573300  0.185600  1.0  0.6847
  C  C178  1  0.258800  0.583600  0.110500  1.0  -0.076
  C  C179  1  0.269000  0.648200  0.874900  1.0  0.265
  C  C180  1  0.184900  0.620800  0.064900  1.0  -0.1313
  C  C181  1  0.395400  0.556000  0.083800  1.0  -0.0569
  C  C182  1  0.362300  0.596700  0.964200  1.0  0.1565
  C  C183  1  0.445900  0.562920  0.009700  1.0  -0.1472
  C  C184  1  0.155900  0.406800  0.034600  1.0  -0.0916
  C  C185  1  0.308300  0.325600  0.051700  1.0  0.1344
  C  C186  1  0.240200  0.627820  0.991900  1.0  0.1361
  C  C187  1  0.245200  0.365100  0.005900  1.0  0.0819
  C  C188  1  0.390000  0.309800  0.939400  1.0  0.2476
  C  C189  1  0.046400  0.046700  0.646100  1.0  0.6531
  C  C190  1  0.133700  0.092300  0.612000  1.0  -0.0873
  C  C191  1  0.191200  0.133700  0.659200  1.0  -0.0523
  C  C192  1  0.277300  0.174500  0.628700  1.0  -0.1906
  C  C193  1  0.158600  0.136100  0.743000  1.0  0.6851
  C  C194  1  0.489600  0.982400  0.629400  1.0  0.6914
  C  C195  1  0.188600  0.926700  0.685600  1.0  0.6848
  C  C196  1  0.258800  0.916400  0.610500  1.0  -0.0764
  C  C197  1  0.269000  0.851800  0.374900  1.0  0.2649
  C  C198  1  0.184900  0.879200  0.564900  1.0  -0.1302
  C  C199  1  0.395400  0.944000  0.583800  1.0  -0.0564
  C  C200  1  0.362300  0.903300  0.464200  1.0  0.1566
  C  C201  1  0.445900  0.937080  0.509700  1.0  -0.148
  C  C202  1  0.155900  0.093200  0.534600  1.0  -0.0912
  C  C203  1  0.308300  0.174400  0.551700  1.0  0.1335
  C  C204  1  0.240200  0.872180  0.491900  1.0  0.1365
  C  C205  1  0.245200  0.134900  0.505900  1.0  0.0826
  C  C206  1  0.390000  0.190200  0.439400  1.0  0.2487
  C  C207  1  0.546400  0.953300  0.853900  1.0  0.6522
  C  C208  1  0.633700  0.907700  0.888000  1.0  -0.0877
  C  C209  1  0.691200  0.866300  0.840800  1.0  -0.0538
  C  C210  1  0.777300  0.825500  0.871300  1.0  -0.1903
  C  C211  1  0.658600  0.863900  0.757000  1.0  0.6842
  C  C212  1  0.989600  0.017600  0.870600  1.0  0.692
  C  C213  1  0.688600  0.073300  0.814400  1.0  0.6853
  C  C214  1  0.758800  0.083600  0.889500  1.0  -0.0776
  C  C215  1  0.769000  0.148200  0.125100  1.0  0.2645
  C  C216  1  0.684900  0.120800  0.935100  1.0  -0.131
  C  C217  1  0.895400  0.056000  0.916200  1.0  -0.0565
  C  C218  1  0.862300  0.096700  0.035800  1.0  0.1561
  C  C219  1  0.945900  0.062920  0.990300  1.0  -0.1471
  C  C220  1  0.655900  0.906800  0.965400  1.0  -0.0915
  C  C221  1  0.808300  0.825600  0.948300  1.0  0.1342
  C  C222  1  0.740200  0.127820  0.008100  1.0  0.1358
  C  C223  1  0.745200  0.865100  0.994100  1.0  0.0821
  C  C224  1  0.890000  0.809800  0.060600  1.0  0.2488
  N  N225  1  0.625000  0.110180  0.610400  1.0  -0.2466
  N  N226  1  0.701100  0.852620  0.565900  1.0  -0.2227
  N  N227  1  0.599800  0.791670  0.491000  1.0  -0.4009
  N  N228  1  0.814600  0.161270  0.565200  1.0  -0.4194
  N  N229  1  0.125000  0.889820  0.889600  1.0  -0.2473
  N  N230  1  0.201100  0.147380  0.934100  1.0  -0.2227
  N  N231  1  0.099800  0.208330  0.009000  1.0  -0.4011
  N  N232  1  0.314600  0.838730  0.934800  1.0  -0.418
  N  N233  1  0.125000  0.610180  0.389600  1.0  -0.2466
  N  N234  1  0.201100  0.352620  0.434100  1.0  -0.2249
  N  N235  1  0.099800  0.291670  0.509000  1.0  -0.4016
  N  N236  1  0.314600  0.661270  0.434800  1.0  -0.4189
  N  N237  1  0.625000  0.389820  0.110400  1.0  -0.2469
  N  N238  1  0.701100  0.647380  0.065900  1.0  -0.2206
  N  N239  1  0.599800  0.708330  0.991000  1.0  -0.4009
  N  N240  1  0.814600  0.338730  0.065200  1.0  -0.4175
  N  N241  1  0.875000  0.389820  0.610400  1.0  -0.2467
  N  N242  1  0.798900  0.647380  0.565900  1.0  -0.2214
  N  N243  1  0.900200  0.708330  0.491000  1.0  -0.4001
  N  N244  1  0.685400  0.338730  0.565200  1.0  -0.4198
  N  N245  1  0.375000  0.610180  0.889600  1.0  -0.2466
  N  N246  1  0.298900  0.352620  0.934100  1.0  -0.2243
  N  N247  1  0.400200  0.291670  0.009000  1.0  -0.4
  N  N248  1  0.185400  0.661270  0.934800  1.0  -0.4209
  N  N249  1  0.375000  0.889820  0.389600  1.0  -0.2469
  N  N250  1  0.298900  0.147380  0.434100  1.0  -0.222
  N  N251  1  0.400200  0.208330  0.509000  1.0  -0.4005
  N  N252  1  0.185400  0.838730  0.434800  1.0  -0.4205
  N  N253  1  0.875000  0.110180  0.110400  1.0  -0.2466
  N  N254  1  0.798900  0.852620  0.065900  1.0  -0.223
  N  N255  1  0.900200  0.791670  0.991000  1.0  -0.3992
  N  N256  1  0.685400  0.161270  0.065200  1.0  -0.4212
  O  O257  1  0.912600  0.969300  0.288120  1.0  -0.6607
  O  O258  1  0.066600  0.974450  0.387400  1.0  -0.5733
  O  O259  1  0.748600  0.889840  0.214290  1.0  -0.6172
  O  O260  1  0.945700  0.835700  0.233900  1.0  -0.5268
  O  O261  1  0.364700  0.023680  0.370900  1.0  -0.5843
  O  O262  1  0.959700  0.079100  0.309100  1.0  -0.6101
  O  O263  1  0.579800  0.978800  0.338500  1.0  -0.6365
  O  O264  1  0.725400  0.060100  0.259500  1.0  -0.5943
  O  O265  1  0.412600  0.030700  0.211880  1.0  -0.6595
  O  O266  1  0.566600  0.025550  0.112600  1.0  -0.5724
  O  O267  1  0.248600  0.110160  0.285710  1.0  -0.6172
  O  O268  1  0.445700  0.164300  0.266100  1.0  -0.527
  O  O269  1  0.864700  0.976320  0.129100  1.0  -0.5866
  O  O270  1  0.459700  0.920900  0.190900  1.0  -0.6112
  O  O271  1  0.079800  0.021200  0.161500  1.0  -0.6355
  O  O272  1  0.225400  0.939900  0.240500  1.0  -0.5939
  O  O273  1  0.412600  0.469300  0.711880  1.0  -0.66
  O  O274  1  0.566600  0.474450  0.612600  1.0  -0.5723
  O  O275  1  0.248600  0.389840  0.785710  1.0  -0.6168
  O  O276  1  0.445700  0.335700  0.766100  1.0  -0.5267
  O  O277  1  0.864700  0.523680  0.629100  1.0  -0.5864
  O  O278  1  0.459700  0.579100  0.690900  1.0  -0.6104
  O  O279  1  0.079800  0.478800  0.661500  1.0  -0.6352
  O  O280  1  0.225400  0.560100  0.740500  1.0  -0.5941
  O  O281  1  0.912600  0.530700  0.788120  1.0  -0.6605
  O  O282  1  0.066600  0.525550  0.887400  1.0  -0.573
  O  O283  1  0.748600  0.610160  0.714290  1.0  -0.6174
  O  O284  1  0.945700  0.664300  0.733900  1.0  -0.5268
  O  O285  1  0.364700  0.476320  0.870900  1.0  -0.5846
  O  O286  1  0.959700  0.420900  0.809100  1.0  -0.611
  O  O287  1  0.579800  0.521200  0.838500  1.0  -0.6361
  O  O288  1  0.725400  0.439900  0.759500  1.0  -0.5945
  O  O289  1  0.587400  0.530700  0.288120  1.0  -0.6604
  O  O290  1  0.433400  0.525550  0.387400  1.0  -0.573
  O  O291  1  0.751400  0.610160  0.214290  1.0  -0.6162
  O  O292  1  0.554300  0.664300  0.233900  1.0  -0.5265
  O  O293  1  0.135300  0.476320  0.370900  1.0  -0.5845
  O  O294  1  0.540300  0.420900  0.309100  1.0  -0.6113
  O  O295  1  0.920200  0.521200  0.338500  1.0  -0.6368
  O  O296  1  0.774600  0.439900  0.259500  1.0  -0.595
  O  O297  1  0.087400  0.469300  0.211880  1.0  -0.6598
  O  O298  1  0.933400  0.474450  0.112600  1.0  -0.5723
  O  O299  1  0.251400  0.389840  0.285710  1.0  -0.6157
  O  O300  1  0.054300  0.335700  0.266100  1.0  -0.5269
  O  O301  1  0.635300  0.523680  0.129100  1.0  -0.5825
  O  O302  1  0.040300  0.579100  0.190900  1.0  -0.6122
  O  O303  1  0.420200  0.478800  0.161500  1.0  -0.6362
  O  O304  1  0.274600  0.560100  0.240500  1.0  -0.5948
  O  O305  1  0.087400  0.030700  0.711880  1.0  -0.6594
  O  O306  1  0.933400  0.025550  0.612600  1.0  -0.5728
  O  O307  1  0.251400  0.110160  0.785710  1.0  -0.616
  O  O308  1  0.054300  0.164300  0.766100  1.0  -0.5265
  O  O309  1  0.635300  0.976320  0.629100  1.0  -0.5832
  O  O310  1  0.040300  0.920900  0.690900  1.0  -0.6115
  O  O311  1  0.420200  0.021200  0.661500  1.0  -0.6365
  O  O312  1  0.274600  0.939900  0.740500  1.0  -0.5948
  O  O313  1  0.587400  0.969300  0.788120  1.0  -0.6605
  O  O314  1  0.433400  0.974450  0.887400  1.0  -0.5732
  O  O315  1  0.751400  0.889840  0.714290  1.0  -0.6161
  O  O316  1  0.554300  0.835700  0.733900  1.0  -0.5273
  O  O317  1  0.135300  0.023680  0.870900  1.0  -0.5837
  O  O318  1  0.540300  0.079100  0.809100  1.0  -0.612
  O  O319  1  0.920200  0.978800  0.838500  1.0  -0.6373
  O  O320  1  0.774600  0.060100  0.759500  1.0  -0.5948
