# generated using pymatgen
data_DyAgH8C18(NO2)4
_symmetry_space_group_name_H-M   'P 1'
_cell_length_a   8.45170000
_cell_length_b   25.32600000
_cell_length_c   17.74800000
_cell_angle_alpha   90.00000000
_cell_angle_beta   90.00000000
_cell_angle_gamma   90.00000000
_symmetry_Int_Tables_number   1
_chemical_formula_structural   DyAgH8C18(NO2)4
_chemical_formula_sum   'Dy8 Ag8 H64 C144 N32 O64'
_cell_volume   3798.91954154
_cell_formula_units_Z   8
loop_
 _symmetry_equiv_pos_site_id
 _symmetry_equiv_pos_as_xyz
  1  'x, y, z'
loop_
 _atom_site_type_symbol
 _atom_site_label
 _atom_site_symmetry_multiplicity
 _atom_site_fract_x
 _atom_site_fract_y
 _atom_site_fract_z
 _atom_site_occupancy
 _atom_site_charge
  Dy  Dy1  1  0.665440  0.476160  0.782300  1.0  2.3221
  Dy  Dy2  1  0.165440  0.523840  0.717700  1.0  2.3258
  Dy  Dy3  1  0.165440  0.976160  0.217690  1.0  2.3217
  Dy  Dy4  1  0.665440  0.023840  0.282300  1.0  2.326
  Dy  Dy5  1  0.834560  0.023840  0.782300  1.0  2.3221
  Dy  Dy6  1  0.334560  0.976160  0.717700  1.0  2.326
  Dy  Dy7  1  0.334560  0.523840  0.217690  1.0  2.3216
  Dy  Dy8  1  0.834560  0.476160  0.282300  1.0  2.3262
  Ag  Ag9  1  0.462030  0.227320  0.550030  1.0  0.3796
  Ag  Ag10  1  0.962030  0.772680  0.949970  1.0  0.3797
  Ag  Ag11  1  0.962030  0.727320  0.449970  1.0  0.3791
  Ag  Ag12  1  0.462030  0.272680  0.050030  1.0  0.3801
  Ag  Ag13  1  0.037970  0.272680  0.550030  1.0  0.3801
  Ag  Ag14  1  0.537970  0.727320  0.949970  1.0  0.3789
  Ag  Ag15  1  0.537970  0.772680  0.449970  1.0  0.3798
  Ag  Ag16  1  0.037970  0.227320  0.050030  1.0  0.3793
  H  H17  1  0.059000  0.404000  0.142500  1.0  0.3097
  H  H18  1  0.712900  0.371000  0.394200  1.0  0.3057
  H  H19  1  0.964400  0.455100  0.007900  1.0  0.1195
  H  H20  1  0.248600  0.339100  0.174400  1.0  0.1098
  H  H21  1  0.402700  0.361100  0.917800  1.0  0.1221
  H  H22  1  0.691700  0.298100  0.660000  1.0  0.1291
  H  H23  1  0.553000  0.295800  0.400300  1.0  0.1079
  H  H24  1  0.880500  0.434200  0.502900  1.0  0.1362
  H  H25  1  0.559000  0.596000  0.357500  1.0  0.3088
  H  H26  1  0.212900  0.629000  0.105800  1.0  0.3061
  H  H27  1  0.464400  0.544900  0.492100  1.0  0.1193
  H  H28  1  0.748600  0.660900  0.325600  1.0  0.1105
  H  H29  1  0.902700  0.638900  0.582200  1.0  0.1218
  H  H30  1  0.191700  0.701900  0.840000  1.0  0.1285
  H  H31  1  0.053000  0.704200  0.099700  1.0  0.1076
  H  H32  1  0.380500  0.565800  0.997100  1.0  0.1358
  H  H33  1  0.559000  0.904000  0.857500  1.0  0.3086
  H  H34  1  0.212900  0.871000  0.605800  1.0  0.3057
  H  H35  1  0.464400  0.955100  0.992100  1.0  0.1193
  H  H36  1  0.748600  0.839100  0.825600  1.0  0.1106
  H  H37  1  0.902700  0.861100  0.082200  1.0  0.1222
  H  H38  1  0.191700  0.798100  0.340000  1.0  0.1286
  H  H39  1  0.053000  0.795800  0.599700  1.0  0.1079
  H  H40  1  0.380500  0.934200  0.497100  1.0  0.1358
  H  H41  1  0.059000  0.096000  0.642500  1.0  0.3099
  H  H42  1  0.712900  0.129000  0.894200  1.0  0.3061
  H  H43  1  0.964400  0.044900  0.507900  1.0  0.1196
  H  H44  1  0.248600  0.160900  0.674400  1.0  0.1098
  H  H45  1  0.402700  0.138900  0.417800  1.0  0.1219
  H  H46  1  0.691700  0.201900  0.160000  1.0  0.1284
  H  H47  1  0.553000  0.204200  0.900300  1.0  0.108
  H  H48  1  0.880500  0.065800  0.002900  1.0  0.1359
  H  H49  1  0.441000  0.096000  0.142500  1.0  0.3104
  H  H50  1  0.787100  0.129000  0.394200  1.0  0.3067
  H  H51  1  0.535600  0.044900  0.007900  1.0  0.1192
  H  H52  1  0.251400  0.160900  0.174400  1.0  0.1099
  H  H53  1  0.097300  0.138900  0.917800  1.0  0.1219
  H  H54  1  0.808300  0.201900  0.660000  1.0  0.1285
  H  H55  1  0.947000  0.204200  0.400300  1.0  0.1077
  H  H56  1  0.619500  0.065800  0.502900  1.0  0.1357
  H  H57  1  0.941000  0.904000  0.357500  1.0  0.3088
  H  H58  1  0.287100  0.871000  0.105800  1.0  0.3059
  H  H59  1  0.035600  0.955100  0.492100  1.0  0.1191
  H  H60  1  0.751400  0.839100  0.325600  1.0  0.1105
  H  H61  1  0.597300  0.861100  0.582200  1.0  0.122
  H  H62  1  0.308300  0.798100  0.840000  1.0  0.1283
  H  H63  1  0.447000  0.795800  0.099700  1.0  0.1076
  H  H64  1  0.119500  0.934200  0.997100  1.0  0.1357
  H  H65  1  0.941000  0.596000  0.857500  1.0  0.309
  H  H66  1  0.287100  0.629000  0.605800  1.0  0.3063
  H  H67  1  0.035600  0.544900  0.992100  1.0  0.1192
  H  H68  1  0.751400  0.660900  0.825600  1.0  0.1105
  H  H69  1  0.597300  0.638900  0.082200  1.0  0.1217
  H  H70  1  0.308300  0.701900  0.340000  1.0  0.1286
  H  H71  1  0.447000  0.704200  0.599700  1.0  0.1074
  H  H72  1  0.119500  0.565800  0.497100  1.0  0.1358
  H  H73  1  0.441000  0.404000  0.642500  1.0  0.3101
  H  H74  1  0.787100  0.371000  0.894200  1.0  0.3063
  H  H75  1  0.535600  0.455100  0.507900  1.0  0.1191
  H  H76  1  0.251400  0.339100  0.674400  1.0  0.11
  H  H77  1  0.097300  0.361100  0.417800  1.0  0.1221
  H  H78  1  0.808300  0.298100  0.160000  1.0  0.1285
  H  H79  1  0.947000  0.295800  0.900300  1.0  0.1077
  H  H80  1  0.619500  0.434200  0.002900  1.0  0.136
  C  C81  1  0.010300  0.482460  0.870690  1.0  0.764
  C  C82  1  0.105700  0.444430  0.916610  1.0  -0.0739
  C  C83  1  0.053600  0.437530  0.990170  1.0  -0.1531
  C  C84  1  0.138800  0.403640  0.036300  1.0  0.143
  C  C85  1  0.233400  0.353680  0.126800  1.0  0.2571
  C  C86  1  0.262100  0.372800  0.008500  1.0  0.1316
  C  C87  1  0.317100  0.380330  0.936000  1.0  -0.1344
  C  C88  1  0.241700  0.417230  0.891080  1.0  -0.0998
  C  C89  1  0.309800  0.426220  0.813500  1.0  0.7508
  C  C90  1  0.849300  0.365630  0.742100  1.0  0.7219
  C  C91  1  0.811600  0.367740  0.659000  1.0  -0.0701
  C  C92  1  0.725400  0.325700  0.629350  1.0  -0.1936
  C  C93  1  0.691300  0.326040  0.552900  1.0  0.1348
  C  C94  1  0.605200  0.311130  0.440900  1.0  0.25
  C  C95  1  0.750600  0.365700  0.505200  1.0  0.0616
  C  C96  1  0.840700  0.407920  0.534300  1.0  -0.0871
  C  C97  1  0.867700  0.408900  0.611400  1.0  -0.112
  C  C98  1  0.952200  0.454300  0.644800  1.0  0.7176
  C  C99  1  0.510300  0.517540  0.629310  1.0  0.7626
  C  C100  1  0.605700  0.555570  0.583390  1.0  -0.0748
  C  C101  1  0.553600  0.562470  0.509830  1.0  -0.1522
  C  C102  1  0.638800  0.596360  0.463700  1.0  0.1436
  C  C103  1  0.733400  0.646320  0.373200  1.0  0.2556
  C  C104  1  0.762100  0.627200  0.491500  1.0  0.1319
  C  C105  1  0.817100  0.619670  0.564000  1.0  -0.1336
  C  C106  1  0.741700  0.582770  0.608920  1.0  -0.0979
  C  C107  1  0.809800  0.573780  0.686500  1.0  0.7527
  C  C108  1  0.349300  0.634370  0.757900  1.0  0.7201
  C  C109  1  0.311600  0.632260  0.841000  1.0  -0.0697
  C  C110  1  0.225400  0.674300  0.870650  1.0  -0.1943
  C  C111  1  0.191300  0.673960  0.947100  1.0  0.1341
  C  C112  1  0.105200  0.688870  0.059100  1.0  0.2496
  C  C113  1  0.250600  0.634300  0.994800  1.0  0.0616
  C  C114  1  0.340700  0.592080  0.965700  1.0  -0.0855
  C  C115  1  0.367700  0.591100  0.888600  1.0  -0.1118
  C  C116  1  0.452200  0.545700  0.855200  1.0  0.7178
  C  C117  1  0.510300  0.982460  0.129310  1.0  0.7632
  C  C118  1  0.605700  0.944430  0.083390  1.0  -0.0739
  C  C119  1  0.553600  0.937530  0.009830  1.0  -0.1531
  C  C120  1  0.638800  0.903640  0.963700  1.0  0.1432
  C  C121  1  0.733400  0.853680  0.873200  1.0  0.2556
  C  C122  1  0.762100  0.872800  0.991500  1.0  0.1319
  C  C123  1  0.817100  0.880330  0.064000  1.0  -0.1334
  C  C124  1  0.741700  0.917230  0.108920  1.0  -0.0985
  C  C125  1  0.809800  0.926220  0.186500  1.0  0.752
  C  C126  1  0.349300  0.865630  0.257900  1.0  0.7207
  C  C127  1  0.311600  0.867740  0.341000  1.0  -0.0702
  C  C128  1  0.225400  0.825700  0.370650  1.0  -0.1946
  C  C129  1  0.191300  0.826040  0.447100  1.0  0.1346
  C  C130  1  0.105200  0.811130  0.559100  1.0  0.2504
  C  C131  1  0.250600  0.865700  0.494800  1.0  0.0614
  C  C132  1  0.340700  0.907920  0.465700  1.0  -0.0869
  C  C133  1  0.367700  0.908900  0.388600  1.0  -0.1117
  C  C134  1  0.452200  0.954300  0.355200  1.0  0.7173
  C  C135  1  0.010300  0.017540  0.370690  1.0  0.7637
  C  C136  1  0.105700  0.055570  0.416610  1.0  -0.0749
  C  C137  1  0.053600  0.062470  0.490170  1.0  -0.1523
  C  C138  1  0.138800  0.096360  0.536300  1.0  0.1434
  C  C139  1  0.233400  0.146320  0.626800  1.0  0.2565
  C  C140  1  0.262100  0.127200  0.508500  1.0  0.1317
  C  C141  1  0.317100  0.119670  0.436000  1.0  -0.1338
  C  C142  1  0.241700  0.082770  0.391080  1.0  -0.0994
  C  C143  1  0.309800  0.073780  0.313500  1.0  0.7522
  C  C144  1  0.849300  0.134370  0.242100  1.0  0.7208
  C  C145  1  0.811600  0.132260  0.159000  1.0  -0.0692
  C  C146  1  0.725400  0.174300  0.129350  1.0  -0.1926
  C  C147  1  0.691300  0.173960  0.052900  1.0  0.1341
  C  C148  1  0.605200  0.188870  0.940900  1.0  0.2495
  C  C149  1  0.750600  0.134300  0.005200  1.0  0.0616
  C  C150  1  0.840700  0.092080  0.034300  1.0  -0.0856
  C  C151  1  0.867700  0.091100  0.111400  1.0  -0.112
  C  C152  1  0.952200  0.045700  0.144800  1.0  0.7181
  C  C153  1  0.489700  0.017540  0.870690  1.0  0.7637
  C  C154  1  0.394300  0.055570  0.916610  1.0  -0.0748
  C  C155  1  0.446400  0.062470  0.990170  1.0  -0.1521
  C  C156  1  0.361200  0.096360  0.036300  1.0  0.1435
  C  C157  1  0.266600  0.146320  0.126800  1.0  0.2563
  C  C158  1  0.237900  0.127200  0.008500  1.0  0.1316
  C  C159  1  0.182900  0.119670  0.936000  1.0  -0.1343
  C  C160  1  0.258300  0.082770  0.891080  1.0  -0.0997
  C  C161  1  0.190200  0.073780  0.813500  1.0  0.7512
  C  C162  1  0.650700  0.134370  0.742100  1.0  0.7202
  C  C163  1  0.688400  0.132260  0.659000  1.0  -0.069
  C  C164  1  0.774600  0.174300  0.629350  1.0  -0.1909
  C  C165  1  0.808700  0.173960  0.552900  1.0  0.1342
  C  C166  1  0.894800  0.188870  0.440900  1.0  0.2488
  C  C167  1  0.749400  0.134300  0.505200  1.0  0.0619
  C  C168  1  0.659300  0.092080  0.534300  1.0  -0.0868
  C  C169  1  0.632300  0.091100  0.611400  1.0  -0.1117
  C  C170  1  0.547800  0.045700  0.644800  1.0  0.7183
  C  C171  1  0.989700  0.982460  0.629310  1.0  0.7636
  C  C172  1  0.894300  0.944430  0.583390  1.0  -0.074
  C  C173  1  0.946400  0.937530  0.509830  1.0  -0.1529
  C  C174  1  0.861200  0.903640  0.463700  1.0  0.1432
  C  C175  1  0.766600  0.853680  0.373200  1.0  0.2561
  C  C176  1  0.737900  0.872800  0.491500  1.0  0.1314
  C  C177  1  0.682900  0.880330  0.564000  1.0  -0.1333
  C  C178  1  0.758300  0.917230  0.608920  1.0  -0.098
  C  C179  1  0.690200  0.926220  0.686500  1.0  0.7519
  C  C180  1  0.150700  0.865630  0.757900  1.0  0.7208
  C  C181  1  0.188400  0.867740  0.841000  1.0  -0.0698
  C  C182  1  0.274600  0.825700  0.870650  1.0  -0.1935
  C  C183  1  0.308700  0.826040  0.947100  1.0  0.1346
  C  C184  1  0.394800  0.811130  0.059100  1.0  0.2498
  C  C185  1  0.249400  0.865700  0.994800  1.0  0.0618
  C  C186  1  0.159300  0.907920  0.965700  1.0  -0.0878
  C  C187  1  0.132300  0.908900  0.888600  1.0  -0.1113
  C  C188  1  0.047800  0.954300  0.855200  1.0  0.7174
  C  C189  1  0.989700  0.517540  0.129310  1.0  0.7628
  C  C190  1  0.894300  0.555570  0.083390  1.0  -0.075
  C  C191  1  0.946400  0.562470  0.009830  1.0  -0.152
  C  C192  1  0.861200  0.596360  0.963700  1.0  0.1436
  C  C193  1  0.766600  0.646320  0.873200  1.0  0.256
  C  C194  1  0.737900  0.627200  0.991500  1.0  0.1317
  C  C195  1  0.682900  0.619670  0.064000  1.0  -0.1342
  C  C196  1  0.758300  0.582770  0.108920  1.0  -0.0974
  C  C197  1  0.690200  0.573780  0.186500  1.0  0.7509
  C  C198  1  0.150700  0.634370  0.257900  1.0  0.7198
  C  C199  1  0.188400  0.632260  0.341000  1.0  -0.0696
  C  C200  1  0.274600  0.674300  0.370650  1.0  -0.1929
  C  C201  1  0.308700  0.673960  0.447100  1.0  0.1341
  C  C202  1  0.394800  0.688870  0.559100  1.0  0.2505
  C  C203  1  0.249400  0.634300  0.494800  1.0  0.062
  C  C204  1  0.159300  0.592080  0.465700  1.0  -0.0866
  C  C205  1  0.132300  0.591100  0.388600  1.0  -0.1117
  C  C206  1  0.047800  0.545700  0.355200  1.0  0.7181
  C  C207  1  0.489700  0.482460  0.370690  1.0  0.764
  C  C208  1  0.394300  0.444430  0.416610  1.0  -0.0739
  C  C209  1  0.446400  0.437530  0.490170  1.0  -0.1529
  C  C210  1  0.361200  0.403640  0.536300  1.0  0.1432
  C  C211  1  0.266600  0.353680  0.626800  1.0  0.2573
  C  C212  1  0.237900  0.372800  0.508500  1.0  0.131
  C  C213  1  0.182900  0.380330  0.436000  1.0  -0.1339
  C  C214  1  0.258300  0.417230  0.391080  1.0  -0.1
  C  C215  1  0.190200  0.426220  0.313500  1.0  0.7517
  C  C216  1  0.650700  0.365630  0.242100  1.0  0.7215
  C  C217  1  0.688400  0.367740  0.159000  1.0  -0.0698
  C  C218  1  0.774600  0.325700  0.129350  1.0  -0.1923
  C  C219  1  0.808700  0.326040  0.052900  1.0  0.1349
  C  C220  1  0.894800  0.311130  0.940900  1.0  0.2481
  C  C221  1  0.749400  0.365700  0.005200  1.0  0.0617
  C  C222  1  0.659300  0.407920  0.034300  1.0  -0.0879
  C  C223  1  0.632300  0.408900  0.111400  1.0  -0.1115
  C  C224  1  0.547800  0.454300  0.144800  1.0  0.7176
  N  N225  1  0.125400  0.390660  0.111130  1.0  -0.2517
  N  N226  1  0.316500  0.340210  0.066030  1.0  -0.4237
  N  N227  1  0.597700  0.292150  0.510540  1.0  -0.416
  N  N228  1  0.694000  0.353770  0.434950  1.0  -0.2194
  N  N229  1  0.625400  0.609340  0.388870  1.0  -0.251
  N  N230  1  0.816500  0.659790  0.433970  1.0  -0.4244
  N  N231  1  0.097700  0.707850  0.989460  1.0  -0.4142
  N  N232  1  0.194000  0.646230  0.065050  1.0  -0.2154
  N  N233  1  0.625400  0.890660  0.888870  1.0  -0.2518
  N  N234  1  0.816500  0.840210  0.933970  1.0  -0.424
  N  N235  1  0.097700  0.792150  0.489460  1.0  -0.4155
  N  N236  1  0.194000  0.853770  0.565050  1.0  -0.2169
  N  N237  1  0.125400  0.109340  0.611130  1.0  -0.2517
  N  N238  1  0.316500  0.159790  0.566030  1.0  -0.4245
  N  N239  1  0.597700  0.207850  0.010540  1.0  -0.4142
  N  N240  1  0.694000  0.146230  0.934950  1.0  -0.218
  N  N241  1  0.374600  0.109340  0.111130  1.0  -0.2524
  N  N242  1  0.183500  0.159790  0.066030  1.0  -0.4266
  N  N243  1  0.902300  0.207850  0.510540  1.0  -0.4141
  N  N244  1  0.806000  0.146230  0.434950  1.0  -0.2168
  N  N245  1  0.874600  0.890660  0.388870  1.0  -0.2515
  N  N246  1  0.683500  0.840210  0.433970  1.0  -0.4259
  N  N247  1  0.402300  0.792150  0.989460  1.0  -0.4146
  N  N248  1  0.306000  0.853770  0.065050  1.0  -0.2169
  N  N249  1  0.874600  0.609340  0.888870  1.0  -0.2511
  N  N250  1  0.683500  0.659790  0.933970  1.0  -0.4268
  N  N251  1  0.402300  0.707850  0.489460  1.0  -0.414
  N  N252  1  0.306000  0.646230  0.565050  1.0  -0.216
  N  N253  1  0.374600  0.390660  0.611130  1.0  -0.2519
  N  N254  1  0.183500  0.340210  0.566030  1.0  -0.4254
  N  N255  1  0.902300  0.292150  0.010540  1.0  -0.415
  N  N256  1  0.806000  0.353770  0.934950  1.0  -0.218
  O  O257  1  0.864700  0.475720  0.871170  1.0  -0.6971
  O  O258  1  0.077500  0.521860  0.838910  1.0  -0.7649
  O  O259  1  0.222600  0.440610  0.759810  1.0  -0.7346
  O  O260  1  0.457900  0.419270  0.807140  1.0  -0.7424
  O  O261  1  0.749800  0.389500  0.785550  1.0  -0.744
  O  O262  1  0.960100  0.339260  0.765060  1.0  -0.5788
  O  O263  1  0.912200  0.469740  0.711080  1.0  -0.8376
  O  O264  1  0.063500  0.476350  0.611430  1.0  -0.6443
  O  O265  1  0.364700  0.524280  0.628830  1.0  -0.6971
  O  O266  1  0.577500  0.478140  0.661090  1.0  -0.7642
  O  O267  1  0.722600  0.559390  0.740190  1.0  -0.7337
  O  O268  1  0.957900  0.580730  0.692860  1.0  -0.743
  O  O269  1  0.249800  0.610500  0.714450  1.0  -0.7442
  O  O270  1  0.460100  0.660740  0.734940  1.0  -0.5802
  O  O271  1  0.412200  0.530260  0.788920  1.0  -0.8378
  O  O272  1  0.563500  0.523650  0.888570  1.0  -0.645
  O  O273  1  0.364700  0.975720  0.128830  1.0  -0.6976
  O  O274  1  0.577500  0.021860  0.161090  1.0  -0.7641
  O  O275  1  0.722600  0.940610  0.240190  1.0  -0.7337
  O  O276  1  0.957900  0.919270  0.192860  1.0  -0.7427
  O  O277  1  0.249800  0.889500  0.214450  1.0  -0.744
  O  O278  1  0.460100  0.839260  0.234940  1.0  -0.5794
  O  O279  1  0.412200  0.969740  0.288920  1.0  -0.8376
  O  O280  1  0.563500  0.976350  0.388570  1.0  -0.6454
  O  O281  1  0.864700  0.024280  0.371170  1.0  -0.6972
  O  O282  1  0.077500  0.978140  0.338910  1.0  -0.7654
  O  O283  1  0.222600  0.059390  0.259810  1.0  -0.7342
  O  O284  1  0.457900  0.080730  0.307140  1.0  -0.7427
  O  O285  1  0.749800  0.110500  0.285550  1.0  -0.7444
  O  O286  1  0.960100  0.160740  0.265060  1.0  -0.5799
  O  O287  1  0.912200  0.030260  0.211080  1.0  -0.8372
  O  O288  1  0.063500  0.023650  0.111430  1.0  -0.6445
  O  O289  1  0.635300  0.024280  0.871170  1.0  -0.6957
  O  O290  1  0.422500  0.978140  0.838910  1.0  -0.7654
  O  O291  1  0.277400  0.059390  0.759810  1.0  -0.7353
  O  O292  1  0.042100  0.080730  0.807140  1.0  -0.7431
  O  O293  1  0.750200  0.110500  0.785550  1.0  -0.7417
  O  O294  1  0.539900  0.160740  0.765060  1.0  -0.5802
  O  O295  1  0.587800  0.030260  0.711080  1.0  -0.8372
  O  O296  1  0.436500  0.023650  0.611430  1.0  -0.644
  O  O297  1  0.135300  0.975720  0.628830  1.0  -0.696
  O  O298  1  0.922500  0.021860  0.661090  1.0  -0.7642
  O  O299  1  0.777400  0.940610  0.740190  1.0  -0.7348
  O  O300  1  0.542100  0.919270  0.692860  1.0  -0.7436
  O  O301  1  0.250200  0.889500  0.714450  1.0  -0.7419
  O  O302  1  0.039900  0.839260  0.734940  1.0  -0.5797
  O  O303  1  0.087800  0.969740  0.788920  1.0  -0.8376
  O  O304  1  0.936500  0.976350  0.888570  1.0  -0.6451
  O  O305  1  0.135300  0.524280  0.128830  1.0  -0.6962
  O  O306  1  0.922500  0.478140  0.161090  1.0  -0.7642
  O  O307  1  0.777400  0.559390  0.240190  1.0  -0.7351
  O  O308  1  0.542100  0.580730  0.192860  1.0  -0.7434
  O  O309  1  0.250200  0.610500  0.214450  1.0  -0.7417
  O  O310  1  0.039900  0.660740  0.234940  1.0  -0.5807
  O  O311  1  0.087800  0.530260  0.288920  1.0  -0.8377
  O  O312  1  0.936500  0.523650  0.388570  1.0  -0.6445
  O  O313  1  0.635300  0.475720  0.371170  1.0  -0.696
  O  O314  1  0.422500  0.521860  0.338910  1.0  -0.7648
  O  O315  1  0.277400  0.440610  0.259810  1.0  -0.7353
  O  O316  1  0.042100  0.419270  0.307140  1.0  -0.7433
  O  O317  1  0.750200  0.389500  0.285550  1.0  -0.7416
  O  O318  1  0.539900  0.339260  0.265060  1.0  -0.5789
  O  O319  1  0.587800  0.469740  0.211080  1.0  -0.8375
  O  O320  1  0.436500  0.476350  0.111430  1.0  -0.6439
