# generated using pymatgen
data_GdAgH8C18(NO2)4
_symmetry_space_group_name_H-M   'P 1'
_cell_length_a   8.55250000
_cell_length_b   25.28700000
_cell_length_c   17.82700000
_cell_angle_alpha   90.00000000
_cell_angle_beta   90.00000000
_cell_angle_gamma   90.00000000
_symmetry_Int_Tables_number   1
_chemical_formula_structural   GdAgH8C18(NO2)4
_chemical_formula_sum   'Gd8 Ag8 H64 C144 N32 O64'
_cell_volume   3855.39301232
_cell_formula_units_Z   8
loop_
 _symmetry_equiv_pos_site_id
 _symmetry_equiv_pos_as_xyz
  1  'x, y, z'
loop_
 _atom_site_type_symbol
 _atom_site_label
 _atom_site_symmetry_multiplicity
 _atom_site_fract_x
 _atom_site_fract_y
 _atom_site_fract_z
 _atom_site_occupancy
 _atom_site_charge
  Gd  Gd1  1  0.164350  0.976380  0.216920  1.0  2.1607
  Gd  Gd2  1  0.664350  0.023620  0.283080  1.0  2.157
  Gd  Gd3  1  0.664350  0.476380  0.783080  1.0  2.1609
  Gd  Gd4  1  0.164350  0.523620  0.716920  1.0  2.1569
  Gd  Gd5  1  0.335650  0.523620  0.216920  1.0  2.1611
  Gd  Gd6  1  0.835650  0.476380  0.283080  1.0  2.1569
  Gd  Gd7  1  0.835650  0.023620  0.783080  1.0  2.1612
  Gd  Gd8  1  0.335650  0.976380  0.716920  1.0  2.1566
  Ag  Ag9  1  0.461230  0.273100  0.048650  1.0  0.3601
  Ag  Ag10  1  0.961230  0.726900  0.451350  1.0  0.3594
  Ag  Ag11  1  0.961230  0.773100  0.951350  1.0  0.3594
  Ag  Ag12  1  0.461230  0.226900  0.548650  1.0  0.3601
  Ag  Ag13  1  0.038770  0.226900  0.048650  1.0  0.3599
  Ag  Ag14  1  0.538770  0.773100  0.451350  1.0  0.3594
  Ag  Ag15  1  0.538770  0.726900  0.951350  1.0  0.3592
  Ag  Ag16  1  0.038770  0.273100  0.548650  1.0  0.36
  H  H17  1  0.399100  0.140400  0.418900  1.0  0.1216
  H  H18  1  0.683400  0.202900  0.159600  1.0  0.1303
  H  H19  1  0.062200  0.096600  0.643300  1.0  0.3104
  H  H20  1  0.246000  0.162900  0.673100  1.0  0.1043
  H  H21  1  0.882400  0.068600  0.004000  1.0  0.1374
  H  H22  1  0.966500  0.045500  0.508100  1.0  0.1211
  H  H23  1  0.557400  0.206300  0.899700  1.0  0.1088
  H  H24  1  0.720700  0.131400  0.894400  1.0  0.3033
  H  H25  1  0.899100  0.859600  0.081100  1.0  0.1224
  H  H26  1  0.183400  0.797100  0.340400  1.0  0.1303
  H  H27  1  0.562200  0.903400  0.856700  1.0  0.3098
  H  H28  1  0.746000  0.837100  0.826900  1.0  0.1063
  H  H29  1  0.382400  0.931400  0.496000  1.0  0.1366
  H  H30  1  0.466500  0.954500  0.991900  1.0  0.1211
  H  H31  1  0.057400  0.793700  0.600300  1.0  0.109
  H  H32  1  0.220700  0.868600  0.605600  1.0  0.3031
  H  H33  1  0.899100  0.640400  0.581100  1.0  0.1215
  H  H34  1  0.183400  0.702900  0.840400  1.0  0.1303
  H  H35  1  0.562200  0.596600  0.356700  1.0  0.3097
  H  H36  1  0.746000  0.662900  0.326900  1.0  0.1046
  H  H37  1  0.382400  0.568600  0.996000  1.0  0.1373
  H  H38  1  0.466500  0.545500  0.491900  1.0  0.1209
  H  H39  1  0.057400  0.706300  0.100300  1.0  0.1088
  H  H40  1  0.220700  0.631400  0.105600  1.0  0.3033
  H  H41  1  0.399100  0.359600  0.918900  1.0  0.1225
  H  H42  1  0.683400  0.297100  0.659600  1.0  0.1307
  H  H43  1  0.062200  0.403400  0.143300  1.0  0.3104
  H  H44  1  0.246000  0.337100  0.173100  1.0  0.1058
  H  H45  1  0.882400  0.431400  0.504000  1.0  0.137
  H  H46  1  0.966500  0.454500  0.008100  1.0  0.1213
  H  H47  1  0.557400  0.293700  0.399700  1.0  0.1085
  H  H48  1  0.720700  0.368600  0.394400  1.0  0.3029
  H  H49  1  0.100900  0.359600  0.418900  1.0  0.1227
  H  H50  1  0.816600  0.297100  0.159600  1.0  0.1304
  H  H51  1  0.437800  0.403400  0.643300  1.0  0.3108
  H  H52  1  0.254000  0.337100  0.673100  1.0  0.1044
  H  H53  1  0.617600  0.431400  0.004000  1.0  0.137
  H  H54  1  0.533500  0.454500  0.508100  1.0  0.1209
  H  H55  1  0.942600  0.293700  0.899700  1.0  0.1084
  H  H56  1  0.779300  0.368600  0.894400  1.0  0.3031
  H  H57  1  0.600900  0.640400  0.081100  1.0  0.1218
  H  H58  1  0.316600  0.702900  0.340400  1.0  0.1303
  H  H59  1  0.937800  0.596600  0.856700  1.0  0.31
  H  H60  1  0.754000  0.662900  0.826900  1.0  0.1061
  H  H61  1  0.117600  0.568600  0.496000  1.0  0.1373
  H  H62  1  0.033500  0.545500  0.991900  1.0  0.1208
  H  H63  1  0.442600  0.706300  0.600300  1.0  0.1086
  H  H64  1  0.279300  0.631400  0.605600  1.0  0.3033
  H  H65  1  0.600900  0.859600  0.581100  1.0  0.1224
  H  H66  1  0.316600  0.797100  0.840400  1.0  0.1301
  H  H67  1  0.937800  0.903400  0.356700  1.0  0.31
  H  H68  1  0.754000  0.837100  0.326900  1.0  0.1047
  H  H69  1  0.117600  0.931400  0.996000  1.0  0.1367
  H  H70  1  0.033500  0.954500  0.491900  1.0  0.1208
  H  H71  1  0.442600  0.793700  0.100300  1.0  0.1087
  H  H72  1  0.279300  0.868600  0.105600  1.0  0.3031
  H  H73  1  0.100900  0.140400  0.918900  1.0  0.122
  H  H74  1  0.816600  0.202900  0.659600  1.0  0.1304
  H  H75  1  0.437800  0.096600  0.143300  1.0  0.311
  H  H76  1  0.254000  0.162900  0.173100  1.0  0.106
  H  H77  1  0.617600  0.068600  0.504000  1.0  0.1371
  H  H78  1  0.533500  0.045500  0.008100  1.0  0.1209
  H  H79  1  0.942600  0.206300  0.399700  1.0  0.1088
  H  H80  1  0.779300  0.131400  0.394400  1.0  0.3037
  C  C81  1  0.950700  0.047900  0.145200  1.0  0.714
  C  C82  1  0.865000  0.093600  0.111600  1.0  -0.1069
  C  C83  1  0.105300  0.056600  0.417800  1.0  -0.0672
  C  C84  1  0.009800  0.018100  0.371900  1.0  0.7498
  C  C85  1  0.308500  0.074600  0.314900  1.0  0.7499
  C  C86  1  0.240000  0.084000  0.390600  1.0  -0.0998
  C  C87  1  0.314600  0.120900  0.436600  1.0  -0.1235
  C  C88  1  0.720200  0.175700  0.129200  1.0  -0.1973
  C  C89  1  0.689600  0.175300  0.052600  1.0  0.1317
  C  C90  1  0.339700  0.862600  0.258300  1.0  0.7197
  C  C91  1  0.231900  0.147700  0.626100  1.0  0.2657
  C  C92  1  0.840800  0.094600  0.035100  1.0  -0.092
  C  C93  1  0.054300  0.063300  0.490500  1.0  -0.1523
  C  C94  1  0.806400  0.134800  0.158800  1.0  -0.0707
  C  C95  1  0.260900  0.127900  0.509100  1.0  0.1373
  C  C96  1  0.138500  0.097500  0.536800  1.0  0.1438
  C  C97  1  0.751400  0.136200  0.005700  1.0  0.0689
  C  C98  1  0.608200  0.190900  0.940300  1.0  0.2498
  C  C99  1  0.450700  0.952100  0.354800  1.0  0.7122
  C  C100  1  0.365000  0.906400  0.388400  1.0  -0.1072
  C  C101  1  0.605300  0.943400  0.082200  1.0  -0.0663
  C  C102  1  0.509800  0.981900  0.128100  1.0  0.7495
  C  C103  1  0.808500  0.925400  0.185100  1.0  0.7506
  C  C104  1  0.740000  0.916000  0.109400  1.0  -0.0995
  C  C105  1  0.814600  0.879100  0.063400  1.0  -0.123
  C  C106  1  0.220200  0.824300  0.370800  1.0  -0.1966
  C  C107  1  0.189600  0.824700  0.447400  1.0  0.1323
  C  C108  1  0.839700  0.137400  0.241700  1.0  0.7204
  C  C109  1  0.731900  0.852300  0.873900  1.0  0.2652
  C  C110  1  0.340800  0.905400  0.464900  1.0  -0.0921
  C  C111  1  0.554300  0.936700  0.009500  1.0  -0.1533
  C  C112  1  0.306400  0.865200  0.341200  1.0  -0.0719
  C  C113  1  0.760900  0.872100  0.990900  1.0  0.138
  C  C114  1  0.638500  0.902500  0.963200  1.0  0.144
  C  C115  1  0.251400  0.863800  0.494300  1.0  0.069
  C  C116  1  0.108200  0.809100  0.559700  1.0  0.2501
  C  C117  1  0.450700  0.547900  0.854800  1.0  0.7137
  C  C118  1  0.365000  0.593600  0.888400  1.0  -0.1078
  C  C119  1  0.605300  0.556600  0.582200  1.0  -0.0669
  C  C120  1  0.509800  0.518100  0.628100  1.0  0.7491
  C  C121  1  0.808500  0.574600  0.685100  1.0  0.7512
  C  C122  1  0.740000  0.584000  0.609400  1.0  -0.0989
  C  C123  1  0.814600  0.620900  0.563400  1.0  -0.1234
  C  C124  1  0.220200  0.675700  0.870800  1.0  -0.1974
  C  C125  1  0.189600  0.675300  0.947400  1.0  0.1321
  C  C126  1  0.839700  0.362600  0.741700  1.0  0.7205
  C  C127  1  0.731900  0.647700  0.373900  1.0  0.2651
  C  C128  1  0.340800  0.594600  0.964900  1.0  -0.0914
  C  C129  1  0.554300  0.563300  0.509500  1.0  -0.1524
  C  C130  1  0.306400  0.634800  0.841200  1.0  -0.0713
  C  C131  1  0.760900  0.627900  0.490900  1.0  0.1379
  C  C132  1  0.638500  0.597500  0.463200  1.0  0.1444
  C  C133  1  0.251400  0.636200  0.994300  1.0  0.069
  C  C134  1  0.108200  0.690900  0.059700  1.0  0.2494
  C  C135  1  0.950700  0.452100  0.645200  1.0  0.7125
  C  C136  1  0.865000  0.406400  0.611600  1.0  -0.1064
  C  C137  1  0.105300  0.443400  0.917800  1.0  -0.0668
  C  C138  1  0.009800  0.481900  0.871900  1.0  0.75
  C  C139  1  0.308500  0.425400  0.814900  1.0  0.7491
  C  C140  1  0.240000  0.416000  0.890600  1.0  -0.1002
  C  C141  1  0.314600  0.379100  0.936600  1.0  -0.1237
  C  C142  1  0.720200  0.324300  0.629200  1.0  -0.1965
  C  C143  1  0.689600  0.324700  0.552600  1.0  0.1327
  C  C144  1  0.339700  0.637400  0.758300  1.0  0.7197
  C  C145  1  0.231900  0.352300  0.126100  1.0  0.266
  C  C146  1  0.840800  0.405400  0.535100  1.0  -0.0928
  C  C147  1  0.054300  0.436700  0.990500  1.0  -0.1531
  C  C148  1  0.806400  0.365200  0.658800  1.0  -0.0716
  C  C149  1  0.260900  0.372100  0.009100  1.0  0.1375
  C  C150  1  0.138500  0.402500  0.036800  1.0  0.1436
  C  C151  1  0.751400  0.363800  0.505700  1.0  0.0691
  C  C152  1  0.608200  0.309100  0.440300  1.0  0.2498
  C  C153  1  0.549300  0.452100  0.145200  1.0  0.7138
  C  C154  1  0.635000  0.406400  0.111600  1.0  -0.1059
  C  C155  1  0.394700  0.443400  0.417800  1.0  -0.0671
  C  C156  1  0.490200  0.481900  0.371900  1.0  0.7502
  C  C157  1  0.191500  0.425400  0.314900  1.0  0.7488
  C  C158  1  0.260000  0.416000  0.390600  1.0  -0.1011
  C  C159  1  0.185400  0.379100  0.436600  1.0  -0.1237
  C  C160  1  0.779800  0.324300  0.129200  1.0  -0.1943
  C  C161  1  0.810400  0.324700  0.052600  1.0  0.1325
  C  C162  1  0.160300  0.637400  0.258300  1.0  0.7195
  C  C163  1  0.268100  0.352300  0.626100  1.0  0.2654
  C  C164  1  0.659200  0.405400  0.035100  1.0  -0.093
  C  C165  1  0.445700  0.436700  0.490500  1.0  -0.1543
  C  C166  1  0.693600  0.365200  0.158800  1.0  -0.0715
  C  C167  1  0.239100  0.372100  0.509100  1.0  0.1363
  C  C168  1  0.361500  0.402500  0.536800  1.0  0.1438
  C  C169  1  0.748600  0.363800  0.005700  1.0  0.0703
  C  C170  1  0.891800  0.309100  0.940300  1.0  0.2486
  C  C171  1  0.049300  0.547900  0.354800  1.0  0.7126
  C  C172  1  0.135000  0.593600  0.388400  1.0  -0.1076
  C  C173  1  0.894700  0.556600  0.082200  1.0  -0.0673
  C  C174  1  0.990200  0.518100  0.128100  1.0  0.7494
  C  C175  1  0.691500  0.574600  0.185100  1.0  0.7496
  C  C176  1  0.760000  0.584000  0.109400  1.0  -0.0995
  C  C177  1  0.685400  0.620900  0.063400  1.0  -0.125
  C  C178  1  0.279800  0.675700  0.370800  1.0  -0.1963
  C  C179  1  0.310400  0.675300  0.447400  1.0  0.1318
  C  C180  1  0.660300  0.362600  0.241700  1.0  0.7203
  C  C181  1  0.768100  0.647700  0.873900  1.0  0.2648
  C  C182  1  0.159200  0.594600  0.464900  1.0  -0.0919
  C  C183  1  0.945700  0.563300  0.009500  1.0  -0.1539
  C  C184  1  0.193600  0.634800  0.341200  1.0  -0.0714
  C  C185  1  0.739100  0.627900  0.990900  1.0  0.1371
  C  C186  1  0.861500  0.597500  0.963200  1.0  0.1446
  C  C187  1  0.248600  0.636200  0.494300  1.0  0.0709
  C  C188  1  0.391800  0.690900  0.559700  1.0  0.2506
  C  C189  1  0.049300  0.952100  0.854800  1.0  0.7134
  C  C190  1  0.135000  0.906400  0.888400  1.0  -0.1069
  C  C191  1  0.894700  0.943400  0.582200  1.0  -0.0667
  C  C192  1  0.990200  0.981900  0.628100  1.0  0.7499
  C  C193  1  0.691500  0.925400  0.685100  1.0  0.7494
  C  C194  1  0.760000  0.916000  0.609400  1.0  -0.0999
  C  C195  1  0.685400  0.879100  0.563400  1.0  -0.1233
  C  C196  1  0.279800  0.824300  0.870800  1.0  -0.1953
  C  C197  1  0.310400  0.824700  0.947400  1.0  0.1322
  C  C198  1  0.660300  0.137400  0.741700  1.0  0.7198
  C  C199  1  0.768100  0.852300  0.373900  1.0  0.2651
  C  C200  1  0.159200  0.905400  0.964900  1.0  -0.0922
  C  C201  1  0.945700  0.936700  0.509500  1.0  -0.1545
  C  C202  1  0.193600  0.865200  0.841200  1.0  -0.0719
  C  C203  1  0.739100  0.872100  0.490900  1.0  0.1368
  C  C204  1  0.861500  0.902500  0.463200  1.0  0.1442
  C  C205  1  0.248600  0.863800  0.994300  1.0  0.0704
  C  C206  1  0.391800  0.809100  0.059700  1.0  0.25
  C  C207  1  0.549300  0.047900  0.645200  1.0  0.7128
  C  C208  1  0.635000  0.093600  0.611600  1.0  -0.1064
  C  C209  1  0.394700  0.056600  0.917800  1.0  -0.0674
  C  C210  1  0.490200  0.018100  0.871900  1.0  0.7501
  C  C211  1  0.191500  0.074600  0.814900  1.0  0.7492
  C  C212  1  0.260000  0.084000  0.890600  1.0  -0.1008
  C  C213  1  0.185400  0.120900  0.936600  1.0  -0.1246
  C  C214  1  0.779800  0.175700  0.629200  1.0  -0.1954
  C  C215  1  0.810400  0.175300  0.552600  1.0  0.1316
  C  C216  1  0.160300  0.862600  0.758300  1.0  0.7199
  C  C217  1  0.268100  0.147700  0.126100  1.0  0.2646
  C  C218  1  0.659200  0.094600  0.535100  1.0  -0.0924
  C  C219  1  0.445700  0.063300  0.990500  1.0  -0.1538
  C  C220  1  0.693600  0.134800  0.658800  1.0  -0.0707
  C  C221  1  0.239100  0.127900  0.009100  1.0  0.1367
  C  C222  1  0.361500  0.097500  0.036800  1.0  0.144
  C  C223  1  0.748600  0.136200  0.505700  1.0  0.0707
  C  C224  1  0.891800  0.190900  0.440300  1.0  0.2494
  N  N225  1  0.126300  0.110280  0.611600  1.0  -0.2562
  N  N226  1  0.313900  0.160800  0.566400  1.0  -0.406
  N  N227  1  0.598200  0.208900  0.009200  1.0  -0.3968
  N  N228  1  0.698900  0.148300  0.934900  1.0  -0.2255
  N  N229  1  0.626300  0.889720  0.888400  1.0  -0.2565
  N  N230  1  0.813900  0.839200  0.933600  1.0  -0.406
  N  N231  1  0.098200  0.791100  0.490800  1.0  -0.3976
  N  N232  1  0.198900  0.851700  0.565100  1.0  -0.2247
  N  N233  1  0.626300  0.610280  0.388400  1.0  -0.2563
  N  N234  1  0.813900  0.660800  0.433600  1.0  -0.4056
  N  N235  1  0.098200  0.708900  0.990800  1.0  -0.3968
  N  N236  1  0.198900  0.648300  0.065100  1.0  -0.2237
  N  N237  1  0.126300  0.389720  0.111600  1.0  -0.256
  N  N238  1  0.313900  0.339200  0.066400  1.0  -0.4055
  N  N239  1  0.598200  0.291100  0.509200  1.0  -0.3981
  N  N240  1  0.698900  0.351700  0.434900  1.0  -0.2263
  N  N241  1  0.373700  0.389720  0.611600  1.0  -0.256
  N  N242  1  0.186100  0.339200  0.566400  1.0  -0.4083
  N  N243  1  0.901800  0.291100  0.009200  1.0  -0.3965
  N  N244  1  0.801100  0.351700  0.934900  1.0  -0.2258
  N  N245  1  0.873700  0.610280  0.888400  1.0  -0.2563
  N  N246  1  0.686100  0.660800  0.933600  1.0  -0.4077
  N  N247  1  0.401800  0.708900  0.490800  1.0  -0.3962
  N  N248  1  0.301100  0.648300  0.565100  1.0  -0.2243
  N  N249  1  0.873700  0.889720  0.388400  1.0  -0.2561
  N  N250  1  0.686100  0.839200  0.433600  1.0  -0.409
  N  N251  1  0.401800  0.791100  0.990800  1.0  -0.3958
  N  N252  1  0.301100  0.851700  0.065100  1.0  -0.2253
  N  N253  1  0.373700  0.110280  0.111600  1.0  -0.2565
  N  N254  1  0.186100  0.160800  0.066400  1.0  -0.4079
  N  N255  1  0.901800  0.208900  0.509200  1.0  -0.3965
  N  N256  1  0.801100  0.148300  0.434900  1.0  -0.2248
  O  O257  1  0.077400  0.979370  0.340200  1.0  -0.7262
  O  O258  1  0.911400  0.031510  0.210800  1.0  -0.8069
  O  O259  1  0.061800  0.026600  0.111400  1.0  -0.6424
  O  O260  1  0.865300  0.024760  0.372500  1.0  -0.6746
  O  O261  1  0.222300  0.061180  0.261000  1.0  -0.7112
  O  O262  1  0.246700  0.887890  0.214600  1.0  -0.7245
  O  O263  1  0.446700  0.834800  0.235100  1.0  -0.5811
  O  O264  1  0.454100  0.080980  0.308500  1.0  -0.7219
  O  O265  1  0.577400  0.020630  0.159800  1.0  -0.7255
  O  O266  1  0.411400  0.968490  0.289200  1.0  -0.8067
  O  O267  1  0.561800  0.973400  0.388600  1.0  -0.6437
  O  O268  1  0.365300  0.975240  0.127500  1.0  -0.6743
  O  O269  1  0.722300  0.938820  0.239000  1.0  -0.7115
  O  O270  1  0.746700  0.112110  0.285400  1.0  -0.7258
  O  O271  1  0.946700  0.165200  0.264900  1.0  -0.5815
  O  O272  1  0.954100  0.919020  0.191500  1.0  -0.7227
  O  O273  1  0.577400  0.479370  0.659800  1.0  -0.7258
  O  O274  1  0.411400  0.531510  0.789200  1.0  -0.8073
  O  O275  1  0.561800  0.526600  0.888600  1.0  -0.643
  O  O276  1  0.365300  0.524760  0.627500  1.0  -0.6743
  O  O277  1  0.722300  0.561180  0.739000  1.0  -0.7119
  O  O278  1  0.746700  0.387890  0.785400  1.0  -0.7242
  O  O279  1  0.946700  0.334800  0.764900  1.0  -0.5807
  O  O280  1  0.954100  0.580980  0.691500  1.0  -0.722
  O  O281  1  0.077400  0.520630  0.840200  1.0  -0.7255
  O  O282  1  0.911400  0.468490  0.710800  1.0  -0.8068
  O  O283  1  0.061800  0.473400  0.611400  1.0  -0.6424
  O  O284  1  0.865300  0.475240  0.872500  1.0  -0.6747
  O  O285  1  0.222300  0.438820  0.761000  1.0  -0.7113
  O  O286  1  0.246700  0.612110  0.714600  1.0  -0.7258
  O  O287  1  0.446700  0.665200  0.735100  1.0  -0.5818
  O  O288  1  0.454100  0.419020  0.808500  1.0  -0.7227
  O  O289  1  0.422600  0.520630  0.340200  1.0  -0.7263
  O  O290  1  0.588600  0.468490  0.210800  1.0  -0.8072
  O  O291  1  0.438200  0.473400  0.111400  1.0  -0.6419
  O  O292  1  0.634700  0.475240  0.372500  1.0  -0.6741
  O  O293  1  0.277700  0.438820  0.261000  1.0  -0.713
  O  O294  1  0.253300  0.612110  0.214600  1.0  -0.7258
  O  O295  1  0.053300  0.665200  0.235100  1.0  -0.5818
  O  O296  1  0.045900  0.419020  0.308500  1.0  -0.7226
  O  O297  1  0.922600  0.479370  0.159800  1.0  -0.7264
  O  O298  1  0.088600  0.531510  0.289200  1.0  -0.8075
  O  O299  1  0.938200  0.526600  0.388600  1.0  -0.643
  O  O300  1  0.134700  0.524760  0.127500  1.0  -0.6736
  O  O301  1  0.777700  0.561180  0.239000  1.0  -0.7137
  O  O302  1  0.753300  0.387890  0.285400  1.0  -0.7247
  O  O303  1  0.553300  0.334800  0.264900  1.0  -0.581
  O  O304  1  0.545900  0.580980  0.191500  1.0  -0.7223
  O  O305  1  0.922600  0.020630  0.659800  1.0  -0.7263
  O  O306  1  0.088600  0.968490  0.789200  1.0  -0.807
  O  O307  1  0.938200  0.973400  0.888600  1.0  -0.6432
  O  O308  1  0.134700  0.975240  0.627500  1.0  -0.6737
  O  O309  1  0.777700  0.938820  0.739000  1.0  -0.7133
  O  O310  1  0.753300  0.112110  0.785400  1.0  -0.7259
  O  O311  1  0.553300  0.165200  0.764900  1.0  -0.5812
  O  O312  1  0.545900  0.919020  0.691500  1.0  -0.7227
  O  O313  1  0.422600  0.979370  0.840200  1.0  -0.7269
  O  O314  1  0.588600  0.031510  0.710800  1.0  -0.8073
  O  O315  1  0.438200  0.026600  0.611400  1.0  -0.6424
  O  O316  1  0.634700  0.024760  0.872500  1.0  -0.6739
  O  O317  1  0.277700  0.061180  0.761000  1.0  -0.7128
  O  O318  1  0.253300  0.887890  0.714600  1.0  -0.7249
  O  O319  1  0.053300  0.834800  0.735100  1.0  -0.5819
  O  O320  1  0.045900  0.080980  0.808500  1.0  -0.7219
