# generated using pymatgen
data_HoAgH8C18(NO2)4
_symmetry_space_group_name_H-M   'P 1'
_cell_length_a   8.48840000
_cell_length_b   25.37000000
_cell_length_c   17.80600000
_cell_angle_alpha   90.00000000
_cell_angle_beta   90.00000000
_cell_angle_gamma   90.00000000
_symmetry_Int_Tables_number   1
_chemical_formula_structural   HoAgH8C18(NO2)4
_chemical_formula_sum   'Ho8 Ag8 H64 C144 N32 O64'
_cell_volume   3834.53470665
_cell_formula_units_Z   8
loop_
 _symmetry_equiv_pos_site_id
 _symmetry_equiv_pos_as_xyz
  1  'x, y, z'
loop_
 _atom_site_type_symbol
 _atom_site_label
 _atom_site_symmetry_multiplicity
 _atom_site_fract_x
 _atom_site_fract_y
 _atom_site_fract_z
 _atom_site_occupancy
 _atom_site_charge
  Ho  Ho1  1  0.165740  0.023360  0.782490  1.0  2.2449
  Ho  Ho2  1  0.665740  0.976640  0.717510  1.0  2.2443
  Ho  Ho3  1  0.665740  0.523360  0.217510  1.0  2.2446
  Ho  Ho4  1  0.165740  0.476640  0.282490  1.0  2.2446
  Ho  Ho5  1  0.334260  0.476640  0.782490  1.0  2.2446
  Ho  Ho6  1  0.834260  0.523360  0.717510  1.0  2.2445
  Ho  Ho7  1  0.834260  0.976640  0.217510  1.0  2.2442
  Ho  Ho8  1  0.334260  0.023360  0.282490  1.0  2.2448
  Ag  Ag9  1  0.461630  0.727310  0.951740  1.0  0.4155
  Ag  Ag10  1  0.961630  0.272690  0.548260  1.0  0.4168
  Ag  Ag11  1  0.961630  0.227310  0.048260  1.0  0.416
  Ag  Ag12  1  0.461630  0.772690  0.451740  1.0  0.4164
  Ag  Ag13  1  0.038370  0.772690  0.951740  1.0  0.4167
  Ag  Ag14  1  0.538370  0.227310  0.548260  1.0  0.416
  Ag  Ag15  1  0.538370  0.272690  0.048260  1.0  0.417
  Ag  Ag16  1  0.038370  0.727310  0.451740  1.0  0.4155
  H  H17  1  0.059800  0.903700  0.357700  1.0  0.3081
  H  H18  1  0.720800  0.869300  0.105900  1.0  0.3053
  H  H19  1  0.964700  0.954900  0.492600  1.0  0.1168
  H  H20  1  0.246900  0.837900  0.327200  1.0  0.1053
  H  H21  1  0.401100  0.860700  0.582400  1.0  0.1211
  H  H22  1  0.882800  0.932900  0.996700  1.0  0.1409
  H  H23  1  0.556500  0.794900  0.100400  1.0  0.1116
  H  H24  1  0.687900  0.798100  0.840500  1.0  0.1328
  H  H25  1  0.559800  0.096300  0.142300  1.0  0.3085
  H  H26  1  0.220800  0.130700  0.394100  1.0  0.3052
  H  H27  1  0.464700  0.045100  0.007400  1.0  0.1167
  H  H28  1  0.746900  0.162100  0.172800  1.0  0.1046
  H  H29  1  0.901100  0.139300  0.917600  1.0  0.1202
  H  H30  1  0.382800  0.067100  0.503300  1.0  0.141
  H  H31  1  0.056500  0.205100  0.399600  1.0  0.112
  H  H32  1  0.187900  0.201900  0.659500  1.0  0.1334
  H  H33  1  0.559800  0.403700  0.642300  1.0  0.3086
  H  H34  1  0.220800  0.369300  0.894100  1.0  0.3049
  H  H35  1  0.464700  0.454900  0.507400  1.0  0.1167
  H  H36  1  0.746900  0.337900  0.672800  1.0  0.1046
  H  H37  1  0.901100  0.360700  0.417600  1.0  0.1212
  H  H38  1  0.382800  0.432900  0.003300  1.0  0.1412
  H  H39  1  0.056500  0.294900  0.899600  1.0  0.1117
  H  H40  1  0.187900  0.298100  0.159500  1.0  0.1337
  H  H41  1  0.059800  0.596300  0.857700  1.0  0.308
  H  H42  1  0.720800  0.630700  0.605900  1.0  0.3054
  H  H43  1  0.964700  0.545100  0.992600  1.0  0.1168
  H  H44  1  0.246900  0.662100  0.827200  1.0  0.1054
  H  H45  1  0.401100  0.639300  0.082400  1.0  0.12
  H  H46  1  0.882800  0.567100  0.496700  1.0  0.141
  H  H47  1  0.556500  0.705100  0.600400  1.0  0.1117
  H  H48  1  0.687900  0.701900  0.340500  1.0  0.1327
  H  H49  1  0.440200  0.596300  0.357700  1.0  0.3084
  H  H50  1  0.779200  0.630700  0.105900  1.0  0.3053
  H  H51  1  0.535300  0.545100  0.492600  1.0  0.1165
  H  H52  1  0.253100  0.662100  0.327200  1.0  0.1055
  H  H53  1  0.098900  0.639300  0.582400  1.0  0.1201
  H  H54  1  0.617200  0.567100  0.996700  1.0  0.141
  H  H55  1  0.943500  0.705100  0.100400  1.0  0.1115
  H  H56  1  0.812100  0.701900  0.840500  1.0  0.1327
  H  H57  1  0.940200  0.403700  0.142300  1.0  0.3092
  H  H58  1  0.279200  0.369300  0.394100  1.0  0.3053
  H  H59  1  0.035300  0.454900  0.007400  1.0  0.1162
  H  H60  1  0.753100  0.337900  0.172800  1.0  0.105
  H  H61  1  0.598900  0.360700  0.917600  1.0  0.1212
  H  H62  1  0.117200  0.432900  0.503300  1.0  0.1409
  H  H63  1  0.443500  0.294900  0.399600  1.0  0.1115
  H  H64  1  0.312100  0.298100  0.659500  1.0  0.1332
  H  H65  1  0.940200  0.096300  0.642300  1.0  0.3092
  H  H66  1  0.279200  0.130700  0.894100  1.0  0.3057
  H  H67  1  0.035300  0.045100  0.507400  1.0  0.1163
  H  H68  1  0.753100  0.162100  0.672800  1.0  0.1049
  H  H69  1  0.598900  0.139300  0.417600  1.0  0.1203
  H  H70  1  0.117200  0.067100  0.003300  1.0  0.1407
  H  H71  1  0.443500  0.205100  0.899600  1.0  0.1118
  H  H72  1  0.312100  0.201900  0.159500  1.0  0.1335
  H  H73  1  0.440200  0.903700  0.857700  1.0  0.3084
  H  H74  1  0.779200  0.869300  0.605900  1.0  0.3052
  H  H75  1  0.535300  0.954900  0.992600  1.0  0.1164
  H  H76  1  0.253100  0.837900  0.827200  1.0  0.1053
  H  H77  1  0.098900  0.860700  0.082400  1.0  0.1209
  H  H78  1  0.617200  0.932900  0.496700  1.0  0.1407
  H  H79  1  0.943500  0.794900  0.600400  1.0  0.1114
  H  H80  1  0.812100  0.798100  0.340500  1.0  0.1325
  C  C81  1  0.010200  0.982720  0.629300  1.0  0.7568
  C  C82  1  0.105400  0.944350  0.583200  1.0  -0.0767
  C  C83  1  0.053500  0.937410  0.510300  1.0  -0.1564
  C  C84  1  0.138300  0.903340  0.464200  1.0  0.1352
  C  C85  1  0.232300  0.852810  0.374400  1.0  0.2554
  C  C86  1  0.260700  0.872500  0.492100  1.0  0.1277
  C  C87  1  0.315700  0.879990  0.564500  1.0  -0.1406
  C  C88  1  0.241100  0.916900  0.610000  1.0  -0.1
  C  C89  1  0.310800  0.926630  0.685900  1.0  0.7435
  C  C90  1  0.952000  0.953350  0.854000  1.0  0.6953
  C  C91  1  0.866000  0.907700  0.887900  1.0  -0.1061
  C  C92  1  0.841700  0.906840  0.965600  1.0  -0.0908
  C  C93  1  0.753100  0.865140  0.994300  1.0  0.0747
  C  C94  1  0.608300  0.810110  0.059800  1.0  0.249
  C  C95  1  0.691400  0.825860  0.947600  1.0  0.1292
  C  C96  1  0.723400  0.825450  0.870900  1.0  -0.2183
  C  C97  1  0.809000  0.866700  0.840900  1.0  -0.0707
  C  C98  1  0.842700  0.864730  0.757800  1.0  0.7171
  C  C99  1  0.510200  0.017280  0.870700  1.0  0.7585
  C  C100  1  0.605400  0.055650  0.916800  1.0  -0.0773
  C  C101  1  0.553500  0.062590  0.989700  1.0  -0.1554
  C  C102  1  0.638300  0.096660  0.035800  1.0  0.1359
  C  C103  1  0.732300  0.147190  0.125600  1.0  0.2561
  C  C104  1  0.760700  0.127500  0.007900  1.0  0.1278
  C  C105  1  0.815700  0.120010  0.935500  1.0  -0.1407
  C  C106  1  0.741100  0.083100  0.890000  1.0  -0.1003
  C  C107  1  0.810800  0.073370  0.814100  1.0  0.743
  C  C108  1  0.452000  0.046650  0.646000  1.0  0.6958
  C  C109  1  0.366000  0.092300  0.612100  1.0  -0.1063
  C  C110  1  0.341700  0.093160  0.534400  1.0  -0.0895
  C  C111  1  0.253100  0.134860  0.505700  1.0  0.0748
  C  C112  1  0.108300  0.189890  0.440200  1.0  0.249
  C  C113  1  0.191400  0.174140  0.552400  1.0  0.1279
  C  C114  1  0.223400  0.174550  0.629100  1.0  -0.2165
  C  C115  1  0.309000  0.133300  0.659100  1.0  -0.0692
  C  C116  1  0.342700  0.135270  0.742200  1.0  0.7176
  C  C117  1  0.510200  0.482720  0.370700  1.0  0.7581
  C  C118  1  0.605400  0.444350  0.416800  1.0  -0.0766
  C  C119  1  0.553500  0.437410  0.489700  1.0  -0.1563
  C  C120  1  0.638300  0.403340  0.535800  1.0  0.1352
  C  C121  1  0.732300  0.352810  0.625600  1.0  0.2565
  C  C122  1  0.760700  0.372500  0.507900  1.0  0.1276
  C  C123  1  0.815700  0.379990  0.435500  1.0  -0.1413
  C  C124  1  0.741100  0.416900  0.390000  1.0  -0.1009
  C  C125  1  0.810800  0.426630  0.314100  1.0  0.7419
  C  C126  1  0.452000  0.453350  0.146000  1.0  0.6955
  C  C127  1  0.366000  0.407700  0.112100  1.0  -0.1061
  C  C128  1  0.341700  0.406840  0.034400  1.0  -0.0906
  C  C129  1  0.253100  0.365140  0.005700  1.0  0.0747
  C  C130  1  0.108300  0.310110  0.940200  1.0  0.249
  C  C131  1  0.191400  0.325860  0.052400  1.0  0.1292
  C  C132  1  0.223400  0.325450  0.129100  1.0  -0.2175
  C  C133  1  0.309000  0.366700  0.159100  1.0  -0.07
  C  C134  1  0.342700  0.364730  0.242200  1.0  0.7181
  C  C135  1  0.010200  0.517280  0.129300  1.0  0.7569
  C  C136  1  0.105400  0.555650  0.083200  1.0  -0.0775
  C  C137  1  0.053500  0.562590  0.010300  1.0  -0.1554
  C  C138  1  0.138300  0.596660  0.964200  1.0  0.136
  C  C139  1  0.232300  0.647190  0.874400  1.0  0.2558
  C  C140  1  0.260700  0.627500  0.992100  1.0  0.1277
  C  C141  1  0.315700  0.620010  0.064500  1.0  -0.1407
  C  C142  1  0.241100  0.583100  0.110000  1.0  -0.0991
  C  C143  1  0.310800  0.573370  0.185900  1.0  0.7442
  C  C144  1  0.952000  0.546650  0.354000  1.0  0.6955
  C  C145  1  0.866000  0.592300  0.387900  1.0  -0.1063
  C  C146  1  0.841700  0.593160  0.465600  1.0  -0.0897
  C  C147  1  0.753100  0.634860  0.494300  1.0  0.0749
  C  C148  1  0.608300  0.689890  0.559800  1.0  0.2486
  C  C149  1  0.691400  0.674140  0.447600  1.0  0.1283
  C  C150  1  0.723400  0.674550  0.370900  1.0  -0.2175
  C  C151  1  0.809000  0.633300  0.340900  1.0  -0.0703
  C  C152  1  0.842700  0.635270  0.257800  1.0  0.7166
  C  C153  1  0.489800  0.517280  0.629300  1.0  0.7564
  C  C154  1  0.394600  0.555650  0.583200  1.0  -0.0779
  C  C155  1  0.446500  0.562590  0.510300  1.0  -0.1551
  C  C156  1  0.361700  0.596660  0.464200  1.0  0.1361
  C  C157  1  0.267700  0.647190  0.374400  1.0  0.2563
  C  C158  1  0.239300  0.627500  0.492100  1.0  0.1273
  C  C159  1  0.184300  0.620010  0.564500  1.0  -0.142
  C  C160  1  0.258900  0.583100  0.610000  1.0  -0.099
  C  C161  1  0.189200  0.573370  0.685900  1.0  0.7426
  C  C162  1  0.548000  0.546650  0.854000  1.0  0.6955
  C  C163  1  0.634000  0.592300  0.887900  1.0  -0.1058
  C  C164  1  0.658300  0.593160  0.965600  1.0  -0.0907
  C  C165  1  0.746900  0.634860  0.994300  1.0  0.0754
  C  C166  1  0.891700  0.689890  0.059800  1.0  0.2495
  C  C167  1  0.808600  0.674140  0.947600  1.0  0.1282
  C  C168  1  0.776600  0.674550  0.870900  1.0  -0.2155
  C  C169  1  0.691000  0.633300  0.840900  1.0  -0.0701
  C  C170  1  0.657300  0.635270  0.757800  1.0  0.7165
  C  C171  1  0.989800  0.482720  0.870700  1.0  0.7581
  C  C172  1  0.894600  0.444350  0.916800  1.0  -0.0773
  C  C173  1  0.946500  0.437410  0.989700  1.0  -0.1559
  C  C174  1  0.861700  0.403340  0.035800  1.0  0.1354
  C  C175  1  0.767700  0.352810  0.125600  1.0  0.2566
  C  C176  1  0.739300  0.372500  0.007900  1.0  0.127
  C  C177  1  0.684300  0.379990  0.935500  1.0  -0.1413
  C  C178  1  0.758900  0.416900  0.890000  1.0  -0.1011
  C  C179  1  0.689200  0.426630  0.814100  1.0  0.7419
  C  C180  1  0.048000  0.453350  0.646000  1.0  0.6952
  C  C181  1  0.134000  0.407700  0.612100  1.0  -0.1053
  C  C182  1  0.158300  0.406840  0.534400  1.0  -0.0913
  C  C183  1  0.246900  0.365140  0.505700  1.0  0.075
  C  C184  1  0.391700  0.310110  0.440200  1.0  0.2474
  C  C185  1  0.308600  0.325860  0.552400  1.0  0.1291
  C  C186  1  0.276600  0.325450  0.629100  1.0  -0.2155
  C  C187  1  0.191000  0.366700  0.659100  1.0  -0.0697
  C  C188  1  0.157300  0.364730  0.742200  1.0  0.718
  C  C189  1  0.989800  0.017280  0.370700  1.0  0.7586
  C  C190  1  0.894600  0.055650  0.416800  1.0  -0.0778
  C  C191  1  0.946500  0.062590  0.489700  1.0  -0.1552
  C  C192  1  0.861700  0.096660  0.535800  1.0  0.136
  C  C193  1  0.767700  0.147190  0.625600  1.0  0.2559
  C  C194  1  0.739300  0.127500  0.507900  1.0  0.1274
  C  C195  1  0.684300  0.120010  0.435500  1.0  -0.1417
  C  C196  1  0.758900  0.083100  0.390000  1.0  -0.1006
  C  C197  1  0.689200  0.073370  0.314100  1.0  0.7423
  C  C198  1  0.048000  0.046650  0.146000  1.0  0.6956
  C  C199  1  0.134000  0.092300  0.112100  1.0  -0.1057
  C  C200  1  0.158300  0.093160  0.034400  1.0  -0.0904
  C  C201  1  0.246900  0.134860  0.005700  1.0  0.0753
  C  C202  1  0.391700  0.189890  0.940200  1.0  0.2485
  C  C203  1  0.308600  0.174140  0.052400  1.0  0.1278
  C  C204  1  0.276600  0.174550  0.129100  1.0  -0.214
  C  C205  1  0.191000  0.133300  0.159100  1.0  -0.0689
  C  C206  1  0.157300  0.135270  0.242200  1.0  0.7172
  C  C207  1  0.489800  0.982720  0.129300  1.0  0.7564
  C  C208  1  0.394600  0.944350  0.083200  1.0  -0.0772
  C  C209  1  0.446500  0.937410  0.010300  1.0  -0.1559
  C  C210  1  0.361700  0.903340  0.964200  1.0  0.1354
  C  C211  1  0.267700  0.852810  0.874400  1.0  0.256
  C  C212  1  0.239300  0.872500  0.992100  1.0  0.1271
  C  C213  1  0.184300  0.879990  0.064500  1.0  -0.1409
  C  C214  1  0.258900  0.916900  0.110000  1.0  -0.0997
  C  C215  1  0.189200  0.926630  0.185900  1.0  0.7427
  C  C216  1  0.548000  0.953350  0.354000  1.0  0.6952
  C  C217  1  0.634000  0.907700  0.387900  1.0  -0.1053
  C  C218  1  0.658300  0.906840  0.465600  1.0  -0.0916
  C  C219  1  0.746900  0.865140  0.494300  1.0  0.075
  C  C220  1  0.891700  0.810110  0.559800  1.0  0.2487
  C  C221  1  0.808600  0.825860  0.447600  1.0  0.1292
  C  C222  1  0.776600  0.825450  0.370900  1.0  -0.2167
  C  C223  1  0.691000  0.866700  0.340900  1.0  -0.0704
  C  C224  1  0.657300  0.864730  0.257800  1.0  0.7173
  N  N225  1  0.125100  0.890280  0.389290  1.0  -0.258
  N  N226  1  0.314600  0.839550  0.434520  1.0  -0.4268
  N  N227  1  0.599500  0.791780  0.990550  1.0  -0.4098
  N  N228  1  0.699200  0.852550  0.065210  1.0  -0.2166
  N  N229  1  0.625100  0.109720  0.110710  1.0  -0.2579
  N  N230  1  0.814600  0.160450  0.065480  1.0  -0.4261
  N  N231  1  0.099500  0.208220  0.509450  1.0  -0.4089
  N  N232  1  0.199200  0.147450  0.434790  1.0  -0.2179
  N  N233  1  0.625100  0.390280  0.610710  1.0  -0.2578
  N  N234  1  0.814600  0.339550  0.565480  1.0  -0.4263
  N  N235  1  0.099500  0.291780  0.009450  1.0  -0.4096
  N  N236  1  0.199200  0.352550  0.934790  1.0  -0.2194
  N  N237  1  0.125100  0.609720  0.889290  1.0  -0.2574
  N  N238  1  0.314600  0.660450  0.934520  1.0  -0.4255
  N  N239  1  0.599500  0.708220  0.490550  1.0  -0.409
  N  N240  1  0.699200  0.647450  0.565210  1.0  -0.2149
  N  N241  1  0.374900  0.609720  0.389290  1.0  -0.2576
  N  N242  1  0.185400  0.660450  0.434520  1.0  -0.4265
  N  N243  1  0.900500  0.708220  0.990550  1.0  -0.4078
  N  N244  1  0.800800  0.647450  0.065210  1.0  -0.2156
  N  N245  1  0.874900  0.390280  0.110710  1.0  -0.2578
  N  N246  1  0.685400  0.339550  0.065480  1.0  -0.428
  N  N247  1  0.400500  0.291780  0.509450  1.0  -0.4075
  N  N248  1  0.300800  0.352550  0.434790  1.0  -0.2182
  N  N249  1  0.874900  0.109720  0.610710  1.0  -0.2584
  N  N250  1  0.685400  0.160450  0.565480  1.0  -0.4268
  N  N251  1  0.400500  0.208220  0.009450  1.0  -0.4079
  N  N252  1  0.300800  0.147450  0.934790  1.0  -0.2164
  N  N253  1  0.374900  0.890280  0.889290  1.0  -0.2575
  N  N254  1  0.185400  0.839550  0.934520  1.0  -0.4287
  N  N255  1  0.900500  0.791780  0.490550  1.0  -0.4071
  N  N256  1  0.800800  0.852550  0.565210  1.0  -0.2168
  O  O257  1  0.077900  0.021060  0.661160  1.0  -0.749
  O  O258  1  0.863900  0.975990  0.628820  1.0  -0.6937
  O  O259  1  0.224400  0.940150  0.740110  1.0  -0.7148
  O  O260  1  0.457800  0.920250  0.691720  1.0  -0.7283
  O  O261  1  0.064600  0.974780  0.887610  1.0  -0.6421
  O  O262  1  0.911900  0.969010  0.788550  1.0  -0.8114
  O  O263  1  0.747800  0.889790  0.714600  1.0  -0.7184
  O  O264  1  0.949700  0.836630  0.734350  1.0  -0.5627
  O  O265  1  0.577900  0.978940  0.838840  1.0  -0.7489
  O  O266  1  0.363900  0.024010  0.871180  1.0  -0.6934
  O  O267  1  0.724400  0.059850  0.759890  1.0  -0.715
  O  O268  1  0.957800  0.079750  0.808280  1.0  -0.7296
  O  O269  1  0.564600  0.025220  0.612390  1.0  -0.6412
  O  O270  1  0.411900  0.030990  0.711450  1.0  -0.8107
  O  O271  1  0.247800  0.110210  0.785400  1.0  -0.7193
  O  O272  1  0.449700  0.163370  0.765650  1.0  -0.5629
  O  O273  1  0.577900  0.521060  0.338840  1.0  -0.7492
  O  O274  1  0.363900  0.475990  0.371180  1.0  -0.6934
  O  O275  1  0.724400  0.440150  0.259890  1.0  -0.7155
  O  O276  1  0.957800  0.420250  0.308280  1.0  -0.7283
  O  O277  1  0.564600  0.474780  0.112390  1.0  -0.6408
  O  O278  1  0.411900  0.469010  0.211450  1.0  -0.8114
  O  O279  1  0.247800  0.389790  0.285400  1.0  -0.7185
  O  O280  1  0.449700  0.336630  0.265650  1.0  -0.5624
  O  O281  1  0.077900  0.478940  0.161160  1.0  -0.7479
  O  O282  1  0.863900  0.524010  0.128820  1.0  -0.6937
  O  O283  1  0.224400  0.559850  0.240110  1.0  -0.7149
  O  O284  1  0.457800  0.579750  0.191720  1.0  -0.7298
  O  O285  1  0.064600  0.525220  0.387610  1.0  -0.6418
  O  O286  1  0.911900  0.530990  0.288550  1.0  -0.8114
  O  O287  1  0.747800  0.610210  0.214600  1.0  -0.7191
  O  O288  1  0.949700  0.663370  0.234350  1.0  -0.5628
  O  O289  1  0.422100  0.478940  0.661160  1.0  -0.7476
  O  O290  1  0.636100  0.524010  0.628820  1.0  -0.6929
  O  O291  1  0.275600  0.559850  0.740110  1.0  -0.7163
  O  O292  1  0.042200  0.579750  0.691720  1.0  -0.7277
  O  O293  1  0.435400  0.525220  0.887610  1.0  -0.6412
  O  O294  1  0.588100  0.530990  0.788550  1.0  -0.8113
  O  O295  1  0.752200  0.610210  0.714600  1.0  -0.7176
  O  O296  1  0.550300  0.663370  0.734350  1.0  -0.563
  O  O297  1  0.922100  0.521060  0.838840  1.0  -0.7489
  O  O298  1  0.136100  0.475990  0.871180  1.0  -0.6927
  O  O299  1  0.775600  0.440150  0.759890  1.0  -0.7167
  O  O300  1  0.542200  0.420250  0.808280  1.0  -0.7298
  O  O301  1  0.935400  0.474780  0.612390  1.0  -0.6413
  O  O302  1  0.088100  0.469010  0.711450  1.0  -0.8112
  O  O303  1  0.252200  0.389790  0.785400  1.0  -0.7172
  O  O304  1  0.050300  0.336630  0.765650  1.0  -0.5628
  O  O305  1  0.922100  0.978940  0.338840  1.0  -0.7488
  O  O306  1  0.136100  0.024010  0.371180  1.0  -0.6925
  O  O307  1  0.775600  0.059850  0.259890  1.0  -0.7163
  O  O308  1  0.542200  0.079750  0.308280  1.0  -0.7274
  O  O309  1  0.935400  0.025220  0.112390  1.0  -0.6408
  O  O310  1  0.088100  0.030990  0.211450  1.0  -0.8106
  O  O311  1  0.252200  0.110210  0.285400  1.0  -0.7179
  O  O312  1  0.050300  0.163370  0.265650  1.0  -0.5629
  O  O313  1  0.422100  0.021060  0.161160  1.0  -0.7487
  O  O314  1  0.636100  0.975990  0.128820  1.0  -0.693
  O  O315  1  0.275600  0.940150  0.240110  1.0  -0.7162
  O  O316  1  0.042200  0.920250  0.191720  1.0  -0.7299
  O  O317  1  0.435400  0.974780  0.387610  1.0  -0.6426
  O  O318  1  0.588100  0.969010  0.288550  1.0  -0.8113
  O  O319  1  0.752200  0.889790  0.214600  1.0  -0.7171
  O  O320  1  0.550300  0.836630  0.234350  1.0  -0.5635
