# generated using pymatgen
data_SmAgH8C18(NO2)4
_symmetry_space_group_name_H-M   'P 1'
_cell_length_a   8.59550000
_cell_length_b   25.36300000
_cell_length_c   17.82200000
_cell_angle_alpha   90.00000000
_cell_angle_beta   90.00000000
_cell_angle_gamma   90.00000000
_symmetry_Int_Tables_number   1
_chemical_formula_structural   SmAgH8C18(NO2)4
_chemical_formula_sum   'Sm8 Ag8 H64 C144 N32 O64'
_cell_volume   3885.33263236
_cell_formula_units_Z   8
loop_
 _symmetry_equiv_pos_site_id
 _symmetry_equiv_pos_as_xyz
  1  'x, y, z'
loop_
 _atom_site_type_symbol
 _atom_site_label
 _atom_site_symmetry_multiplicity
 _atom_site_fract_x
 _atom_site_fract_y
 _atom_site_fract_z
 _atom_site_occupancy
 _atom_site_charge
  Sm  Sm1  1  0.663040  0.976130  0.716370  1.0  2.3261
  Sm  Sm2  1  0.163040  0.023870  0.783630  1.0  2.3263
  Sm  Sm3  1  0.163040  0.476130  0.283630  1.0  2.3264
  Sm  Sm4  1  0.663040  0.523870  0.216370  1.0  2.3261
  Sm  Sm5  1  0.836960  0.523870  0.716370  1.0  2.3261
  Sm  Sm6  1  0.336960  0.476130  0.783630  1.0  2.3265
  Sm  Sm7  1  0.336960  0.023870  0.283630  1.0  2.3263
  Sm  Sm8  1  0.836960  0.976130  0.216370  1.0  2.3261
  Ag  Ag9  1  0.961000  0.273430  0.549460  1.0  0.3717
  Ag  Ag10  1  0.461000  0.726570  0.950540  1.0  0.3708
  Ag  Ag11  1  0.461000  0.773430  0.450540  1.0  0.371
  Ag  Ag12  1  0.961000  0.226570  0.049460  1.0  0.3715
  Ag  Ag13  1  0.539000  0.226570  0.549460  1.0  0.3711
  Ag  Ag14  1  0.039000  0.773430  0.950540  1.0  0.3709
  Ag  Ag15  1  0.039000  0.726570  0.450540  1.0  0.3704
  Ag  Ag16  1  0.539000  0.273430  0.049460  1.0  0.3715
  H  H17  1  0.466900  0.045800  0.009100  1.0  0.1201
  H  H18  1  0.747000  0.162500  0.174000  1.0  0.1112
  H  H19  1  0.898400  0.139600  0.919300  1.0  0.1224
  H  H20  1  0.380900  0.069400  0.503400  1.0  0.138
  H  H21  1  0.055500  0.207000  0.400400  1.0  0.1057
  H  H22  1  0.183500  0.202800  0.660600  1.0  0.1299
  H  H23  1  0.571000  0.096700  0.150900  1.0  0.2901
  H  H24  1  0.219000  0.132500  0.391600  1.0  0.2983
  H  H25  1  0.966900  0.954200  0.490900  1.0  0.1198
  H  H26  1  0.247000  0.837500  0.326000  1.0  0.1127
  H  H27  1  0.398400  0.860400  0.580700  1.0  0.1234
  H  H28  1  0.880900  0.930600  0.996600  1.0  0.1378
  H  H29  1  0.555500  0.793000  0.099600  1.0  0.1054
  H  H30  1  0.683500  0.797200  0.839400  1.0  0.1298
  H  H31  1  0.071000  0.903300  0.349100  1.0  0.289
  H  H32  1  0.719000  0.867500  0.108400  1.0  0.2996
  H  H33  1  0.966900  0.545800  0.990900  1.0  0.12
  H  H34  1  0.247000  0.662500  0.826000  1.0  0.1125
  H  H35  1  0.398400  0.639600  0.080700  1.0  0.1225
  H  H36  1  0.880900  0.569400  0.496600  1.0  0.1378
  H  H37  1  0.555500  0.707000  0.599600  1.0  0.1055
  H  H38  1  0.683500  0.702800  0.339400  1.0  0.1297
  H  H39  1  0.071000  0.596700  0.849100  1.0  0.2895
  H  H40  1  0.719000  0.632500  0.608400  1.0  0.2993
  H  H41  1  0.466900  0.454200  0.509100  1.0  0.1197
  H  H42  1  0.747000  0.337500  0.674000  1.0  0.1113
  H  H43  1  0.898400  0.360400  0.419300  1.0  0.1232
  H  H44  1  0.380900  0.430600  0.003400  1.0  0.1381
  H  H45  1  0.055500  0.293000  0.900400  1.0  0.1055
  H  H46  1  0.183500  0.297200  0.160600  1.0  0.1304
  H  H47  1  0.571000  0.403300  0.650900  1.0  0.2898
  H  H48  1  0.219000  0.367500  0.891600  1.0  0.2988
  H  H49  1  0.033100  0.454200  0.009100  1.0  0.1195
  H  H50  1  0.753000  0.337500  0.174000  1.0  0.1116
  H  H51  1  0.601600  0.360400  0.919300  1.0  0.1234
  H  H52  1  0.119100  0.430600  0.503400  1.0  0.1379
  H  H53  1  0.444500  0.293000  0.400400  1.0  0.1054
  H  H54  1  0.316500  0.297200  0.660600  1.0  0.1301
  H  H55  1  0.929000  0.403300  0.150900  1.0  0.2891
  H  H56  1  0.281000  0.367500  0.391600  1.0  0.2993
  H  H57  1  0.533100  0.545800  0.490900  1.0  0.1197
  H  H58  1  0.253000  0.662500  0.326000  1.0  0.1127
  H  H59  1  0.101600  0.639600  0.580700  1.0  0.1226
  H  H60  1  0.619100  0.569400  0.996600  1.0  0.1378
  H  H61  1  0.944500  0.707000  0.099600  1.0  0.1054
  H  H62  1  0.816500  0.702800  0.839400  1.0  0.1299
  H  H63  1  0.429000  0.596700  0.349100  1.0  0.2888
  H  H64  1  0.781000  0.632500  0.108400  1.0  0.2997
  H  H65  1  0.533100  0.954200  0.990900  1.0  0.1195
  H  H66  1  0.253000  0.837500  0.826000  1.0  0.1127
  H  H67  1  0.101600  0.860400  0.080700  1.0  0.1232
  H  H68  1  0.619100  0.930600  0.496600  1.0  0.1377
  H  H69  1  0.944500  0.793000  0.599600  1.0  0.1053
  H  H70  1  0.816500  0.797200  0.339400  1.0  0.1298
  H  H71  1  0.429000  0.903300  0.849100  1.0  0.2884
  H  H72  1  0.781000  0.867500  0.608400  1.0  0.2999
  H  H73  1  0.033100  0.045800  0.509100  1.0  0.1199
  H  H74  1  0.753000  0.162500  0.674000  1.0  0.1114
  H  H75  1  0.601600  0.139600  0.419300  1.0  0.1228
  H  H76  1  0.119100  0.069400  0.003400  1.0  0.1377
  H  H77  1  0.444500  0.207000  0.900400  1.0  0.1056
  H  H78  1  0.316500  0.202800  0.160600  1.0  0.13
  H  H79  1  0.929000  0.096700  0.650900  1.0  0.2893
  H  H80  1  0.281000  0.132500  0.891600  1.0  0.299
  C  C81  1  0.509700  0.018420  0.872500  1.0  0.7581
  C  C82  1  0.605500  0.056670  0.918200  1.0  -0.0667
  C  C83  1  0.554500  0.063330  0.991400  1.0  -0.1471
  C  C84  1  0.638800  0.097240  0.037500  1.0  0.1528
  C  C85  1  0.732600  0.147510  0.126900  1.0  0.2555
  C  C86  1  0.760600  0.127650  0.009400  1.0  0.1309
  C  C87  1  0.813900  0.120390  0.937100  1.0  -0.1198
  C  C88  1  0.739700  0.084090  0.891400  1.0  -0.0992
  C  C89  1  0.806500  0.074740  0.814800  1.0  0.7531
  C  C90  1  0.449500  0.048220  0.644500  1.0  0.7171
  C  C91  1  0.363900  0.094230  0.611600  1.0  -0.1106
  C  C92  1  0.339400  0.095200  0.534600  1.0  -0.0838
  C  C93  1  0.249900  0.136570  0.505900  1.0  0.0731
  C  C94  1  0.105900  0.191510  0.440900  1.0  0.2503
  C  C95  1  0.188100  0.175490  0.553200  1.0  0.1331
  C  C96  1  0.219800  0.175760  0.629900  1.0  -0.1927
  C  C97  1  0.306100  0.134950  0.659000  1.0  -0.0744
  C  C98  1  0.340500  0.137300  0.742100  1.0  0.7295
  C  C99  1  0.009700  0.981580  0.627500  1.0  0.7583
  C  C100  1  0.105500  0.943330  0.581800  1.0  -0.0659
  C  C101  1  0.054500  0.936670  0.508600  1.0  -0.1474
  C  C102  1  0.138800  0.902760  0.462500  1.0  0.1528
  C  C103  1  0.232600  0.852490  0.373100  1.0  0.2554
  C  C104  1  0.260600  0.872350  0.490600  1.0  0.1314
  C  C105  1  0.313900  0.879610  0.562900  1.0  -0.1191
  C  C106  1  0.239700  0.915910  0.608600  1.0  -0.0985
  C  C107  1  0.306500  0.925260  0.685200  1.0  0.7543
  C  C108  1  0.949500  0.951780  0.855500  1.0  0.7169
  C  C109  1  0.863900  0.905770  0.888400  1.0  -0.1107
  C  C110  1  0.839400  0.904800  0.965400  1.0  -0.0848
  C  C111  1  0.749900  0.863430  0.994100  1.0  0.073
  C  C112  1  0.605900  0.808490  0.059100  1.0  0.2499
  C  C113  1  0.688100  0.824510  0.946800  1.0  0.1327
  C  C114  1  0.719800  0.824240  0.870100  1.0  -0.1909
  C  C115  1  0.806100  0.865050  0.841000  1.0  -0.0746
  C  C116  1  0.840500  0.862700  0.757900  1.0  0.729
  C  C117  1  0.009700  0.518420  0.127500  1.0  0.7583
  C  C118  1  0.105500  0.556670  0.081800  1.0  -0.0663
  C  C119  1  0.054500  0.563330  0.008600  1.0  -0.1472
  C  C120  1  0.138800  0.597240  0.962500  1.0  0.153
  C  C121  1  0.232600  0.647510  0.873100  1.0  0.2554
  C  C122  1  0.260600  0.627650  0.990600  1.0  0.1307
  C  C123  1  0.313900  0.620390  0.062900  1.0  -0.12
  C  C124  1  0.239700  0.584090  0.108600  1.0  -0.0979
  C  C125  1  0.306500  0.574740  0.185200  1.0  0.7543
  C  C126  1  0.949500  0.548220  0.355500  1.0  0.7168
  C  C127  1  0.863900  0.594230  0.388400  1.0  -0.1111
  C  C128  1  0.839400  0.595200  0.465400  1.0  -0.0837
  C  C129  1  0.749900  0.636570  0.494100  1.0  0.0729
  C  C130  1  0.605900  0.691510  0.559100  1.0  0.2495
  C  C131  1  0.688100  0.675490  0.446800  1.0  0.133
  C  C132  1  0.719800  0.675760  0.370100  1.0  -0.1926
  C  C133  1  0.806100  0.634950  0.341000  1.0  -0.0746
  C  C134  1  0.840500  0.637300  0.257900  1.0  0.7289
  C  C135  1  0.509700  0.481580  0.372500  1.0  0.7579
  C  C136  1  0.605500  0.443330  0.418200  1.0  -0.0663
  C  C137  1  0.554500  0.436670  0.491400  1.0  -0.1473
  C  C138  1  0.638800  0.402760  0.537500  1.0  0.1527
  C  C139  1  0.732600  0.352490  0.626900  1.0  0.256
  C  C140  1  0.760600  0.372350  0.509400  1.0  0.1314
  C  C141  1  0.813900  0.379610  0.437100  1.0  -0.1196
  C  C142  1  0.739700  0.415910  0.391400  1.0  -0.0998
  C  C143  1  0.806500  0.425260  0.314800  1.0  0.7533
  C  C144  1  0.449500  0.451780  0.144500  1.0  0.7172
  C  C145  1  0.363900  0.405770  0.111600  1.0  -0.1102
  C  C146  1  0.339400  0.404800  0.034600  1.0  -0.0849
  C  C147  1  0.249900  0.363430  0.005900  1.0  0.073
  C  C148  1  0.105900  0.308490  0.940900  1.0  0.2499
  C  C149  1  0.188100  0.324510  0.053200  1.0  0.1329
  C  C150  1  0.219800  0.324240  0.129900  1.0  -0.1913
  C  C151  1  0.306100  0.365050  0.159000  1.0  -0.0745
  C  C152  1  0.340500  0.362700  0.242100  1.0  0.7299
  C  C153  1  0.990300  0.481580  0.872500  1.0  0.7573
  C  C154  1  0.894500  0.443330  0.918200  1.0  -0.0664
  C  C155  1  0.945500  0.436670  0.991400  1.0  -0.1473
  C  C156  1  0.861200  0.402760  0.037500  1.0  0.1532
  C  C157  1  0.767400  0.352490  0.126900  1.0  0.2558
  C  C158  1  0.739400  0.372350  0.009400  1.0  0.1308
  C  C159  1  0.686100  0.379610  0.937100  1.0  -0.1192
  C  C160  1  0.760300  0.415910  0.891400  1.0  -0.1
  C  C161  1  0.693500  0.425260  0.814800  1.0  0.7534
  C  C162  1  0.050500  0.451780  0.644500  1.0  0.7172
  C  C163  1  0.136100  0.405770  0.611600  1.0  -0.1098
  C  C164  1  0.160600  0.404800  0.534600  1.0  -0.0851
  C  C165  1  0.250100  0.363430  0.505900  1.0  0.0735
  C  C166  1  0.394100  0.308490  0.440900  1.0  0.2489
  C  C167  1  0.311900  0.324510  0.553200  1.0  0.133
  C  C168  1  0.280200  0.324240  0.629900  1.0  -0.1898
  C  C169  1  0.193900  0.365050  0.659000  1.0  -0.0742
  C  C170  1  0.159500  0.362700  0.742100  1.0  0.7292
  C  C171  1  0.490300  0.518420  0.627500  1.0  0.758
  C  C172  1  0.394500  0.556670  0.581800  1.0  -0.0666
  C  C173  1  0.445500  0.563330  0.508600  1.0  -0.1471
  C  C174  1  0.361200  0.597240  0.462500  1.0  0.1536
  C  C175  1  0.267400  0.647510  0.373100  1.0  0.2557
  C  C176  1  0.239400  0.627650  0.490600  1.0  0.1307
  C  C177  1  0.186100  0.620390  0.562900  1.0  -0.1211
  C  C178  1  0.260300  0.584090  0.608600  1.0  -0.0981
  C  C179  1  0.193500  0.574740  0.685200  1.0  0.7534
  C  C180  1  0.550500  0.548220  0.855500  1.0  0.717
  C  C181  1  0.636100  0.594230  0.888400  1.0  -0.1111
  C  C182  1  0.660600  0.595200  0.965400  1.0  -0.0847
  C  C183  1  0.750100  0.636570  0.994100  1.0  0.0738
  C  C184  1  0.894100  0.691510  0.059100  1.0  0.2507
  C  C185  1  0.811900  0.675490  0.946800  1.0  0.1332
  C  C186  1  0.780200  0.675760  0.870100  1.0  -0.1919
  C  C187  1  0.693900  0.634950  0.841000  1.0  -0.0744
  C  C188  1  0.659500  0.637300  0.757900  1.0  0.7283
  C  C189  1  0.490300  0.981580  0.127500  1.0  0.758
  C  C190  1  0.394500  0.943330  0.081800  1.0  -0.066
  C  C191  1  0.445500  0.936670  0.008600  1.0  -0.1474
  C  C192  1  0.361200  0.902760  0.962500  1.0  0.1533
  C  C193  1  0.267400  0.852490  0.873100  1.0  0.2557
  C  C194  1  0.239400  0.872350  0.990600  1.0  0.1309
  C  C195  1  0.186100  0.879610  0.062900  1.0  -0.119
  C  C196  1  0.260300  0.915910  0.108600  1.0  -0.0985
  C  C197  1  0.193500  0.925260  0.185200  1.0  0.7537
  C  C198  1  0.550500  0.951780  0.355500  1.0  0.717
  C  C199  1  0.636100  0.905770  0.388400  1.0  -0.1105
  C  C200  1  0.660600  0.904800  0.465400  1.0  -0.0855
  C  C201  1  0.750100  0.863430  0.494100  1.0  0.0736
  C  C202  1  0.894100  0.808490  0.559100  1.0  0.2499
  C  C203  1  0.811900  0.824510  0.446800  1.0  0.1328
  C  C204  1  0.780200  0.824240  0.370100  1.0  -0.1902
  C  C205  1  0.693900  0.865050  0.341000  1.0  -0.0743
  C  C206  1  0.659500  0.862700  0.257900  1.0  0.7286
  C  C207  1  0.990300  0.018420  0.372500  1.0  0.7576
  C  C208  1  0.894500  0.056670  0.418200  1.0  -0.0668
  C  C209  1  0.945500  0.063330  0.491400  1.0  -0.1471
  C  C210  1  0.861200  0.097240  0.537500  1.0  0.1535
  C  C211  1  0.767400  0.147510  0.626900  1.0  0.2551
  C  C212  1  0.739400  0.127650  0.509400  1.0  0.1308
  C  C213  1  0.686100  0.120390  0.437100  1.0  -0.1204
  C  C214  1  0.760300  0.084090  0.391400  1.0  -0.0997
  C  C215  1  0.693500  0.074740  0.314800  1.0  0.7528
  C  C216  1  0.050500  0.048220  0.144500  1.0  0.7173
  C  C217  1  0.136100  0.094230  0.111600  1.0  -0.1103
  C  C218  1  0.160600  0.095200  0.034600  1.0  -0.0846
  C  C219  1  0.250100  0.136570  0.005900  1.0  0.0737
  C  C220  1  0.394100  0.191510  0.940900  1.0  0.2498
  C  C221  1  0.311900  0.175490  0.053200  1.0  0.1332
  C  C222  1  0.280200  0.175760  0.129900  1.0  -0.1912
  C  C223  1  0.193900  0.134950  0.159000  1.0  -0.0742
  C  C224  1  0.159500  0.137300  0.242100  1.0  0.7287
  N  N225  1  0.626000  0.110140  0.112200  1.0  -0.2667
  N  N226  1  0.814700  0.160480  0.067000  1.0  -0.416
  N  N227  1  0.096000  0.209340  0.510200  1.0  -0.4015
  N  N228  1  0.196000  0.148650  0.435100  1.0  -0.2378
  N  N229  1  0.126000  0.889860  0.387800  1.0  -0.2674
  N  N230  1  0.314700  0.839520  0.433000  1.0  -0.4162
  N  N231  1  0.596000  0.790660  0.989800  1.0  -0.4011
  N  N232  1  0.696000  0.851350  0.064900  1.0  -0.2356
  N  N233  1  0.126000  0.610140  0.887800  1.0  -0.2663
  N  N234  1  0.314700  0.660480  0.933000  1.0  -0.4158
  N  N235  1  0.596000  0.709340  0.489800  1.0  -0.4014
  N  N236  1  0.696000  0.648650  0.564900  1.0  -0.2364
  N  N237  1  0.626000  0.389860  0.612200  1.0  -0.2679
  N  N238  1  0.814700  0.339520  0.567000  1.0  -0.4156
  N  N239  1  0.096000  0.290660  0.010200  1.0  -0.4016
  N  N240  1  0.196000  0.351350  0.935100  1.0  -0.2377
  N  N241  1  0.874000  0.389860  0.112200  1.0  -0.2671
  N  N242  1  0.685300  0.339520  0.067000  1.0  -0.4169
  N  N243  1  0.404000  0.290660  0.510200  1.0  -0.3993
  N  N244  1  0.304000  0.351350  0.435100  1.0  -0.2369
  N  N245  1  0.374000  0.610140  0.387800  1.0  -0.266
  N  N246  1  0.185300  0.660480  0.433000  1.0  -0.417
  N  N247  1  0.904000  0.709340  0.989800  1.0  -0.4005
  N  N248  1  0.804000  0.648650  0.064900  1.0  -0.2366
  N  N249  1  0.374000  0.889860  0.887800  1.0  -0.2666
  N  N250  1  0.185300  0.839520  0.933000  1.0  -0.4175
  N  N251  1  0.904000  0.790660  0.489800  1.0  -0.3987
  N  N252  1  0.804000  0.851350  0.564900  1.0  -0.2356
  N  N253  1  0.874000  0.110140  0.612200  1.0  -0.2667
  N  N254  1  0.685300  0.160480  0.567000  1.0  -0.4169
  N  N255  1  0.404000  0.209340  0.010200  1.0  -0.4007
  N  N256  1  0.304000  0.148650  0.935100  1.0  -0.237
  O  O257  1  0.575500  0.979540  0.840910  1.0  -0.753
  O  O258  1  0.365600  0.025260  0.873580  1.0  -0.7088
  O  O259  1  0.720300  0.061370  0.761250  1.0  -0.7301
  O  O260  1  0.951600  0.081670  0.807850  1.0  -0.743
  O  O261  1  0.559100  0.027100  0.609820  1.0  -0.6518
  O  O262  1  0.410500  0.031690  0.710020  1.0  -0.8371
  O  O263  1  0.246300  0.112960  0.785700  1.0  -0.75
  O  O264  1  0.450300  0.163700  0.764400  1.0  -0.5799
  O  O265  1  0.075500  0.020460  0.659090  1.0  -0.7527
  O  O266  1  0.865600  0.974740  0.626420  1.0  -0.7084
  O  O267  1  0.220300  0.938630  0.738750  1.0  -0.731
  O  O268  1  0.451600  0.918330  0.692150  1.0  -0.7439
  O  O269  1  0.059100  0.972900  0.890180  1.0  -0.6525
  O  O270  1  0.910500  0.968310  0.789980  1.0  -0.8367
  O  O271  1  0.746300  0.887040  0.714300  1.0  -0.7497
  O  O272  1  0.950300  0.836300  0.735600  1.0  -0.5785
  O  O273  1  0.075500  0.479540  0.159090  1.0  -0.7532
  O  O274  1  0.865600  0.525260  0.126420  1.0  -0.7085
  O  O275  1  0.220300  0.561370  0.238750  1.0  -0.731
  O  O276  1  0.451600  0.581670  0.192150  1.0  -0.7433
  O  O277  1  0.059100  0.527100  0.390180  1.0  -0.6521
  O  O278  1  0.910500  0.531690  0.289980  1.0  -0.8375
  O  O279  1  0.746300  0.612960  0.214300  1.0  -0.7499
  O  O280  1  0.950300  0.663700  0.235600  1.0  -0.5797
  O  O281  1  0.575500  0.520460  0.340910  1.0  -0.7523
  O  O282  1  0.365600  0.474740  0.373580  1.0  -0.7087
  O  O283  1  0.720300  0.438630  0.261250  1.0  -0.7307
  O  O284  1  0.951600  0.418330  0.307850  1.0  -0.7436
  O  O285  1  0.559100  0.472900  0.109820  1.0  -0.6515
  O  O286  1  0.410500  0.468310  0.210020  1.0  -0.837
  O  O287  1  0.246300  0.387040  0.285700  1.0  -0.7496
  O  O288  1  0.450300  0.336300  0.264400  1.0  -0.5783
  O  O289  1  0.924500  0.520460  0.840910  1.0  -0.7528
  O  O290  1  0.134400  0.474740  0.873580  1.0  -0.7081
  O  O291  1  0.779700  0.438630  0.761250  1.0  -0.7316
  O  O292  1  0.548400  0.418330  0.807850  1.0  -0.7422
  O  O293  1  0.940900  0.472900  0.609820  1.0  -0.6505
  O  O294  1  0.089500  0.468310  0.710020  1.0  -0.8371
  O  O295  1  0.253700  0.387040  0.785700  1.0  -0.7503
  O  O296  1  0.049700  0.336300  0.764400  1.0  -0.5789
  O  O297  1  0.424500  0.479540  0.659090  1.0  -0.7535
  O  O298  1  0.634400  0.525260  0.626420  1.0  -0.7079
  O  O299  1  0.279700  0.561370  0.738750  1.0  -0.732
  O  O300  1  0.048400  0.581670  0.692150  1.0  -0.7414
  O  O301  1  0.440900  0.527100  0.890180  1.0  -0.6518
  O  O302  1  0.589500  0.531690  0.789980  1.0  -0.8376
  O  O303  1  0.753700  0.612960  0.714300  1.0  -0.7503
  O  O304  1  0.549700  0.663700  0.735600  1.0  -0.5798
  O  O305  1  0.424500  0.020460  0.159090  1.0  -0.7532
  O  O306  1  0.634400  0.974740  0.126420  1.0  -0.7078
  O  O307  1  0.279700  0.938630  0.238750  1.0  -0.7318
  O  O308  1  0.048400  0.918330  0.192150  1.0  -0.7424
  O  O309  1  0.440900  0.972900  0.390180  1.0  -0.6516
  O  O310  1  0.589500  0.968310  0.289980  1.0  -0.8368
  O  O311  1  0.753700  0.887040  0.214300  1.0  -0.7505
  O  O312  1  0.549700  0.836300  0.235600  1.0  -0.5796
  O  O313  1  0.924500  0.979540  0.340910  1.0  -0.7533
  O  O314  1  0.134400  0.025260  0.373580  1.0  -0.7079
  O  O315  1  0.779700  0.061370  0.261250  1.0  -0.7312
  O  O316  1  0.548400  0.081670  0.307850  1.0  -0.741
  O  O317  1  0.940900  0.027100  0.109820  1.0  -0.6514
  O  O318  1  0.089500  0.031690  0.210020  1.0  -0.8375
  O  O319  1  0.253700  0.112960  0.285700  1.0  -0.7506
  O  O320  1  0.049700  0.163700  0.264400  1.0  -0.5797
