# generated using pymatgen
data_TbAgH8C18(NO2)4
_symmetry_space_group_name_H-M   'P 1'
_cell_length_a   8.51120000
_cell_length_b   25.33900000
_cell_length_c   17.77400000
_cell_angle_alpha   90.00000000
_cell_angle_beta   90.00000000
_cell_angle_gamma   90.00000000
_symmetry_Int_Tables_number   1
_chemical_formula_structural   TbAgH8C18(NO2)4
_chemical_formula_sum   'Tb8 Ag8 H64 C144 N32 O64'
_cell_volume   3833.23498532
_cell_formula_units_Z   8
loop_
 _symmetry_equiv_pos_site_id
 _symmetry_equiv_pos_as_xyz
  1  'x, y, z'
loop_
 _atom_site_type_symbol
 _atom_site_label
 _atom_site_symmetry_multiplicity
 _atom_site_fract_x
 _atom_site_fract_y
 _atom_site_fract_z
 _atom_site_occupancy
 _atom_site_charge
  Tb  Tb1  1  0.335380  0.024070  0.782870  1.0  2.2816
  Tb  Tb2  1  0.835380  0.975930  0.717130  1.0  2.2792
  Tb  Tb3  1  0.835380  0.524070  0.217130  1.0  2.2814
  Tb  Tb4  1  0.335380  0.475930  0.282870  1.0  2.2796
  Tb  Tb5  1  0.164620  0.475930  0.782870  1.0  2.2815
  Tb  Tb6  1  0.664620  0.524070  0.717130  1.0  2.2793
  Tb  Tb7  1  0.664620  0.975930  0.217130  1.0  2.2811
  Tb  Tb8  1  0.164620  0.024070  0.282870  1.0  2.2795
  Ag  Ag9  1  0.038380  0.727000  0.949600  1.0  0.3668
  Ag  Ag10  1  0.538380  0.273000  0.550400  1.0  0.3683
  Ag  Ag11  1  0.538380  0.227000  0.050400  1.0  0.3671
  Ag  Ag12  1  0.038380  0.773000  0.449600  1.0  0.3681
  Ag  Ag13  1  0.461620  0.773000  0.949600  1.0  0.3677
  Ag  Ag14  1  0.961620  0.227000  0.550400  1.0  0.3669
  Ag  Ag15  1  0.961620  0.273000  0.050400  1.0  0.3679
  Ag  Ag16  1  0.461620  0.727000  0.449600  1.0  0.3666
  H  H17  1  0.439400  0.904600  0.356900  1.0  0.3054
  H  H18  1  0.788500  0.870300  0.105500  1.0  0.3082
  H  H19  1  0.098200  0.861100  0.581500  1.0  0.1204
  H  H20  1  0.252800  0.838500  0.325600  1.0  0.1008
  H  H21  1  0.534100  0.955000  0.492100  1.0  0.1202
  H  H22  1  0.620400  0.933000  0.997700  1.0  0.1352
  H  H23  1  0.948700  0.794700  0.099200  1.0  0.1054
  H  H24  1  0.809800  0.798000  0.839300  1.0  0.1274
  H  H25  1  0.939400  0.095400  0.143100  1.0  0.306
  H  H26  1  0.288500  0.129700  0.394500  1.0  0.3092
  H  H27  1  0.598200  0.138900  0.918500  1.0  0.1203
  H  H28  1  0.752800  0.161500  0.174400  1.0  0.1005
  H  H29  1  0.034100  0.045000  0.007900  1.0  0.1201
  H  H30  1  0.120400  0.067000  0.502300  1.0  0.135
  H  H31  1  0.448700  0.205300  0.400800  1.0  0.1054
  H  H32  1  0.309800  0.202000  0.660700  1.0  0.1273
  H  H33  1  0.939400  0.404600  0.643100  1.0  0.306
  H  H34  1  0.288500  0.370300  0.894500  1.0  0.3089
  H  H35  1  0.598200  0.361100  0.418500  1.0  0.1206
  H  H36  1  0.752800  0.338500  0.674400  1.0  0.1004
  H  H37  1  0.034100  0.455000  0.507900  1.0  0.1201
  H  H38  1  0.120400  0.433000  0.002300  1.0  0.1354
  H  H39  1  0.448700  0.294700  0.900800  1.0  0.1055
  H  H40  1  0.309800  0.298000  0.160700  1.0  0.1276
  H  H41  1  0.439400  0.595400  0.856900  1.0  0.3054
  H  H42  1  0.788500  0.629700  0.605500  1.0  0.3083
  H  H43  1  0.098200  0.638900  0.081500  1.0  0.1202
  H  H44  1  0.252800  0.661500  0.825600  1.0  0.101
  H  H45  1  0.534100  0.545000  0.992100  1.0  0.1203
  H  H46  1  0.620400  0.567000  0.497700  1.0  0.1353
  H  H47  1  0.948700  0.705300  0.599200  1.0  0.1055
  H  H48  1  0.809800  0.702000  0.339300  1.0  0.1276
  H  H49  1  0.060600  0.595400  0.356900  1.0  0.3047
  H  H50  1  0.711500  0.629700  0.105500  1.0  0.3079
  H  H51  1  0.401800  0.638900  0.581500  1.0  0.12
  H  H52  1  0.247200  0.661500  0.325600  1.0  0.1007
  H  H53  1  0.965900  0.545000  0.492100  1.0  0.1205
  H  H54  1  0.879600  0.567000  0.997700  1.0  0.135
  H  H55  1  0.551300  0.705300  0.099200  1.0  0.1057
  H  H56  1  0.690200  0.702000  0.839300  1.0  0.1275
  H  H57  1  0.560600  0.404600  0.143100  1.0  0.3053
  H  H58  1  0.211500  0.370300  0.394500  1.0  0.308
  H  H59  1  0.901800  0.361100  0.918500  1.0  0.1206
  H  H60  1  0.747200  0.338500  0.174400  1.0  0.1002
  H  H61  1  0.465900  0.455000  0.007900  1.0  0.1205
  H  H62  1  0.379600  0.433000  0.502300  1.0  0.1353
  H  H63  1  0.051300  0.294700  0.400800  1.0  0.1056
  H  H64  1  0.190200  0.298000  0.660700  1.0  0.1281
  H  H65  1  0.560600  0.095400  0.643100  1.0  0.3051
  H  H66  1  0.211500  0.129700  0.894500  1.0  0.3082
  H  H67  1  0.901800  0.138900  0.418500  1.0  0.12
  H  H68  1  0.747200  0.161500  0.674400  1.0  0.1003
  H  H69  1  0.465900  0.045000  0.507900  1.0  0.1204
  H  H70  1  0.379600  0.067000  0.002300  1.0  0.135
  H  H71  1  0.051300  0.205300  0.900800  1.0  0.1056
  H  H72  1  0.190200  0.202000  0.160700  1.0  0.1273
  H  H73  1  0.060600  0.904600  0.856900  1.0  0.3048
  H  H74  1  0.711500  0.870300  0.605500  1.0  0.3076
  H  H75  1  0.401800  0.861100  0.081500  1.0  0.1206
  H  H76  1  0.247200  0.838500  0.825600  1.0  0.1008
  H  H77  1  0.965900  0.955000  0.992100  1.0  0.1205
  H  H78  1  0.879600  0.933000  0.497700  1.0  0.1349
  H  H79  1  0.551300  0.794700  0.599200  1.0  0.1056
  H  H80  1  0.690200  0.798000  0.339300  1.0  0.1278
  C  C81  1  0.191200  0.925900  0.686300  1.0  0.7334
  C  C82  1  0.258400  0.916900  0.609300  1.0  -0.089
  C  C83  1  0.183500  0.880340  0.563700  1.0  -0.1289
  C  C84  1  0.238100  0.872930  0.490900  1.0  0.1276
  C  C85  1  0.266900  0.853460  0.372900  1.0  0.2388
  C  C86  1  0.360500  0.903820  0.463300  1.0  0.1429
  C  C87  1  0.445300  0.937560  0.509700  1.0  -0.1533
  C  C88  1  0.394100  0.944420  0.582800  1.0  -0.0704
  C  C89  1  0.489400  0.982510  0.628800  1.0  0.7273
  C  C90  1  0.548300  0.953740  0.855200  1.0  0.6929
  C  C91  1  0.633000  0.907970  0.889000  1.0  -0.1125
  C  C92  1  0.660300  0.907020  0.966200  1.0  -0.089
  C  C93  1  0.750500  0.865160  0.994200  1.0  0.0785
  C  C94  1  0.896600  0.810180  0.058800  1.0  0.2514
  C  C95  1  0.809900  0.825760  0.946800  1.0  0.1346
  C  C96  1  0.775600  0.825380  0.870100  1.0  -0.1737
  C  C97  1  0.689200  0.866990  0.841200  1.0  -0.0678
  C  C98  1  0.651900  0.865160  0.758200  1.0  0.7109
  C  C99  1  0.691200  0.074100  0.813700  1.0  0.7331
  C  C100  1  0.758400  0.083100  0.890700  1.0  -0.0897
  C  C101  1  0.683500  0.119660  0.936300  1.0  -0.1305
  C  C102  1  0.738100  0.127070  0.009100  1.0  0.1278
  C  C103  1  0.766900  0.146540  0.127100  1.0  0.2382
  C  C104  1  0.860500  0.096180  0.036700  1.0  0.1431
  C  C105  1  0.945300  0.062440  0.990300  1.0  -0.1526
  C  C106  1  0.894100  0.055580  0.917200  1.0  -0.0712
  C  C107  1  0.989400  0.017490  0.871200  1.0  0.7276
  C  C108  1  0.048300  0.046260  0.644800  1.0  0.6936
  C  C109  1  0.133000  0.092030  0.611000  1.0  -0.1122
  C  C110  1  0.160300  0.092980  0.533800  1.0  -0.0891
  C  C111  1  0.250500  0.134840  0.505800  1.0  0.0784
  C  C112  1  0.396600  0.189820  0.441200  1.0  0.2502
  C  C113  1  0.309900  0.174240  0.553200  1.0  0.1346
  C  C114  1  0.275600  0.174620  0.629900  1.0  -0.1712
  C  C115  1  0.189200  0.133010  0.658800  1.0  -0.0659
  C  C116  1  0.151900  0.134840  0.741800  1.0  0.7104
  C  C117  1  0.691200  0.425900  0.313700  1.0  0.7329
  C  C118  1  0.758400  0.416900  0.390700  1.0  -0.0904
  C  C119  1  0.683500  0.380340  0.436300  1.0  -0.1295
  C  C120  1  0.738100  0.372930  0.509100  1.0  0.1271
  C  C121  1  0.766900  0.353460  0.627100  1.0  0.2391
  C  C122  1  0.860500  0.403820  0.536700  1.0  0.1428
  C  C123  1  0.945300  0.437560  0.490300  1.0  -0.1533
  C  C124  1  0.894100  0.444420  0.417200  1.0  -0.0708
  C  C125  1  0.989400  0.482510  0.371200  1.0  0.7272
  C  C126  1  0.048300  0.453740  0.144800  1.0  0.6929
  C  C127  1  0.133000  0.407970  0.111000  1.0  -0.1124
  C  C128  1  0.160300  0.407020  0.033800  1.0  -0.0893
  C  C129  1  0.250500  0.365160  0.005800  1.0  0.0787
  C  C130  1  0.396600  0.310180  0.941200  1.0  0.2498
  C  C131  1  0.309900  0.325760  0.053200  1.0  0.1348
  C  C132  1  0.275600  0.325380  0.129900  1.0  -0.1728
  C  C133  1  0.189200  0.366990  0.158800  1.0  -0.0668
  C  C134  1  0.151900  0.365160  0.241800  1.0  0.7113
  C  C135  1  0.191200  0.574100  0.186300  1.0  0.7334
  C  C136  1  0.258400  0.583100  0.109300  1.0  -0.0883
  C  C137  1  0.183500  0.619660  0.063700  1.0  -0.1306
  C  C138  1  0.238100  0.627070  0.990900  1.0  0.1279
  C  C139  1  0.266900  0.646540  0.872900  1.0  0.2384
  C  C140  1  0.360500  0.596180  0.963300  1.0  0.1432
  C  C141  1  0.445300  0.562440  0.009700  1.0  -0.1525
  C  C142  1  0.394100  0.555580  0.082800  1.0  -0.071
  C  C143  1  0.489400  0.517490  0.128800  1.0  0.7273
  C  C144  1  0.548300  0.546260  0.355200  1.0  0.6936
  C  C145  1  0.633000  0.592030  0.389000  1.0  -0.1125
  C  C146  1  0.660300  0.592980  0.466200  1.0  -0.0888
  C  C147  1  0.750500  0.634840  0.494200  1.0  0.0782
  C  C148  1  0.896600  0.689820  0.558800  1.0  0.2518
  C  C149  1  0.809900  0.674240  0.446800  1.0  0.1348
  C  C150  1  0.775600  0.674620  0.370100  1.0  -0.1726
  C  C151  1  0.689200  0.633010  0.341200  1.0  -0.0672
  C  C152  1  0.651900  0.634840  0.258200  1.0  0.7102
  C  C153  1  0.308800  0.574100  0.686300  1.0  0.7342
  C  C154  1  0.241600  0.583100  0.609300  1.0  -0.0886
  C  C155  1  0.316500  0.619660  0.563700  1.0  -0.1295
  C  C156  1  0.261900  0.627070  0.490900  1.0  0.1283
  C  C157  1  0.233100  0.646540  0.372900  1.0  0.238
  C  C158  1  0.139500  0.596180  0.463300  1.0  0.1432
  C  C159  1  0.054700  0.562440  0.509700  1.0  -0.1514
  C  C160  1  0.105900  0.555580  0.582800  1.0  -0.0705
  C  C161  1  0.010600  0.517490  0.628800  1.0  0.7275
  C  C162  1  0.951700  0.546260  0.855200  1.0  0.6934
  C  C163  1  0.867000  0.592030  0.889000  1.0  -0.1127
  C  C164  1  0.839700  0.592980  0.966200  1.0  -0.0879
  C  C165  1  0.749500  0.634840  0.994200  1.0  0.0775
  C  C166  1  0.603400  0.689820  0.058800  1.0  0.2506
  C  C167  1  0.690100  0.674240  0.946800  1.0  0.1348
  C  C168  1  0.724400  0.674620  0.870100  1.0  -0.1737
  C  C169  1  0.810800  0.633010  0.841200  1.0  -0.0675
  C  C170  1  0.848100  0.634840  0.758200  1.0  0.7103
  C  C171  1  0.808800  0.425900  0.813700  1.0  0.7327
  C  C172  1  0.741600  0.416900  0.890700  1.0  -0.0904
  C  C173  1  0.816500  0.380340  0.936300  1.0  -0.1298
  C  C174  1  0.761900  0.372930  0.009100  1.0  0.1278
  C  C175  1  0.733100  0.353460  0.127100  1.0  0.2389
  C  C176  1  0.639500  0.403820  0.036700  1.0  0.1427
  C  C177  1  0.554700  0.437560  0.990300  1.0  -0.1522
  C  C178  1  0.605900  0.444420  0.917200  1.0  -0.0704
  C  C179  1  0.510600  0.482510  0.871200  1.0  0.7273
  C  C180  1  0.451700  0.453740  0.644800  1.0  0.693
  C  C181  1  0.367000  0.407970  0.611000  1.0  -0.1131
  C  C182  1  0.339700  0.407020  0.533800  1.0  -0.089
  C  C183  1  0.249500  0.365160  0.505800  1.0  0.078
  C  C184  1  0.103400  0.310180  0.441200  1.0  0.2512
  C  C185  1  0.190100  0.325760  0.553200  1.0  0.1348
  C  C186  1  0.224400  0.325380  0.629900  1.0  -0.174
  C  C187  1  0.310800  0.366990  0.658800  1.0  -0.0671
  C  C188  1  0.348100  0.365160  0.741800  1.0  0.7117
  C  C189  1  0.808800  0.074100  0.313700  1.0  0.7333
  C  C190  1  0.741600  0.083100  0.390700  1.0  -0.0896
  C  C191  1  0.816500  0.119660  0.436300  1.0  -0.1296
  C  C192  1  0.761900  0.127070  0.509100  1.0  0.1281
  C  C193  1  0.733100  0.146540  0.627100  1.0  0.2382
  C  C194  1  0.639500  0.096180  0.536700  1.0  0.143
  C  C195  1  0.554700  0.062440  0.490300  1.0  -0.1513
  C  C196  1  0.605900  0.055580  0.417200  1.0  -0.0709
  C  C197  1  0.510600  0.017490  0.371200  1.0  0.7276
  C  C198  1  0.451700  0.046260  0.144800  1.0  0.6935
  C  C199  1  0.367000  0.092030  0.111000  1.0  -0.1129
  C  C200  1  0.339700  0.092980  0.033800  1.0  -0.0883
  C  C201  1  0.249500  0.134840  0.005800  1.0  0.0776
  C  C202  1  0.103400  0.189820  0.941200  1.0  0.2503
  C  C203  1  0.190100  0.174240  0.053200  1.0  0.1345
  C  C204  1  0.224400  0.174620  0.129900  1.0  -0.1728
  C  C205  1  0.310800  0.133010  0.158800  1.0  -0.0663
  C  C206  1  0.348100  0.134840  0.241800  1.0  0.7109
  C  C207  1  0.308800  0.925900  0.186300  1.0  0.7339
  C  C208  1  0.241600  0.916900  0.109300  1.0  -0.0893
  C  C209  1  0.316500  0.880340  0.063700  1.0  -0.1289
  C  C210  1  0.261900  0.872930  0.990900  1.0  0.1283
  C  C211  1  0.233100  0.853460  0.872900  1.0  0.2382
  C  C212  1  0.139500  0.903820  0.963300  1.0  0.1428
  C  C213  1  0.054700  0.937560  0.009700  1.0  -0.1523
  C  C214  1  0.105900  0.944420  0.082800  1.0  -0.0699
  C  C215  1  0.010600  0.982510  0.128800  1.0  0.7274
  C  C216  1  0.951700  0.953740  0.355200  1.0  0.6929
  C  C217  1  0.867000  0.907970  0.389000  1.0  -0.113
  C  C218  1  0.839700  0.907020  0.466200  1.0  -0.0887
  C  C219  1  0.749500  0.865160  0.494200  1.0  0.0779
  C  C220  1  0.603400  0.810180  0.558800  1.0  0.2519
  C  C221  1  0.690100  0.825760  0.446800  1.0  0.1347
  C  C222  1  0.724400  0.825380  0.370100  1.0  -0.1745
  C  C223  1  0.810800  0.866990  0.341200  1.0  -0.0682
  C  C224  1  0.848100  0.865160  0.258200  1.0  0.7109
  N  N225  1  0.184400  0.840370  0.433000  1.0  -0.4068
  N  N226  1  0.374100  0.891030  0.388300  1.0  -0.2614
  N  N227  1  0.903200  0.791820  0.989200  1.0  -0.4127
  N  N228  1  0.807400  0.853100  0.064800  1.0  -0.2261
  N  N229  1  0.684400  0.159630  0.067000  1.0  -0.4056
  N  N230  1  0.874100  0.108970  0.111700  1.0  -0.2631
  N  N231  1  0.403200  0.208180  0.510800  1.0  -0.4127
  N  N232  1  0.307400  0.146900  0.435200  1.0  -0.226
  N  N233  1  0.684400  0.340370  0.567000  1.0  -0.4061
  N  N234  1  0.874100  0.391030  0.611700  1.0  -0.2624
  N  N235  1  0.403200  0.291820  0.010800  1.0  -0.4132
  N  N236  1  0.307400  0.353100  0.935200  1.0  -0.2276
  N  N237  1  0.184400  0.659630  0.933000  1.0  -0.4058
  N  N238  1  0.374100  0.608970  0.888300  1.0  -0.2614
  N  N239  1  0.903200  0.708180  0.489200  1.0  -0.4123
  N  N240  1  0.807400  0.646900  0.564800  1.0  -0.2247
  N  N241  1  0.315600  0.659630  0.433000  1.0  -0.4044
  N  N242  1  0.125900  0.608970  0.388300  1.0  -0.2611
  N  N243  1  0.596800  0.708180  0.989200  1.0  -0.4135
  N  N244  1  0.692600  0.646900  0.064800  1.0  -0.2242
  N  N245  1  0.815600  0.340370  0.067000  1.0  -0.4053
  N  N246  1  0.625900  0.391030  0.111700  1.0  -0.262
  N  N247  1  0.096800  0.291820  0.510800  1.0  -0.4154
  N  N248  1  0.192600  0.353100  0.435200  1.0  -0.2284
  N  N249  1  0.815600  0.159630  0.567000  1.0  -0.4047
  N  N250  1  0.625900  0.108970  0.611700  1.0  -0.2623
  N  N251  1  0.096800  0.208180  0.010800  1.0  -0.4136
  N  N252  1  0.192600  0.146900  0.935200  1.0  -0.2267
  N  N253  1  0.315600  0.840370  0.933000  1.0  -0.4057
  N  N254  1  0.125900  0.891030  0.888300  1.0  -0.2617
  N  N255  1  0.596800  0.791820  0.489200  1.0  -0.4152
  N  N256  1  0.692600  0.853100  0.564800  1.0  -0.2259
  O  O257  1  0.044000  0.918690  0.693480  1.0  -0.728
  O  O258  1  0.278800  0.940120  0.739810  1.0  -0.7257
  O  O259  1  0.422600  0.021370  0.660160  1.0  -0.7427
  O  O260  1  0.635400  0.975440  0.628310  1.0  -0.6962
  O  O261  1  0.437800  0.975600  0.889610  1.0  -0.6372
  O  O262  1  0.587300  0.969290  0.789370  1.0  -0.8173
  O  O263  1  0.751300  0.888360  0.714210  1.0  -0.6994
  O  O264  1  0.539100  0.839590  0.735320  1.0  -0.5738
  O  O265  1  0.544000  0.081310  0.806520  1.0  -0.727
  O  O266  1  0.778800  0.059880  0.760190  1.0  -0.7254
  O  O267  1  0.922600  0.978630  0.839840  1.0  -0.7415
  O  O268  1  0.135400  0.024560  0.871690  1.0  -0.6964
  O  O269  1  0.937800  0.024400  0.610390  1.0  -0.6362
  O  O270  1  0.087300  0.030710  0.710630  1.0  -0.817
  O  O271  1  0.251300  0.111640  0.785790  1.0  -0.6988
  O  O272  1  0.039100  0.160410  0.764680  1.0  -0.5734
  O  O273  1  0.544000  0.418690  0.306520  1.0  -0.7275
  O  O274  1  0.778800  0.440120  0.260190  1.0  -0.7259
  O  O275  1  0.922600  0.521370  0.339840  1.0  -0.7421
  O  O276  1  0.135400  0.475440  0.371690  1.0  -0.6964
  O  O277  1  0.937800  0.475600  0.110390  1.0  -0.6361
  O  O278  1  0.087300  0.469290  0.210630  1.0  -0.8173
  O  O279  1  0.251300  0.388360  0.285790  1.0  -0.6995
  O  O280  1  0.039100  0.339590  0.264680  1.0  -0.5726
  O  O281  1  0.044000  0.581310  0.193480  1.0  -0.7274
  O  O282  1  0.278800  0.559880  0.239810  1.0  -0.7259
  O  O283  1  0.422600  0.478630  0.160160  1.0  -0.7414
  O  O284  1  0.635400  0.524560  0.128310  1.0  -0.6964
  O  O285  1  0.437800  0.524400  0.389610  1.0  -0.6366
  O  O286  1  0.587300  0.530710  0.289370  1.0  -0.8174
  O  O287  1  0.751300  0.611640  0.214210  1.0  -0.6984
  O  O288  1  0.539100  0.660410  0.235320  1.0  -0.5739
  O  O289  1  0.456000  0.581310  0.693480  1.0  -0.7278
  O  O290  1  0.221200  0.559880  0.739810  1.0  -0.7242
  O  O291  1  0.077400  0.478630  0.660160  1.0  -0.7408
  O  O292  1  0.864600  0.524560  0.628310  1.0  -0.6981
  O  O293  1  0.062200  0.524400  0.889610  1.0  -0.637
  O  O294  1  0.912700  0.530710  0.789370  1.0  -0.8172
  O  O295  1  0.748700  0.611640  0.714210  1.0  -0.6989
  O  O296  1  0.960900  0.660410  0.735320  1.0  -0.5734
  O  O297  1  0.956000  0.418690  0.806520  1.0  -0.7279
  O  O298  1  0.721200  0.440120  0.760190  1.0  -0.7246
  O  O299  1  0.577400  0.521370  0.839840  1.0  -0.7415
  O  O300  1  0.364600  0.475440  0.871690  1.0  -0.6982
  O  O301  1  0.562200  0.475600  0.610390  1.0  -0.6364
  O  O302  1  0.412700  0.469290  0.710630  1.0  -0.8171
  O  O303  1  0.248700  0.388360  0.785790  1.0  -0.6997
  O  O304  1  0.460900  0.339590  0.764680  1.0  -0.5721
  O  O305  1  0.956000  0.081310  0.306520  1.0  -0.7275
  O  O306  1  0.721200  0.059880  0.260190  1.0  -0.7239
  O  O307  1  0.577400  0.978630  0.339840  1.0  -0.7408
  O  O308  1  0.364600  0.024560  0.371690  1.0  -0.6984
  O  O309  1  0.562200  0.024400  0.110390  1.0  -0.6364
  O  O310  1  0.412700  0.030710  0.210630  1.0  -0.8167
  O  O311  1  0.248700  0.111640  0.285790  1.0  -0.6992
  O  O312  1  0.460900  0.160410  0.264680  1.0  -0.5732
  O  O313  1  0.456000  0.918690  0.193480  1.0  -0.7283
  O  O314  1  0.221200  0.940120  0.239810  1.0  -0.7243
  O  O315  1  0.077400  0.021370  0.160160  1.0  -0.7421
  O  O316  1  0.864600  0.975440  0.128310  1.0  -0.698
  O  O317  1  0.062200  0.975600  0.389610  1.0  -0.6376
  O  O318  1  0.912700  0.969290  0.289370  1.0  -0.8169
  O  O319  1  0.748700  0.888360  0.214210  1.0  -0.6997
  O  O320  1  0.960900  0.839590  0.235320  1.0  -0.5729
