# generated using pymatgen
data_U4P6H6(CO6)3
_symmetry_space_group_name_H-M   'P 1'
_cell_length_a   15.49740000
_cell_length_b   15.49740000
_cell_length_c   16.72300000
_cell_angle_alpha   78.82020000
_cell_angle_beta   78.82020000
_cell_angle_gamma   66.61830000
_symmetry_Int_Tables_number   1
_chemical_formula_structural   U4P6H6(CO6)3
_chemical_formula_sum   'U16 P24 H24 C12 O72'
_cell_volume   3585.94996385
_cell_formula_units_Z   4
loop_
 _symmetry_equiv_pos_site_id
 _symmetry_equiv_pos_as_xyz
  1  'x, y, z'
loop_
 _atom_site_type_symbol
 _atom_site_label
 _atom_site_symmetry_multiplicity
 _atom_site_fract_x
 _atom_site_fract_y
 _atom_site_fract_z
 _atom_site_occupancy
 _atom_site_charge
  U  U1  1  0.616140  0.570080  0.551900  1.0  1.7208
  U  U2  1  0.627520  0.102700  0.626100  1.0  2.6222
  U  U3  1  0.924200  0.872720  0.468790  1.0  1.728
  U  U4  1  0.744420  0.741400  0.769440  1.0  1.8008
  U  U5  1  0.429920  0.383860  0.948100  1.0  1.7233
  U  U6  1  0.897300  0.372480  0.873900  1.0  2.6224
  U  U7  1  0.127280  0.075800  0.031210  1.0  1.7301
  U  U8  1  0.258600  0.255580  0.730560  1.0  1.8011
  U  U9  1  0.383860  0.429920  0.448100  1.0  1.7203
  U  U10  1  0.372480  0.897300  0.373900  1.0  2.6223
  U  U11  1  0.075800  0.127280  0.531210  1.0  1.7293
  U  U12  1  0.255580  0.258600  0.230560  1.0  1.7996
  U  U13  1  0.570080  0.616140  0.051900  1.0  1.7288
  U  U14  1  0.102700  0.627520  0.126100  1.0  2.6224
  U  U15  1  0.872720  0.924200  0.968790  1.0  1.7273
  U  U16  1  0.741400  0.744420  0.269440  1.0  1.801
  P  P17  1  0.467840  0.284920  0.756820  1.0  1.748
  P  P18  1  0.711910  0.864070  0.564840  1.0  1.7524
  P  P19  1  0.787710  0.951530  0.774920  1.0  1.7424
  P  P20  1  0.558510  0.361350  0.594540  1.0  1.7612
  P  P21  1  0.881920  0.037920  0.617010  1.0  1.7833
  P  P22  1  0.598690  0.806370  0.465410  1.0  1.8378
  P  P23  1  0.715080  0.532160  0.743180  1.0  1.7483
  P  P24  1  0.135930  0.288090  0.935160  1.0  1.7515
  P  P25  1  0.048470  0.212290  0.725080  1.0  1.7418
  P  P26  1  0.638650  0.441490  0.905460  1.0  1.7598
  P  P27  1  0.962080  0.118080  0.882990  1.0  1.7824
  P  P28  1  0.193630  0.401310  0.034590  1.0  1.8377
  P  P29  1  0.532160  0.715080  0.243180  1.0  1.7481
  P  P30  1  0.288090  0.135930  0.435160  1.0  1.7507
  P  P31  1  0.212290  0.048470  0.225080  1.0  1.7375
  P  P32  1  0.441490  0.638650  0.405460  1.0  1.759
  P  P33  1  0.118080  0.962080  0.382990  1.0  1.7811
  P  P34  1  0.401310  0.193630  0.534590  1.0  1.8343
  P  P35  1  0.284920  0.467840  0.256820  1.0  1.7481
  P  P36  1  0.864070  0.711910  0.064840  1.0  1.7497
  P  P37  1  0.951530  0.787710  0.274920  1.0  1.7423
  P  P38  1  0.361350  0.558510  0.094540  1.0  1.7616
  P  P39  1  0.037920  0.881920  0.117010  1.0  1.7833
  P  P40  1  0.806370  0.598690  0.965410  1.0  1.8377
  H  H41  1  0.579100  0.353300  0.728900  1.0  0.2463
  H  H42  1  0.479800  0.429800  0.711700  1.0  0.2155
  H  H43  1  0.940300  0.945300  0.732600  1.0  0.2298
  H  H44  1  0.874400  0.047000  0.752700  1.0  0.2604
  H  H45  1  0.617000  0.945000  0.465500  1.0  0.2437
  H  H46  1  0.556300  0.922500  0.546700  1.0  0.2435
  H  H47  1  0.646700  0.420900  0.771100  1.0  0.2462
  H  H48  1  0.570200  0.520200  0.788300  1.0  0.2146
  H  H49  1  0.054700  0.059700  0.767400  1.0  0.2299
  H  H50  1  0.953000  0.125600  0.747300  1.0  0.2608
  H  H51  1  0.055000  0.383000  0.034500  1.0  0.2452
  H  H52  1  0.077500  0.443700  0.953300  1.0  0.2412
  H  H53  1  0.420900  0.646700  0.271100  1.0  0.2476
  H  H54  1  0.520200  0.570200  0.288300  1.0  0.2144
  H  H55  1  0.059700  0.054700  0.267400  1.0  0.2301
  H  H56  1  0.125600  0.953000  0.247300  1.0  0.2591
  H  H57  1  0.383000  0.055000  0.534500  1.0  0.2458
  H  H58  1  0.443700  0.077500  0.453300  1.0  0.2412
  H  H59  1  0.353300  0.579100  0.228900  1.0  0.2467
  H  H60  1  0.429800  0.479800  0.211700  1.0  0.2142
  H  H61  1  0.945300  0.940300  0.232600  1.0  0.2307
  H  H62  1  0.047000  0.874400  0.252700  1.0  0.2608
  H  H63  1  0.945000  0.617000  0.965500  1.0  0.2435
  H  H64  1  0.922500  0.556300  0.046700  1.0  0.2427
  C  C65  1  0.523200  0.365800  0.703600  1.0  -1.04
  C  C66  1  0.879600  0.995800  0.724400  1.0  -1.0359
  C  C67  1  0.613600  0.895200  0.509700  1.0  -1.0244
  C  C68  1  0.634200  0.476800  0.796400  1.0  -1.0376
  C  C69  1  0.004200  0.120400  0.775600  1.0  -1.0362
  C  C70  1  0.104800  0.386400  0.990300  1.0  -1.0265
  C  C71  1  0.476800  0.634200  0.296400  1.0  -1.0362
  C  C72  1  0.120400  0.004200  0.275600  1.0  -1.0373
  C  C73  1  0.386400  0.104800  0.490300  1.0  -1.0242
  C  C74  1  0.365800  0.523200  0.203600  1.0  -1.0407
  C  C75  1  0.995800  0.879600  0.224400  1.0  -1.0344
  C  C76  1  0.895200  0.613600  0.009700  1.0  -1.024
  O  O77  1  0.816500  0.850100  0.757600  1.0  -0.9212
  O  O78  1  0.694700  0.018500  0.744200  1.0  -0.9683
  O  O79  1  0.946500  0.094500  0.596500  1.0  -0.9067
  O  O80  1  0.698200  0.799600  0.643400  1.0  -0.9002
  O  O81  1  0.624700  0.416900  0.567000  1.0  -0.8754
  O  O82  1  0.529600  0.186400  0.734100  1.0  -0.9765
  O  O83  1  0.613400  0.257800  0.582900  1.0  -0.9503
  O  O84  1  0.368300  0.320300  0.732300  1.0  -0.9104
  O  O85  1  0.804300  0.814100  0.512100  1.0  -0.8672
  O  O86  1  0.465900  0.285500  0.849700  1.0  -0.8816
  O  O87  1  0.781800  0.956000  0.867100  1.0  -0.8697
  O  O88  1  0.779800  0.103400  0.602700  1.0  -0.9489
  O  O89  1  0.470000  0.405200  0.551000  1.0  -0.9152
  O  O90  1  0.711900  0.957300  0.582100  1.0  -1.0784
  O  O91  1  0.683600  0.770200  0.401900  1.0  -0.9616
  O  O92  1  0.591600  0.727600  0.533100  1.0  -0.8925
  O  O93  1  0.506400  0.856600  0.426900  1.0  -1.0854
  O  O94  1  0.921200  0.952200  0.570200  1.0  -0.9254
  O  O95  1  0.149900  0.183500  0.742400  1.0  -0.9228
  O  O96  1  0.981500  0.305300  0.755800  1.0  -0.9697
  O  O97  1  0.905500  0.053500  0.903500  1.0  -0.9055
  O  O98  1  0.200400  0.301800  0.856600  1.0  -0.9014
  O  O99  1  0.583100  0.375300  0.933000  1.0  -0.8716
  O  O100  1  0.813600  0.470400  0.765900  1.0  -0.9757
  O  O101  1  0.742200  0.386600  0.917100  1.0  -0.9485
  O  O102  1  0.679700  0.631700  0.767700  1.0  -0.9111
  O  O103  1  0.185900  0.195700  0.987900  1.0  -0.8668
  O  O104  1  0.714500  0.534100  0.650300  1.0  -0.8865
  O  O105  1  0.044000  0.218200  0.632900  1.0  -0.8701
  O  O106  1  0.896600  0.220200  0.897300  1.0  -0.9465
  O  O107  1  0.594800  0.530000  0.949000  1.0  -0.9155
  O  O108  1  0.042700  0.288100  0.917900  1.0  -1.0767
  O  O109  1  0.229800  0.316400  0.098100  1.0  -0.9611
  O  O110  1  0.272400  0.408400  0.966900  1.0  -0.8922
  O  O111  1  0.143400  0.493600  0.073100  1.0  -1.0872
  O  O112  1  0.047800  0.078800  0.929800  1.0  -0.9254
  O  O113  1  0.183500  0.149900  0.242400  1.0  -0.9244
  O  O114  1  0.305300  0.981500  0.255800  1.0  -0.9689
  O  O115  1  0.053500  0.905500  0.403500  1.0  -0.9051
  O  O116  1  0.301800  0.200400  0.356600  1.0  -0.902
  O  O117  1  0.375300  0.583100  0.433000  1.0  -0.8736
  O  O118  1  0.470400  0.813600  0.265900  1.0  -0.9768
  O  O119  1  0.386600  0.742200  0.417100  1.0  -0.9475
  O  O120  1  0.631700  0.679700  0.267700  1.0  -0.9115
  O  O121  1  0.195700  0.185900  0.487900  1.0  -0.8671
  O  O122  1  0.534100  0.714500  0.150300  1.0  -0.8854
  O  O123  1  0.218200  0.044000  0.132900  1.0  -0.8708
  O  O124  1  0.220200  0.896600  0.397300  1.0  -0.948
  O  O125  1  0.530000  0.594800  0.449000  1.0  -0.9159
  O  O126  1  0.288100  0.042700  0.417900  1.0  -1.0764
  O  O127  1  0.316400  0.229800  0.598100  1.0  -0.9608
  O  O128  1  0.408400  0.272400  0.466900  1.0  -0.8912
  O  O129  1  0.493600  0.143400  0.573100  1.0  -1.0856
  O  O130  1  0.078800  0.047800  0.429800  1.0  -0.9259
  O  O131  1  0.850100  0.816500  0.257600  1.0  -0.9222
  O  O132  1  0.018500  0.694700  0.244200  1.0  -0.9687
  O  O133  1  0.094500  0.946500  0.096500  1.0  -0.9068
  O  O134  1  0.799600  0.698200  0.143400  1.0  -0.9003
  O  O135  1  0.416900  0.624700  0.067000  1.0  -0.872
  O  O136  1  0.186400  0.529600  0.234100  1.0  -0.9745
  O  O137  1  0.257800  0.613400  0.082900  1.0  -0.9511
  O  O138  1  0.320300  0.368300  0.232300  1.0  -0.9106
  O  O139  1  0.814100  0.804300  0.012100  1.0  -0.8665
  O  O140  1  0.285500  0.465900  0.349700  1.0  -0.8815
  O  O141  1  0.956000  0.781800  0.367100  1.0  -0.8691
  O  O142  1  0.103400  0.779800  0.102700  1.0  -0.9471
  O  O143  1  0.405200  0.470000  0.051000  1.0  -0.9167
  O  O144  1  0.957300  0.711900  0.082100  1.0  -1.0778
  O  O145  1  0.770200  0.683600  0.901900  1.0  -0.9614
  O  O146  1  0.727600  0.591600  0.033100  1.0  -0.8926
  O  O147  1  0.856600  0.506400  0.926900  1.0  -1.0872
  O  O148  1  0.952200  0.921200  0.070200  1.0  -0.9248
