# generated using pymatgen
data_FeH12(CN2)12
_symmetry_space_group_name_H-M   'P 1'
_cell_length_a   8.02670000
_cell_length_b   19.43070000
_cell_length_c   8.96090000
_cell_angle_alpha   90.00000000
_cell_angle_beta   93.28600000
_cell_angle_gamma   90.00000000
_symmetry_Int_Tables_number   1
_chemical_formula_structural   FeH12(CN2)12
_chemical_formula_sum   'Fe2 H24 C24 N48'
_cell_volume   1395.28355903
_cell_formula_units_Z   2
loop_
 _symmetry_equiv_pos_site_id
 _symmetry_equiv_pos_as_xyz
  1  'x, y, z'
loop_
 _atom_site_type_symbol
 _atom_site_label
 _atom_site_symmetry_multiplicity
 _atom_site_fract_x
 _atom_site_fract_y
 _atom_site_fract_z
 _atom_site_occupancy
 _atom_site_charge
  Fe  Fe1  1  0.000000  0.000000  0.000000  1.0  0.4276
  Fe  Fe2  1  0.500000  0.500000  0.500000  1.0  0.4276
  H  H3  1  0.041500  0.142100  0.165600  1.0  0.1289
  H  H4  1  0.545000  0.157000  0.133100  1.0  0.113
  H  H5  1  0.468000  0.367300  0.297400  1.0  0.1368
  H  H6  1  0.962100  0.351100  0.351700  1.0  0.1061
  H  H7  1  0.389900  0.999200  0.140200  1.0  0.1295
  H  H8  1  0.174800  0.008700  0.533600  1.0  0.1092
  H  H9  1  0.458500  0.642100  0.334400  1.0  0.129
  H  H10  1  0.955000  0.657000  0.366900  1.0  0.1117
  H  H11  1  0.032000  0.867300  0.202600  1.0  0.1353
  H  H12  1  0.537900  0.851100  0.148300  1.0  0.1067
  H  H13  1  0.110100  0.499200  0.359800  1.0  0.1297
  H  H14  1  0.325200  0.508700  0.966400  1.0  0.109
  H  H15  1  0.958500  0.857900  0.834400  1.0  0.1289
  H  H16  1  0.455000  0.843000  0.866900  1.0  0.1111
  H  H17  1  0.532000  0.632700  0.702600  1.0  0.1353
  H  H18  1  0.037900  0.648900  0.648300  1.0  0.1061
  H  H19  1  0.610100  0.000800  0.859800  1.0  0.1297
  H  H20  1  0.825200  0.991300  0.466400  1.0  0.1087
  H  H21  1  0.541500  0.357900  0.665600  1.0  0.1286
  H  H22  1  0.045000  0.343000  0.633100  1.0  0.1129
  H  H23  1  0.968000  0.132700  0.797400  1.0  0.1365
  H  H24  1  0.462100  0.148900  0.851700  1.0  0.1061
  H  H25  1  0.889900  0.500800  0.640200  1.0  0.1295
  H  H26  1  0.674800  0.491300  0.033600  1.0  0.109
  C  C27  1  0.926700  0.132500  0.143100  1.0  0.1467
  C  C28  1  0.655300  0.140100  0.125600  1.0  0.1289
  C  C29  1  0.581800  0.376400  0.325400  1.0  0.1449
  C  C30  1  0.851500  0.368100  0.355200  1.0  0.1508
  C  C31  1  0.309300  0.001600  0.213600  1.0  0.1571
  C  C32  1  0.190200  0.006800  0.429300  1.0  0.1281
  C  C33  1  0.573300  0.632500  0.356900  1.0  0.1453
  C  C34  1  0.844700  0.640100  0.374400  1.0  0.1286
  C  C35  1  0.918200  0.876400  0.174600  1.0  0.1451
  C  C36  1  0.648500  0.868100  0.144800  1.0  0.1522
  C  C37  1  0.190700  0.501600  0.286400  1.0  0.1568
  C  C38  1  0.309800  0.506800  0.070700  1.0  0.1276
  C  C39  1  0.073300  0.867500  0.856900  1.0  0.1456
  C  C40  1  0.344700  0.859900  0.874400  1.0  0.1289
  C  C41  1  0.418200  0.623600  0.674600  1.0  0.1443
  C  C42  1  0.148500  0.631900  0.644800  1.0  0.15
  C  C43  1  0.690700  0.998400  0.786400  1.0  0.1568
  C  C44  1  0.809800  0.993200  0.570700  1.0  0.1271
  C  C45  1  0.426700  0.367500  0.643100  1.0  0.1462
  C  C46  1  0.155300  0.359900  0.625600  1.0  0.1306
  C  C47  1  0.081800  0.123600  0.825400  1.0  0.1442
  C  C48  1  0.351500  0.131900  0.855200  1.0  0.1501
  C  C49  1  0.809300  0.498400  0.713600  1.0  0.1572
  C  C50  1  0.690200  0.493200  0.929300  1.0  0.1275
  N  N51  1  0.867200  0.076400  0.080600  1.0  -0.183
  N  N52  1  0.693400  0.080800  0.070900  1.0  -0.276
  N  N53  1  0.798200  0.174800  0.170800  1.0  0.1583
  N  N54  1  0.822400  0.240200  0.232500  1.0  -0.2895
  N  N55  1  0.688500  0.272300  0.225800  1.0  -0.2667
  N  N56  1  0.712900  0.337000  0.289600  1.0  0.1416
  N  N57  1  0.636500  0.428900  0.404500  1.0  -0.2014
  N  N58  1  0.810700  0.424000  0.422600  1.0  -0.2713
  N  N59  1  0.147200  0.003300  0.187600  1.0  -0.1579
  N  N60  1  0.071100  0.006800  0.325000  1.0  -0.2787
  N  N61  1  0.342200  0.003700  0.365800  1.0  0.138
  N  N62  1  0.502900  0.000800  0.430900  1.0  -0.3005
  N  N63  1  0.632800  0.576400  0.419400  1.0  -0.1827
  N  N64  1  0.806600  0.580800  0.429100  1.0  -0.2758
  N  N65  1  0.701800  0.674800  0.329200  1.0  0.1577
  N  N66  1  0.677600  0.740200  0.267500  1.0  -0.2888
  N  N67  1  0.811500  0.772300  0.274200  1.0  -0.2664
  N  N68  1  0.787100  0.837000  0.210400  1.0  0.1416
  N  N69  1  0.863500  0.928900  0.095500  1.0  -0.2018
  N  N70  1  0.689300  0.924000  0.077400  1.0  -0.2715
  N  N71  1  0.352800  0.503300  0.312400  1.0  -0.1591
  N  N72  1  0.428900  0.506800  0.175000  1.0  -0.2794
  N  N73  1  0.157800  0.503700  0.134200  1.0  0.1381
  N  N74  1  0.997100  0.500800  0.069100  1.0  -0.303
  N  N75  1  0.132800  0.923600  0.919400  1.0  -0.1832
  N  N76  1  0.306600  0.919200  0.929100  1.0  -0.2762
  N  N77  1  0.201800  0.825200  0.829200  1.0  0.1565
  N  N78  1  0.177600  0.759800  0.767500  1.0  -0.289
  N  N79  1  0.311500  0.727700  0.774200  1.0  -0.2671
  N  N80  1  0.287100  0.663000  0.710400  1.0  0.1413
  N  N81  1  0.363500  0.571100  0.595500  1.0  -0.2021
  N  N82  1  0.189300  0.576000  0.577400  1.0  -0.2712
  N  N83  1  0.852800  0.996700  0.812400  1.0  -0.1592
  N  N84  1  0.928900  0.993200  0.675000  1.0  -0.2796
  N  N85  1  0.657800  0.996300  0.634200  1.0  0.1357
  N  N86  1  0.497100  0.999200  0.569100  1.0  -0.303
  N  N87  1  0.367200  0.423600  0.580600  1.0  -0.1832
  N  N88  1  0.193400  0.419200  0.570900  1.0  -0.2766
  N  N89  1  0.298200  0.325200  0.670800  1.0  0.1587
  N  N90  1  0.322400  0.259800  0.732500  1.0  -0.2892
  N  N91  1  0.188500  0.227700  0.725800  1.0  -0.2659
  N  N92  1  0.212900  0.163000  0.789600  1.0  0.1423
  N  N93  1  0.136500  0.071100  0.904500  1.0  -0.2018
  N  N94  1  0.310700  0.076000  0.922600  1.0  -0.2712
  N  N95  1  0.647200  0.496700  0.687600  1.0  -0.1579
  N  N96  1  0.571100  0.493200  0.825000  1.0  -0.279
  N  N97  1  0.842200  0.496300  0.865800  1.0  0.1361
  N  N98  1  0.002900  0.499200  0.930900  1.0  -0.3004
