# generated using pymatgen
data_FeH12(CN2)12
_symmetry_space_group_name_H-M   'P 1'
_cell_length_a   8.14460000
_cell_length_b   20.26030000
_cell_length_c   8.85150000
_cell_angle_alpha   90.00000000
_cell_angle_beta   90.06100000
_cell_angle_gamma   90.00000000
_symmetry_Int_Tables_number   1
_chemical_formula_structural   FeH12(CN2)12
_chemical_formula_sum   'Fe2 H24 C24 N48'
_cell_volume   1460.60323879
_cell_formula_units_Z   2
loop_
 _symmetry_equiv_pos_site_id
 _symmetry_equiv_pos_as_xyz
  1  'x, y, z'
loop_
 _atom_site_type_symbol
 _atom_site_label
 _atom_site_symmetry_multiplicity
 _atom_site_fract_x
 _atom_site_fract_y
 _atom_site_fract_z
 _atom_site_occupancy
 _atom_site_charge
  Fe  Fe1  1  0.000000  0.000000  0.000000  1.0  0.4235
  Fe  Fe2  1  0.500000  0.500000  0.500000  1.0  0.4235
  H  H3  1  0.026000  0.852000  0.834000  1.0  0.083
  H  H4  1  0.561000  0.839600  0.850000  1.0  0.2999
  H  H5  1  0.969000  0.646800  0.673000  1.0  0.0471
  H  H6  1  0.497000  0.632000  0.705000  1.0  0.2836
  H  H7  1  0.397000  0.999300  0.855000  1.0  0.1252
  H  H8  1  0.182000  0.997000  0.467000  1.0  0.219
  H  H9  1  0.474000  0.352000  0.666000  1.0  0.0845
  H  H10  1  0.939000  0.339600  0.650000  1.0  0.3015
  H  H11  1  0.531000  0.146800  0.827000  1.0  0.0481
  H  H12  1  0.003000  0.132000  0.795000  1.0  0.2848
  H  H13  1  0.103000  0.499300  0.645000  1.0  0.1254
  H  H14  1  0.318000  0.497000  0.033000  1.0  0.219
  H  H15  1  0.974000  0.148000  0.166000  1.0  0.0841
  H  H16  1  0.439000  0.160400  0.150000  1.0  0.3016
  H  H17  1  0.031000  0.353200  0.327000  1.0  0.0478
  H  H18  1  0.503000  0.368000  0.295000  1.0  0.2852
  H  H19  1  0.603000  0.000700  0.145000  1.0  0.1255
  H  H20  1  0.818000  0.003000  0.533000  1.0  0.2191
  H  H21  1  0.526000  0.648000  0.334000  1.0  0.0833
  H  H22  1  0.061000  0.660400  0.350000  1.0  0.3009
  H  H23  1  0.469000  0.853200  0.173000  1.0  0.0469
  H  H24  1  0.997000  0.868000  0.205000  1.0  0.2839
  H  H25  1  0.897000  0.500700  0.355000  1.0  0.1252
  H  H26  1  0.682000  0.503000  0.967000  1.0  0.2191
  C  C27  1  0.913400  0.863100  0.854300  1.0  0.0821
  C  C28  1  0.652600  0.854200  0.867600  1.0  0.2284
  C  C29  1  0.858300  0.634300  0.662700  1.0  0.1063
  C  C30  1  0.596700  0.625200  0.683600  1.0  0.1888
  C  C31  1  0.319500  0.998510  0.781500  1.0  0.129
  C  C32  1  0.199600  0.998000  0.563200  1.0  0.2023
  C  C33  1  0.586600  0.363100  0.645700  1.0  0.0821
  C  C34  1  0.847400  0.354200  0.632400  1.0  0.2278
  C  C35  1  0.641700  0.134300  0.837300  1.0  0.1058
  C  C36  1  0.903300  0.125200  0.816400  1.0  0.1895
  C  C37  1  0.180500  0.498510  0.718500  1.0  0.1288
  C  C38  1  0.300400  0.498000  0.936800  1.0  0.2007
  C  C39  1  0.086600  0.136900  0.145700  1.0  0.0816
  C  C40  1  0.347400  0.145800  0.132400  1.0  0.2281
  C  C41  1  0.141700  0.365700  0.337300  1.0  0.1064
  C  C42  1  0.403300  0.374800  0.316400  1.0  0.1897
  C  C43  1  0.680500  0.001490  0.218500  1.0  0.1287
  C  C44  1  0.800400  0.002000  0.436800  1.0  0.2007
  C  C45  1  0.413400  0.636900  0.354300  1.0  0.0823
  C  C46  1  0.152600  0.645800  0.367600  1.0  0.2284
  C  C47  1  0.358300  0.865700  0.162700  1.0  0.1068
  C  C48  1  0.096700  0.874800  0.183600  1.0  0.1906
  C  C49  1  0.819500  0.501490  0.281500  1.0  0.1289
  C  C50  1  0.699600  0.502000  0.063200  1.0  0.2022
  N  N51  1  0.857000  0.918700  0.904500  1.0  -0.2156
  N  N52  1  0.688000  0.914000  0.912300  1.0  -0.276
  N  N53  1  0.791000  0.821400  0.831000  1.0  0.0634
  N  N54  1  0.821700  0.756610  0.774500  1.0  -0.3173
  N  N55  1  0.692000  0.729240  0.776100  1.0  -0.3267
  N  N56  1  0.723200  0.664460  0.716400  1.0  0.046
  N  N57  1  0.649000  0.573450  0.614300  1.0  -0.2095
  N  N58  1  0.819100  0.578410  0.601900  1.0  -0.3071
  N  N59  1  0.162500  0.996350  0.804200  1.0  -0.19
  N  N60  1  0.085300  0.995840  0.664000  1.0  -0.2823
  N  N61  1  0.349000  0.998800  0.631000  1.0  0.119
  N  N62  1  0.503700  0.001170  0.569800  1.0  -0.3077
  N  N63  1  0.643000  0.418700  0.595500  1.0  -0.2158
  N  N64  1  0.812000  0.414000  0.587700  1.0  -0.2738
  N  N65  1  0.709000  0.321400  0.669000  1.0  0.0631
  N  N66  1  0.678300  0.256610  0.725500  1.0  -0.3156
  N  N67  1  0.808000  0.229240  0.723900  1.0  -0.328
  N  N68  1  0.776800  0.164460  0.783600  1.0  0.0433
  N  N69  1  0.851000  0.073450  0.885700  1.0  -0.2092
  N  N70  1  0.680900  0.078410  0.898100  1.0  -0.307
  N  N71  1  0.337500  0.496350  0.695800  1.0  -0.1915
  N  N72  1  0.414700  0.495840  0.836000  1.0  -0.2818
  N  N73  1  0.151000  0.498800  0.869000  1.0  0.1168
  N  N74  1  0.996300  0.501170  0.930200  1.0  -0.3079
  N  N75  1  0.143000  0.081300  0.095500  1.0  -0.2139
  N  N76  1  0.312000  0.086000  0.087700  1.0  -0.2751
  N  N77  1  0.209000  0.178600  0.169000  1.0  0.0618
  N  N78  1  0.178300  0.243390  0.225500  1.0  -0.3149
  N  N79  1  0.308000  0.270760  0.223900  1.0  -0.3282
  N  N80  1  0.276800  0.335540  0.283600  1.0  0.0421
  N  N81  1  0.351000  0.426550  0.385700  1.0  -0.2109
  N  N82  1  0.180900  0.421590  0.398100  1.0  -0.3081
  N  N83  1  0.837500  0.003650  0.195800  1.0  -0.1913
  N  N84  1  0.914700  0.004160  0.336000  1.0  -0.2814
  N  N85  1  0.651000  0.001200  0.369000  1.0  0.1119
  N  N86  1  0.496300  0.998830  0.430200  1.0  -0.3076
  N  N87  1  0.357000  0.581300  0.404500  1.0  -0.2136
  N  N88  1  0.188000  0.586000  0.412300  1.0  -0.2762
  N  N89  1  0.291000  0.678600  0.331000  1.0  0.0623
  N  N90  1  0.321700  0.743390  0.274500  1.0  -0.3175
  N  N91  1  0.192000  0.770760  0.276100  1.0  -0.327
  N  N92  1  0.223200  0.835540  0.216400  1.0  0.0454
  N  N93  1  0.149000  0.926550  0.114300  1.0  -0.2114
  N  N94  1  0.319100  0.921590  0.101900  1.0  -0.3078
  N  N95  1  0.662500  0.503650  0.304200  1.0  -0.1899
  N  N96  1  0.585300  0.504160  0.164000  1.0  -0.2816
  N  N97  1  0.849000  0.501200  0.131000  1.0  0.1142
  N  N98  1  0.003700  0.498830  0.069800  1.0  -0.3075
