# generated using pymatgen
data_FeH12(CN2)12
_symmetry_space_group_name_H-M   'P 1'
_cell_length_a   8.03060000
_cell_length_b   19.40800000
_cell_length_c   8.88620000
_cell_angle_alpha   90.00000000
_cell_angle_beta   92.81600000
_cell_angle_gamma   90.00000000
_symmetry_Int_Tables_number   1
_chemical_formula_structural   FeH12(CN2)12
_chemical_formula_sum   'Fe2 H24 C24 N48'
_cell_volume   1383.31190773
_cell_formula_units_Z   2
loop_
 _symmetry_equiv_pos_site_id
 _symmetry_equiv_pos_as_xyz
  1  'x, y, z'
loop_
 _atom_site_type_symbol
 _atom_site_label
 _atom_site_symmetry_multiplicity
 _atom_site_fract_x
 _atom_site_fract_y
 _atom_site_fract_z
 _atom_site_occupancy
 _atom_site_charge
  Fe  Fe1  1  0.000000  0.000000  0.000000  1.0  0.5034
  Fe  Fe2  1  0.500000  0.500000  0.500000  1.0  0.5034
  H  H3  1  0.033900  0.143300  0.164600  1.0  0.1137
  H  H4  1  0.549100  0.162300  0.123000  1.0  0.1083
  H  H5  1  0.481000  0.367200  0.297900  1.0  0.1151
  H  H6  1  0.964900  0.353700  0.333100  1.0  0.1021
  H  H7  1  0.393700  0.002200  0.147100  1.0  0.1232
  H  H8  1  0.179900  0.003600  0.536900  1.0  0.1026
  H  H9  1  0.466100  0.643300  0.335400  1.0  0.1151
  H  H10  1  0.950900  0.662300  0.377000  1.0  0.1067
  H  H11  1  0.019000  0.867200  0.202100  1.0  0.1133
  H  H12  1  0.535100  0.853700  0.166900  1.0  0.1029
  H  H13  1  0.106300  0.502200  0.352900  1.0  0.123
  H  H14  1  0.320100  0.503600  0.963100  1.0  0.1033
  H  H15  1  0.966100  0.856700  0.835400  1.0  0.1149
  H  H16  1  0.450900  0.837700  0.877000  1.0  0.1061
  H  H17  1  0.519000  0.632800  0.702100  1.0  0.1129
  H  H18  1  0.035100  0.646300  0.666900  1.0  0.1028
  H  H19  1  0.606300  0.997800  0.852900  1.0  0.1228
  H  H20  1  0.820100  0.996400  0.463100  1.0  0.1033
  H  H21  1  0.533900  0.356700  0.664600  1.0  0.1137
  H  H22  1  0.049100  0.337700  0.623000  1.0  0.1084
  H  H23  1  0.981000  0.132800  0.797900  1.0  0.115
  H  H24  1  0.464900  0.146300  0.833100  1.0  0.1024
  H  H25  1  0.893700  0.497800  0.647100  1.0  0.1229
  H  H26  1  0.679900  0.496400  0.036900  1.0  0.1026
  C  C27  1  0.921700  0.134600  0.141200  1.0  0.1507
  C  C28  1  0.656800  0.145000  0.118700  1.0  0.1374
  C  C29  1  0.592700  0.376800  0.321400  1.0  0.1612
  C  C30  1  0.856500  0.369800  0.339700  1.0  0.1455
  C  C31  1  0.313800  0.002700  0.219400  1.0  0.1584
  C  C32  1  0.194800  0.003700  0.433700  1.0  0.132
  C  C33  1  0.578300  0.634600  0.358800  1.0  0.1511
  C  C34  1  0.843200  0.645000  0.381300  1.0  0.1372
  C  C35  1  0.907300  0.876800  0.178600  1.0  0.1601
  C  C36  1  0.643500  0.869800  0.160300  1.0  0.146
  C  C37  1  0.186200  0.502700  0.280600  1.0  0.1592
  C  C38  1  0.305200  0.503700  0.066300  1.0  0.1328
  C  C39  1  0.078300  0.865400  0.858800  1.0  0.1503
  C  C40  1  0.343200  0.855000  0.881300  1.0  0.1375
  C  C41  1  0.407300  0.623200  0.678600  1.0  0.1602
  C  C42  1  0.143500  0.630200  0.660300  1.0  0.1458
  C  C43  1  0.686200  0.997300  0.780600  1.0  0.1594
  C  C44  1  0.805200  0.996300  0.566300  1.0  0.1329
  C  C45  1  0.421700  0.365400  0.641200  1.0  0.1498
  C  C46  1  0.156800  0.355000  0.618700  1.0  0.1377
  C  C47  1  0.092700  0.123200  0.821400  1.0  0.161
  C  C48  1  0.356500  0.130200  0.839700  1.0  0.1458
  C  C49  1  0.813800  0.497300  0.719400  1.0  0.1586
  C  C50  1  0.694800  0.496300  0.933700  1.0  0.1322
  N  N51  1  0.863800  0.080100  0.084000  1.0  -0.1999
  N  N52  1  0.694400  0.086300  0.069800  1.0  -0.2476
  N  N53  1  0.796200  0.178300  0.163300  1.0  0.142
  N  N54  1  0.825400  0.243400  0.223900  1.0  -0.2965
  N  N55  1  0.693300  0.274500  0.222400  1.0  -0.2666
  N  N56  1  0.720500  0.338100  0.282300  1.0  0.1139
  N  N57  1  0.646000  0.429100  0.395600  1.0  -0.2159
  N  N58  1  0.816500  0.425200  0.404500  1.0  -0.2568
  N  N59  1  0.154500  0.003600  0.192800  1.0  -0.1794
  N  N60  1  0.079200  0.004900  0.331700  1.0  -0.2584
  N  N61  1  0.344400  0.002500  0.368200  1.0  0.1532
  N  N62  1  0.501800  0.999900  0.430600  1.0  -0.2896
  N  N63  1  0.636200  0.580100  0.416000  1.0  -0.1992
  N  N64  1  0.805600  0.586300  0.430200  1.0  -0.2475
  N  N65  1  0.703800  0.678300  0.336700  1.0  0.1421
  N  N66  1  0.674600  0.743400  0.276100  1.0  -0.2948
  N  N67  1  0.806700  0.774500  0.277600  1.0  -0.2699
  N  N68  1  0.779500  0.838100  0.217700  1.0  0.1152
  N  N69  1  0.854000  0.929100  0.104400  1.0  -0.2155
  N  N70  1  0.683500  0.925200  0.095500  1.0  -0.2575
  N  N71  1  0.345500  0.503600  0.307200  1.0  -0.1791
  N  N72  1  0.420800  0.504900  0.168300  1.0  -0.2595
  N  N73  1  0.155600  0.502500  0.131800  1.0  0.152
  N  N74  1  0.998200  0.499900  0.069400  1.0  -0.2902
  N  N75  1  0.136200  0.919900  0.916000  1.0  -0.1993
  N  N76  1  0.305600  0.913700  0.930200  1.0  -0.2478
  N  N77  1  0.203800  0.821700  0.836700  1.0  0.1413
  N  N78  1  0.174600  0.756600  0.776100  1.0  -0.295
  N  N79  1  0.306700  0.725500  0.777600  1.0  -0.2703
  N  N80  1  0.279500  0.661900  0.717700  1.0  0.1164
  N  N81  1  0.354000  0.570900  0.604400  1.0  -0.2155
  N  N82  1  0.183500  0.574800  0.595500  1.0  -0.2567
  N  N83  1  0.845500  0.996400  0.807200  1.0  -0.1793
  N  N84  1  0.920800  0.995100  0.668300  1.0  -0.2593
  N  N85  1  0.655600  0.997500  0.631800  1.0  0.1521
  N  N86  1  0.498200  0.000100  0.569400  1.0  -0.2902
  N  N87  1  0.363800  0.419900  0.584000  1.0  -0.1995
  N  N88  1  0.194400  0.413700  0.569800  1.0  -0.2482
  N  N89  1  0.296200  0.321700  0.663300  1.0  0.1417
  N  N90  1  0.325400  0.256600  0.723900  1.0  -0.2962
  N  N91  1  0.193300  0.225500  0.722400  1.0  -0.2658
  N  N92  1  0.220500  0.161900  0.782300  1.0  0.1156
  N  N93  1  0.146000  0.070900  0.895600  1.0  -0.2153
  N  N94  1  0.316500  0.074800  0.904500  1.0  -0.2565
  N  N95  1  0.654500  0.496400  0.692800  1.0  -0.1796
  N  N96  1  0.579200  0.495100  0.831700  1.0  -0.2585
  N  N97  1  0.844400  0.497500  0.868200  1.0  0.1537
  N  N98  1  0.001800  0.500100  0.930600  1.0  -0.2895
