# generated using pymatgen
data_FeH12(CN2)12
_symmetry_space_group_name_H-M   'P 1'
_cell_length_a   8.01120000
_cell_length_b   19.43920000
_cell_length_c   8.96480000
_cell_angle_alpha   90.00000000
_cell_angle_beta   93.38200000
_cell_angle_gamma   90.00000000
_symmetry_Int_Tables_number   1
_chemical_formula_structural   FeH12(CN2)12
_chemical_formula_sum   'Fe2 H24 C24 N48'
_cell_volume   1393.66869534
_cell_formula_units_Z   2
loop_
 _symmetry_equiv_pos_site_id
 _symmetry_equiv_pos_as_xyz
  1  'x, y, z'
loop_
 _atom_site_type_symbol
 _atom_site_label
 _atom_site_symmetry_multiplicity
 _atom_site_fract_x
 _atom_site_fract_y
 _atom_site_fract_z
 _atom_site_occupancy
 _atom_site_charge
  Fe  Fe1  1  0.000000  0.000000  0.000000  1.0  0.3002
  Fe  Fe2  1  0.500000  0.500000  0.500000  1.0  0.3009
  H  H3  1  0.612000  0.001000  0.856000  1.0  0.131
  H  H4  1  0.830000  0.994200  0.472000  1.0  0.1195
  H  H5  1  0.534000  0.358000  0.668000  1.0  0.1355
  H  H6  1  0.043000  0.346800  0.650000  1.0  0.1018
  H  H7  1  0.973000  0.136400  0.802000  1.0  0.251
  H  H8  1  0.460000  0.154200  0.860000  1.0  0.1181
  H  H9  1  0.888000  0.501000  0.644000  1.0  0.1312
  H  H10  1  0.670000  0.494200  0.028000  1.0  0.1198
  H  H11  1  0.966000  0.858000  0.832000  1.0  0.1377
  H  H12  1  0.457000  0.846800  0.850000  1.0  0.101
  H  H13  1  0.527000  0.636400  0.698000  1.0  0.2478
  H  H14  1  0.040000  0.654200  0.640000  1.0  0.1185
  H  H15  1  0.388000  0.999000  0.144000  1.0  0.1312
  H  H16  1  0.170000  0.005800  0.528000  1.0  0.1198
  H  H17  1  0.466000  0.642000  0.332000  1.0  0.1368
  H  H18  1  0.957000  0.653200  0.350000  1.0  0.1014
  H  H19  1  0.027000  0.863600  0.198000  1.0  0.2477
  H  H20  1  0.540000  0.845800  0.140000  1.0  0.1189
  H  H21  1  0.112000  0.499000  0.356000  1.0  0.131
  H  H22  1  0.330000  0.505800  0.972000  1.0  0.1196
  H  H23  1  0.034000  0.142000  0.168000  1.0  0.1349
  H  H24  1  0.543000  0.153200  0.150000  1.0  0.1017
  H  H25  1  0.473000  0.363600  0.302000  1.0  0.2508
  H  H26  1  0.960000  0.345800  0.360000  1.0  0.1178
  C  C27  1  0.690800  0.999140  0.785500  1.0  0.1596
  C  C28  1  0.809300  0.995510  0.571400  1.0  0.1436
  C  C29  1  0.423700  0.369600  0.648700  1.0  0.1347
  C  C30  1  0.151400  0.364170  0.638000  1.0  0.1221
  C  C31  1  0.077600  0.125640  0.830800  1.0  0.1528
  C  C32  1  0.347500  0.136740  0.865400  1.0  0.1295
  C  C33  1  0.809200  0.499140  0.714500  1.0  0.1598
  C  C34  1  0.690700  0.495510  0.928600  1.0  0.1435
  C  C35  1  0.076300  0.869600  0.851300  1.0  0.1345
  C  C36  1  0.348600  0.864170  0.862000  1.0  0.1213
  C  C37  1  0.422400  0.625640  0.669200  1.0  0.1523
  C  C38  1  0.152500  0.636740  0.634600  1.0  0.1293
  C  C39  1  0.309200  0.000860  0.214500  1.0  0.1597
  C  C40  1  0.190700  0.004490  0.428600  1.0  0.1436
  C  C41  1  0.576300  0.630400  0.351300  1.0  0.1345
  C  C42  1  0.848600  0.635830  0.362000  1.0  0.1222
  C  C43  1  0.922400  0.874360  0.169200  1.0  0.1524
  C  C44  1  0.652500  0.863260  0.134600  1.0  0.1271
  C  C45  1  0.190800  0.500860  0.285500  1.0  0.1597
  C  C46  1  0.309300  0.504490  0.071400  1.0  0.1435
  C  C47  1  0.923700  0.130400  0.148700  1.0  0.1342
  C  C48  1  0.651400  0.135830  0.138000  1.0  0.1214
  C  C49  1  0.577600  0.374360  0.330800  1.0  0.1524
  C  C50  1  0.847500  0.363260  0.365400  1.0  0.1264
  N  N51  1  0.852700  0.998030  0.812800  1.0  -0.1874
  N  N52  1  0.928400  0.995560  0.675600  1.0  -0.2487
  N  N53  1  0.657600  0.997740  0.634500  1.0  0.1512
  N  N54  1  0.497600  0.999510  0.569000  1.0  -0.3071
  N  N55  1  0.133400  0.073090  0.908800  1.0  -0.1928
  N  N56  1  0.307000  0.079550  0.929400  1.0  -0.2763
  N  N57  1  0.207800  0.167020  0.800400  1.0  0.1285
  N  N58  1  0.183400  0.231470  0.735800  1.0  -0.2665
  N  N59  1  0.365400  0.425590  0.585300  1.0  -0.2059
  N  N60  1  0.190600  0.422590  0.579600  1.0  -0.277
  N  N61  1  0.293900  0.328580  0.681400  1.0  0.1375
  N  N62  1  0.316800  0.263860  0.744200  1.0  -0.3036
  N  N63  1  0.647300  0.498030  0.687200  1.0  -0.1864
  N  N64  1  0.571600  0.495560  0.824400  1.0  -0.2497
  N  N65  1  0.842400  0.497740  0.865500  1.0  0.1527
  N  N66  1  0.002400  0.499510  0.931000  1.0  -0.3051
  N  N67  1  0.366600  0.573090  0.591200  1.0  -0.1928
  N  N68  1  0.193000  0.579550  0.570600  1.0  -0.2763
  N  N69  1  0.292200  0.667020  0.699600  1.0  0.1299
  N  N70  1  0.316600  0.731470  0.764200  1.0  -0.267
  N  N71  1  0.134600  0.925590  0.914700  1.0  -0.2054
  N  N72  1  0.309400  0.922590  0.920400  1.0  -0.2775
  N  N73  1  0.206100  0.828580  0.818600  1.0  0.1365
  N  N74  1  0.183200  0.763860  0.755800  1.0  -0.3014
  N  N75  1  0.147300  0.001970  0.187200  1.0  -0.1864
  N  N76  1  0.071600  0.004440  0.324400  1.0  -0.2494
  N  N77  1  0.342400  0.002260  0.365500  1.0  0.1518
  N  N78  1  0.502400  0.000490  0.431000  1.0  -0.3051
  N  N79  1  0.866600  0.926910  0.091200  1.0  -0.1928
  N  N80  1  0.693000  0.920450  0.070600  1.0  -0.2767
  N  N81  1  0.792200  0.832980  0.199600  1.0  0.1297
  N  N82  1  0.816600  0.768530  0.264200  1.0  -0.2666
  N  N83  1  0.634600  0.574410  0.414700  1.0  -0.2059
  N  N84  1  0.809400  0.577410  0.420400  1.0  -0.2764
  N  N85  1  0.706100  0.671420  0.318600  1.0  0.1358
  N  N86  1  0.683200  0.736140  0.255800  1.0  -0.3007
  N  N87  1  0.352700  0.501970  0.312800  1.0  -0.1874
  N  N88  1  0.428400  0.504440  0.175600  1.0  -0.2486
  N  N89  1  0.157600  0.502260  0.134500  1.0  0.1502
  N  N90  1  0.997600  0.500490  0.069000  1.0  -0.3071
  N  N91  1  0.633400  0.426910  0.408800  1.0  -0.1931
  N  N92  1  0.807000  0.420450  0.429400  1.0  -0.2764
  N  N93  1  0.707800  0.332980  0.300400  1.0  0.1276
  N  N94  1  0.683400  0.268530  0.235800  1.0  -0.2675
  N  N95  1  0.865400  0.074410  0.085300  1.0  -0.2062
  N  N96  1  0.690600  0.077410  0.079600  1.0  -0.2756
  N  N97  1  0.793900  0.171420  0.181400  1.0  0.1359
  N  N98  1  0.816800  0.236140  0.244200  1.0  -0.3041
