# generated using pymatgen
data_NiH5C5SNO4
_symmetry_space_group_name_H-M   'P 1'
_cell_length_a   12.29860000
_cell_length_b   12.29860000
_cell_length_c   5.24440000
_cell_angle_alpha   90.00000000
_cell_angle_beta   90.00000000
_cell_angle_gamma   90.00000000
_symmetry_Int_Tables_number   1
_chemical_formula_structural   NiH5C5SNO4
_chemical_formula_sum   'Ni4 H20 C20 S4 N4 O16'
_cell_volume   793.24466914
_cell_formula_units_Z   4
loop_
 _symmetry_equiv_pos_site_id
 _symmetry_equiv_pos_as_xyz
  1  'x, y, z'
loop_
 _atom_site_type_symbol
 _atom_site_label
 _atom_site_symmetry_multiplicity
 _atom_site_fract_x
 _atom_site_fract_y
 _atom_site_fract_z
 _atom_site_occupancy
 _atom_site_charge
  Ni  Ni1  1  0.012250  0.679290  0.256100  1.0  0.7909
  Ni  Ni2  1  0.987750  0.320710  0.756100  1.0  0.7873
  Ni  Ni3  1  0.320710  0.012250  0.506100  1.0  0.7917
  Ni  Ni4  1  0.679290  0.987750  0.006100  1.0  0.7879
  H  H5  1  0.906500  0.595700  0.881200  1.0  0.1376
  H  H6  1  0.828500  0.459200  0.109700  1.0  0.1012
  H  H7  1  0.661800  0.619000  0.897000  1.0  0.1406
  H  H8  1  0.626400  0.711400  0.088800  1.0  0.1712
  H  H9  1  0.803200  0.738800  0.865200  1.0  0.1102
  H  H10  1  0.093500  0.404300  0.381200  1.0  0.1418
  H  H11  1  0.171500  0.540800  0.609700  1.0  0.101
  H  H12  1  0.338200  0.381000  0.397000  1.0  0.1402
  H  H13  1  0.373600  0.288600  0.588800  1.0  0.1715
  H  H14  1  0.196800  0.261200  0.365200  1.0  0.1108
  H  H15  1  0.404300  0.906500  0.131200  1.0  0.1403
  H  H16  1  0.540800  0.828500  0.359700  1.0  0.1009
  H  H17  1  0.381000  0.661800  0.147000  1.0  0.1403
  H  H18  1  0.288600  0.626400  0.338800  1.0  0.1715
  H  H19  1  0.261200  0.803200  0.115200  1.0  0.1094
  H  H20  1  0.595700  0.093500  0.631200  1.0  0.135
  H  H21  1  0.459200  0.171500  0.859700  1.0  0.1009
  H  H22  1  0.619000  0.338200  0.647000  1.0  0.1407
  H  H23  1  0.711400  0.373600  0.838800  1.0  0.1713
  H  H24  1  0.738800  0.196800  0.615200  1.0  0.1101
  C  C25  1  0.813800  0.795500  0.236100  1.0  0.6939
  C  C26  1  0.897100  0.502200  0.457500  1.0  0.6425
  C  C27  1  0.830600  0.524600  0.216400  1.0  0.051
  C  C28  1  0.680800  0.656300  0.053800  1.0  -0.2654
  C  C29  1  0.794400  0.706800  0.035100  1.0  0.0494
  C  C30  1  0.186200  0.204500  0.736100  1.0  0.6915
  C  C31  1  0.102900  0.497800  0.957500  1.0  0.642
  C  C32  1  0.169400  0.475400  0.716400  1.0  0.0507
  C  C33  1  0.319200  0.343700  0.553800  1.0  -0.2645
  C  C34  1  0.205600  0.293200  0.535100  1.0  0.0496
  C  C35  1  0.204500  0.813800  0.486100  1.0  0.6869
  C  C36  1  0.497800  0.897100  0.707500  1.0  0.6441
  C  C37  1  0.475400  0.830600  0.466400  1.0  0.049
  C  C38  1  0.343700  0.680800  0.303800  1.0  -0.265
  C  C39  1  0.293200  0.794400  0.285100  1.0  0.0455
  C  C40  1  0.795500  0.186200  0.986100  1.0  0.6864
  C  C41  1  0.502200  0.102900  0.207500  1.0  0.6438
  C  C42  1  0.524600  0.169400  0.966400  1.0  0.0531
  C  C43  1  0.656300  0.319200  0.803800  1.0  -0.2652
  C  C44  1  0.706800  0.205600  0.785100  1.0  0.0488
  S  S45  1  0.691500  0.561270  0.316430  1.0  0.039
  S  S46  1  0.308500  0.438730  0.816430  1.0  0.0383
  S  S47  1  0.438730  0.691500  0.566430  1.0  0.0395
  S  S48  1  0.561270  0.308500  0.066430  1.0  0.04
  N  N49  1  0.875400  0.617700  0.066700  1.0  -0.2832
  N  N50  1  0.124600  0.382300  0.566700  1.0  -0.2848
  N  N51  1  0.382300  0.875400  0.316700  1.0  -0.2826
  N  N52  1  0.617700  0.124600  0.816700  1.0  -0.284
  O  O53  1  0.873100  0.416300  0.576000  1.0  -0.5873
  O  O54  1  0.968500  0.569290  0.525300  1.0  -0.5908
  O  O55  1  0.744300  0.872260  0.255200  1.0  -0.6338
  O  O56  1  0.897400  0.790800  0.374100  1.0  -0.5601
  O  O57  1  0.126900  0.583700  0.076000  1.0  -0.587
  O  O58  1  0.031500  0.430710  0.025300  1.0  -0.5903
  O  O59  1  0.255700  0.127740  0.755200  1.0  -0.6338
  O  O60  1  0.102600  0.209200  0.874100  1.0  -0.561
  O  O61  1  0.583700  0.873100  0.826000  1.0  -0.5861
  O  O62  1  0.430710  0.968500  0.775300  1.0  -0.5918
  O  O63  1  0.127740  0.744300  0.505200  1.0  -0.6347
  O  O64  1  0.209200  0.897400  0.624100  1.0  -0.5625
  O  O65  1  0.416300  0.126900  0.326000  1.0  -0.5868
  O  O66  1  0.569290  0.031500  0.275300  1.0  -0.5909
  O  O67  1  0.872260  0.255700  0.005200  1.0  -0.6332
  O  O68  1  0.790800  0.102600  0.124100  1.0  -0.5643
