# generated using pymatgen
data_Mg2H2C5N2O5
_symmetry_space_group_name_H-M   'P 1'
_cell_length_a   8.35870000
_cell_length_b   15.22530000
_cell_length_c   15.22530000
_cell_angle_alpha   90.00000000
_cell_angle_beta   90.00000000
_cell_angle_gamma   90.00000000
_symmetry_Int_Tables_number   1
_chemical_formula_structural   Mg2H2C5N2O5
_chemical_formula_sum   'Mg16 H16 C40 N16 O40'
_cell_volume   1937.62824166
_cell_formula_units_Z   8
loop_
 _symmetry_equiv_pos_site_id
 _symmetry_equiv_pos_as_xyz
  1  'x, y, z'
loop_
 _atom_site_type_symbol
 _atom_site_label
 _atom_site_symmetry_multiplicity
 _atom_site_fract_x
 _atom_site_fract_y
 _atom_site_fract_z
 _atom_site_occupancy
 _atom_site_charge
  Mg  Mg1  1  0.370030  0.110570  0.999450  1.0  1.4781
  Mg  Mg2  1  0.870030  0.889430  0.000550  1.0  1.4787
  Mg  Mg3  1  0.620030  0.500550  0.610570  1.0  1.4786
  Mg  Mg4  1  0.120030  0.499450  0.389430  1.0  1.4787
  Mg  Mg5  1  0.879970  0.389430  0.499450  1.0  1.4783
  Mg  Mg6  1  0.379970  0.610570  0.500550  1.0  1.4781
  Mg  Mg7  1  0.629970  0.999450  0.110570  1.0  1.4783
  Mg  Mg8  1  0.129970  0.000550  0.889430  1.0  1.4782
  Mg  Mg9  1  0.000000  0.098910  0.098910  1.0  1.5651
  Mg  Mg10  1  0.000000  0.247480  0.247480  1.0  1.4387
  Mg  Mg11  1  0.500000  0.901090  0.901090  1.0  1.5639
  Mg  Mg12  1  0.500000  0.752520  0.752520  1.0  1.4383
  Mg  Mg13  1  0.250000  0.401090  0.598910  1.0  1.5668
  Mg  Mg14  1  0.250000  0.252520  0.747480  1.0  1.4384
  Mg  Mg15  1  0.750000  0.598910  0.401090  1.0  1.5618
  Mg  Mg16  1  0.750000  0.747480  0.252520  1.0  1.4385
  H  H17  1  0.922700  0.963000  0.132700  1.0  0.4499
  H  H18  1  0.541600  0.369500  0.187100  1.0  0.1435
  H  H19  1  0.422700  0.037000  0.867300  1.0  0.4498
  H  H20  1  0.041600  0.630500  0.812900  1.0  0.1435
  H  H21  1  0.172700  0.367300  0.463000  1.0  0.4479
  H  H22  1  0.791600  0.312900  0.869500  1.0  0.1442
  H  H23  1  0.672700  0.632700  0.537000  1.0  0.4487
  H  H24  1  0.291600  0.687100  0.130500  1.0  0.1447
  H  H25  1  0.327300  0.537000  0.632700  1.0  0.4497
  H  H26  1  0.708400  0.130500  0.687100  1.0  0.1439
  H  H27  1  0.827300  0.463000  0.367300  1.0  0.4491
  H  H28  1  0.208400  0.869500  0.312900  1.0  0.1437
  H  H29  1  0.077300  0.132700  0.963000  1.0  0.449
  H  H30  1  0.458400  0.187100  0.369500  1.0  0.144
  H  H31  1  0.577300  0.867300  0.037000  1.0  0.4487
  H  H32  1  0.958400  0.812900  0.630500  1.0  0.145
  C  C33  1  0.274540  0.244220  0.135320  1.0  0.7302
  C  C34  1  0.459470  0.496250  0.333333  1.0  0.7186
  C  C35  1  0.384670  0.425230  0.281310  1.0  0.0145
  C  C36  1  0.306420  0.316770  0.197550  1.0  0.0203
  C  C37  1  0.436580  0.371680  0.212910  1.0  -0.1657
  C  C38  1  0.774540  0.755780  0.864680  1.0  0.7303
  C  C39  1  0.959470  0.503750  0.666667  1.0  0.7202
  C  C40  1  0.884670  0.574770  0.718690  1.0  0.0144
  C  C41  1  0.806420  0.683230  0.802450  1.0  0.0211
  C  C42  1  0.936580  0.628320  0.787090  1.0  -0.1646
  C  C43  1  0.524540  0.364680  0.744220  1.0  0.732
  C  C44  1  0.709470  0.166670  0.996250  1.0  0.718
  C  C45  1  0.634670  0.218690  0.925230  1.0  0.0119
  C  C46  1  0.556420  0.302450  0.816770  1.0  0.0218
  C  C47  1  0.686580  0.287090  0.871680  1.0  -0.1653
  C  C48  1  0.024540  0.635320  0.255780  1.0  0.7323
  C  C49  1  0.209470  0.833330  0.003750  1.0  0.718
  C  C50  1  0.134670  0.781310  0.074770  1.0  0.0129
  C  C51  1  0.056420  0.697550  0.183230  1.0  0.0209
  C  C52  1  0.186580  0.712910  0.128320  1.0  -0.1678
  C  C53  1  0.975460  0.255780  0.635320  1.0  0.7294
  C  C54  1  0.790530  0.003750  0.833330  1.0  0.7196
  C  C55  1  0.865330  0.074770  0.781310  1.0  0.0128
  C  C56  1  0.943580  0.183230  0.697550  1.0  0.0205
  C  C57  1  0.813420  0.128320  0.712910  1.0  -0.1636
  C  C58  1  0.475460  0.744220  0.364680  1.0  0.7306
  C  C59  1  0.290530  0.996250  0.166670  1.0  0.719
  C  C60  1  0.365330  0.925230  0.218690  1.0  0.0137
  C  C61  1  0.443580  0.816770  0.302450  1.0  0.0206
  C  C62  1  0.313420  0.871680  0.287090  1.0  -0.1641
  C  C63  1  0.725460  0.135320  0.244220  1.0  0.7321
  C  C64  1  0.540530  0.333333  0.496250  1.0  0.7187
  C  C65  1  0.615330  0.281310  0.425230  1.0  0.0127
  C  C66  1  0.693580  0.197550  0.316770  1.0  0.0209
  C  C67  1  0.563420  0.212910  0.371680  1.0  -0.165
  C  C68  1  0.225460  0.864680  0.755780  1.0  0.7322
  C  C69  1  0.040530  0.666667  0.503750  1.0  0.7187
  C  C70  1  0.115330  0.718690  0.574770  1.0  0.0119
  C  C71  1  0.193580  0.802450  0.683230  1.0  0.021
  C  C72  1  0.063420  0.787090  0.628320  1.0  -0.1627
  N  N73  1  0.232540  0.403920  0.304260  1.0  -0.2639
  N  N74  1  0.185270  0.337630  0.253390  1.0  -0.4567
  N  N75  1  0.732540  0.596080  0.695740  1.0  -0.2642
  N  N76  1  0.685270  0.662370  0.746610  1.0  -0.4548
  N  N77  1  0.482540  0.195740  0.903920  1.0  -0.2639
  N  N78  1  0.435270  0.246610  0.837630  1.0  -0.4557
  N  N79  1  0.982540  0.804260  0.096080  1.0  -0.2632
  N  N80  1  0.935270  0.753390  0.162370  1.0  -0.4559
  N  N81  1  0.017460  0.096080  0.804260  1.0  -0.2638
  N  N82  1  0.064730  0.162370  0.753390  1.0  -0.4627
  N  N83  1  0.517460  0.903920  0.195740  1.0  -0.2646
  N  N84  1  0.564730  0.837630  0.246610  1.0  -0.4615
  N  N85  1  0.767460  0.304260  0.403920  1.0  -0.2631
  N  N86  1  0.814730  0.253390  0.337630  1.0  -0.4623
  N  N87  1  0.267460  0.695740  0.596080  1.0  -0.2637
  N  N88  1  0.314730  0.746610  0.662370  1.0  -0.4622
  O  O89  1  0.371820  0.225420  0.076480  1.0  -0.6391
  O  O90  1  0.870340  0.986600  0.096930  1.0  -1.2641
  O  O91  1  0.140830  0.204800  0.146470  1.0  -0.8365
  O  O92  1  0.372430  0.525760  0.396010  1.0  -0.7773
  O  O93  1  0.597760  0.522170  0.317090  1.0  -0.6569
  O  O94  1  0.871820  0.774580  0.923520  1.0  -0.6381
  O  O95  1  0.370340  0.013400  0.903070  1.0  -1.2618
  O  O96  1  0.640830  0.795200  0.853530  1.0  -0.8364
  O  O97  1  0.872430  0.474240  0.603990  1.0  -0.7771
  O  O98  1  0.097760  0.477830  0.682910  1.0  -0.656
  O  O99  1  0.621820  0.423520  0.725420  1.0  -0.6346
  O  O100  1  0.120340  0.403070  0.486600  1.0  -1.2627
  O  O101  1  0.390830  0.353530  0.704800  1.0  -0.8362
  O  O102  1  0.622430  0.103990  0.025760  1.0  -0.7779
  O  O103  1  0.847760  0.182910  0.022170  1.0  -0.6538
  O  O104  1  0.121820  0.576480  0.274580  1.0  -0.6352
  O  O105  1  0.620340  0.596930  0.513400  1.0  -1.2611
  O  O106  1  0.890830  0.646470  0.295200  1.0  -0.8369
  O  O107  1  0.122430  0.896010  0.974240  1.0  -0.7777
  O  O108  1  0.347760  0.817090  0.977830  1.0  -0.6568
  O  O109  1  0.878180  0.274580  0.576480  1.0  -0.6373
  O  O110  1  0.379660  0.513400  0.596930  1.0  -1.2617
  O  O111  1  0.109170  0.295200  0.646470  1.0  -0.8388
  O  O112  1  0.877570  0.974240  0.896010  1.0  -0.7778
  O  O113  1  0.652240  0.977830  0.817090  1.0  -0.6566
  O  O114  1  0.378180  0.725420  0.423520  1.0  -0.6381
  O  O115  1  0.879660  0.486600  0.403070  1.0  -1.2596
  O  O116  1  0.609170  0.704800  0.353530  1.0  -0.8391
  O  O117  1  0.377570  0.025760  0.103990  1.0  -0.7777
  O  O118  1  0.152240  0.022170  0.182910  1.0  -0.6559
  O  O119  1  0.628180  0.076480  0.225420  1.0  -0.6333
  O  O120  1  0.129660  0.096930  0.986600  1.0  -1.2596
  O  O121  1  0.859170  0.146470  0.204800  1.0  -0.8376
  O  O122  1  0.627570  0.396010  0.525760  1.0  -0.7785
  O  O123  1  0.402240  0.317090  0.522170  1.0  -0.6558
  O  O124  1  0.128180  0.923520  0.774580  1.0  -0.6338
  O  O125  1  0.629660  0.903070  0.013400  1.0  -1.2665
  O  O126  1  0.359170  0.853530  0.795200  1.0  -0.8373
  O  O127  1  0.127570  0.603990  0.474240  1.0  -0.7789
  O  O128  1  0.902240  0.682910  0.477830  1.0  -0.6547
