# generated using pymatgen
data_MnCrFeH22C26N4(ClO7)2
_symmetry_space_group_name_H-M   'P 1'
_cell_length_a   13.30820000
_cell_length_b   15.62190000
_cell_length_c   16.47270000
_cell_angle_alpha   90.00000000
_cell_angle_beta   90.00000000
_cell_angle_gamma   90.00000000
_symmetry_Int_Tables_number   1
_chemical_formula_structural   MnCrFeH22C26N4(ClO7)2
_chemical_formula_sum   'Mn4 Cr4 Fe4 H88 C104 N16 Cl8 O56'
_cell_volume   3424.66394528
_cell_formula_units_Z   4
loop_
 _symmetry_equiv_pos_site_id
 _symmetry_equiv_pos_as_xyz
  1  'x, y, z'
loop_
 _atom_site_type_symbol
 _atom_site_label
 _atom_site_symmetry_multiplicity
 _atom_site_fract_x
 _atom_site_fract_y
 _atom_site_fract_z
 _atom_site_occupancy
 _atom_site_charge
  Mn  Mn1  1  0.824700  0.860060  0.857010  1.0  1.1082
  Mn  Mn2  1  0.675300  0.139940  0.357010  1.0  1.1049
  Mn  Mn3  1  0.175300  0.360060  0.642990  1.0  1.1046
  Mn  Mn4  1  0.324700  0.639940  0.142990  1.0  1.1087
  Cr  Cr5  1  0.112150  0.615510  0.863530  1.0  1.3414
  Cr  Cr6  1  0.387850  0.384490  0.363530  1.0  1.3423
  Cr  Cr7  1  0.887850  0.115510  0.636470  1.0  1.3416
  Cr  Cr8  1  0.612150  0.884490  0.136470  1.0  1.3418
  Fe  Fe9  1  0.099510  0.752430  0.534070  1.0  0.517
  Fe  Fe10  1  0.400490  0.247570  0.034070  1.0  0.5148
  Fe  Fe11  1  0.900490  0.252430  0.965930  1.0  0.5154
  Fe  Fe12  1  0.599510  0.747570  0.465930  1.0  0.5172
  H  H13  1  0.015200  0.753900  0.276700  1.0  0.133
  H  H14  1  0.951000  0.863400  0.196500  1.0  0.1223
  H  H15  1  0.982300  0.030200  0.378400  1.0  0.1167
  H  H16  1  0.050700  0.989900  0.506400  1.0  0.1059
  H  H17  1  0.072800  0.961500  0.639500  1.0  0.0936
  H  H18  1  0.187700  0.932800  0.626400  1.0  0.0873
  H  H19  1  0.030200  0.831000  0.692100  1.0  0.0864
  H  H20  1  0.133000  0.856900  0.736800  1.0  0.0922
  H  H21  1  0.288100  0.706600  0.670200  1.0  0.0894
  H  H22  1  0.285400  0.804800  0.698500  1.0  0.0857
  H  H23  1  0.301200  0.854200  0.566400  1.0  0.0873
  H  H24  1  0.379700  0.776000  0.570700  1.0  0.073
  H  H25  1  0.299400  0.629200  0.555300  1.0  0.0883
  H  H26  1  0.340600  0.649700  0.465600  1.0  0.0872
  H  H27  1  0.182700  0.622000  0.408200  1.0  0.1053
  H  H28  1  0.205600  0.542500  0.467500  1.0  0.0978
  H  H29  1  0.048800  0.516000  0.513500  1.0  0.097
  H  H30  1  0.905600  0.461700  0.588300  1.0  0.1394
  H  H31  1  0.724100  0.623800  0.708200  1.0  0.1149
  H  H32  1  0.820000  0.737800  0.670400  1.0  0.1111
  H  H33  1  0.128800  0.717100  0.680100  1.0  0.1839
  H  H34  1  0.260000  0.771800  0.461400  1.0  0.1895
  H  H35  1  0.484800  0.246100  0.776700  1.0  0.1327
  H  H36  1  0.549000  0.136600  0.696500  1.0  0.1221
  H  H37  1  0.517700  0.969800  0.878400  1.0  0.1179
  H  H38  1  0.449300  0.010100  0.006400  1.0  0.1054
  H  H39  1  0.427200  0.038500  0.139500  1.0  0.0951
  H  H40  1  0.312300  0.067200  0.126400  1.0  0.0896
  H  H41  1  0.469800  0.169000  0.192100  1.0  0.0855
  H  H42  1  0.367000  0.143100  0.236800  1.0  0.0928
  H  H43  1  0.211900  0.293400  0.170200  1.0  0.089
  H  H44  1  0.214600  0.195200  0.198500  1.0  0.088
  H  H45  1  0.198800  0.145800  0.066400  1.0  0.0832
  H  H46  1  0.120300  0.224000  0.070700  1.0  0.0721
  H  H47  1  0.200600  0.370800  0.055300  1.0  0.0882
  H  H48  1  0.159400  0.350300  0.965600  1.0  0.0865
  H  H49  1  0.317300  0.378000  0.908200  1.0  0.1063
  H  H50  1  0.294400  0.457500  0.967500  1.0  0.0985
  H  H51  1  0.451200  0.484000  0.013500  1.0  0.0979
  H  H52  1  0.594400  0.538300  0.088300  1.0  0.1396
  H  H53  1  0.775900  0.376200  0.208200  1.0  0.1154
  H  H54  1  0.680000  0.262200  0.170400  1.0  0.1112
  H  H55  1  0.371200  0.282900  0.180100  1.0  0.1824
  H  H56  1  0.240000  0.228200  0.961400  1.0  0.1906
  H  H57  1  0.984800  0.253900  0.223300  1.0  0.1336
  H  H58  1  0.049000  0.363400  0.303500  1.0  0.1232
  H  H59  1  0.017700  0.530200  0.121600  1.0  0.1167
  H  H60  1  0.949300  0.489900  0.993600  1.0  0.1059
  H  H61  1  0.927200  0.461500  0.860500  1.0  0.0935
  H  H62  1  0.812300  0.432800  0.873600  1.0  0.0888
  H  H63  1  0.969800  0.331000  0.807900  1.0  0.085
  H  H64  1  0.867000  0.356900  0.763200  1.0  0.0958
  H  H65  1  0.711900  0.206600  0.829800  1.0  0.0873
  H  H66  1  0.714600  0.304800  0.801500  1.0  0.0875
  H  H67  1  0.698800  0.354200  0.933600  1.0  0.0864
  H  H68  1  0.620300  0.276000  0.929300  1.0  0.0723
  H  H69  1  0.700600  0.129200  0.944700  1.0  0.089
  H  H70  1  0.659400  0.149700  0.034400  1.0  0.0853
  H  H71  1  0.817300  0.122000  0.091800  1.0  0.1058
  H  H72  1  0.794400  0.042500  0.032500  1.0  0.0979
  H  H73  1  0.951200  0.016000  0.986500  1.0  0.0973
  H  H74  1  0.094400  0.961700  0.911700  1.0  0.1394
  H  H75  1  0.275900  0.123800  0.791800  1.0  0.1143
  H  H76  1  0.180000  0.237800  0.829600  1.0  0.1105
  H  H77  1  0.871200  0.217100  0.819900  1.0  0.1833
  H  H78  1  0.740000  0.271800  0.038600  1.0  0.191
  H  H79  1  0.515200  0.746100  0.723300  1.0  0.1324
  H  H80  1  0.451000  0.636600  0.803500  1.0  0.1227
  H  H81  1  0.482300  0.469800  0.621600  1.0  0.1176
  H  H82  1  0.550700  0.510100  0.493600  1.0  0.106
  H  H83  1  0.572800  0.538500  0.360500  1.0  0.0937
  H  H84  1  0.687700  0.567200  0.373600  1.0  0.0879
  H  H85  1  0.530200  0.669000  0.307900  1.0  0.0854
  H  H86  1  0.633000  0.643100  0.263200  1.0  0.0948
  H  H87  1  0.788100  0.793400  0.329800  1.0  0.0893
  H  H88  1  0.785400  0.695200  0.301500  1.0  0.0855
  H  H89  1  0.801200  0.645800  0.433600  1.0  0.0863
  H  H90  1  0.879700  0.724000  0.429300  1.0  0.072
  H  H91  1  0.799400  0.870800  0.444700  1.0  0.0888
  H  H92  1  0.840600  0.850300  0.534400  1.0  0.0876
  H  H93  1  0.682700  0.878000  0.591800  1.0  0.1053
  H  H94  1  0.705600  0.957500  0.532500  1.0  0.0985
  H  H95  1  0.548800  0.984000  0.486500  1.0  0.0981
  H  H96  1  0.405600  0.038300  0.411700  1.0  0.1397
  H  H97  1  0.224100  0.876200  0.291800  1.0  0.1142
  H  H98  1  0.320000  0.762200  0.329600  1.0  0.1104
  H  H99  1  0.628800  0.782900  0.319900  1.0  0.1816
  H  H100  1  0.760000  0.728200  0.538600  1.0  0.1914
  C  C101  1  0.013700  0.768100  0.855500  1.0  0.6578
  C  C102  1  0.932100  0.697600  0.849200  1.0  0.6232
  C  C103  1  0.765900  0.871100  0.027700  1.0  0.6514
  C  C104  1  0.667500  0.869600  0.977600  1.0  0.6167
  C  C105  1  0.854900  0.959100  0.708200  1.0  0.657
  C  C106  1  0.841600  0.026400  0.776600  1.0  0.6119
  C  C107  1  0.486300  0.231900  0.355500  1.0  0.6562
  C  C108  1  0.567900  0.302400  0.349200  1.0  0.6244
  C  C109  1  0.734100  0.128900  0.527700  1.0  0.6508
  C  C110  1  0.832500  0.130400  0.477600  1.0  0.6191
  C  C111  1  0.645100  0.040900  0.208200  1.0  0.657
  C  C112  1  0.658400  0.973600  0.276600  1.0  0.6124
  C  C113  1  0.986300  0.268100  0.644500  1.0  0.6555
  C  C114  1  0.067900  0.197600  0.650800  1.0  0.6228
  C  C115  1  0.234100  0.371100  0.472300  1.0  0.6505
  C  C116  1  0.332500  0.369600  0.522400  1.0  0.6179
  C  C117  1  0.145100  0.459100  0.791800  1.0  0.6568
  C  C118  1  0.158400  0.526400  0.723400  1.0  0.6109
  C  C119  1  0.513700  0.731900  0.144500  1.0  0.6561
  C  C120  1  0.432100  0.802400  0.150800  1.0  0.6258
  C  C121  1  0.265900  0.628900  0.972300  1.0  0.6503
  C  C122  1  0.167500  0.630400  0.022400  1.0  0.6172
  C  C123  1  0.354900  0.540900  0.291800  1.0  0.657
  C  C124  1  0.341600  0.473600  0.223400  1.0  0.6113
  C  C125  1  0.035600  0.824200  0.378700  1.0  0.2908
  C  C126  1  0.008100  0.809600  0.299000  1.0  -0.193
  C  C127  1  0.970300  0.875000  0.251000  1.0  -0.0704
  C  C128  1  0.960600  0.956500  0.281500  1.0  0.017
  C  C129  1  0.988300  0.973400  0.358300  1.0  -0.053
  C  C130  1  0.026000  0.908800  0.409700  1.0  -0.038
  C  C131  1  0.056700  0.931500  0.491100  1.0  0.0962
  C  C132  1  0.117100  0.912800  0.625400  1.0  0.0056
  C  C133  1  0.102800  0.841800  0.683800  1.0  -0.0084
  C  C134  1  0.263500  0.764500  0.655700  1.0  -0.0575
  C  C135  1  0.307700  0.791600  0.573900  1.0  -0.013
  C  C136  1  0.281300  0.653500  0.501800  1.0  0.001
  C  C137  1  0.193400  0.605000  0.465400  1.0  0.0237
  C  C138  1  0.039000  0.572600  0.532900  1.0  0.114
  C  C139  1  0.951200  0.588300  0.579000  1.0  -0.0224
  C  C140  1  0.889400  0.518700  0.603700  1.0  -0.0608
  C  C141  1  0.803800  0.535700  0.651200  1.0  0.0858
  C  C142  1  0.781400  0.614700  0.674800  1.0  -0.1029
  C  C143  1  0.838100  0.682100  0.652500  1.0  -0.1018
  C  C144  1  0.923000  0.672000  0.603700  1.0  0.3783
  C  C145  1  0.464400  0.175800  0.878700  1.0  0.291
  C  C146  1  0.491900  0.190400  0.799000  1.0  -0.1907
  C  C147  1  0.529700  0.125000  0.751000  1.0  -0.0697
  C  C148  1  0.539400  0.043500  0.781500  1.0  0.0199
  C  C149  1  0.511700  0.026600  0.858300  1.0  -0.0539
  C  C150  1  0.474000  0.091200  0.909700  1.0  -0.0388
  C  C151  1  0.443300  0.068500  0.991100  1.0  0.1003
  C  C152  1  0.382900  0.087200  0.125400  1.0  0.0045
  C  C153  1  0.397200  0.158200  0.183800  1.0  -0.0097
  C  C154  1  0.236500  0.235500  0.155700  1.0  -0.0572
  C  C155  1  0.192300  0.208400  0.073900  1.0  -0.0124
  C  C156  1  0.218700  0.346500  0.001800  1.0  0.0021
  C  C157  1  0.306600  0.395000  0.965400  1.0  0.0233
  C  C158  1  0.461000  0.427400  0.032900  1.0  0.111
  C  C159  1  0.548800  0.411700  0.079000  1.0  -0.0209
  C  C160  1  0.610600  0.481300  0.103700  1.0  -0.0634
  C  C161  1  0.696200  0.464300  0.151200  1.0  0.0821
  C  C162  1  0.718600  0.385300  0.174800  1.0  -0.1036
  C  C163  1  0.661900  0.317900  0.152500  1.0  -0.1023
  C  C164  1  0.577000  0.328000  0.103700  1.0  0.3779
  C  C165  1  0.964400  0.324200  0.121300  1.0  0.2921
  C  C166  1  0.991900  0.309600  0.201000  1.0  -0.1942
  C  C167  1  0.029700  0.375000  0.249000  1.0  -0.0705
  C  C168  1  0.039400  0.456500  0.218500  1.0  0.0149
  C  C169  1  0.011700  0.473400  0.141700  1.0  -0.0525
  C  C170  1  0.974000  0.408800  0.090300  1.0  -0.0378
  C  C171  1  0.943300  0.431500  0.008900  1.0  0.0996
  C  C172  1  0.882900  0.412800  0.874600  1.0  0.0044
  C  C173  1  0.897200  0.341800  0.816200  1.0  -0.0085
  C  C174  1  0.736500  0.264500  0.844300  1.0  -0.0557
  C  C175  1  0.692300  0.291600  0.926100  1.0  -0.0137
  C  C176  1  0.718700  0.153500  0.998200  1.0  0.0021
  C  C177  1  0.806600  0.105000  0.034600  1.0  0.0231
  C  C178  1  0.961000  0.072600  0.967100  1.0  0.1134
  C  C179  1  0.048800  0.088300  0.921000  1.0  -0.0223
  C  C180  1  0.110600  0.018700  0.896300  1.0  -0.0618
  C  C181  1  0.196200  0.035700  0.848800  1.0  0.0859
  C  C182  1  0.218600  0.114700  0.825200  1.0  -0.1046
  C  C183  1  0.161900  0.182100  0.847500  1.0  -0.1037
  C  C184  1  0.077000  0.172000  0.896300  1.0  0.3766
  C  C185  1  0.535600  0.675800  0.621300  1.0  0.2944
  C  C186  1  0.508100  0.690400  0.701000  1.0  -0.1914
  C  C187  1  0.470300  0.625000  0.749000  1.0  -0.072
  C  C188  1  0.460600  0.543500  0.718500  1.0  0.0177
  C  C189  1  0.488300  0.526600  0.641700  1.0  -0.0532
  C  C190  1  0.526000  0.591200  0.590300  1.0  -0.0387
  C  C191  1  0.556700  0.568500  0.508900  1.0  0.1022
  C  C192  1  0.617100  0.587200  0.374600  1.0  0.005
  C  C193  1  0.602800  0.658200  0.316200  1.0  -0.0076
  C  C194  1  0.763500  0.735500  0.344300  1.0  -0.0563
  C  C195  1  0.807700  0.708400  0.426100  1.0  -0.0131
  C  C196  1  0.781300  0.846500  0.498200  1.0  0.0029
  C  C197  1  0.693400  0.895000  0.534600  1.0  0.0215
  C  C198  1  0.539000  0.927400  0.467100  1.0  0.112
  C  C199  1  0.451200  0.911700  0.421000  1.0  -0.0216
  C  C200  1  0.389400  0.981300  0.396300  1.0  -0.06
  C  C201  1  0.303800  0.964300  0.348800  1.0  0.0844
  C  C202  1  0.281400  0.885300  0.325200  1.0  -0.103
  C  C203  1  0.338100  0.817900  0.347500  1.0  -0.1023
  C  C204  1  0.423000  0.828000  0.396300  1.0  0.3783
  N  N205  1  0.091400  0.879130  0.544670  1.0  -0.3283
  N  N206  1  0.152000  0.763900  0.650600  1.0  -0.3641
  N  N207  1  0.248600  0.744700  0.510770  1.0  -0.3439
  N  N208  1  0.106100  0.627900  0.515200  1.0  -0.3283
  N  N209  1  0.408600  0.120870  0.044670  1.0  -0.3281
  N  N210  1  0.348000  0.236100  0.150600  1.0  -0.364
  N  N211  1  0.251400  0.255300  0.010770  1.0  -0.3429
  N  N212  1  0.393900  0.372100  0.015200  1.0  -0.3262
  N  N213  1  0.908600  0.379130  0.955330  1.0  -0.3294
  N  N214  1  0.848000  0.263900  0.849400  1.0  -0.364
  N  N215  1  0.751400  0.244700  0.989230  1.0  -0.3449
  N  N216  1  0.893900  0.127900  0.984800  1.0  -0.3262
  N  N217  1  0.591400  0.620870  0.455330  1.0  -0.3284
  N  N218  1  0.652000  0.736100  0.349400  1.0  -0.3656
  N  N219  1  0.748600  0.755300  0.489230  1.0  -0.3453
  N  N220  1  0.606100  0.872100  0.484800  1.0  -0.3272
  Cl  Cl221  1  0.914950  0.037570  0.219190  1.0  -0.1425
  Cl  Cl222  1  0.728030  0.447400  0.674560  1.0  -0.1345
  Cl  Cl223  1  0.585050  0.962430  0.719190  1.0  -0.1427
  Cl  Cl224  1  0.771970  0.552600  0.174560  1.0  -0.1353
  Cl  Cl225  1  0.085050  0.537570  0.280810  1.0  -0.1427
  Cl  Cl226  1  0.271970  0.947400  0.825440  1.0  -0.1359
  Cl  Cl227  1  0.414950  0.462430  0.780810  1.0  -0.1422
  Cl  Cl228  1  0.228030  0.052600  0.325440  1.0  -0.1354
  O  O229  1  0.103140  0.741320  0.856310  1.0  -0.5481
  O  O230  1  0.965580  0.622260  0.844650  1.0  -0.5467
  O  O231  1  0.987670  0.844680  0.858040  1.0  -0.58
  O  O232  1  0.842950  0.721240  0.847880  1.0  -0.556
  O  O233  1  0.846670  0.868820  0.989800  1.0  -0.5725
  O  O234  1  0.754940  0.879370  0.102980  1.0  -0.5494
  O  O235  1  0.672800  0.859120  0.903030  1.0  -0.548
  O  O236  1  0.587850  0.879540  0.017910  1.0  -0.5492
  O  O237  1  0.839600  0.882960  0.725810  1.0  -0.5739
  O  O238  1  0.880930  0.988300  0.639770  1.0  -0.5613
  O  O239  1  0.821700  0.001370  0.845300  1.0  -0.5498
  O  O240  1  0.854850  0.103600  0.753710  1.0  -0.5689
  O  O241  1  0.396860  0.258680  0.356310  1.0  -0.5477
  O  O242  1  0.534420  0.377740  0.344650  1.0  -0.544
  O  O243  1  0.512330  0.155320  0.358040  1.0  -0.5813
  O  O244  1  0.657050  0.278760  0.347880  1.0  -0.5574
  O  O245  1  0.653330  0.131180  0.489800  1.0  -0.5694
  O  O246  1  0.745060  0.120630  0.602980  1.0  -0.5508
  O  O247  1  0.827200  0.140880  0.403030  1.0  -0.5458
  O  O248  1  0.912150  0.120460  0.517910  1.0  -0.549
  O  O249  1  0.660400  0.117040  0.225810  1.0  -0.5713
  O  O250  1  0.619070  0.011700  0.139770  1.0  -0.5585
  O  O251  1  0.678300  0.998630  0.345300  1.0  -0.5495
  O  O252  1  0.645150  0.896400  0.253710  1.0  -0.5685
  O  O253  1  0.896860  0.241320  0.643690  1.0  -0.5475
  O  O254  1  0.034420  0.122260  0.655350  1.0  -0.5455
  O  O255  1  0.012330  0.344680  0.641960  1.0  -0.5812
  O  O256  1  0.157050  0.221240  0.652120  1.0  -0.5563
  O  O257  1  0.153330  0.368820  0.510200  1.0  -0.5726
  O  O258  1  0.245060  0.379370  0.397020  1.0  -0.55
  O  O259  1  0.327200  0.359120  0.596970  1.0  -0.5473
  O  O260  1  0.412150  0.379540  0.482090  1.0  -0.5477
  O  O261  1  0.160400  0.382960  0.774190  1.0  -0.5732
  O  O262  1  0.119070  0.488300  0.860230  1.0  -0.5611
  O  O263  1  0.178300  0.501370  0.654700  1.0  -0.5508
  O  O264  1  0.145150  0.603600  0.746290  1.0  -0.5674
  O  O265  1  0.603140  0.758680  0.143690  1.0  -0.5482
  O  O266  1  0.465580  0.877740  0.155350  1.0  -0.5457
  O  O267  1  0.487670  0.655320  0.141960  1.0  -0.5809
  O  O268  1  0.342950  0.778760  0.152120  1.0  -0.5552
  O  O269  1  0.346670  0.631180  0.010200  1.0  -0.5699
  O  O270  1  0.254940  0.620630  0.897020  1.0  -0.5489
  O  O271  1  0.172800  0.640880  0.096970  1.0  -0.5474
  O  O272  1  0.087850  0.620460  0.982090  1.0  -0.5494
  O  O273  1  0.339600  0.617040  0.274190  1.0  -0.5735
  O  O274  1  0.380930  0.511700  0.360230  1.0  -0.5593
  O  O275  1  0.321700  0.498630  0.154700  1.0  -0.5494
  O  O276  1  0.354850  0.396400  0.246290  1.0  -0.5684
  O  O277  1  0.069000  0.759460  0.421380  1.0  -0.5615
  O  O278  1  0.969830  0.741850  0.578790  1.0  -0.5612
  O  O279  1  0.431000  0.240540  0.921380  1.0  -0.5584
  O  O280  1  0.530170  0.258150  0.078790  1.0  -0.5609
  O  O281  1  0.931000  0.259460  0.078620  1.0  -0.5625
  O  O282  1  0.030170  0.241850  0.921210  1.0  -0.5616
  O  O283  1  0.569000  0.740540  0.578620  1.0  -0.5606
  O  O284  1  0.469830  0.758150  0.421210  1.0  -0.5618
