# generated using pymatgen
data_CuH10(C9O2)2
_symmetry_space_group_name_H-M   'P 1'
_cell_length_a   27.47190000
_cell_length_b   27.47190000
_cell_length_c   27.47190000
_cell_angle_alpha   90.00000000
_cell_angle_beta   90.00000000
_cell_angle_gamma   90.00000000
_symmetry_Int_Tables_number   1
_chemical_formula_structural   CuH10(C9O2)2
_chemical_formula_sum   'Cu12 H120 C216 O48'
_cell_volume   20733.18824564
_cell_formula_units_Z   12
loop_
 _symmetry_equiv_pos_site_id
 _symmetry_equiv_pos_as_xyz
  1  'x, y, z'
loop_
 _atom_site_type_symbol
 _atom_site_label
 _atom_site_symmetry_multiplicity
 _atom_site_fract_x
 _atom_site_fract_y
 _atom_site_fract_z
 _atom_site_occupancy
 _atom_site_charge
  Cu  Cu1  1  0.500000  0.202030  0.000000  1.0  0.8971
  Cu  Cu2  1  0.500000  0.797970  0.000000  1.0  0.8947
  Cu  Cu3  1  0.000000  0.500000  0.202030  1.0  0.8954
  Cu  Cu4  1  0.000000  0.500000  0.797970  1.0  0.8959
  Cu  Cu5  1  0.202030  0.000000  0.500000  1.0  0.8929
  Cu  Cu6  1  0.797970  0.000000  0.500000  1.0  0.8943
  Cu  Cu7  1  0.702030  0.000000  0.500000  1.0  0.8981
  Cu  Cu8  1  0.297970  0.000000  0.500000  1.0  0.8992
  Cu  Cu9  1  0.000000  0.500000  0.297970  1.0  0.9013
  Cu  Cu10  1  0.000000  0.500000  0.702030  1.0  0.901
  Cu  Cu11  1  0.500000  0.702030  0.000000  1.0  0.9012
  Cu  Cu12  1  0.500000  0.297970  0.000000  1.0  0.9001
  H  H13  1  0.391100  0.177900  0.889700  1.0  0.0996
  H  H14  1  0.331200  0.177300  0.830200  1.0  0.107
  H  H15  1  0.608900  0.822100  0.889700  1.0  0.0998
  H  H16  1  0.668800  0.822700  0.830200  1.0  0.107
  H  H17  1  0.608900  0.177900  0.110300  1.0  0.0997
  H  H18  1  0.668800  0.177300  0.169800  1.0  0.1068
  H  H19  1  0.391100  0.822100  0.110300  1.0  0.0999
  H  H20  1  0.331200  0.822700  0.169800  1.0  0.1066
  H  H21  1  0.889700  0.391100  0.177900  1.0  0.1007
  H  H22  1  0.830200  0.331200  0.177300  1.0  0.1063
  H  H23  1  0.889700  0.608900  0.822100  1.0  0.1004
  H  H24  1  0.830200  0.668800  0.822700  1.0  0.1061
  H  H25  1  0.110300  0.608900  0.177900  1.0  0.1006
  H  H26  1  0.169800  0.668800  0.177300  1.0  0.1063
  H  H27  1  0.110300  0.391100  0.822100  1.0  0.1004
  H  H28  1  0.169800  0.331200  0.822700  1.0  0.1068
  H  H29  1  0.177900  0.889700  0.391100  1.0  0.1004
  H  H30  1  0.177300  0.830200  0.331200  1.0  0.1071
  H  H31  1  0.822100  0.889700  0.608900  1.0  0.1007
  H  H32  1  0.822700  0.830200  0.668800  1.0  0.1071
  H  H33  1  0.177900  0.110300  0.608900  1.0  0.1004
  H  H34  1  0.177300  0.169800  0.668800  1.0  0.107
  H  H35  1  0.822100  0.110300  0.391100  1.0  0.1002
  H  H36  1  0.822700  0.169800  0.331200  1.0  0.1074
  H  H37  1  0.677900  0.891100  0.610300  1.0  0.1007
  H  H38  1  0.677300  0.831200  0.669800  1.0  0.107
  H  H39  1  0.322100  0.108900  0.610300  1.0  0.1005
  H  H40  1  0.322700  0.168800  0.669800  1.0  0.107
  H  H41  1  0.677900  0.108900  0.389700  1.0  0.1004
  H  H42  1  0.677300  0.168800  0.330200  1.0  0.1073
  H  H43  1  0.322100  0.891100  0.389700  1.0  0.1005
  H  H44  1  0.322700  0.831200  0.330200  1.0  0.1077
  H  H45  1  0.891100  0.389700  0.322100  1.0  0.1005
  H  H46  1  0.831200  0.330200  0.322700  1.0  0.1066
  H  H47  1  0.108900  0.389700  0.677900  1.0  0.1006
  H  H48  1  0.168800  0.330200  0.677300  1.0  0.1064
  H  H49  1  0.108900  0.610300  0.322100  1.0  0.1002
  H  H50  1  0.168800  0.669800  0.322700  1.0  0.1069
  H  H51  1  0.891100  0.610300  0.677900  1.0  0.1003
  H  H52  1  0.831200  0.669800  0.677300  1.0  0.1066
  H  H53  1  0.389700  0.677900  0.108900  1.0  0.0998
  H  H54  1  0.330200  0.677300  0.168800  1.0  0.1065
  H  H55  1  0.389700  0.322100  0.891100  1.0  0.1
  H  H56  1  0.330200  0.322700  0.831200  1.0  0.1067
  H  H57  1  0.610300  0.677900  0.891100  1.0  0.0996
  H  H58  1  0.669800  0.677300  0.831200  1.0  0.107
  H  H59  1  0.610300  0.322100  0.108900  1.0  0.1
  H  H60  1  0.669800  0.322700  0.168800  1.0  0.1065
  H  H61  1  0.608900  0.822100  0.110300  1.0  0.1
  H  H62  1  0.668800  0.822700  0.169800  1.0  0.1066
  H  H63  1  0.391100  0.177900  0.110300  1.0  0.0996
  H  H64  1  0.331200  0.177300  0.169800  1.0  0.1066
  H  H65  1  0.391100  0.822100  0.889700  1.0  0.0998
  H  H66  1  0.331200  0.822700  0.830200  1.0  0.1071
  H  H67  1  0.608900  0.177900  0.889700  1.0  0.0996
  H  H68  1  0.668800  0.177300  0.830200  1.0  0.1071
  H  H69  1  0.110300  0.608900  0.822100  1.0  0.1004
  H  H70  1  0.169800  0.668800  0.822700  1.0  0.1067
  H  H71  1  0.110300  0.391100  0.177900  1.0  0.1005
  H  H72  1  0.169800  0.331200  0.177300  1.0  0.1062
  H  H73  1  0.889700  0.391100  0.822100  1.0  0.1006
  H  H74  1  0.830200  0.331200  0.822700  1.0  0.1062
  H  H75  1  0.889700  0.608900  0.177900  1.0  0.1007
  H  H76  1  0.830200  0.668800  0.177300  1.0  0.1065
  H  H77  1  0.822100  0.110300  0.608900  1.0  0.1002
  H  H78  1  0.822700  0.169800  0.668800  1.0  0.1071
  H  H79  1  0.177900  0.110300  0.391100  1.0  0.1003
  H  H80  1  0.177300  0.169800  0.331200  1.0  0.1071
  H  H81  1  0.822100  0.889700  0.391100  1.0  0.1005
  H  H82  1  0.822700  0.830200  0.331200  1.0  0.1075
  H  H83  1  0.177900  0.889700  0.608900  1.0  0.1007
  H  H84  1  0.177300  0.830200  0.668800  1.0  0.107
  H  H85  1  0.322100  0.108900  0.389700  1.0  0.1003
  H  H86  1  0.322700  0.168800  0.330200  1.0  0.1075
  H  H87  1  0.677900  0.891100  0.389700  1.0  0.1004
  H  H88  1  0.677300  0.831200  0.330200  1.0  0.1073
  H  H89  1  0.322100  0.891100  0.610300  1.0  0.1007
  H  H90  1  0.322700  0.831200  0.669800  1.0  0.1072
  H  H91  1  0.677900  0.108900  0.610300  1.0  0.1005
  H  H92  1  0.677300  0.168800  0.669800  1.0  0.1069
  H  H93  1  0.108900  0.610300  0.677900  1.0  0.1004
  H  H94  1  0.168800  0.669800  0.677300  1.0  0.1065
  H  H95  1  0.891100  0.610300  0.322100  1.0  0.1002
  H  H96  1  0.831200  0.669800  0.322700  1.0  0.1066
  H  H97  1  0.891100  0.389700  0.677900  1.0  0.1005
  H  H98  1  0.831200  0.330200  0.677300  1.0  0.1064
  H  H99  1  0.108900  0.389700  0.322100  1.0  0.1004
  H  H100  1  0.168800  0.330200  0.322700  1.0  0.1069
  H  H101  1  0.610300  0.322100  0.891100  1.0  0.0998
  H  H102  1  0.669800  0.322700  0.831200  1.0  0.1066
  H  H103  1  0.610300  0.677900  0.108900  1.0  0.0997
  H  H104  1  0.669800  0.677300  0.168800  1.0  0.1068
  H  H105  1  0.389700  0.322100  0.108900  1.0  0.1001
  H  H106  1  0.330200  0.322700  0.168800  1.0  0.1065
  H  H107  1  0.389700  0.677900  0.891100  1.0  0.0997
  H  H108  1  0.330200  0.677300  0.831200  1.0  0.1068
  H  H109  1  0.309700  0.190300  0.750000  1.0  0.1047
  H  H110  1  0.690300  0.809700  0.750000  1.0  0.1044
  H  H111  1  0.690300  0.190300  0.250000  1.0  0.1046
  H  H112  1  0.309700  0.809700  0.250000  1.0  0.1043
  H  H113  1  0.750000  0.309700  0.190300  1.0  0.1038
  H  H114  1  0.750000  0.690300  0.809700  1.0  0.1046
  H  H115  1  0.250000  0.690300  0.190300  1.0  0.1041
  H  H116  1  0.250000  0.309700  0.809700  1.0  0.1043
  H  H117  1  0.190300  0.750000  0.309700  1.0  0.1049
  H  H118  1  0.809700  0.750000  0.690300  1.0  0.1044
  H  H119  1  0.190300  0.250000  0.690300  1.0  0.1038
  H  H120  1  0.809700  0.250000  0.309700  1.0  0.1051
  H  H121  1  0.690300  0.809700  0.250000  1.0  0.1044
  H  H122  1  0.309700  0.190300  0.250000  1.0  0.1047
  H  H123  1  0.309700  0.809700  0.750000  1.0  0.1043
  H  H124  1  0.690300  0.190300  0.750000  1.0  0.1046
  H  H125  1  0.250000  0.690300  0.809700  1.0  0.1046
  H  H126  1  0.250000  0.309700  0.190300  1.0  0.1038
  H  H127  1  0.750000  0.309700  0.809700  1.0  0.1043
  H  H128  1  0.750000  0.690300  0.190300  1.0  0.1041
  H  H129  1  0.809700  0.250000  0.690300  1.0  0.1044
  H  H130  1  0.190300  0.250000  0.309700  1.0  0.1049
  H  H131  1  0.809700  0.750000  0.309700  1.0  0.1051
  H  H132  1  0.190300  0.750000  0.690300  1.0  0.1038
  C  C133  1  0.378900  0.207200  0.878120  1.0  -0.0354
  C  C134  1  0.342820  0.206790  0.842140  1.0  -0.1455
  C  C135  1  0.621100  0.792800  0.878120  1.0  -0.0367
  C  C136  1  0.657180  0.793210  0.842140  1.0  -0.1452
  C  C137  1  0.621100  0.207200  0.121880  1.0  -0.0359
  C  C138  1  0.657180  0.206790  0.157860  1.0  -0.145
  C  C139  1  0.378900  0.792800  0.121880  1.0  -0.0359
  C  C140  1  0.342820  0.793210  0.157860  1.0  -0.1455
  C  C141  1  0.878120  0.378900  0.207200  1.0  -0.0397
  C  C142  1  0.842140  0.342820  0.206790  1.0  -0.1472
  C  C143  1  0.878120  0.621100  0.792800  1.0  -0.0384
  C  C144  1  0.842140  0.657180  0.793210  1.0  -0.148
  C  C145  1  0.121880  0.621100  0.207200  1.0  -0.0389
  C  C146  1  0.157860  0.657180  0.206790  1.0  -0.1474
  C  C147  1  0.121880  0.378900  0.792800  1.0  -0.0398
  C  C148  1  0.157860  0.342820  0.793210  1.0  -0.1481
  C  C149  1  0.207200  0.878120  0.378900  1.0  -0.0353
  C  C150  1  0.206790  0.842140  0.342820  1.0  -0.1438
  C  C151  1  0.792800  0.878120  0.621100  1.0  -0.0348
  C  C152  1  0.793210  0.842140  0.657180  1.0  -0.1419
  C  C153  1  0.207200  0.121880  0.621100  1.0  -0.0359
  C  C154  1  0.206790  0.157860  0.657180  1.0  -0.1443
  C  C155  1  0.792800  0.121880  0.378900  1.0  -0.0344
  C  C156  1  0.793210  0.157860  0.342820  1.0  -0.1435
  C  C157  1  0.707200  0.878900  0.621880  1.0  -0.0355
  C  C158  1  0.706790  0.842820  0.657860  1.0  -0.1448
  C  C159  1  0.292800  0.121100  0.621880  1.0  -0.0355
  C  C160  1  0.293210  0.157180  0.657860  1.0  -0.1434
  C  C161  1  0.707200  0.121100  0.378120  1.0  -0.0357
  C  C162  1  0.706790  0.157180  0.342140  1.0  -0.1446
  C  C163  1  0.292800  0.878900  0.378120  1.0  -0.0343
  C  C164  1  0.293210  0.842820  0.342140  1.0  -0.1442
  C  C165  1  0.878900  0.378120  0.292800  1.0  -0.0385
  C  C166  1  0.842820  0.342140  0.293210  1.0  -0.1474
  C  C167  1  0.121100  0.378120  0.707200  1.0  -0.039
  C  C168  1  0.157180  0.342140  0.706790  1.0  -0.1463
  C  C169  1  0.121100  0.621880  0.292800  1.0  -0.0397
  C  C170  1  0.157180  0.657860  0.293210  1.0  -0.1471
  C  C171  1  0.878900  0.621880  0.707200  1.0  -0.0391
  C  C172  1  0.842820  0.657860  0.706790  1.0  -0.1462
  C  C173  1  0.378120  0.707200  0.121100  1.0  -0.0356
  C  C174  1  0.342140  0.706790  0.157180  1.0  -0.1451
  C  C175  1  0.378120  0.292800  0.878900  1.0  -0.0363
  C  C176  1  0.342140  0.293210  0.842820  1.0  -0.1454
  C  C177  1  0.621880  0.707200  0.878900  1.0  -0.0357
  C  C178  1  0.657860  0.706790  0.842820  1.0  -0.1448
  C  C179  1  0.621880  0.292800  0.121100  1.0  -0.0367
  C  C180  1  0.657860  0.293210  0.157180  1.0  -0.1447
  C  C181  1  0.621100  0.792800  0.121880  1.0  -0.0369
  C  C182  1  0.657180  0.793210  0.157860  1.0  -0.1453
  C  C183  1  0.378900  0.207200  0.121880  1.0  -0.0356
  C  C184  1  0.342820  0.206790  0.157860  1.0  -0.1458
  C  C185  1  0.378900  0.792800  0.878120  1.0  -0.036
  C  C186  1  0.342820  0.793210  0.842140  1.0  -0.1457
  C  C187  1  0.621100  0.207200  0.878120  1.0  -0.0359
  C  C188  1  0.657180  0.206790  0.842140  1.0  -0.1446
  C  C189  1  0.121880  0.621100  0.792800  1.0  -0.0397
  C  C190  1  0.157860  0.657180  0.793210  1.0  -0.1482
  C  C191  1  0.121880  0.378900  0.207200  1.0  -0.0391
  C  C192  1  0.157860  0.342820  0.206790  1.0  -0.1473
  C  C193  1  0.878120  0.378900  0.792800  1.0  -0.0387
  C  C194  1  0.842140  0.342820  0.793210  1.0  -0.148
  C  C195  1  0.878120  0.621100  0.207200  1.0  -0.0391
  C  C196  1  0.842140  0.657180  0.206790  1.0  -0.1472
  C  C197  1  0.792800  0.121880  0.621100  1.0  -0.0354
  C  C198  1  0.793210  0.157860  0.657180  1.0  -0.1422
  C  C199  1  0.207200  0.121880  0.378900  1.0  -0.0358
  C  C200  1  0.206790  0.157860  0.342820  1.0  -0.1441
  C  C201  1  0.792800  0.878120  0.378900  1.0  -0.0341
  C  C202  1  0.793210  0.842140  0.342820  1.0  -0.1433
  C  C203  1  0.207200  0.878120  0.621100  1.0  -0.0352
  C  C204  1  0.206790  0.842140  0.657180  1.0  -0.1439
  C  C205  1  0.292800  0.121100  0.378120  1.0  -0.0344
  C  C206  1  0.293210  0.157180  0.342140  1.0  -0.1438
  C  C207  1  0.707200  0.878900  0.378120  1.0  -0.0356
  C  C208  1  0.706790  0.842820  0.342140  1.0  -0.1444
  C  C209  1  0.292800  0.878900  0.621880  1.0  -0.0352
  C  C210  1  0.293210  0.842820  0.657860  1.0  -0.1437
  C  C211  1  0.707200  0.121100  0.621880  1.0  -0.0358
  C  C212  1  0.706790  0.157180  0.657860  1.0  -0.1452
  C  C213  1  0.121100  0.621880  0.707200  1.0  -0.0389
  C  C214  1  0.157180  0.657860  0.706790  1.0  -0.1463
  C  C215  1  0.878900  0.621880  0.292800  1.0  -0.0385
  C  C216  1  0.842820  0.657860  0.293210  1.0  -0.1473
  C  C217  1  0.878900  0.378120  0.707200  1.0  -0.0393
  C  C218  1  0.842820  0.342140  0.706790  1.0  -0.1461
  C  C219  1  0.121100  0.378120  0.292800  1.0  -0.0394
  C  C220  1  0.157180  0.342140  0.293210  1.0  -0.1471
  C  C221  1  0.621880  0.292800  0.878900  1.0  -0.0367
  C  C222  1  0.657860  0.293210  0.842820  1.0  -0.1454
  C  C223  1  0.621880  0.707200  0.121100  1.0  -0.0357
  C  C224  1  0.657860  0.706790  0.157180  1.0  -0.1445
  C  C225  1  0.378120  0.292800  0.121100  1.0  -0.0359
  C  C226  1  0.342140  0.293210  0.157180  1.0  -0.1447
  C  C227  1  0.378120  0.707200  0.878900  1.0  -0.0355
  C  C228  1  0.342140  0.706790  0.842820  1.0  -0.1455
  C  C229  1  0.435590  0.250000  0.935590  1.0  0.6699
  C  C230  1  0.396450  0.250000  0.896450  1.0  -0.1067
  C  C231  1  0.324360  0.250000  0.824360  1.0  0.0414
  C  C232  1  0.285930  0.250000  0.785930  1.0  0.0375
  C  C233  1  0.564410  0.750000  0.935590  1.0  0.6701
  C  C234  1  0.603550  0.750000  0.896450  1.0  -0.107
  C  C235  1  0.675640  0.750000  0.824360  1.0  0.0419
  C  C236  1  0.714070  0.750000  0.785930  1.0  0.0366
  C  C237  1  0.564410  0.250000  0.064410  1.0  0.6699
  C  C238  1  0.603550  0.250000  0.103550  1.0  -0.1073
  C  C239  1  0.675640  0.250000  0.175640  1.0  0.0416
  C  C240  1  0.714070  0.250000  0.214070  1.0  0.037
  C  C241  1  0.435590  0.750000  0.064410  1.0  0.6698
  C  C242  1  0.396450  0.750000  0.103550  1.0  -0.1071
  C  C243  1  0.324360  0.750000  0.175640  1.0  0.0412
  C  C244  1  0.285930  0.750000  0.214070  1.0  0.0381
  C  C245  1  0.935590  0.435590  0.250000  1.0  0.6703
  C  C246  1  0.896450  0.396450  0.250000  1.0  -0.1061
  C  C247  1  0.824360  0.324360  0.250000  1.0  0.0416
  C  C248  1  0.785930  0.285930  0.250000  1.0  0.0382
  C  C249  1  0.935590  0.564410  0.750000  1.0  0.6698
  C  C250  1  0.896450  0.603550  0.750000  1.0  -0.1062
  C  C251  1  0.824360  0.675640  0.750000  1.0  0.0416
  C  C252  1  0.785930  0.714070  0.750000  1.0  0.0383
  C  C253  1  0.064410  0.564410  0.250000  1.0  0.67
  C  C254  1  0.103550  0.603550  0.250000  1.0  -0.1066
  C  C255  1  0.175640  0.675640  0.250000  1.0  0.042
  C  C256  1  0.214070  0.714070  0.250000  1.0  0.0369
  C  C257  1  0.064410  0.435590  0.750000  1.0  0.6704
  C  C258  1  0.103550  0.396450  0.750000  1.0  -0.1065
  C  C259  1  0.175640  0.324360  0.750000  1.0  0.0423
  C  C260  1  0.214070  0.285930  0.750000  1.0  0.0373
  C  C261  1  0.250000  0.935590  0.435590  1.0  0.6703
  C  C262  1  0.250000  0.896450  0.396450  1.0  -0.1055
  C  C263  1  0.250000  0.824360  0.324360  1.0  0.0425
  C  C264  1  0.250000  0.785930  0.285930  1.0  0.0388
  C  C265  1  0.750000  0.935590  0.564410  1.0  0.6701
  C  C266  1  0.750000  0.896450  0.603550  1.0  -0.1055
  C  C267  1  0.750000  0.824360  0.675640  1.0  0.0424
  C  C268  1  0.750000  0.785930  0.714070  1.0  0.0391
  C  C269  1  0.250000  0.064410  0.564410  1.0  0.6697
  C  C270  1  0.250000  0.103550  0.603550  1.0  -0.1058
  C  C271  1  0.250000  0.175640  0.675640  1.0  0.0423
  C  C272  1  0.250000  0.214070  0.714070  1.0  0.039
  C  C273  1  0.750000  0.064410  0.435590  1.0  0.6699
  C  C274  1  0.750000  0.103550  0.396450  1.0  -0.1052
  C  C275  1  0.750000  0.175640  0.324360  1.0  0.0427
  C  C276  1  0.750000  0.214070  0.285930  1.0  0.0386
  C  C277  1  0.564410  0.750000  0.064410  1.0  0.6699
  C  C278  1  0.603550  0.750000  0.103550  1.0  -0.1073
  C  C279  1  0.675640  0.750000  0.175640  1.0  0.0416
  C  C280  1  0.714070  0.750000  0.214070  1.0  0.037
  C  C281  1  0.435590  0.250000  0.064410  1.0  0.6698
  C  C282  1  0.396450  0.250000  0.103550  1.0  -0.1071
  C  C283  1  0.324360  0.250000  0.175640  1.0  0.0412
  C  C284  1  0.285930  0.250000  0.214070  1.0  0.0381
  C  C285  1  0.435590  0.750000  0.935590  1.0  0.6699
  C  C286  1  0.396450  0.750000  0.896450  1.0  -0.1067
  C  C287  1  0.324360  0.750000  0.824360  1.0  0.0414
  C  C288  1  0.285930  0.750000  0.785930  1.0  0.0375
  C  C289  1  0.564410  0.250000  0.935590  1.0  0.6701
  C  C290  1  0.603550  0.250000  0.896450  1.0  -0.107
  C  C291  1  0.675640  0.250000  0.824360  1.0  0.0419
  C  C292  1  0.714070  0.250000  0.785930  1.0  0.0366
  C  C293  1  0.064410  0.564410  0.750000  1.0  0.67
  C  C294  1  0.103550  0.603550  0.750000  1.0  -0.1066
  C  C295  1  0.175640  0.675640  0.750000  1.0  0.042
  C  C296  1  0.214070  0.714070  0.750000  1.0  0.0369
  C  C297  1  0.064410  0.435590  0.250000  1.0  0.6704
  C  C298  1  0.103550  0.396450  0.250000  1.0  -0.1065
  C  C299  1  0.175640  0.324360  0.250000  1.0  0.0423
  C  C300  1  0.214070  0.285930  0.250000  1.0  0.0373
  C  C301  1  0.935590  0.435590  0.750000  1.0  0.6703
  C  C302  1  0.896450  0.396450  0.750000  1.0  -0.1061
  C  C303  1  0.824360  0.324360  0.750000  1.0  0.0416
  C  C304  1  0.785930  0.285930  0.750000  1.0  0.0382
  C  C305  1  0.935590  0.564410  0.250000  1.0  0.6698
  C  C306  1  0.896450  0.603550  0.250000  1.0  -0.1062
  C  C307  1  0.824360  0.675640  0.250000  1.0  0.0416
  C  C308  1  0.785930  0.714070  0.250000  1.0  0.0383
  C  C309  1  0.750000  0.064410  0.564410  1.0  0.6697
  C  C310  1  0.750000  0.103550  0.603550  1.0  -0.1058
  C  C311  1  0.750000  0.175640  0.675640  1.0  0.0423
  C  C312  1  0.750000  0.214070  0.714070  1.0  0.039
  C  C313  1  0.250000  0.064410  0.435590  1.0  0.6699
  C  C314  1  0.250000  0.103550  0.396450  1.0  -0.1052
  C  C315  1  0.250000  0.175640  0.324360  1.0  0.0427
  C  C316  1  0.250000  0.214070  0.285930  1.0  0.0386
  C  C317  1  0.750000  0.935590  0.435590  1.0  0.6703
  C  C318  1  0.750000  0.896450  0.396450  1.0  -0.1055
  C  C319  1  0.750000  0.824360  0.324360  1.0  0.0425
  C  C320  1  0.750000  0.785930  0.285930  1.0  0.0388
  C  C321  1  0.250000  0.935590  0.564410  1.0  0.6701
  C  C322  1  0.250000  0.896450  0.603550  1.0  -0.1055
  C  C323  1  0.250000  0.824360  0.675640  1.0  0.0424
  C  C324  1  0.250000  0.785930  0.714070  1.0  0.0391
  C  C325  1  0.285800  0.214200  0.750000  1.0  -0.1035
  C  C326  1  0.714200  0.785800  0.750000  1.0  -0.1025
  C  C327  1  0.714200  0.214200  0.250000  1.0  -0.1037
  C  C328  1  0.285800  0.785800  0.250000  1.0  -0.1024
  C  C329  1  0.750000  0.285800  0.214200  1.0  -0.1005
  C  C330  1  0.750000  0.714200  0.785800  1.0  -0.1012
  C  C331  1  0.250000  0.714200  0.214200  1.0  -0.1014
  C  C332  1  0.250000  0.285800  0.785800  1.0  -0.1003
  C  C333  1  0.214200  0.750000  0.285800  1.0  -0.1035
  C  C334  1  0.785800  0.750000  0.714200  1.0  -0.1035
  C  C335  1  0.214200  0.250000  0.714200  1.0  -0.1038
  C  C336  1  0.785800  0.250000  0.285800  1.0  -0.1035
  C  C337  1  0.714200  0.785800  0.250000  1.0  -0.1025
  C  C338  1  0.285800  0.214200  0.250000  1.0  -0.1035
  C  C339  1  0.285800  0.785800  0.750000  1.0  -0.1024
  C  C340  1  0.714200  0.214200  0.750000  1.0  -0.1037
  C  C341  1  0.250000  0.714200  0.785800  1.0  -0.1012
  C  C342  1  0.250000  0.285800  0.214200  1.0  -0.1005
  C  C343  1  0.750000  0.285800  0.785800  1.0  -0.1003
  C  C344  1  0.750000  0.714200  0.214200  1.0  -0.1014
  C  C345  1  0.785800  0.250000  0.714200  1.0  -0.1035
  C  C346  1  0.214200  0.250000  0.285800  1.0  -0.1035
  C  C347  1  0.785800  0.750000  0.285800  1.0  -0.1035
  C  C348  1  0.214200  0.750000  0.714200  1.0  -0.1038
  O  O349  1  0.449940  0.209140  0.949830  1.0  -0.5727
  O  O350  1  0.550060  0.790860  0.949830  1.0  -0.5706
  O  O351  1  0.550060  0.209140  0.050170  1.0  -0.5723
  O  O352  1  0.449940  0.790860  0.050170  1.0  -0.5717
  O  O353  1  0.949830  0.449940  0.209140  1.0  -0.5719
  O  O354  1  0.949830  0.550060  0.790860  1.0  -0.572
  O  O355  1  0.050170  0.550060  0.209140  1.0  -0.5717
  O  O356  1  0.050170  0.449940  0.790860  1.0  -0.5713
  O  O357  1  0.209140  0.949830  0.449940  1.0  -0.5728
  O  O358  1  0.790860  0.949830  0.550060  1.0  -0.5723
  O  O359  1  0.209140  0.050170  0.550060  1.0  -0.573
  O  O360  1  0.790860  0.050170  0.449940  1.0  -0.5722
  O  O361  1  0.709140  0.949940  0.550170  1.0  -0.5731
  O  O362  1  0.290860  0.050060  0.550170  1.0  -0.5721
  O  O363  1  0.709140  0.050060  0.449830  1.0  -0.5728
  O  O364  1  0.290860  0.949940  0.449830  1.0  -0.5724
  O  O365  1  0.949940  0.449830  0.290860  1.0  -0.572
  O  O366  1  0.050060  0.449830  0.709140  1.0  -0.5716
  O  O367  1  0.050060  0.550170  0.290860  1.0  -0.5716
  O  O368  1  0.949940  0.550170  0.709140  1.0  -0.572
  O  O369  1  0.449830  0.709140  0.050060  1.0  -0.573
  O  O370  1  0.449830  0.290860  0.949940  1.0  -0.5709
  O  O371  1  0.550170  0.709140  0.949940  1.0  -0.5721
  O  O372  1  0.550170  0.290860  0.050060  1.0  -0.571
  O  O373  1  0.550060  0.790860  0.050170  1.0  -0.5712
  O  O374  1  0.449940  0.209140  0.050170  1.0  -0.5729
  O  O375  1  0.449940  0.790860  0.949830  1.0  -0.571
  O  O376  1  0.550060  0.209140  0.949830  1.0  -0.5723
  O  O377  1  0.050170  0.550060  0.790860  1.0  -0.5714
  O  O378  1  0.050170  0.449940  0.209140  1.0  -0.5715
  O  O379  1  0.949830  0.449940  0.790860  1.0  -0.572
  O  O380  1  0.949830  0.550060  0.209140  1.0  -0.572
  O  O381  1  0.790860  0.050170  0.550060  1.0  -0.5722
  O  O382  1  0.209140  0.050170  0.449940  1.0  -0.5726
  O  O383  1  0.790860  0.949830  0.449940  1.0  -0.5725
  O  O384  1  0.209140  0.949830  0.550060  1.0  -0.5731
  O  O385  1  0.290860  0.050060  0.449830  1.0  -0.5721
  O  O386  1  0.709140  0.949940  0.449830  1.0  -0.5729
  O  O387  1  0.290860  0.949940  0.550170  1.0  -0.5723
  O  O388  1  0.709140  0.050060  0.550170  1.0  -0.573
  O  O389  1  0.050060  0.550170  0.709140  1.0  -0.5719
  O  O390  1  0.949940  0.550170  0.290860  1.0  -0.572
  O  O391  1  0.949940  0.449830  0.709140  1.0  -0.5719
  O  O392  1  0.050060  0.449830  0.290860  1.0  -0.5715
  O  O393  1  0.550170  0.290860  0.949940  1.0  -0.5704
  O  O394  1  0.550170  0.709140  0.050060  1.0  -0.5723
  O  O395  1  0.449830  0.290860  0.050060  1.0  -0.5716
  O  O396  1  0.449830  0.709140  0.949940  1.0  -0.5728
