# generated using pymatgen
data_CuH10(C9O2)2
_symmetry_space_group_name_H-M   'P 1'
_cell_length_a   27.41800000
_cell_length_b   27.41800000
_cell_length_c   27.41800000
_cell_angle_alpha   90.00000000
_cell_angle_beta   90.00000000
_cell_angle_gamma   90.00000000
_symmetry_Int_Tables_number   1
_chemical_formula_structural   CuH10(C9O2)2
_chemical_formula_sum   'Cu12 H120 C216 O48'
_cell_volume   20611.39167863
_cell_formula_units_Z   12
loop_
 _symmetry_equiv_pos_site_id
 _symmetry_equiv_pos_as_xyz
  1  'x, y, z'
loop_
 _atom_site_type_symbol
 _atom_site_label
 _atom_site_symmetry_multiplicity
 _atom_site_fract_x
 _atom_site_fract_y
 _atom_site_fract_z
 _atom_site_occupancy
 _atom_site_charge
  Cu  Cu1  1  0.000000  0.798220  0.500000  1.0  0.9051
  Cu  Cu2  1  0.000000  0.201780  0.500000  1.0  0.9072
  Cu  Cu3  1  0.500000  0.000000  0.798220  1.0  0.9053
  Cu  Cu4  1  0.500000  0.000000  0.201780  1.0  0.9044
  Cu  Cu5  1  0.798220  0.500000  0.000000  1.0  0.904
  Cu  Cu6  1  0.201780  0.500000  0.000000  1.0  0.9026
  Cu  Cu7  1  0.298220  0.500000  0.000000  1.0  0.9101
  Cu  Cu8  1  0.701780  0.500000  0.000000  1.0  0.909
  Cu  Cu9  1  0.500000  0.000000  0.701780  1.0  0.911
  Cu  Cu10  1  0.500000  0.000000  0.298220  1.0  0.9118
  Cu  Cu11  1  0.000000  0.298220  0.500000  1.0  0.9114
  Cu  Cu12  1  0.000000  0.701780  0.500000  1.0  0.9125
  H  H13  1  0.889400  0.822400  0.609000  1.0  0.107
  H  H14  1  0.832600  0.823400  0.669700  1.0  0.1239
  H  H15  1  0.110600  0.177600  0.609000  1.0  0.1065
  H  H16  1  0.167400  0.176600  0.669700  1.0  0.1236
  H  H17  1  0.110600  0.822400  0.391000  1.0  0.1067
  H  H18  1  0.167400  0.823400  0.330300  1.0  0.1238
  H  H19  1  0.889400  0.177600  0.391000  1.0  0.1065
  H  H20  1  0.832600  0.176600  0.330300  1.0  0.1237
  H  H21  1  0.609000  0.889400  0.822400  1.0  0.1067
  H  H22  1  0.669700  0.832600  0.823400  1.0  0.1232
  H  H23  1  0.609000  0.110600  0.177600  1.0  0.1069
  H  H24  1  0.669700  0.167400  0.176600  1.0  0.1234
  H  H25  1  0.391000  0.110600  0.822400  1.0  0.1065
  H  H26  1  0.330300  0.167400  0.823400  1.0  0.1238
  H  H27  1  0.391000  0.889400  0.177600  1.0  0.1072
  H  H28  1  0.330300  0.832600  0.176600  1.0  0.1233
  H  H29  1  0.822400  0.609000  0.889400  1.0  0.1073
  H  H30  1  0.823400  0.669700  0.832600  1.0  0.124
  H  H31  1  0.177600  0.609000  0.110600  1.0  0.1074
  H  H32  1  0.176600  0.669700  0.167400  1.0  0.124
  H  H33  1  0.822400  0.391000  0.110600  1.0  0.1075
  H  H34  1  0.823400  0.330300  0.167400  1.0  0.1238
  H  H35  1  0.177600  0.391000  0.889400  1.0  0.1071
  H  H36  1  0.176600  0.330300  0.832600  1.0  0.1244
  H  H37  1  0.322400  0.389400  0.891000  1.0  0.1072
  H  H38  1  0.323400  0.332600  0.830300  1.0  0.1237
  H  H39  1  0.677600  0.610600  0.891000  1.0  0.107
  H  H40  1  0.676600  0.667400  0.830300  1.0  0.1242
  H  H41  1  0.322400  0.610600  0.109000  1.0  0.107
  H  H42  1  0.323400  0.667400  0.169700  1.0  0.124
  H  H43  1  0.677600  0.389400  0.109000  1.0  0.1074
  H  H44  1  0.676600  0.332600  0.169700  1.0  0.1238
  H  H45  1  0.389400  0.109000  0.677600  1.0  0.1072
  H  H46  1  0.332600  0.169700  0.676600  1.0  0.1239
  H  H47  1  0.610600  0.109000  0.322400  1.0  0.1068
  H  H48  1  0.667400  0.169700  0.323400  1.0  0.1237
  H  H49  1  0.610600  0.891000  0.677600  1.0  0.1071
  H  H50  1  0.667400  0.830300  0.676600  1.0  0.1238
  H  H51  1  0.389400  0.891000  0.322400  1.0  0.1068
  H  H52  1  0.332600  0.830300  0.323400  1.0  0.1236
  H  H53  1  0.109000  0.322400  0.610600  1.0  0.1069
  H  H54  1  0.169700  0.323400  0.667400  1.0  0.1233
  H  H55  1  0.109000  0.677600  0.389400  1.0  0.1064
  H  H56  1  0.169700  0.676600  0.332600  1.0  0.1233
  H  H57  1  0.891000  0.322400  0.389400  1.0  0.1069
  H  H58  1  0.830300  0.323400  0.332600  1.0  0.124
  H  H59  1  0.891000  0.677600  0.610600  1.0  0.1067
  H  H60  1  0.830300  0.676600  0.667400  1.0  0.1231
  H  H61  1  0.110600  0.177600  0.391000  1.0  0.1064
  H  H62  1  0.167400  0.176600  0.330300  1.0  0.1236
  H  H63  1  0.889400  0.822400  0.391000  1.0  0.1068
  H  H64  1  0.832600  0.823400  0.330300  1.0  0.1243
  H  H65  1  0.889400  0.177600  0.609000  1.0  0.1067
  H  H66  1  0.832600  0.176600  0.669700  1.0  0.1235
  H  H67  1  0.110600  0.822400  0.609000  1.0  0.107
  H  H68  1  0.167400  0.823400  0.669700  1.0  0.1236
  H  H69  1  0.391000  0.110600  0.177600  1.0  0.1069
  H  H70  1  0.330300  0.167400  0.176600  1.0  0.1237
  H  H71  1  0.391000  0.889400  0.822400  1.0  0.1068
  H  H72  1  0.330300  0.832600  0.823400  1.0  0.1234
  H  H73  1  0.609000  0.889400  0.177600  1.0  0.1071
  H  H74  1  0.669700  0.832600  0.176600  1.0  0.123
  H  H75  1  0.609000  0.110600  0.822400  1.0  0.1065
  H  H76  1  0.669700  0.167400  0.823400  1.0  0.1237
  H  H77  1  0.177600  0.391000  0.110600  1.0  0.1074
  H  H78  1  0.176600  0.330300  0.167400  1.0  0.1239
  H  H79  1  0.822400  0.391000  0.889400  1.0  0.1072
  H  H80  1  0.823400  0.330300  0.832600  1.0  0.1243
  H  H81  1  0.177600  0.609000  0.889400  1.0  0.1075
  H  H82  1  0.176600  0.669700  0.832600  1.0  0.1242
  H  H83  1  0.822400  0.609000  0.110600  1.0  0.1073
  H  H84  1  0.823400  0.669700  0.167400  1.0  0.1238
  H  H85  1  0.677600  0.610600  0.109000  1.0  0.1071
  H  H86  1  0.676600  0.667400  0.169700  1.0  0.124
  H  H87  1  0.322400  0.389400  0.109000  1.0  0.1076
  H  H88  1  0.323400  0.332600  0.169700  1.0  0.1235
  H  H89  1  0.677600  0.389400  0.891000  1.0  0.107
  H  H90  1  0.676600  0.332600  0.830300  1.0  0.124
  H  H91  1  0.322400  0.610600  0.891000  1.0  0.1069
  H  H92  1  0.323400  0.667400  0.830300  1.0  0.1241
  H  H93  1  0.610600  0.891000  0.322400  1.0  0.1067
  H  H94  1  0.667400  0.830300  0.323400  1.0  0.1238
  H  H95  1  0.389400  0.891000  0.677600  1.0  0.1071
  H  H96  1  0.332600  0.830300  0.676600  1.0  0.124
  H  H97  1  0.389400  0.109000  0.322400  1.0  0.1068
  H  H98  1  0.332600  0.169700  0.323400  1.0  0.1237
  H  H99  1  0.610600  0.109000  0.677600  1.0  0.1072
  H  H100  1  0.667400  0.169700  0.676600  1.0  0.1235
  H  H101  1  0.891000  0.677600  0.389400  1.0  0.1067
  H  H102  1  0.830300  0.676600  0.332600  1.0  0.1235
  H  H103  1  0.891000  0.322400  0.610600  1.0  0.107
  H  H104  1  0.830300  0.323400  0.667400  1.0  0.1236
  H  H105  1  0.109000  0.677600  0.610600  1.0  0.1065
  H  H106  1  0.169700  0.676600  0.667400  1.0  0.123
  H  H107  1  0.109000  0.322400  0.389400  1.0  0.1067
  H  H108  1  0.169700  0.323400  0.332600  1.0  0.1236
  H  H109  1  0.750000  0.810100  0.689900  1.0  0.125
  H  H110  1  0.250000  0.189900  0.689900  1.0  0.1252
  H  H111  1  0.250000  0.810100  0.310100  1.0  0.1254
  H  H112  1  0.750000  0.189900  0.310100  1.0  0.1257
  H  H113  1  0.689900  0.750000  0.810100  1.0  0.1255
  H  H114  1  0.689900  0.250000  0.189900  1.0  0.1246
  H  H115  1  0.310100  0.250000  0.810100  1.0  0.1255
  H  H116  1  0.310100  0.750000  0.189900  1.0  0.1248
  H  H117  1  0.810100  0.689900  0.750000  1.0  0.1256
  H  H118  1  0.189900  0.689900  0.250000  1.0  0.1253
  H  H119  1  0.810100  0.310100  0.250000  1.0  0.1248
  H  H120  1  0.189900  0.310100  0.750000  1.0  0.1251
  H  H121  1  0.250000  0.189900  0.310100  1.0  0.1257
  H  H122  1  0.750000  0.810100  0.310100  1.0  0.1254
  H  H123  1  0.750000  0.189900  0.689900  1.0  0.1252
  H  H124  1  0.250000  0.810100  0.689900  1.0  0.125
  H  H125  1  0.310100  0.250000  0.189900  1.0  0.1248
  H  H126  1  0.310100  0.750000  0.810100  1.0  0.1255
  H  H127  1  0.689900  0.750000  0.189900  1.0  0.1246
  H  H128  1  0.689900  0.250000  0.810100  1.0  0.1255
  H  H129  1  0.189900  0.310100  0.250000  1.0  0.1251
  H  H130  1  0.810100  0.310100  0.750000  1.0  0.1248
  H  H131  1  0.189900  0.689900  0.750000  1.0  0.1253
  H  H132  1  0.810100  0.689900  0.250000  1.0  0.1256
  C  C133  1  0.878000  0.793000  0.621600  1.0  -0.0296
  C  C134  1  0.843600  0.793800  0.657300  1.0  -0.1579
  C  C135  1  0.122000  0.207000  0.621600  1.0  -0.0304
  C  C136  1  0.156400  0.206200  0.657300  1.0  -0.1561
  C  C137  1  0.122000  0.793000  0.378400  1.0  -0.0309
  C  C138  1  0.156400  0.793800  0.342700  1.0  -0.1575
  C  C139  1  0.878000  0.207000  0.378400  1.0  -0.0299
  C  C140  1  0.843600  0.206200  0.342700  1.0  -0.1573
  C  C141  1  0.621600  0.878000  0.793000  1.0  -0.032
  C  C142  1  0.657300  0.843600  0.793800  1.0  -0.1569
  C  C143  1  0.621600  0.122000  0.207000  1.0  -0.0317
  C  C144  1  0.657300  0.156400  0.206200  1.0  -0.1574
  C  C145  1  0.378400  0.122000  0.793000  1.0  -0.0307
  C  C146  1  0.342700  0.156400  0.793800  1.0  -0.158
  C  C147  1  0.378400  0.878000  0.207000  1.0  -0.0316
  C  C148  1  0.342700  0.843600  0.206200  1.0  -0.1574
  C  C149  1  0.793000  0.621600  0.878000  1.0  -0.0266
  C  C150  1  0.793800  0.657300  0.843600  1.0  -0.155
  C  C151  1  0.207000  0.621600  0.122000  1.0  -0.029
  C  C152  1  0.206200  0.657300  0.156400  1.0  -0.1573
  C  C153  1  0.793000  0.378400  0.122000  1.0  -0.0272
  C  C154  1  0.793800  0.342700  0.156400  1.0  -0.1549
  C  C155  1  0.207000  0.378400  0.878000  1.0  -0.0287
  C  C156  1  0.206200  0.342700  0.843600  1.0  -0.1555
  C  C157  1  0.293000  0.378000  0.878400  1.0  -0.0261
  C  C158  1  0.293800  0.343600  0.842700  1.0  -0.1547
  C  C159  1  0.707000  0.622000  0.878400  1.0  -0.028
  C  C160  1  0.706200  0.656400  0.842700  1.0  -0.1559
  C  C161  1  0.293000  0.622000  0.121600  1.0  -0.0267
  C  C162  1  0.293800  0.656400  0.157300  1.0  -0.1543
  C  C163  1  0.707000  0.378000  0.121600  1.0  -0.0279
  C  C164  1  0.706200  0.343600  0.157300  1.0  -0.156
  C  C165  1  0.378000  0.121600  0.707000  1.0  -0.0311
  C  C166  1  0.343600  0.157300  0.706200  1.0  -0.1585
  C  C167  1  0.622000  0.121600  0.293000  1.0  -0.0321
  C  C168  1  0.656400  0.157300  0.293800  1.0  -0.1572
  C  C169  1  0.622000  0.878400  0.707000  1.0  -0.0328
  C  C170  1  0.656400  0.842700  0.706200  1.0  -0.157
  C  C171  1  0.378000  0.878400  0.293000  1.0  -0.0309
  C  C172  1  0.343600  0.842700  0.293800  1.0  -0.158
  C  C173  1  0.121600  0.293000  0.622000  1.0  -0.0309
  C  C174  1  0.157300  0.293800  0.656400  1.0  -0.1585
  C  C175  1  0.121600  0.707000  0.378000  1.0  -0.0309
  C  C176  1  0.157300  0.706200  0.343600  1.0  -0.1562
  C  C177  1  0.878400  0.293000  0.378000  1.0  -0.0304
  C  C178  1  0.842700  0.293800  0.343600  1.0  -0.1586
  C  C179  1  0.878400  0.707000  0.622000  1.0  -0.0303
  C  C180  1  0.842700  0.706200  0.656400  1.0  -0.1584
  C  C181  1  0.122000  0.207000  0.378400  1.0  -0.0304
  C  C182  1  0.156400  0.206200  0.342700  1.0  -0.1561
  C  C183  1  0.878000  0.793000  0.378400  1.0  -0.0298
  C  C184  1  0.843600  0.793800  0.342700  1.0  -0.1582
  C  C185  1  0.878000  0.207000  0.621600  1.0  -0.0299
  C  C186  1  0.843600  0.206200  0.657300  1.0  -0.1572
  C  C187  1  0.122000  0.793000  0.621600  1.0  -0.0307
  C  C188  1  0.156400  0.793800  0.657300  1.0  -0.1573
  C  C189  1  0.378400  0.122000  0.207000  1.0  -0.0311
  C  C190  1  0.342700  0.156400  0.206200  1.0  -0.1575
  C  C191  1  0.378400  0.878000  0.793000  1.0  -0.0306
  C  C192  1  0.342700  0.843600  0.793800  1.0  -0.1578
  C  C193  1  0.621600  0.878000  0.207000  1.0  -0.0322
  C  C194  1  0.657300  0.843600  0.206200  1.0  -0.1573
  C  C195  1  0.621600  0.122000  0.793000  1.0  -0.0319
  C  C196  1  0.657300  0.156400  0.793800  1.0  -0.1571
  C  C197  1  0.207000  0.378400  0.122000  1.0  -0.0288
  C  C198  1  0.206200  0.342700  0.156400  1.0  -0.1566
  C  C199  1  0.793000  0.378400  0.878000  1.0  -0.027
  C  C200  1  0.793800  0.342700  0.843600  1.0  -0.1551
  C  C201  1  0.207000  0.621600  0.878000  1.0  -0.0285
  C  C202  1  0.206200  0.657300  0.843600  1.0  -0.1564
  C  C203  1  0.793000  0.621600  0.122000  1.0  -0.0272
  C  C204  1  0.793800  0.657300  0.156400  1.0  -0.1549
  C  C205  1  0.707000  0.622000  0.121600  1.0  -0.0283
  C  C206  1  0.706200  0.656400  0.157300  1.0  -0.1565
  C  C207  1  0.293000  0.378000  0.121600  1.0  -0.0264
  C  C208  1  0.293800  0.343600  0.157300  1.0  -0.1541
  C  C209  1  0.707000  0.378000  0.878400  1.0  -0.0279
  C  C210  1  0.706200  0.343600  0.842700  1.0  -0.1559
  C  C211  1  0.293000  0.622000  0.878400  1.0  -0.0262
  C  C212  1  0.293800  0.656400  0.842700  1.0  -0.1545
  C  C213  1  0.622000  0.878400  0.293000  1.0  -0.0326
  C  C214  1  0.656400  0.842700  0.293800  1.0  -0.1569
  C  C215  1  0.378000  0.878400  0.707000  1.0  -0.0321
  C  C216  1  0.343600  0.842700  0.706200  1.0  -0.158
  C  C217  1  0.378000  0.121600  0.293000  1.0  -0.0304
  C  C218  1  0.343600  0.157300  0.293800  1.0  -0.158
  C  C219  1  0.622000  0.121600  0.707000  1.0  -0.032
  C  C220  1  0.656400  0.157300  0.706200  1.0  -0.1578
  C  C221  1  0.878400  0.707000  0.378000  1.0  -0.0304
  C  C222  1  0.842700  0.706200  0.343600  1.0  -0.1574
  C  C223  1  0.878400  0.293000  0.622000  1.0  -0.0301
  C  C224  1  0.842700  0.293800  0.656400  1.0  -0.1589
  C  C225  1  0.121600  0.707000  0.622000  1.0  -0.0307
  C  C226  1  0.157300  0.706200  0.656400  1.0  -0.1572
  C  C227  1  0.121600  0.293000  0.378000  1.0  -0.031
  C  C228  1  0.157300  0.293800  0.343600  1.0  -0.158
  C  C229  1  0.896500  0.750000  0.603500  1.0  -0.1443
  C  C230  1  0.934750  0.750000  0.565250  1.0  0.6896
  C  C231  1  0.784820  0.750000  0.715180  1.0  0.0343
  C  C232  1  0.824600  0.750000  0.675400  1.0  0.0462
  C  C233  1  0.103500  0.250000  0.603500  1.0  -0.1437
  C  C234  1  0.065250  0.250000  0.565250  1.0  0.6902
  C  C235  1  0.215180  0.250000  0.715180  1.0  0.0333
  C  C236  1  0.175400  0.250000  0.675400  1.0  0.0462
  C  C237  1  0.103500  0.750000  0.396500  1.0  -0.1439
  C  C238  1  0.065250  0.750000  0.434750  1.0  0.6898
  C  C239  1  0.215180  0.750000  0.284820  1.0  0.0336
  C  C240  1  0.175400  0.750000  0.324600  1.0  0.0468
  C  C241  1  0.896500  0.250000  0.396500  1.0  -0.1445
  C  C242  1  0.934750  0.250000  0.434750  1.0  0.6892
  C  C243  1  0.784820  0.250000  0.284820  1.0  0.0348
  C  C244  1  0.824600  0.250000  0.324600  1.0  0.0468
  C  C245  1  0.603500  0.896500  0.750000  1.0  -0.1426
  C  C246  1  0.565250  0.934750  0.750000  1.0  0.69
  C  C247  1  0.715180  0.784820  0.750000  1.0  0.0346
  C  C248  1  0.675400  0.824600  0.750000  1.0  0.0465
  C  C249  1  0.603500  0.103500  0.250000  1.0  -0.1426
  C  C250  1  0.565250  0.065250  0.250000  1.0  0.69
  C  C251  1  0.715180  0.215180  0.250000  1.0  0.0341
  C  C252  1  0.675400  0.175400  0.250000  1.0  0.0466
  C  C253  1  0.396500  0.103500  0.750000  1.0  -0.1428
  C  C254  1  0.434750  0.065250  0.750000  1.0  0.6894
  C  C255  1  0.284820  0.215180  0.750000  1.0  0.0353
  C  C256  1  0.324600  0.175400  0.750000  1.0  0.0467
  C  C257  1  0.396500  0.896500  0.250000  1.0  -0.1429
  C  C258  1  0.434750  0.934750  0.250000  1.0  0.6896
  C  C259  1  0.284820  0.784820  0.250000  1.0  0.0357
  C  C260  1  0.324600  0.824600  0.250000  1.0  0.0463
  C  C261  1  0.750000  0.603500  0.896500  1.0  -0.1422
  C  C262  1  0.750000  0.565250  0.934750  1.0  0.6894
  C  C263  1  0.750000  0.715180  0.784820  1.0  0.0357
  C  C264  1  0.750000  0.675400  0.824600  1.0  0.0478
  C  C265  1  0.250000  0.603500  0.103500  1.0  -0.1424
  C  C266  1  0.250000  0.565250  0.065250  1.0  0.6898
  C  C267  1  0.250000  0.715180  0.215180  1.0  0.0352
  C  C268  1  0.250000  0.675400  0.175400  1.0  0.0472
  C  C269  1  0.750000  0.396500  0.103500  1.0  -0.1423
  C  C270  1  0.750000  0.434750  0.065250  1.0  0.6899
  C  C271  1  0.750000  0.284820  0.215180  1.0  0.0357
  C  C272  1  0.750000  0.324600  0.175400  1.0  0.0469
  C  C273  1  0.250000  0.396500  0.896500  1.0  -0.1426
  C  C274  1  0.250000  0.434750  0.934750  1.0  0.6894
  C  C275  1  0.250000  0.284820  0.784820  1.0  0.0362
  C  C276  1  0.250000  0.324600  0.824600  1.0  0.0472
  C  C277  1  0.103500  0.250000  0.396500  1.0  -0.1439
  C  C278  1  0.065250  0.250000  0.434750  1.0  0.6898
  C  C279  1  0.215180  0.250000  0.284820  1.0  0.0336
  C  C280  1  0.175400  0.250000  0.324600  1.0  0.0468
  C  C281  1  0.896500  0.750000  0.396500  1.0  -0.1445
  C  C282  1  0.934750  0.750000  0.434750  1.0  0.6892
  C  C283  1  0.784820  0.750000  0.284820  1.0  0.0348
  C  C284  1  0.824600  0.750000  0.324600  1.0  0.0468
  C  C285  1  0.896500  0.250000  0.603500  1.0  -0.1443
  C  C286  1  0.934750  0.250000  0.565250  1.0  0.6896
  C  C287  1  0.784820  0.250000  0.715180  1.0  0.0343
  C  C288  1  0.824600  0.250000  0.675400  1.0  0.0462
  C  C289  1  0.103500  0.750000  0.603500  1.0  -0.1437
  C  C290  1  0.065250  0.750000  0.565250  1.0  0.6902
  C  C291  1  0.215180  0.750000  0.715180  1.0  0.0333
  C  C292  1  0.175400  0.750000  0.675400  1.0  0.0462
  C  C293  1  0.396500  0.103500  0.250000  1.0  -0.1428
  C  C294  1  0.434750  0.065250  0.250000  1.0  0.6894
  C  C295  1  0.284820  0.215180  0.250000  1.0  0.0353
  C  C296  1  0.324600  0.175400  0.250000  1.0  0.0467
  C  C297  1  0.396500  0.896500  0.750000  1.0  -0.1429
  C  C298  1  0.434750  0.934750  0.750000  1.0  0.6896
  C  C299  1  0.284820  0.784820  0.750000  1.0  0.0357
  C  C300  1  0.324600  0.824600  0.750000  1.0  0.0463
  C  C301  1  0.603500  0.896500  0.250000  1.0  -0.1426
  C  C302  1  0.565250  0.934750  0.250000  1.0  0.69
  C  C303  1  0.715180  0.784820  0.250000  1.0  0.0346
  C  C304  1  0.675400  0.824600  0.250000  1.0  0.0465
  C  C305  1  0.603500  0.103500  0.750000  1.0  -0.1426
  C  C306  1  0.565250  0.065250  0.750000  1.0  0.69
  C  C307  1  0.715180  0.215180  0.750000  1.0  0.0341
  C  C308  1  0.675400  0.175400  0.750000  1.0  0.0466
  C  C309  1  0.250000  0.396500  0.103500  1.0  -0.1423
  C  C310  1  0.250000  0.434750  0.065250  1.0  0.6899
  C  C311  1  0.250000  0.284820  0.215180  1.0  0.0357
  C  C312  1  0.250000  0.324600  0.175400  1.0  0.0469
  C  C313  1  0.750000  0.396500  0.896500  1.0  -0.1426
  C  C314  1  0.750000  0.434750  0.934750  1.0  0.6894
  C  C315  1  0.750000  0.284820  0.784820  1.0  0.0362
  C  C316  1  0.750000  0.324600  0.824600  1.0  0.0472
  C  C317  1  0.250000  0.603500  0.896500  1.0  -0.1422
  C  C318  1  0.250000  0.565250  0.934750  1.0  0.6894
  C  C319  1  0.250000  0.715180  0.784820  1.0  0.0357
  C  C320  1  0.250000  0.675400  0.824600  1.0  0.0478
  C  C321  1  0.750000  0.603500  0.103500  1.0  -0.1424
  C  C322  1  0.750000  0.565250  0.065250  1.0  0.6898
  C  C323  1  0.750000  0.715180  0.215180  1.0  0.0352
  C  C324  1  0.750000  0.675400  0.175400  1.0  0.0472
  C  C325  1  0.750000  0.786100  0.713900  1.0  -0.1367
  C  C326  1  0.250000  0.213900  0.713900  1.0  -0.1379
  C  C327  1  0.250000  0.786100  0.286100  1.0  -0.137
  C  C328  1  0.750000  0.213900  0.286100  1.0  -0.1375
  C  C329  1  0.713900  0.750000  0.786100  1.0  -0.1398
  C  C330  1  0.713900  0.250000  0.213900  1.0  -0.1396
  C  C331  1  0.286100  0.250000  0.786100  1.0  -0.1392
  C  C332  1  0.286100  0.750000  0.213900  1.0  -0.1394
  C  C333  1  0.786100  0.713900  0.750000  1.0  -0.1389
  C  C334  1  0.213900  0.713900  0.250000  1.0  -0.1393
  C  C335  1  0.786100  0.286100  0.250000  1.0  -0.1384
  C  C336  1  0.213900  0.286100  0.750000  1.0  -0.1386
  C  C337  1  0.250000  0.213900  0.286100  1.0  -0.1375
  C  C338  1  0.750000  0.786100  0.286100  1.0  -0.137
  C  C339  1  0.750000  0.213900  0.713900  1.0  -0.1379
  C  C340  1  0.250000  0.786100  0.713900  1.0  -0.1367
  C  C341  1  0.286100  0.250000  0.213900  1.0  -0.1394
  C  C342  1  0.286100  0.750000  0.786100  1.0  -0.1392
  C  C343  1  0.713900  0.750000  0.213900  1.0  -0.1396
  C  C344  1  0.713900  0.250000  0.786100  1.0  -0.1398
  C  C345  1  0.213900  0.286100  0.250000  1.0  -0.1386
  C  C346  1  0.786100  0.286100  0.750000  1.0  -0.1384
  C  C347  1  0.213900  0.713900  0.750000  1.0  -0.1393
  C  C348  1  0.786100  0.713900  0.250000  1.0  -0.1389
  O  O349  1  0.950470  0.790680  0.549800  1.0  -0.5788
  O  O350  1  0.049530  0.209320  0.549800  1.0  -0.5785
  O  O351  1  0.049530  0.790680  0.450200  1.0  -0.5777
  O  O352  1  0.950470  0.209320  0.450200  1.0  -0.5787
  O  O353  1  0.549800  0.950470  0.790680  1.0  -0.578
  O  O354  1  0.549800  0.049530  0.209320  1.0  -0.5808
  O  O355  1  0.450200  0.049530  0.790680  1.0  -0.5794
  O  O356  1  0.450200  0.950470  0.209320  1.0  -0.58
  O  O357  1  0.790680  0.549800  0.950470  1.0  -0.5771
  O  O358  1  0.209320  0.549800  0.049530  1.0  -0.578
  O  O359  1  0.790680  0.450200  0.049530  1.0  -0.5769
  O  O360  1  0.209320  0.450200  0.950470  1.0  -0.5777
  O  O361  1  0.290680  0.450470  0.950200  1.0  -0.5768
  O  O362  1  0.709320  0.549530  0.950200  1.0  -0.5778
  O  O363  1  0.290680  0.549530  0.049800  1.0  -0.5772
  O  O364  1  0.709320  0.450470  0.049800  1.0  -0.5779
  O  O365  1  0.450470  0.049800  0.709320  1.0  -0.5807
  O  O366  1  0.549530  0.049800  0.290680  1.0  -0.5779
  O  O367  1  0.549530  0.950200  0.709320  1.0  -0.5795
  O  O368  1  0.450470  0.950200  0.290680  1.0  -0.5783
  O  O369  1  0.049800  0.290680  0.549530  1.0  -0.578
  O  O370  1  0.049800  0.709320  0.450470  1.0  -0.5788
  O  O371  1  0.950200  0.290680  0.450470  1.0  -0.5783
  O  O372  1  0.950200  0.709320  0.549530  1.0  -0.5788
  O  O373  1  0.049530  0.209320  0.450200  1.0  -0.5783
  O  O374  1  0.950470  0.790680  0.450200  1.0  -0.5785
  O  O375  1  0.950470  0.209320  0.549800  1.0  -0.5789
  O  O376  1  0.049530  0.790680  0.549800  1.0  -0.578
  O  O377  1  0.450200  0.049530  0.209320  1.0  -0.5806
  O  O378  1  0.450200  0.950470  0.790680  1.0  -0.5783
  O  O379  1  0.549800  0.950470  0.209320  1.0  -0.5801
  O  O380  1  0.549800  0.049530  0.790680  1.0  -0.5784
  O  O381  1  0.209320  0.450200  0.049530  1.0  -0.578
  O  O382  1  0.790680  0.450200  0.950470  1.0  -0.5767
  O  O383  1  0.209320  0.549800  0.950470  1.0  -0.5778
  O  O384  1  0.790680  0.549800  0.049530  1.0  -0.5773
  O  O385  1  0.709320  0.549530  0.049800  1.0  -0.578
  O  O386  1  0.290680  0.450470  0.049800  1.0  -0.5768
  O  O387  1  0.709320  0.450470  0.950200  1.0  -0.5776
  O  O388  1  0.290680  0.549530  0.950200  1.0  -0.5771
  O  O389  1  0.549530  0.950200  0.290680  1.0  -0.578
  O  O390  1  0.450470  0.950200  0.709320  1.0  -0.5801
  O  O391  1  0.450470  0.049800  0.290680  1.0  -0.5788
  O  O392  1  0.549530  0.049800  0.709320  1.0  -0.58
  O  O393  1  0.950200  0.709320  0.450470  1.0  -0.5787
  O  O394  1  0.950200  0.290680  0.549530  1.0  -0.5792
  O  O395  1  0.049800  0.709320  0.549530  1.0  -0.5789
  O  O396  1  0.049800  0.290680  0.450470  1.0  -0.5777
