# generated using pymatgen
data_CuH18(C15O2)2
_symmetry_space_group_name_H-M   'P 1'
_cell_length_a   48.30330000
_cell_length_b   48.30330000
_cell_length_c   48.30330000
_cell_angle_alpha   60.00000000
_cell_angle_beta   60.00000000
_cell_angle_gamma   60.00000000
_symmetry_Int_Tables_number   1
_chemical_formula_structural   CuH18(C15O2)2
_chemical_formula_sum   'Cu12 H216 C360 O48'
_cell_volume   79692.12514118
_cell_formula_units_Z   12
loop_
 _symmetry_equiv_pos_site_id
 _symmetry_equiv_pos_as_xyz
  1  'x, y, z'
loop_
 _atom_site_type_symbol
 _atom_site_label
 _atom_site_symmetry_multiplicity
 _atom_site_fract_x
 _atom_site_fract_y
 _atom_site_fract_z
 _atom_site_occupancy
 _atom_site_charge
  Cu  Cu1  1  0.500000  0.027280  0.972720  1.0  0.8851
  Cu  Cu2  1  0.027280  0.500000  0.500000  1.0  0.8871
  Cu  Cu3  1  0.972720  0.500000  0.500000  1.0  0.8885
  Cu  Cu4  1  0.500000  0.972720  0.027280  1.0  0.8873
  Cu  Cu5  1  0.500000  0.972720  0.500000  1.0  0.8866
  Cu  Cu6  1  0.027280  0.500000  0.972720  1.0  0.8869
  Cu  Cu7  1  0.972720  0.500000  0.027280  1.0  0.8889
  Cu  Cu8  1  0.500000  0.027280  0.500000  1.0  0.8857
  Cu  Cu9  1  0.500000  0.500000  0.027280  1.0  0.8852
  Cu  Cu10  1  0.027280  0.972720  0.500000  1.0  0.8849
  Cu  Cu11  1  0.972720  0.027280  0.500000  1.0  0.8862
  Cu  Cu12  1  0.500000  0.500000  0.972720  1.0  0.8859
  H  H13  1  0.524500  0.162700  0.078100  1.0  0.1044
  H  H14  1  0.520400  0.135800  0.051200  1.0  0.1113
  H  H15  1  0.523100  0.112300  0.027300  1.0  0.11
  H  H16  1  0.514900  0.086900  0.001900  1.0  0.1087
  H  H17  1  0.162700  0.524500  0.234700  1.0  0.1038
  H  H18  1  0.135800  0.520400  0.292600  1.0  0.1127
  H  H19  1  0.112300  0.523100  0.337300  1.0  0.1097
  H  H20  1  0.086900  0.514900  0.396300  1.0  0.1098
  H  H21  1  0.078100  0.234700  0.524500  1.0  0.1025
  H  H22  1  0.051200  0.292600  0.520400  1.0  0.1111
  H  H23  1  0.027300  0.337300  0.523100  1.0  0.108
  H  H24  1  0.001900  0.396300  0.514900  1.0  0.1083
  H  H25  1  0.234700  0.078100  0.162700  1.0  0.1036
  H  H26  1  0.292600  0.051200  0.135800  1.0  0.1136
  H  H27  1  0.337300  0.027300  0.112300  1.0  0.1098
  H  H28  1  0.396300  0.001900  0.086900  1.0  0.1089
  H  H29  1  0.524500  0.078100  0.234700  1.0  0.1036
  H  H30  1  0.520400  0.051200  0.292600  1.0  0.1133
  H  H31  1  0.523100  0.027300  0.337300  1.0  0.1089
  H  H32  1  0.514900  0.001900  0.396300  1.0  0.1102
  H  H33  1  0.162700  0.234700  0.078100  1.0  0.1037
  H  H34  1  0.135800  0.292600  0.051200  1.0  0.1117
  H  H35  1  0.112300  0.337300  0.027300  1.0  0.1084
  H  H36  1  0.086900  0.396300  0.001900  1.0  0.1094
  H  H37  1  0.078100  0.524500  0.162700  1.0  0.1029
  H  H38  1  0.051200  0.520400  0.135800  1.0  0.1097
  H  H39  1  0.027300  0.523100  0.112300  1.0  0.1095
  H  H40  1  0.001900  0.514900  0.086900  1.0  0.1094
  H  H41  1  0.234700  0.162700  0.524500  1.0  0.1035
  H  H42  1  0.292600  0.135800  0.520400  1.0  0.1121
  H  H43  1  0.337300  0.112300  0.523100  1.0  0.109
  H  H44  1  0.396300  0.086900  0.514900  1.0  0.1086
  H  H45  1  0.524500  0.234700  0.162700  1.0  0.1033
  H  H46  1  0.520400  0.292600  0.135800  1.0  0.1122
  H  H47  1  0.523100  0.337300  0.112300  1.0  0.1095
  H  H48  1  0.514900  0.396300  0.086900  1.0  0.1075
  H  H49  1  0.162700  0.078100  0.524500  1.0  0.1036
  H  H50  1  0.135800  0.051200  0.520400  1.0  0.1124
  H  H51  1  0.112300  0.027300  0.523100  1.0  0.1101
  H  H52  1  0.086900  0.001900  0.514900  1.0  0.1101
  H  H53  1  0.078100  0.162700  0.234700  1.0  0.106
  H  H54  1  0.051200  0.135800  0.292600  1.0  0.1126
  H  H55  1  0.027300  0.112300  0.337300  1.0  0.1101
  H  H56  1  0.001900  0.086900  0.396300  1.0  0.1088
  H  H57  1  0.234700  0.524500  0.078100  1.0  0.1043
  H  H58  1  0.292600  0.520400  0.051200  1.0  0.1123
  H  H59  1  0.337300  0.523100  0.027300  1.0  0.1106
  H  H60  1  0.396300  0.514900  0.001900  1.0  0.1094
  H  H61  1  0.837300  0.475500  0.921900  1.0  0.1017
  H  H62  1  0.864200  0.479600  0.948800  1.0  0.1124
  H  H63  1  0.887700  0.476900  0.972700  1.0  0.1083
  H  H64  1  0.913100  0.485100  0.998100  1.0  0.1091
  H  H65  1  0.475500  0.837300  0.765300  1.0  0.1052
  H  H66  1  0.479600  0.864200  0.707400  1.0  0.1119
  H  H67  1  0.476900  0.887700  0.662700  1.0  0.1101
  H  H68  1  0.485100  0.913100  0.603700  1.0  0.1089
  H  H69  1  0.765300  0.921900  0.475500  1.0  0.1035
  H  H70  1  0.707400  0.948800  0.479600  1.0  0.1136
  H  H71  1  0.662700  0.972700  0.476900  1.0  0.1096
  H  H72  1  0.603700  0.998100  0.485100  1.0  0.1093
  H  H73  1  0.921900  0.765300  0.837300  1.0  0.104
  H  H74  1  0.948800  0.707400  0.864200  1.0  0.1107
  H  H75  1  0.972700  0.662700  0.887700  1.0  0.1096
  H  H76  1  0.998100  0.603700  0.913100  1.0  0.1095
  H  H77  1  0.921900  0.475500  0.765300  1.0  0.1027
  H  H78  1  0.948800  0.479600  0.707400  1.0  0.1124
  H  H79  1  0.972700  0.476900  0.662700  1.0  0.1105
  H  H80  1  0.998100  0.485100  0.603700  1.0  0.1097
  H  H81  1  0.765300  0.837300  0.921900  1.0  0.1057
  H  H82  1  0.707400  0.864200  0.948800  1.0  0.1128
  H  H83  1  0.662700  0.887700  0.972700  1.0  0.109
  H  H84  1  0.603700  0.913100  0.998100  1.0  0.109
  H  H85  1  0.475500  0.921900  0.837300  1.0  0.1029
  H  H86  1  0.479600  0.948800  0.864200  1.0  0.1131
  H  H87  1  0.476900  0.972700  0.887700  1.0  0.1086
  H  H88  1  0.485100  0.998100  0.913100  1.0  0.1106
  H  H89  1  0.837300  0.765300  0.475500  1.0  0.1029
  H  H90  1  0.864200  0.707400  0.479600  1.0  0.1107
  H  H91  1  0.887700  0.662700  0.476900  1.0  0.1084
  H  H92  1  0.913100  0.603700  0.485100  1.0  0.1083
  H  H93  1  0.765300  0.475500  0.837300  1.0  0.1043
  H  H94  1  0.707400  0.479600  0.864200  1.0  0.1128
  H  H95  1  0.662700  0.476900  0.887700  1.0  0.1101
  H  H96  1  0.603700  0.485100  0.913100  1.0  0.1091
  H  H97  1  0.921900  0.837300  0.475500  1.0  0.1048
  H  H98  1  0.948800  0.864200  0.479600  1.0  0.1126
  H  H99  1  0.972700  0.887700  0.476900  1.0  0.1098
  H  H100  1  0.998100  0.913100  0.485100  1.0  0.1096
  H  H101  1  0.837300  0.921900  0.765300  1.0  0.1057
  H  H102  1  0.864200  0.948800  0.707400  1.0  0.1129
  H  H103  1  0.887700  0.972700  0.662700  1.0  0.1097
  H  H104  1  0.913100  0.998100  0.603700  1.0  0.1098
  H  H105  1  0.475500  0.765300  0.921900  1.0  0.1037
  H  H106  1  0.479600  0.707400  0.948800  1.0  0.1126
  H  H107  1  0.476900  0.662700  0.972700  1.0  0.1095
  H  H108  1  0.485100  0.603700  0.998100  1.0  0.1083
  H  H109  1  0.475500  0.837300  0.921900  1.0  0.104
  H  H110  1  0.479600  0.864200  0.948800  1.0  0.114
  H  H111  1  0.476900  0.887700  0.972700  1.0  0.11
  H  H112  1  0.485100  0.913100  0.998100  1.0  0.1093
  H  H113  1  0.837300  0.475500  0.765300  1.0  0.1033
  H  H114  1  0.864200  0.479600  0.707400  1.0  0.1107
  H  H115  1  0.887700  0.476900  0.662700  1.0  0.1081
  H  H116  1  0.913100  0.485100  0.603700  1.0  0.1087
  H  H117  1  0.921900  0.765300  0.475500  1.0  0.1026
  H  H118  1  0.948800  0.707400  0.479600  1.0  0.1117
  H  H119  1  0.972700  0.662700  0.476900  1.0  0.1094
  H  H120  1  0.998100  0.603700  0.485100  1.0  0.1093
  H  H121  1  0.765300  0.921900  0.837300  1.0  0.1045
  H  H122  1  0.707400  0.948800  0.864200  1.0  0.1122
  H  H123  1  0.662700  0.972700  0.887700  1.0  0.1095
  H  H124  1  0.603700  0.998100  0.913100  1.0  0.1097
  H  H125  1  0.475500  0.921900  0.765300  1.0  0.1033
  H  H126  1  0.479600  0.948800  0.707400  1.0  0.1133
  H  H127  1  0.476900  0.972700  0.662700  1.0  0.1106
  H  H128  1  0.485100  0.998100  0.603700  1.0  0.1103
  H  H129  1  0.837300  0.765300  0.921900  1.0  0.1043
  H  H130  1  0.864200  0.707400  0.948800  1.0  0.1104
  H  H131  1  0.887700  0.662700  0.972700  1.0  0.1083
  H  H132  1  0.913100  0.603700  0.998100  1.0  0.1083
  H  H133  1  0.921900  0.475500  0.837300  1.0  0.1032
  H  H134  1  0.948800  0.479600  0.864200  1.0  0.1119
  H  H135  1  0.972700  0.476900  0.887700  1.0  0.1089
  H  H136  1  0.998100  0.485100  0.913100  1.0  0.11
  H  H137  1  0.765300  0.837300  0.475500  1.0  0.1037
  H  H138  1  0.707400  0.864200  0.479600  1.0  0.1126
  H  H139  1  0.662700  0.887700  0.476900  1.0  0.1091
  H  H140  1  0.603700  0.913100  0.485100  1.0  0.1089
  H  H141  1  0.475500  0.765300  0.837300  1.0  0.1035
  H  H142  1  0.479600  0.707400  0.864200  1.0  0.112
  H  H143  1  0.476900  0.662700  0.887700  1.0  0.1098
  H  H144  1  0.485100  0.603700  0.913100  1.0  0.1085
  H  H145  1  0.837300  0.921900  0.475500  1.0  0.1034
  H  H146  1  0.864200  0.948800  0.479600  1.0  0.1134
  H  H147  1  0.887700  0.972700  0.476900  1.0  0.1097
  H  H148  1  0.913100  0.998100  0.485100  1.0  0.1097
  H  H149  1  0.921900  0.837300  0.765300  1.0  0.1068
  H  H150  1  0.948800  0.864200  0.707400  1.0  0.1122
  H  H151  1  0.972700  0.887700  0.662700  1.0  0.1092
  H  H152  1  0.998100  0.913100  0.603700  1.0  0.1099
  H  H153  1  0.765300  0.475500  0.921900  1.0  0.1042
  H  H154  1  0.707400  0.479600  0.948800  1.0  0.1126
  H  H155  1  0.662700  0.476900  0.972700  1.0  0.1101
  H  H156  1  0.603700  0.485100  0.998100  1.0  0.109
  H  H157  1  0.162700  0.524500  0.078100  1.0  0.1034
  H  H158  1  0.135800  0.520400  0.051200  1.0  0.1108
  H  H159  1  0.112300  0.523100  0.027300  1.0  0.1097
  H  H160  1  0.086900  0.514900  0.001900  1.0  0.11
  H  H161  1  0.524500  0.162700  0.234700  1.0  0.1046
  H  H162  1  0.520400  0.135800  0.292600  1.0  0.1132
  H  H163  1  0.523100  0.112300  0.337300  1.0  0.11
  H  H164  1  0.514900  0.086900  0.396300  1.0  0.1088
  H  H165  1  0.234700  0.078100  0.524500  1.0  0.1028
  H  H166  1  0.292600  0.051200  0.520400  1.0  0.1127
  H  H167  1  0.337300  0.027300  0.523100  1.0  0.1093
  H  H168  1  0.396300  0.001900  0.514900  1.0  0.1091
  H  H169  1  0.078100  0.234700  0.162700  1.0  0.1034
  H  H170  1  0.051200  0.292600  0.135800  1.0  0.1118
  H  H171  1  0.027300  0.337300  0.112300  1.0  0.1082
  H  H172  1  0.001900  0.396300  0.086900  1.0  0.108
  H  H173  1  0.078100  0.524500  0.234700  1.0  0.1034
  H  H174  1  0.051200  0.520400  0.292600  1.0  0.1097
  H  H175  1  0.027300  0.523100  0.337300  1.0  0.1076
  H  H176  1  0.001900  0.514900  0.396300  1.0  0.1097
  H  H177  1  0.234700  0.162700  0.078100  1.0  0.1042
  H  H178  1  0.292600  0.135800  0.051200  1.0  0.1121
  H  H179  1  0.337300  0.112300  0.027300  1.0  0.1086
  H  H180  1  0.396300  0.086900  0.001900  1.0  0.109
  H  H181  1  0.524500  0.078100  0.162700  1.0  0.1032
  H  H182  1  0.520400  0.051200  0.135800  1.0  0.1134
  H  H183  1  0.523100  0.027300  0.112300  1.0  0.1112
  H  H184  1  0.514900  0.001900  0.086900  1.0  0.1103
  H  H185  1  0.162700  0.234700  0.524500  1.0  0.1022
  H  H186  1  0.135800  0.292600  0.520400  1.0  0.1116
  H  H187  1  0.112300  0.337300  0.523100  1.0  0.1081
  H  H188  1  0.086900  0.396300  0.514900  1.0  0.1087
  H  H189  1  0.234700  0.524500  0.162700  1.0  0.104
  H  H190  1  0.292600  0.520400  0.135800  1.0  0.1127
  H  H191  1  0.337300  0.523100  0.112300  1.0  0.1102
  H  H192  1  0.396300  0.514900  0.086900  1.0  0.1093
  H  H193  1  0.078100  0.162700  0.524500  1.0  0.1039
  H  H194  1  0.051200  0.135800  0.520400  1.0  0.1122
  H  H195  1  0.027300  0.112300  0.523100  1.0  0.1103
  H  H196  1  0.001900  0.086900  0.514900  1.0  0.1092
  H  H197  1  0.162700  0.078100  0.234700  1.0  0.1059
  H  H198  1  0.135800  0.051200  0.292600  1.0  0.1127
  H  H199  1  0.112300  0.027300  0.337300  1.0  0.1105
  H  H200  1  0.086900  0.001900  0.396300  1.0  0.1095
  H  H201  1  0.524500  0.234700  0.078100  1.0  0.1039
  H  H202  1  0.520400  0.292600  0.051200  1.0  0.1122
  H  H203  1  0.523100  0.337300  0.027300  1.0  0.1096
  H  H204  1  0.514900  0.396300  0.001900  1.0  0.1079
  H  H205  1  0.531600  0.184400  0.099600  1.0  0.0946
  H  H206  1  0.184400  0.531600  0.184400  1.0  0.0961
  H  H207  1  0.099600  0.184400  0.531600  1.0  0.0947
  H  H208  1  0.184400  0.099600  0.184400  1.0  0.094
  H  H209  1  0.531600  0.099600  0.184400  1.0  0.0951
  H  H210  1  0.184400  0.184400  0.099600  1.0  0.094
  H  H211  1  0.099600  0.531600  0.184400  1.0  0.0949
  H  H212  1  0.184400  0.184400  0.531600  1.0  0.096
  H  H213  1  0.531600  0.184400  0.184400  1.0  0.096
  H  H214  1  0.184400  0.099600  0.531600  1.0  0.0944
  H  H215  1  0.099600  0.184400  0.184400  1.0  0.094
  H  H216  1  0.184400  0.531600  0.099600  1.0  0.0947
  H  H217  1  0.815600  0.468400  0.900400  1.0  0.0952
  H  H218  1  0.468400  0.815600  0.815600  1.0  0.0966
  H  H219  1  0.815600  0.900400  0.468400  1.0  0.0948
  H  H220  1  0.900400  0.815600  0.815600  1.0  0.0942
  H  H221  1  0.900400  0.468400  0.815600  1.0  0.0947
  H  H222  1  0.815600  0.815600  0.900400  1.0  0.0936
  H  H223  1  0.468400  0.900400  0.815600  1.0  0.0949
  H  H224  1  0.815600  0.815600  0.468400  1.0  0.0961
  H  H225  1  0.815600  0.468400  0.815600  1.0  0.0966
  H  H226  1  0.900400  0.815600  0.468400  1.0  0.0949
  H  H227  1  0.815600  0.900400  0.815600  1.0  0.0938
  H  H228  1  0.468400  0.815600  0.900400  1.0  0.0952
  C  C229  1  0.524450  0.140550  0.088970  1.0  -0.0512
  C  C230  1  0.522660  0.124280  0.072520  1.0  -0.1252
  C  C231  1  0.521880  0.090440  0.038560  1.0  -0.1201
  C  C232  1  0.517450  0.074970  0.023090  1.0  -0.0588
  C  C233  1  0.140550  0.524450  0.246030  1.0  -0.0476
  C  C234  1  0.124280  0.522660  0.280540  1.0  -0.1238
  C  C235  1  0.090440  0.521880  0.349120  1.0  -0.1196
  C  C236  1  0.074970  0.517450  0.384490  1.0  -0.058
  C  C237  1  0.088970  0.246030  0.524450  1.0  -0.0478
  C  C238  1  0.072520  0.280540  0.522660  1.0  -0.1259
  C  C239  1  0.038560  0.349120  0.521880  1.0  -0.1213
  C  C240  1  0.023090  0.384490  0.517450  1.0  -0.0614
  C  C241  1  0.246030  0.088970  0.140550  1.0  -0.0495
  C  C242  1  0.280540  0.072520  0.124280  1.0  -0.125
  C  C243  1  0.349120  0.038560  0.090440  1.0  -0.1221
  C  C244  1  0.384490  0.023090  0.074970  1.0  -0.0608
  C  C245  1  0.524450  0.088970  0.246030  1.0  -0.0488
  C  C246  1  0.522660  0.072520  0.280540  1.0  -0.1257
  C  C247  1  0.521880  0.038560  0.349120  1.0  -0.1217
  C  C248  1  0.517450  0.023090  0.384490  1.0  -0.0595
  C  C249  1  0.140550  0.246030  0.088970  1.0  -0.0503
  C  C250  1  0.124280  0.280540  0.072520  1.0  -0.1242
  C  C251  1  0.090440  0.349120  0.038560  1.0  -0.1183
  C  C252  1  0.074970  0.384490  0.023090  1.0  -0.0595
  C  C253  1  0.088970  0.524450  0.140550  1.0  -0.0511
  C  C254  1  0.072520  0.522660  0.124280  1.0  -0.1286
  C  C255  1  0.038560  0.521880  0.090440  1.0  -0.1205
  C  C256  1  0.023090  0.517450  0.074970  1.0  -0.0618
  C  C257  1  0.246030  0.140550  0.524450  1.0  -0.0488
  C  C258  1  0.280540  0.124280  0.522660  1.0  -0.1251
  C  C259  1  0.349120  0.090440  0.521880  1.0  -0.1201
  C  C260  1  0.384490  0.074970  0.517450  1.0  -0.0607
  C  C261  1  0.524450  0.246030  0.140550  1.0  -0.0493
  C  C262  1  0.522660  0.280540  0.124280  1.0  -0.1249
  C  C263  1  0.521880  0.349120  0.090440  1.0  -0.1192
  C  C264  1  0.517450  0.384490  0.074970  1.0  -0.0575
  C  C265  1  0.140550  0.088970  0.524450  1.0  -0.0507
  C  C266  1  0.124280  0.072520  0.522660  1.0  -0.1245
  C  C267  1  0.090440  0.038560  0.521880  1.0  -0.1221
  C  C268  1  0.074970  0.023090  0.517450  1.0  -0.0597
  C  C269  1  0.088970  0.140550  0.246030  1.0  -0.0524
  C  C270  1  0.072520  0.124280  0.280540  1.0  -0.1268
  C  C271  1  0.038560  0.090440  0.349120  1.0  -0.1204
  C  C272  1  0.023090  0.074970  0.384490  1.0  -0.0612
  C  C273  1  0.246030  0.524450  0.088970  1.0  -0.0489
  C  C274  1  0.280540  0.522660  0.072520  1.0  -0.1226
  C  C275  1  0.349120  0.521880  0.038560  1.0  -0.1176
  C  C276  1  0.384490  0.517450  0.023090  1.0  -0.06
  C  C277  1  0.859450  0.475550  0.911030  1.0  -0.0533
  C  C278  1  0.875720  0.477340  0.927480  1.0  -0.1254
  C  C279  1  0.909560  0.478120  0.961440  1.0  -0.122
  C  C280  1  0.925030  0.482550  0.976910  1.0  -0.0593
  C  C281  1  0.475550  0.859450  0.753970  1.0  -0.0466
  C  C282  1  0.477340  0.875720  0.719460  1.0  -0.1253
  C  C283  1  0.478120  0.909560  0.650880  1.0  -0.1208
  C  C284  1  0.482550  0.925030  0.615510  1.0  -0.0581
  C  C285  1  0.753970  0.911030  0.475550  1.0  -0.048
  C  C286  1  0.719460  0.927480  0.477340  1.0  -0.1244
  C  C287  1  0.650880  0.961440  0.478120  1.0  -0.121
  C  C288  1  0.615510  0.976910  0.482550  1.0  -0.0623
  C  C289  1  0.911030  0.753970  0.859450  1.0  -0.0496
  C  C290  1  0.927480  0.719460  0.875720  1.0  -0.1242
  C  C291  1  0.961440  0.650880  0.909560  1.0  -0.1195
  C  C292  1  0.976910  0.615510  0.925030  1.0  -0.0609
  C  C293  1  0.911030  0.475550  0.753970  1.0  -0.0457
  C  C294  1  0.927480  0.477340  0.719460  1.0  -0.1267
  C  C295  1  0.961440  0.478120  0.650880  1.0  -0.1188
  C  C296  1  0.976910  0.482550  0.615510  1.0  -0.0603
  C  C297  1  0.753970  0.859450  0.911030  1.0  -0.0488
  C  C298  1  0.719460  0.875720  0.927480  1.0  -0.126
  C  C299  1  0.650880  0.909560  0.961440  1.0  -0.1192
  C  C300  1  0.615510  0.925030  0.976910  1.0  -0.0598
  C  C301  1  0.475550  0.911030  0.859450  1.0  -0.0532
  C  C302  1  0.477340  0.927480  0.875720  1.0  -0.1253
  C  C303  1  0.478120  0.961440  0.909560  1.0  -0.1214
  C  C304  1  0.482550  0.976910  0.925030  1.0  -0.0612
  C  C305  1  0.859450  0.753970  0.475550  1.0  -0.0497
  C  C306  1  0.875720  0.719460  0.477340  1.0  -0.1262
  C  C307  1  0.909560  0.650880  0.478120  1.0  -0.1202
  C  C308  1  0.925030  0.615510  0.482550  1.0  -0.0606
  C  C309  1  0.753970  0.475550  0.859450  1.0  -0.0484
  C  C310  1  0.719460  0.477340  0.875720  1.0  -0.1225
  C  C311  1  0.650880  0.478120  0.909560  1.0  -0.1177
  C  C312  1  0.615510  0.482550  0.925030  1.0  -0.059
  C  C313  1  0.911030  0.859450  0.475550  1.0  -0.0489
  C  C314  1  0.927480  0.875720  0.477340  1.0  -0.1255
  C  C315  1  0.961440  0.909560  0.478120  1.0  -0.1184
  C  C316  1  0.976910  0.925030  0.482550  1.0  -0.0597
  C  C317  1  0.859450  0.911030  0.753970  1.0  -0.0525
  C  C318  1  0.875720  0.927480  0.719460  1.0  -0.1258
  C  C319  1  0.909560  0.961440  0.650880  1.0  -0.1224
  C  C320  1  0.925030  0.976910  0.615510  1.0  -0.0622
  C  C321  1  0.475550  0.753970  0.911030  1.0  -0.0485
  C  C322  1  0.477340  0.719460  0.927480  1.0  -0.1252
  C  C323  1  0.478120  0.650880  0.961440  1.0  -0.1194
  C  C324  1  0.482550  0.615510  0.976910  1.0  -0.0583
  C  C325  1  0.475550  0.859450  0.911030  1.0  -0.0493
  C  C326  1  0.477340  0.875720  0.927480  1.0  -0.1253
  C  C327  1  0.478120  0.909560  0.961440  1.0  -0.121
  C  C328  1  0.482550  0.925030  0.976910  1.0  -0.059
  C  C329  1  0.859450  0.475550  0.753970  1.0  -0.0501
  C  C330  1  0.875720  0.477340  0.719460  1.0  -0.1253
  C  C331  1  0.909560  0.478120  0.650880  1.0  -0.1217
  C  C332  1  0.925030  0.482550  0.615510  1.0  -0.0586
  C  C333  1  0.911030  0.753970  0.475550  1.0  -0.0445
  C  C334  1  0.927480  0.719460  0.477340  1.0  -0.1241
  C  C335  1  0.961440  0.650880  0.478120  1.0  -0.1192
  C  C336  1  0.976910  0.615510  0.482550  1.0  -0.0608
  C  C337  1  0.753970  0.911030  0.859450  1.0  -0.052
  C  C338  1  0.719460  0.927480  0.875720  1.0  -0.1254
  C  C339  1  0.650880  0.961440  0.909560  1.0  -0.1215
  C  C340  1  0.615510  0.976910  0.925030  1.0  -0.0641
  C  C341  1  0.475550  0.911030  0.753970  1.0  -0.0508
  C  C342  1  0.477340  0.927480  0.719460  1.0  -0.1253
  C  C343  1  0.478120  0.961440  0.650880  1.0  -0.1204
  C  C344  1  0.482550  0.976910  0.615510  1.0  -0.062
  C  C345  1  0.859450  0.753970  0.911030  1.0  -0.0516
  C  C346  1  0.875720  0.719460  0.927480  1.0  -0.1258
  C  C347  1  0.909560  0.650880  0.961440  1.0  -0.1197
  C  C348  1  0.925030  0.615510  0.976910  1.0  -0.0607
  C  C349  1  0.911030  0.475550  0.859450  1.0  -0.0493
  C  C350  1  0.927480  0.477340  0.875720  1.0  -0.1257
  C  C351  1  0.961440  0.478120  0.909560  1.0  -0.1193
  C  C352  1  0.976910  0.482550  0.925030  1.0  -0.0605
  C  C353  1  0.753970  0.859450  0.475550  1.0  -0.0465
  C  C354  1  0.719460  0.875720  0.477340  1.0  -0.1271
  C  C355  1  0.650880  0.909560  0.478120  1.0  -0.1199
  C  C356  1  0.615510  0.925030  0.482550  1.0  -0.0604
  C  C357  1  0.475550  0.753970  0.859450  1.0  -0.0487
  C  C358  1  0.477340  0.719460  0.875720  1.0  -0.122
  C  C359  1  0.478120  0.650880  0.909560  1.0  -0.1177
  C  C360  1  0.482550  0.615510  0.925030  1.0  -0.0599
  C  C361  1  0.859450  0.911030  0.475550  1.0  -0.0534
  C  C362  1  0.875720  0.927480  0.477340  1.0  -0.1255
  C  C363  1  0.909560  0.961440  0.478120  1.0  -0.1225
  C  C364  1  0.925030  0.976910  0.482550  1.0  -0.0618
  C  C365  1  0.911030  0.859450  0.753970  1.0  -0.048
  C  C366  1  0.927480  0.875720  0.719460  1.0  -0.1257
  C  C367  1  0.961440  0.909560  0.650880  1.0  -0.1189
  C  C368  1  0.976910  0.925030  0.615510  1.0  -0.06
  C  C369  1  0.753970  0.475550  0.911030  1.0  -0.0482
  C  C370  1  0.719460  0.477340  0.927480  1.0  -0.1257
  C  C371  1  0.650880  0.478120  0.961440  1.0  -0.1194
  C  C372  1  0.615510  0.482550  0.976910  1.0  -0.0585
  C  C373  1  0.140550  0.524450  0.088970  1.0  -0.051
  C  C374  1  0.124280  0.522660  0.072520  1.0  -0.124
  C  C375  1  0.090440  0.521880  0.038560  1.0  -0.119
  C  C376  1  0.074970  0.517450  0.023090  1.0  -0.0578
  C  C377  1  0.524450  0.140550  0.246030  1.0  -0.0485
  C  C378  1  0.522660  0.124280  0.280540  1.0  -0.1248
  C  C379  1  0.521880  0.090440  0.349120  1.0  -0.1202
  C  C380  1  0.517450  0.074970  0.384490  1.0  -0.0591
  C  C381  1  0.246030  0.088970  0.524450  1.0  -0.0487
  C  C382  1  0.280540  0.072520  0.522660  1.0  -0.1254
  C  C383  1  0.349120  0.038560  0.521880  1.0  -0.1227
  C  C384  1  0.384490  0.023090  0.517450  1.0  -0.061
  C  C385  1  0.088970  0.246030  0.140550  1.0  -0.0496
  C  C386  1  0.072520  0.280540  0.124280  1.0  -0.1258
  C  C387  1  0.038560  0.349120  0.090440  1.0  -0.1209
  C  C388  1  0.023090  0.384490  0.074970  1.0  -0.061
  C  C389  1  0.088970  0.524450  0.246030  1.0  -0.0481
  C  C390  1  0.072520  0.522660  0.280540  1.0  -0.1276
  C  C391  1  0.038560  0.521880  0.349120  1.0  -0.1208
  C  C392  1  0.023090  0.517450  0.384490  1.0  -0.0622
  C  C393  1  0.246030  0.140550  0.088970  1.0  -0.052
  C  C394  1  0.280540  0.124280  0.072520  1.0  -0.1259
  C  C395  1  0.349120  0.090440  0.038560  1.0  -0.1211
  C  C396  1  0.384490  0.074970  0.023090  1.0  -0.0617
  C  C397  1  0.524450  0.088970  0.140550  1.0  -0.0512
  C  C398  1  0.522660  0.072520  0.124280  1.0  -0.1265
  C  C399  1  0.521880  0.038560  0.090440  1.0  -0.121
  C  C400  1  0.517450  0.023090  0.074970  1.0  -0.0604
  C  C401  1  0.140550  0.246030  0.524450  1.0  -0.0462
  C  C402  1  0.124280  0.280540  0.522660  1.0  -0.1234
  C  C403  1  0.090440  0.349120  0.521880  1.0  -0.1174
  C  C404  1  0.074970  0.384490  0.517450  1.0  -0.0592
  C  C405  1  0.246030  0.524450  0.140550  1.0  -0.049
  C  C406  1  0.280540  0.522660  0.124280  1.0  -0.1253
  C  C407  1  0.349120  0.521880  0.090440  1.0  -0.1195
  C  C408  1  0.384490  0.517450  0.074970  1.0  -0.0583
  C  C409  1  0.088970  0.140550  0.524450  1.0  -0.0513
  C  C410  1  0.072520  0.124280  0.522660  1.0  -0.127
  C  C411  1  0.038560  0.090440  0.521880  1.0  -0.1205
  C  C412  1  0.023090  0.074970  0.517450  1.0  -0.0618
  C  C413  1  0.140550  0.088970  0.246030  1.0  -0.0516
  C  C414  1  0.124280  0.072520  0.280540  1.0  -0.1244
  C  C415  1  0.090440  0.038560  0.349120  1.0  -0.1218
  C  C416  1  0.074970  0.023090  0.384490  1.0  -0.0605
  C  C417  1  0.524450  0.246030  0.088970  1.0  -0.0491
  C  C418  1  0.522660  0.280540  0.072520  1.0  -0.1219
  C  C419  1  0.521880  0.349120  0.038560  1.0  -0.1175
  C  C420  1  0.517450  0.384490  0.023090  1.0  -0.0598
  C  C421  1  0.531790  0.173230  0.121750  1.0  -0.0638
  C  C422  1  0.173230  0.531790  0.173230  1.0  -0.0653
  C  C423  1  0.121750  0.173230  0.531790  1.0  -0.0642
  C  C424  1  0.173230  0.121750  0.173230  1.0  -0.0654
  C  C425  1  0.531790  0.121750  0.173230  1.0  -0.0612
  C  C426  1  0.173230  0.173230  0.121750  1.0  -0.0695
  C  C427  1  0.121750  0.531790  0.173230  1.0  -0.0649
  C  C428  1  0.173230  0.173230  0.531790  1.0  -0.0663
  C  C429  1  0.531790  0.173230  0.173230  1.0  -0.0659
  C  C430  1  0.173230  0.121750  0.531790  1.0  -0.0612
  C  C431  1  0.121750  0.173230  0.173230  1.0  -0.0689
  C  C432  1  0.173230  0.531790  0.121750  1.0  -0.0636
  C  C433  1  0.826770  0.468210  0.878250  1.0  -0.0638
  C  C434  1  0.468210  0.826770  0.826770  1.0  -0.0662
  C  C435  1  0.826770  0.878250  0.468210  1.0  -0.0623
  C  C436  1  0.878250  0.826770  0.826770  1.0  -0.0684
  C  C437  1  0.878250  0.468210  0.826770  1.0  -0.0636
  C  C438  1  0.826770  0.826770  0.878250  1.0  -0.0684
  C  C439  1  0.468210  0.878250  0.826770  1.0  -0.061
  C  C440  1  0.826770  0.826770  0.468210  1.0  -0.0663
  C  C441  1  0.826770  0.468210  0.826770  1.0  -0.0659
  C  C442  1  0.878250  0.826770  0.468210  1.0  -0.0634
  C  C443  1  0.826770  0.878250  0.826770  1.0  -0.0669
  C  C444  1  0.468210  0.826770  0.878250  1.0  -0.064
  C  C445  1  0.532000  0.138800  0.138800  1.0  -0.1597
  C  C446  1  0.526100  0.122500  0.122500  1.0  -0.0801
  C  C447  1  0.524400  0.089700  0.089700  1.0  0.2792
  C  C448  1  0.524310  0.071590  0.071590  1.0  0.0151
  C  C449  1  0.517020  0.040800  0.040800  1.0  -0.1601
  C  C450  1  0.509720  0.025200  0.025200  1.0  0.6338
  C  C451  1  0.138800  0.532000  0.190400  1.0  -0.157
  C  C452  1  0.122500  0.526100  0.228900  1.0  -0.094
  C  C453  1  0.089700  0.524400  0.296200  1.0  0.2801
  C  C454  1  0.071590  0.524310  0.332510  1.0  0.0163
  C  C455  1  0.040800  0.517020  0.401380  1.0  -0.1605
  C  C456  1  0.025200  0.509720  0.439880  1.0  0.6335
  C  C457  1  0.138800  0.190400  0.532000  1.0  -0.1575
  C  C458  1  0.122500  0.228900  0.526100  1.0  -0.0938
  C  C459  1  0.089700  0.296200  0.524400  1.0  0.2799
  C  C460  1  0.071590  0.332510  0.524310  1.0  0.0157
  C  C461  1  0.040800  0.401380  0.517020  1.0  -0.161
  C  C462  1  0.025200  0.439880  0.509720  1.0  0.6335
  C  C463  1  0.190400  0.138800  0.138800  1.0  -0.1561
  C  C464  1  0.228900  0.122500  0.122500  1.0  -0.0805
  C  C465  1  0.296200  0.089700  0.089700  1.0  0.2801
  C  C466  1  0.332510  0.071590  0.071590  1.0  0.015
  C  C467  1  0.401380  0.040800  0.040800  1.0  -0.1607
  C  C468  1  0.439880  0.025200  0.025200  1.0  0.6324
  C  C469  1  0.532000  0.138800  0.190400  1.0  -0.1575
  C  C470  1  0.526100  0.122500  0.228900  1.0  -0.0934
  C  C471  1  0.524400  0.089700  0.296200  1.0  0.2793
  C  C472  1  0.524310  0.071590  0.332510  1.0  0.0152
  C  C473  1  0.517020  0.040800  0.401380  1.0  -0.1605
  C  C474  1  0.509720  0.025200  0.439880  1.0  0.6343
  C  C475  1  0.138800  0.190400  0.138800  1.0  -0.1576
  C  C476  1  0.122500  0.228900  0.122500  1.0  -0.0801
  C  C477  1  0.089700  0.296200  0.089700  1.0  0.28
  C  C478  1  0.071590  0.332510  0.071590  1.0  0.0155
  C  C479  1  0.040800  0.401380  0.040800  1.0  -0.161
  C  C480  1  0.025200  0.439880  0.025200  1.0  0.6331
  C  C481  1  0.138800  0.532000  0.138800  1.0  -0.1595
  C  C482  1  0.122500  0.526100  0.122500  1.0  -0.0809
  C  C483  1  0.089700  0.524400  0.089700  1.0  0.2801
  C  C484  1  0.071590  0.524310  0.071590  1.0  0.0162
  C  C485  1  0.040800  0.517020  0.040800  1.0  -0.1601
  C  C486  1  0.025200  0.509720  0.025200  1.0  0.633
  C  C487  1  0.190400  0.138800  0.532000  1.0  -0.1561
  C  C488  1  0.228900  0.122500  0.526100  1.0  -0.0937
  C  C489  1  0.296200  0.089700  0.524400  1.0  0.2802
  C  C490  1  0.332510  0.071590  0.524310  1.0  0.0153
  C  C491  1  0.401380  0.040800  0.517020  1.0  -0.161
  C  C492  1  0.439880  0.025200  0.509720  1.0  0.6329
  C  C493  1  0.532000  0.190400  0.138800  1.0  -0.1577
  C  C494  1  0.526100  0.228900  0.122500  1.0  -0.0938
  C  C495  1  0.524400  0.296200  0.089700  1.0  0.2793
  C  C496  1  0.524310  0.332510  0.071590  1.0  0.0157
  C  C497  1  0.517020  0.401380  0.040800  1.0  -0.1608
  C  C498  1  0.509720  0.439880  0.025200  1.0  0.6335
  C  C499  1  0.138800  0.138800  0.532000  1.0  -0.1594
  C  C500  1  0.122500  0.122500  0.526100  1.0  -0.0809
  C  C501  1  0.089700  0.089700  0.524400  1.0  0.279
  C  C502  1  0.071590  0.071590  0.524310  1.0  0.0156
  C  C503  1  0.040800  0.040800  0.517020  1.0  -0.1608
  C  C504  1  0.025200  0.025200  0.509720  1.0  0.6332
  C  C505  1  0.138800  0.138800  0.190400  1.0  -0.1574
  C  C506  1  0.122500  0.122500  0.228900  1.0  -0.081
  C  C507  1  0.089700  0.089700  0.296200  1.0  0.2792
  C  C508  1  0.071590  0.071590  0.332510  1.0  0.0156
  C  C509  1  0.040800  0.040800  0.401380  1.0  -0.1606
  C  C510  1  0.025200  0.025200  0.439880  1.0  0.6335
  C  C511  1  0.190400  0.532000  0.138800  1.0  -0.1584
  C  C512  1  0.228900  0.526100  0.122500  1.0  -0.0948
  C  C513  1  0.296200  0.524400  0.089700  1.0  0.2797
  C  C514  1  0.332510  0.524310  0.071590  1.0  0.0162
  C  C515  1  0.401380  0.517020  0.040800  1.0  -0.16
  C  C516  1  0.439880  0.509720  0.025200  1.0  0.6324
  C  C517  1  0.861200  0.468000  0.861200  1.0  -0.1591
  C  C518  1  0.877500  0.473900  0.877500  1.0  -0.0807
  C  C519  1  0.910300  0.475600  0.910300  1.0  0.2795
  C  C520  1  0.928410  0.475690  0.928410  1.0  0.0163
  C  C521  1  0.959200  0.482980  0.959200  1.0  -0.1603
  C  C522  1  0.974800  0.490280  0.974800  1.0  0.6333
  C  C523  1  0.468000  0.861200  0.809600  1.0  -0.1575
  C  C524  1  0.473900  0.877500  0.771100  1.0  -0.0933
  C  C525  1  0.475600  0.910300  0.703800  1.0  0.2795
  C  C526  1  0.475690  0.928410  0.667490  1.0  0.014
  C  C527  1  0.482980  0.959200  0.598620  1.0  -0.1605
  C  C528  1  0.490280  0.974800  0.560120  1.0  0.6332
  C  C529  1  0.809600  0.861200  0.468000  1.0  -0.1571
  C  C530  1  0.771100  0.877500  0.473900  1.0  -0.0938
  C  C531  1  0.703800  0.910300  0.475600  1.0  0.28
  C  C532  1  0.667490  0.928410  0.475690  1.0  0.0162
  C  C533  1  0.598620  0.959200  0.482980  1.0  -0.1608
  C  C534  1  0.560120  0.974800  0.490280  1.0  0.6329
  C  C535  1  0.861200  0.809600  0.861200  1.0  -0.1578
  C  C536  1  0.877500  0.771100  0.877500  1.0  -0.0803
  C  C537  1  0.910300  0.703800  0.910300  1.0  0.2798
  C  C538  1  0.928410  0.667490  0.928410  1.0  0.0165
  C  C539  1  0.959200  0.598620  0.959200  1.0  -0.1607
  C  C540  1  0.974800  0.560120  0.974800  1.0  0.633
  C  C541  1  0.861200  0.468000  0.809600  1.0  -0.1562
  C  C542  1  0.877500  0.473900  0.771100  1.0  -0.0937
  C  C543  1  0.910300  0.475600  0.703800  1.0  0.2794
  C  C544  1  0.928410  0.475690  0.667490  1.0  0.0162
  C  C545  1  0.959200  0.482980  0.598620  1.0  -0.1602
  C  C546  1  0.974800  0.490280  0.560120  1.0  0.6328
  C  C547  1  0.809600  0.861200  0.861200  1.0  -0.1577
  C  C548  1  0.771100  0.877500  0.877500  1.0  -0.0809
  C  C549  1  0.703800  0.910300  0.910300  1.0  0.2801
  C  C550  1  0.667490  0.928410  0.928410  1.0  0.0163
  C  C551  1  0.598620  0.959200  0.959200  1.0  -0.1607
  C  C552  1  0.560120  0.974800  0.974800  1.0  0.6332
  C  C553  1  0.468000  0.861200  0.861200  1.0  -0.1603
  C  C554  1  0.473900  0.877500  0.877500  1.0  -0.0804
  C  C555  1  0.475600  0.910300  0.910300  1.0  0.2796
  C  C556  1  0.475690  0.928410  0.928410  1.0  0.0139
  C  C557  1  0.482980  0.959200  0.959200  1.0  -0.1609
  C  C558  1  0.490280  0.974800  0.974800  1.0  0.6337
  C  C559  1  0.861200  0.809600  0.468000  1.0  -0.1575
  C  C560  1  0.877500  0.771100  0.473900  1.0  -0.0936
  C  C561  1  0.910300  0.703800  0.475600  1.0  0.2797
  C  C562  1  0.928410  0.667490  0.475690  1.0  0.0164
  C  C563  1  0.959200  0.598620  0.482980  1.0  -0.1605
  C  C564  1  0.974800  0.560120  0.490280  1.0  0.6326
  C  C565  1  0.809600  0.468000  0.861200  1.0  -0.1572
  C  C566  1  0.771100  0.473900  0.877500  1.0  -0.094
  C  C567  1  0.703800  0.475600  0.910300  1.0  0.2794
  C  C568  1  0.667490  0.475690  0.928410  1.0  0.0163
  C  C569  1  0.598620  0.482980  0.959200  1.0  -0.1609
  C  C570  1  0.560120  0.490280  0.974800  1.0  0.6331
  C  C571  1  0.861200  0.861200  0.468000  1.0  -0.1607
  C  C572  1  0.877500  0.877500  0.473900  1.0  -0.0809
  C  C573  1  0.910300  0.910300  0.475600  1.0  0.2797
  C  C574  1  0.928410  0.928410  0.475690  1.0  0.0154
  C  C575  1  0.959200  0.959200  0.482980  1.0  -0.1594
  C  C576  1  0.974800  0.974800  0.490280  1.0  0.633
  C  C577  1  0.861200  0.861200  0.809600  1.0  -0.1587
  C  C578  1  0.877500  0.877500  0.771100  1.0  -0.0808
  C  C579  1  0.910300  0.910300  0.703800  1.0  0.2794
  C  C580  1  0.928410  0.928410  0.667490  1.0  0.0154
  C  C581  1  0.959200  0.959200  0.598620  1.0  -0.1599
  C  C582  1  0.974800  0.974800  0.560120  1.0  0.6327
  C  C583  1  0.468000  0.809600  0.861200  1.0  -0.1563
  C  C584  1  0.473900  0.771100  0.877500  1.0  -0.0935
  C  C585  1  0.475600  0.703800  0.910300  1.0  0.2789
  C  C586  1  0.475690  0.667490  0.928410  1.0  0.0142
  C  C587  1  0.482980  0.598620  0.959200  1.0  -0.1612
  C  C588  1  0.490280  0.560120  0.974800  1.0  0.6332
  O  O589  1  0.508610  0.042850  0.996030  1.0  -0.5769
  O  O590  1  0.042850  0.508610  0.452510  1.0  -0.577
  O  O591  1  0.996030  0.452510  0.508610  1.0  -0.5778
  O  O592  1  0.452510  0.996030  0.042850  1.0  -0.5781
  O  O593  1  0.508610  0.996030  0.452510  1.0  -0.5785
  O  O594  1  0.042850  0.452510  0.996030  1.0  -0.5774
  O  O595  1  0.996030  0.508610  0.042850  1.0  -0.5782
  O  O596  1  0.452510  0.042850  0.508610  1.0  -0.5761
  O  O597  1  0.508610  0.452510  0.042850  1.0  -0.5747
  O  O598  1  0.042850  0.996030  0.508610  1.0  -0.5793
  O  O599  1  0.996030  0.042850  0.452510  1.0  -0.578
  O  O600  1  0.452510  0.508610  0.996030  1.0  -0.5778
  O  O601  1  0.957150  0.491390  0.003970  1.0  -0.5771
  O  O602  1  0.491390  0.957150  0.547490  1.0  -0.5789
  O  O603  1  0.547490  0.003970  0.491390  1.0  -0.5768
  O  O604  1  0.003970  0.547490  0.957150  1.0  -0.5771
  O  O605  1  0.003970  0.491390  0.547490  1.0  -0.5779
  O  O606  1  0.547490  0.957150  0.003970  1.0  -0.577
  O  O607  1  0.491390  0.003970  0.957150  1.0  -0.5773
  O  O608  1  0.957150  0.547490  0.491390  1.0  -0.5778
  O  O609  1  0.547490  0.491390  0.957150  1.0  -0.5783
  O  O610  1  0.003970  0.957150  0.491390  1.0  -0.5781
  O  O611  1  0.957150  0.003970  0.547490  1.0  -0.5792
  O  O612  1  0.491390  0.547490  0.003970  1.0  -0.5754
  O  O613  1  0.491390  0.957150  0.003970  1.0  -0.5787
  O  O614  1  0.957150  0.491390  0.547490  1.0  -0.5777
  O  O615  1  0.003970  0.547490  0.491390  1.0  -0.5766
  O  O616  1  0.547490  0.003970  0.957150  1.0  -0.577
  O  O617  1  0.491390  0.003970  0.547490  1.0  -0.5765
  O  O618  1  0.957150  0.547490  0.003970  1.0  -0.5768
  O  O619  1  0.003970  0.491390  0.957150  1.0  -0.5786
  O  O620  1  0.547490  0.957150  0.491390  1.0  -0.5769
  O  O621  1  0.491390  0.547490  0.957150  1.0  -0.5763
  O  O622  1  0.957150  0.003970  0.491390  1.0  -0.5788
  O  O623  1  0.003970  0.957150  0.547490  1.0  -0.5784
  O  O624  1  0.547490  0.491390  0.003970  1.0  -0.5765
  O  O625  1  0.042850  0.508610  0.996030  1.0  -0.5772
  O  O626  1  0.508610  0.042850  0.452510  1.0  -0.5766
  O  O627  1  0.452510  0.996030  0.508610  1.0  -0.5789
  O  O628  1  0.996030  0.452510  0.042850  1.0  -0.5768
  O  O629  1  0.996030  0.508610  0.452510  1.0  -0.5788
  O  O630  1  0.452510  0.042850  0.996030  1.0  -0.5761
  O  O631  1  0.508610  0.996030  0.042850  1.0  -0.5779
  O  O632  1  0.042850  0.452510  0.508610  1.0  -0.577
  O  O633  1  0.452510  0.508610  0.042850  1.0  -0.5768
  O  O634  1  0.996030  0.042850  0.508610  1.0  -0.5784
  O  O635  1  0.042850  0.996030  0.452510  1.0  -0.5793
  O  O636  1  0.508610  0.452510  0.996030  1.0  -0.5765
