# generated using pymatgen
data_Mn5H24C48(N16O)2
_symmetry_space_group_name_H-M   'P 1'
_cell_length_a   15.90400000
_cell_length_b   20.04250000
_cell_length_c   21.50430000
_cell_angle_alpha   80.11460000
_cell_angle_beta   68.29760000
_cell_angle_gamma   66.62440000
_symmetry_Int_Tables_number   1
_chemical_formula_structural   Mn5H24C48(N16O)2
_chemical_formula_sum   'Mn10 H48 C96 N64 O4'
_cell_volume   5843.51912709
_cell_formula_units_Z   2
loop_
 _symmetry_equiv_pos_site_id
 _symmetry_equiv_pos_as_xyz
  1  'x, y, z'
loop_
 _atom_site_type_symbol
 _atom_site_label
 _atom_site_symmetry_multiplicity
 _atom_site_fract_x
 _atom_site_fract_y
 _atom_site_fract_z
 _atom_site_occupancy
 _atom_site_charge
  Mn  Mn1  1  0.850380  0.153650  0.872150  1.0  1.0508
  Mn  Mn2  1  0.888230  0.309920  0.912900  1.0  0.9319
  Mn  Mn3  1  0.876180  0.346350  0.627850  1.0  1.0502
  Mn  Mn4  1  0.111050  0.190080  0.587100  1.0  0.9309
  Mn  Mn5  1  0.149620  0.846350  0.127850  1.0  1.0506
  Mn  Mn6  1  0.111770  0.690080  0.087100  1.0  0.9302
  Mn  Mn7  1  0.123820  0.653650  0.372150  1.0  1.047
  Mn  Mn8  1  0.888950  0.809920  0.412900  1.0  0.9318
  Mn  Mn9  1  0.000700  0.250000  0.750000  1.0  0.8807
  Mn  Mn10  1  0.999300  0.750000  0.250000  1.0  0.8887
  H  H11  1  0.015900  0.373800  0.963200  1.0  0.1057
  H  H12  1  0.034200  0.543200  0.832600  1.0  0.106
  H  H13  1  0.986000  0.387600  0.083800  1.0  0.1087
  H  H14  1  0.025300  0.109400  0.535600  1.0  0.0955
  H  H15  1  0.912400  0.973500  0.671500  1.0  0.1125
  H  H16  1  0.924900  0.909900  0.586500  1.0  0.1003
  H  H17  1  0.577500  0.145500  0.126700  1.0  0.1154
  H  H18  1  0.611000  0.320200  0.171000  1.0  0.1133
  H  H19  1  0.508100  0.378800  0.281800  1.0  0.1147
  H  H20  1  0.391200  0.380800  0.385600  1.0  0.1181
  H  H21  1  0.363700  0.202200  0.342600  1.0  0.119
  H  H22  1  0.464200  0.145300  0.231300  1.0  0.1206
  H  H23  1  0.352900  0.126200  0.536800  1.0  0.1058
  H  H24  1  0.410000  0.956800  0.667400  1.0  0.1071
  H  H25  1  0.457400  0.112400  0.416200  1.0  0.1085
  H  H26  1  0.670300  0.390600  0.964400  1.0  0.0963
  H  H27  1  0.557400  0.526500  0.828500  1.0  0.1112
  H  H28  1  0.421300  0.590100  0.913500  1.0  0.1007
  H  H29  1  0.849700  0.354500  0.373300  1.0  0.1154
  H  H30  1  0.102200  0.179800  0.329000  1.0  0.1132
  H  H31  1  0.168700  0.121200  0.218200  1.0  0.1148
  H  H32  1  0.157600  0.119200  0.114400  1.0  0.1187
  H  H33  1  0.908500  0.297800  0.157400  1.0  0.1189
  H  H34  1  0.840800  0.354700  0.268700  1.0  0.1209
  H  H35  1  0.984100  0.626200  0.036800  1.0  0.1061
  H  H36  1  0.965800  0.456800  0.167400  1.0  0.1058
  H  H37  1  0.014000  0.612400  0.916200  1.0  0.1087
  H  H38  1  0.974700  0.890600  0.464400  1.0  0.0965
  H  H39  1  0.087600  0.026500  0.328500  1.0  0.1122
  H  H40  1  0.075100  0.090100  0.413500  1.0  0.0998
  H  H41  1  0.422500  0.854500  0.873300  1.0  0.1154
  H  H42  1  0.389000  0.679800  0.829000  1.0  0.1134
  H  H43  1  0.491900  0.621200  0.718200  1.0  0.1148
  H  H44  1  0.608800  0.619200  0.614400  1.0  0.1182
  H  H45  1  0.636300  0.797800  0.657400  1.0  0.1191
  H  H46  1  0.535800  0.854700  0.768700  1.0  0.1203
  H  H47  1  0.647100  0.873800  0.463200  1.0  0.1059
  H  H48  1  0.590000  0.043200  0.332600  1.0  0.1063
  H  H49  1  0.542600  0.887600  0.583800  1.0  0.1088
  H  H50  1  0.329700  0.609400  0.035600  1.0  0.0964
  H  H51  1  0.442600  0.473500  0.171500  1.0  0.111
  H  H52  1  0.578700  0.409900  0.086500  1.0  0.1009
  H  H53  1  0.150300  0.645500  0.626700  1.0  0.1151
  H  H54  1  0.897800  0.820200  0.671000  1.0  0.1137
  H  H55  1  0.831300  0.878800  0.781800  1.0  0.1152
  H  H56  1  0.842400  0.880800  0.885600  1.0  0.1187
  H  H57  1  0.091500  0.702200  0.842600  1.0  0.1184
  H  H58  1  0.159200  0.645300  0.731300  1.0  0.1201
  C  C59  1  0.038280  0.409800  0.835440  1.0  0.3493
  C  C60  1  0.001260  0.463770  0.006510  1.0  0.0486
  C  C61  1  0.014250  0.422440  0.954260  1.0  -0.1152
  C  C62  1  0.024510  0.452550  0.890430  1.0  -0.0478
  C  C63  1  0.025090  0.523470  0.876950  1.0  -0.076
  C  C64  1  0.987110  0.435340  0.073440  1.0  -0.1029
  C  C65  1  0.960590  0.087560  0.665780  1.0  0.3779
  C  C66  1  0.006180  0.068540  0.545440  1.0  -0.1003
  C  C67  1  0.970240  0.047030  0.610810  1.0  -0.0695
  C  C68  1  0.938730  0.987400  0.626140  1.0  -0.0752
  C  C69  1  0.946070  0.949890  0.575770  1.0  -0.0933
  C  C70  1  0.015010  0.030050  0.492570  1.0  0.0531
  C  C71  1  0.680400  0.230910  0.072690  1.0  0.3627
  C  C72  1  0.560990  0.180730  0.157890  1.0  -0.0837
  C  C73  1  0.607480  0.232850  0.139390  1.0  -0.0589
  C  C74  1  0.581040  0.285050  0.183470  1.0  -0.1207
  C  C75  1  0.509520  0.287730  0.247630  1.0  0.0429
  C  C76  1  0.479730  0.342670  0.293870  1.0  -0.1157
  C  C77  1  0.410580  0.343840  0.355400  1.0  -0.0907
  C  C78  1  0.367640  0.290170  0.374550  1.0  -0.0377
  C  C79  1  0.394000  0.237090  0.330310  1.0  -0.1132
  C  C80  1  0.466380  0.234620  0.266620  1.0  0.0498
  C  C81  1  0.493500  0.180870  0.219530  1.0  -0.1232
  C  C82  1  0.294120  0.290190  0.441170  1.0  0.3482
  C  C83  1  0.283520  0.090200  0.664560  1.0  0.3482
  C  C84  1  0.471540  0.036230  0.493490  1.0  0.049
  C  C85  1  0.390950  0.077560  0.545740  1.0  -0.1157
  C  C86  1  0.367490  0.047450  0.609570  1.0  -0.0446
  C  C87  1  0.425510  0.976530  0.623050  1.0  -0.0783
  C  C88  1  0.495890  0.064660  0.426560  1.0  -0.105
  C  C89  1  0.713930  0.412440  0.834220  1.0  0.378
  C  C90  1  0.620160  0.431460  0.954560  1.0  -0.1004
  C  C91  1  0.628080  0.452970  0.889190  1.0  -0.0689
  C  C92  1  0.552270  0.512600  0.873860  1.0  -0.0776
  C  C93  1  0.471730  0.550110  0.924230  1.0  -0.094
  C  C94  1  0.537630  0.469950  0.007430  1.0  0.0534
  C  C95  1  0.984000  0.269090  0.427310  1.0  0.3647
  C  C96  1  0.899610  0.319270  0.342110  1.0  -0.0816
  C  C97  1  0.979720  0.267150  0.360610  1.0  -0.0574
  C  C98  1  0.049560  0.214950  0.316530  1.0  -0.122
  C  C99  1  0.044880  0.212270  0.252370  1.0  0.0436
  C  C100  1  0.116270  0.157330  0.206130  1.0  -0.1142
  C  C101  1  0.109820  0.156160  0.144600  1.0  -0.0896
  C  C102  1  0.032360  0.209830  0.125450  1.0  -0.0453
  C  C103  1  0.961400  0.262910  0.169690  1.0  -0.1155
  C  C104  1  0.967620  0.265380  0.233380  1.0  0.0499
  C  C105  1  0.893900  0.319130  0.280470  1.0  -0.1232
  C  C106  1  0.025480  0.209810  0.058830  1.0  0.35
  C  C107  1  0.961720  0.590200  0.164560  1.0  0.3488
  C  C108  1  0.998740  0.536230  0.993490  1.0  0.0488
  C  C109  1  0.985750  0.577560  0.045740  1.0  -0.1157
  C  C110  1  0.975490  0.547450  0.109570  1.0  -0.0455
  C  C111  1  0.974910  0.476530  0.123050  1.0  -0.0761
  C  C112  1  0.012890  0.564660  0.926560  1.0  -0.1049
  C  C113  1  0.039410  0.912440  0.334220  1.0  0.3771
  C  C114  1  0.993820  0.931460  0.454560  1.0  -0.1
  C  C115  1  0.029760  0.952970  0.389190  1.0  -0.0704
  C  C116  1  0.061270  0.012600  0.373860  1.0  -0.076
  C  C117  1  0.053930  0.050110  0.424230  1.0  -0.0914
  C  C118  1  0.984990  0.969950  0.507430  1.0  0.0533
  C  C119  1  0.319600  0.769090  0.927310  1.0  0.3632
  C  C120  1  0.439010  0.819270  0.842110  1.0  -0.0829
  C  C121  1  0.392520  0.767150  0.860610  1.0  -0.0578
  C  C122  1  0.418960  0.714950  0.816530  1.0  -0.1207
  C  C123  1  0.490480  0.712270  0.752370  1.0  0.0435
  C  C124  1  0.520270  0.657330  0.706130  1.0  -0.1177
  C  C125  1  0.589420  0.656160  0.644600  1.0  -0.0918
  C  C126  1  0.632360  0.709830  0.625450  1.0  -0.0464
  C  C127  1  0.606000  0.762910  0.669690  1.0  -0.1168
  C  C128  1  0.533620  0.765380  0.733380  1.0  0.0493
  C  C129  1  0.506500  0.819130  0.780470  1.0  -0.1217
  C  C130  1  0.705880  0.709810  0.558830  1.0  0.3489
  C  C131  1  0.716480  0.909800  0.335440  1.0  0.3489
  C  C132  1  0.528460  0.963770  0.506510  1.0  0.0487
  C  C133  1  0.609050  0.922440  0.454260  1.0  -0.1151
  C  C134  1  0.632510  0.952550  0.390430  1.0  -0.0466
  C  C135  1  0.574490  0.023470  0.376950  1.0  -0.0777
  C  C136  1  0.504110  0.935340  0.573440  1.0  -0.1063
  C  C137  1  0.286070  0.587560  0.165780  1.0  0.3774
  C  C138  1  0.379840  0.568540  0.045440  1.0  -0.1002
  C  C139  1  0.371920  0.547030  0.110810  1.0  -0.0669
  C  C140  1  0.447730  0.487400  0.126140  1.0  -0.0772
  C  C141  1  0.528270  0.449890  0.075770  1.0  -0.093
  C  C142  1  0.462370  0.530050  0.992570  1.0  0.0535
  C  C143  1  0.016000  0.730910  0.572690  1.0  0.3649
  C  C144  1  0.100390  0.680730  0.657890  1.0  -0.0819
  C  C145  1  0.020280  0.732850  0.639390  1.0  -0.0585
  C  C146  1  0.950440  0.785050  0.683470  1.0  -0.1213
  C  C147  1  0.955120  0.787730  0.747630  1.0  0.044
  C  C148  1  0.883730  0.842670  0.793870  1.0  -0.1163
  C  C149  1  0.890180  0.843840  0.855400  1.0  -0.089
  C  C150  1  0.967640  0.790170  0.874550  1.0  -0.0384
  C  C151  1  0.038600  0.737090  0.830310  1.0  -0.115
  C  C152  1  0.032380  0.734620  0.766620  1.0  0.0491
  C  C153  1  0.106100  0.680870  0.719530  1.0  -0.1209
  C  C154  1  0.974520  0.790190  0.941170  1.0  0.35
  N  N155  1  0.005050  0.356410  0.842050  1.0  -0.3493
  N  N156  1  0.038810  0.332940  0.778700  1.0  -0.0132
  N  N157  1  0.089520  0.371060  0.737140  1.0  -0.0758
  N  N158  1  0.090650  0.419900  0.771600  1.0  -0.3035
  N  N159  1  0.998210  0.138870  0.658610  1.0  -0.3271
  N  N160  1  0.966680  0.162980  0.720760  1.0  0.0102
  N  N161  1  0.913390  0.127330  0.762810  1.0  -0.1299
  N  N162  1  0.908460  0.079050  0.729410  1.0  -0.312
  N  N163  1  0.713680  0.179070  0.028170  1.0  -0.3303
  N  N164  1  0.777360  0.198970  0.975250  1.0  -0.1348
  N  N165  1  0.780910  0.259290  0.987650  1.0  -0.0257
  N  N166  1  0.721150  0.280830  0.049130  1.0  -0.3089
  N  N167  1  0.269010  0.233500  0.465940  1.0  -0.3805
  N  N168  1  0.202210  0.255310  0.525910  1.0  -0.0246
  N  N169  1  0.185670  0.322770  0.535550  1.0  -0.0867
  N  N170  1  0.246160  0.345800  0.482680  1.0  -0.3473
  N  N171  1  0.203510  0.143590  0.657950  1.0  -0.3498
  N  N172  1  0.150450  0.167060  0.721300  1.0  -0.0124
  N  N173  1  0.197720  0.128940  0.762860  1.0  -0.0725
  N  N174  1  0.282150  0.080100  0.728400  1.0  -0.3042
  N  N175  1  0.795690  0.361130  0.841390  1.0  -0.3298
  N  N176  1  0.850420  0.337020  0.779240  1.0  0.0105
  N  N177  1  0.803530  0.372670  0.737190  1.0  -0.1336
  N  N178  1  0.716920  0.420950  0.770590  1.0  -0.3188
  N  N179  1  0.920920  0.320930  0.471830  1.0  -0.3308
  N  N180  1  0.951580  0.301030  0.524750  1.0  -0.136
  N  N181  1  0.027850  0.240710  0.512350  1.0  -0.0295
  N  N182  1  0.051110  0.219170  0.450870  1.0  -0.3106
  N  N183  1  0.968450  0.266500  0.034060  1.0  -0.379
  N  N184  1  0.983430  0.244690  0.974090  1.0  -0.023
  N  N185  1  0.043990  0.177230  0.964450  1.0  -0.0899
  N  N186  1  0.074640  0.154200  0.017320  1.0  -0.3476
  N  N187  1  0.994950  0.643590  0.157950  1.0  -0.3494
  N  N188  1  0.961190  0.667060  0.221300  1.0  -0.0133
  N  N189  1  0.910480  0.628940  0.262860  1.0  -0.0717
  N  N190  1  0.909350  0.580100  0.228400  1.0  -0.303
  N  N191  1  0.001790  0.861130  0.341390  1.0  -0.3291
  N  N192  1  0.033320  0.837020  0.279240  1.0  0.0111
  N  N193  1  0.086610  0.872670  0.237190  1.0  -0.1258
  N  N194  1  0.091540  0.920950  0.270590  1.0  -0.3115
  N  N195  1  0.286320  0.820930  0.971830  1.0  -0.3304
  N  N196  1  0.222640  0.801030  0.024750  1.0  -0.1361
  N  N197  1  0.219090  0.740710  0.012350  1.0  -0.0257
  N  N198  1  0.278850  0.719170  0.950870  1.0  -0.3115
  N  N199  1  0.730990  0.766500  0.534060  1.0  -0.3808
  N  N200  1  0.797790  0.744690  0.474090  1.0  -0.0233
  N  N201  1  0.814330  0.677230  0.464450  1.0  -0.0879
  N  N202  1  0.753840  0.654200  0.517320  1.0  -0.3468
  N  N203  1  0.796490  0.856410  0.342050  1.0  -0.3502
  N  N204  1  0.849550  0.832940  0.278700  1.0  -0.013
  N  N205  1  0.802280  0.871060  0.237140  1.0  -0.0746
  N  N206  1  0.717850  0.919900  0.271600  1.0  -0.3046
  N  N207  1  0.204310  0.638870  0.158610  1.0  -0.3288
  N  N208  1  0.149580  0.662980  0.220760  1.0  0.0118
  N  N209  1  0.196470  0.627330  0.262810  1.0  -0.1339
  N  N210  1  0.283080  0.579050  0.229410  1.0  -0.3097
  N  N211  1  0.079080  0.679070  0.528170  1.0  -0.3315
  N  N212  1  0.048420  0.698970  0.475250  1.0  -0.1353
  N  N213  1  0.972150  0.759290  0.487650  1.0  -0.0289
  N  N214  1  0.948890  0.780830  0.549130  1.0  -0.3089
  N  N215  1  0.031550  0.733500  0.965940  1.0  -0.3789
  N  N216  1  0.016570  0.755310  0.025910  1.0  -0.0262
  N  N217  1  0.956010  0.822770  0.035550  1.0  -0.0878
  N  N218  1  0.925360  0.845800  0.982680  1.0  -0.3485
  O  O219  1  0.946210  0.215500  0.852720  1.0  -0.8132
  O  O220  1  0.014430  0.284500  0.647280  1.0  -0.8143
  O  O221  1  0.053790  0.784500  0.147280  1.0  -0.8141
  O  O222  1  0.985570  0.715500  0.352720  1.0  -0.8137
