# generated using pymatgen
data_Mn3H18C36N24O
_symmetry_space_group_name_H-M   'P 1'
_cell_length_a   13.81400000
_cell_length_b   20.79200000
_cell_length_c   20.79200000
_cell_angle_alpha   120.00000000
_cell_angle_beta   90.00000000
_cell_angle_gamma   90.00000000
_symmetry_Int_Tables_number   1
_chemical_formula_structural   Mn3H18C36N24O
_chemical_formula_sum   'Mn6 H36 C72 N48 O2'
_cell_volume   5171.81065255
_cell_formula_units_Z   2
loop_
 _symmetry_equiv_pos_site_id
 _symmetry_equiv_pos_as_xyz
  1  'x, y, z'
loop_
 _atom_site_type_symbol
 _atom_site_label
 _atom_site_symmetry_multiplicity
 _atom_site_fract_x
 _atom_site_fract_y
 _atom_site_fract_z
 _atom_site_occupancy
 _atom_site_charge
  Mn  Mn1  1  0.250000  0.379480  0.780510  1.0  0.9761
  Mn  Mn2  1  0.250000  0.401030  0.620520  1.0  0.9758
  Mn  Mn3  1  0.250000  0.219490  0.598970  1.0  0.9746
  Mn  Mn4  1  0.750000  0.620520  0.219490  1.0  0.9751
  Mn  Mn5  1  0.750000  0.598970  0.379480  1.0  0.9761
  Mn  Mn6  1  0.750000  0.780510  0.401030  1.0  0.9726
  H  H7  1  0.452400  0.410300  0.858800  1.0  0.1175
  H  H8  1  0.472700  0.634000  0.949200  1.0  0.1265
  H  H9  1  0.483200  0.353500  0.937900  1.0  0.1086
  H  H10  1  0.452400  0.448500  0.589700  1.0  0.1192
  H  H11  1  0.472700  0.315200  0.366000  1.0  0.1283
  H  H12  1  0.483200  0.584400  0.646500  1.0  0.1089
  H  H13  1  0.452400  0.141200  0.551500  1.0  0.1166
  H  H14  1  0.472700  0.050800  0.684800  1.0  0.1257
  H  H15  1  0.483200  0.062100  0.415600  1.0  0.1086
  H  H16  1  0.952400  0.589700  0.141200  1.0  0.1161
  H  H17  1  0.972700  0.366000  0.050800  1.0  0.1258
  H  H18  1  0.983200  0.646500  0.062100  1.0  0.1084
  H  H19  1  0.952400  0.551500  0.410300  1.0  0.1192
  H  H20  1  0.972700  0.684800  0.634000  1.0  0.1285
  H  H21  1  0.983200  0.415600  0.353500  1.0  0.1091
  H  H22  1  0.952400  0.858800  0.448500  1.0  0.1172
  H  H23  1  0.972700  0.949200  0.315200  1.0  0.1257
  H  H24  1  0.983200  0.937900  0.584400  1.0  0.1085
  H  H25  1  0.547600  0.589700  0.141200  1.0  0.1159
  H  H26  1  0.527300  0.366000  0.050800  1.0  0.1258
  H  H27  1  0.516800  0.646500  0.062100  1.0  0.1097
  H  H28  1  0.547600  0.551500  0.410300  1.0  0.1187
  H  H29  1  0.527300  0.684800  0.634000  1.0  0.1289
  H  H30  1  0.516800  0.415600  0.353500  1.0  0.1102
  H  H31  1  0.547600  0.858800  0.448500  1.0  0.117
  H  H32  1  0.527300  0.949200  0.315200  1.0  0.1258
  H  H33  1  0.516800  0.937900  0.584400  1.0  0.1096
  H  H34  1  0.047600  0.410300  0.858800  1.0  0.1173
  H  H35  1  0.027300  0.634000  0.949200  1.0  0.1265
  H  H36  1  0.016800  0.353500  0.937900  1.0  0.1098
  H  H37  1  0.047600  0.448500  0.589700  1.0  0.1191
  H  H38  1  0.027300  0.315200  0.366000  1.0  0.1284
  H  H39  1  0.016800  0.584400  0.646500  1.0  0.1102
  H  H40  1  0.047600  0.141200  0.551500  1.0  0.1164
  H  H41  1  0.027300  0.050800  0.684800  1.0  0.126
  H  H42  1  0.016800  0.062100  0.415600  1.0  0.11
  C  C43  1  0.490700  0.463990  0.969050  1.0  0.0578
  C  C44  1  0.464400  0.457950  0.900550  1.0  -0.1103
  C  C45  1  0.455940  0.519830  0.893290  1.0  -0.0429
  C  C46  1  0.476800  0.591290  0.954630  1.0  -0.0694
  C  C47  1  0.497200  0.401450  0.978610  1.0  -0.0941
  C  C48  1  0.424240  0.511940  0.822260  1.0  0.3593
  C  C49  1  0.490700  0.505060  0.536010  1.0  0.0565
  C  C50  1  0.464400  0.442600  0.542050  1.0  -0.1147
  C  C51  1  0.455940  0.373460  0.480170  1.0  -0.0436
  C  C52  1  0.476800  0.363340  0.408710  1.0  -0.0702
  C  C53  1  0.497200  0.577160  0.598550  1.0  -0.0952
  C  C54  1  0.424240  0.310320  0.488060  1.0  0.3606
  C  C55  1  0.490700  0.030950  0.494940  1.0  0.0579
  C  C56  1  0.464400  0.099450  0.557400  1.0  -0.1098
  C  C57  1  0.455940  0.106710  0.626540  1.0  -0.0422
  C  C58  1  0.476800  0.045370  0.636660  1.0  -0.0706
  C  C59  1  0.497200  0.021390  0.422840  1.0  -0.0952
  C  C60  1  0.424240  0.177740  0.689680  1.0  0.3585
  C  C61  1  0.990700  0.536010  0.030950  1.0  0.0581
  C  C62  1  0.964400  0.542050  0.099450  1.0  -0.1099
  C  C63  1  0.955940  0.480170  0.106710  1.0  -0.0439
  C  C64  1  0.976800  0.408710  0.045370  1.0  -0.0673
  C  C65  1  0.997200  0.598550  0.021390  1.0  -0.0946
  C  C66  1  0.924240  0.488060  0.177740  1.0  0.3601
  C  C67  1  0.990700  0.494940  0.463990  1.0  0.0571
  C  C68  1  0.964400  0.557400  0.457950  1.0  -0.1133
  C  C69  1  0.955940  0.626540  0.519830  1.0  -0.0434
  C  C70  1  0.976800  0.636660  0.591290  1.0  -0.0707
  C  C71  1  0.997200  0.422840  0.401450  1.0  -0.0952
  C  C72  1  0.924240  0.689680  0.511940  1.0  0.3591
  C  C73  1  0.990700  0.969050  0.505060  1.0  0.0576
  C  C74  1  0.964400  0.900550  0.442600  1.0  -0.1103
  C  C75  1  0.955940  0.893290  0.373460  1.0  -0.0433
  C  C76  1  0.976800  0.954630  0.363340  1.0  -0.0715
  C  C77  1  0.997200  0.978610  0.577160  1.0  -0.0952
  C  C78  1  0.924240  0.822260  0.310320  1.0  0.3595
  C  C79  1  0.509300  0.536010  0.030950  1.0  0.0584
  C  C80  1  0.535600  0.542050  0.099450  1.0  -0.1066
  C  C81  1  0.544060  0.480170  0.106710  1.0  -0.0439
  C  C82  1  0.523200  0.408710  0.045370  1.0  -0.0654
  C  C83  1  0.502800  0.598550  0.021390  1.0  -0.0972
  C  C84  1  0.575760  0.488060  0.177740  1.0  0.359
  C  C85  1  0.509300  0.494940  0.463990  1.0  0.0573
  C  C86  1  0.535600  0.557400  0.457950  1.0  -0.1099
  C  C87  1  0.544060  0.626540  0.519830  1.0  -0.0436
  C  C88  1  0.523200  0.636660  0.591290  1.0  -0.0699
  C  C89  1  0.502800  0.422840  0.401450  1.0  -0.0977
  C  C90  1  0.575760  0.689680  0.511940  1.0  0.3583
  C  C91  1  0.509300  0.969050  0.505060  1.0  0.0578
  C  C92  1  0.535600  0.900550  0.442600  1.0  -0.1066
  C  C93  1  0.544060  0.893290  0.373460  1.0  -0.0435
  C  C94  1  0.523200  0.954630  0.363340  1.0  -0.07
  C  C95  1  0.502800  0.978610  0.577160  1.0  -0.0976
  C  C96  1  0.575760  0.822260  0.310320  1.0  0.3586
  C  C97  1  0.009300  0.463990  0.969050  1.0  0.058
  C  C98  1  0.035600  0.457950  0.900550  1.0  -0.1068
  C  C99  1  0.044060  0.519830  0.893290  1.0  -0.0431
  C  C100  1  0.023200  0.591290  0.954630  1.0  -0.0685
  C  C101  1  0.002800  0.401450  0.978610  1.0  -0.0963
  C  C102  1  0.075760  0.511940  0.822260  1.0  0.3588
  C  C103  1  0.009300  0.505060  0.536010  1.0  0.0568
  C  C104  1  0.035600  0.442600  0.542050  1.0  -0.1108
  C  C105  1  0.044060  0.373460  0.480170  1.0  -0.0437
  C  C106  1  0.023200  0.363340  0.408710  1.0  -0.0685
  C  C107  1  0.002800  0.577160  0.598550  1.0  -0.0974
  C  C108  1  0.075760  0.310320  0.488060  1.0  0.3595
  C  C109  1  0.009300  0.030950  0.494940  1.0  0.0583
  C  C110  1  0.035600  0.099450  0.557400  1.0  -0.1067
  C  C111  1  0.044060  0.106710  0.626540  1.0  -0.0421
  C  C112  1  0.023200  0.045370  0.636660  1.0  -0.0693
  C  C113  1  0.002800  0.021390  0.422840  1.0  -0.0978
  C  C114  1  0.075760  0.177740  0.689680  1.0  0.3574
  N  N115  1  0.363200  0.459370  0.775880  1.0  -0.3108
  N  N116  1  0.355990  0.471180  0.717390  1.0  -0.0242
  N  N117  1  0.409210  0.528430  0.729230  1.0  -0.1043
  N  N118  1  0.453550  0.555760  0.795820  1.0  -0.3333
  N  N119  1  0.363200  0.316510  0.540630  1.0  -0.3114
  N  N120  1  0.355990  0.246210  0.528820  1.0  -0.0248
  N  N121  1  0.409210  0.200800  0.471570  1.0  -0.1028
  N  N122  1  0.453550  0.240060  0.444240  1.0  -0.3348
  N  N123  1  0.363200  0.224120  0.683490  1.0  -0.3104
  N  N124  1  0.355990  0.282610  0.753790  1.0  -0.0244
  N  N125  1  0.409210  0.270770  0.799200  1.0  -0.1029
  N  N126  1  0.453550  0.204180  0.759940  1.0  -0.3313
  N  N127  1  0.863200  0.540630  0.224120  1.0  -0.311
  N  N128  1  0.855990  0.528820  0.282610  1.0  -0.0241
  N  N129  1  0.909210  0.471570  0.270770  1.0  -0.1059
  N  N130  1  0.953550  0.444240  0.204180  1.0  -0.333
  N  N131  1  0.863200  0.683490  0.459370  1.0  -0.3109
  N  N132  1  0.855990  0.753790  0.471180  1.0  -0.0228
  N  N133  1  0.909210  0.799200  0.528430  1.0  -0.1027
  N  N134  1  0.953550  0.759940  0.555760  1.0  -0.3303
  N  N135  1  0.863200  0.775880  0.316510  1.0  -0.3118
  N  N136  1  0.855990  0.717390  0.246210  1.0  -0.0261
  N  N137  1  0.909210  0.729230  0.200800  1.0  -0.1045
  N  N138  1  0.953550  0.795820  0.240060  1.0  -0.3358
  N  N139  1  0.636800  0.540630  0.224120  1.0  -0.3104
  N  N140  1  0.644010  0.528820  0.282610  1.0  -0.0245
  N  N141  1  0.590790  0.471570  0.270770  1.0  -0.106
  N  N142  1  0.546450  0.444240  0.204180  1.0  -0.3326
  N  N143  1  0.636800  0.683490  0.459370  1.0  -0.3107
  N  N144  1  0.644010  0.753790  0.471180  1.0  -0.0241
  N  N145  1  0.590790  0.799200  0.528430  1.0  -0.1038
  N  N146  1  0.546450  0.759940  0.555760  1.0  -0.3312
  N  N147  1  0.636800  0.775880  0.316510  1.0  -0.3113
  N  N148  1  0.644010  0.717390  0.246210  1.0  -0.0261
  N  N149  1  0.590790  0.729230  0.200800  1.0  -0.1053
  N  N150  1  0.546450  0.795820  0.240060  1.0  -0.3345
  N  N151  1  0.136800  0.459370  0.775880  1.0  -0.3104
  N  N152  1  0.144010  0.471180  0.717390  1.0  -0.0252
  N  N153  1  0.090790  0.528430  0.729230  1.0  -0.1052
  N  N154  1  0.046450  0.555760  0.795820  1.0  -0.3335
  N  N155  1  0.136800  0.316510  0.540630  1.0  -0.311
  N  N156  1  0.144010  0.246210  0.528820  1.0  -0.0247
  N  N157  1  0.090790  0.200800  0.471570  1.0  -0.1035
  N  N158  1  0.046450  0.240060  0.444240  1.0  -0.3341
  N  N159  1  0.136800  0.224120  0.683490  1.0  -0.3103
  N  N160  1  0.144010  0.282610  0.753790  1.0  -0.0257
  N  N161  1  0.090790  0.270770  0.799200  1.0  -0.1042
  N  N162  1  0.046450  0.204180  0.759940  1.0  -0.3303
  O  O163  1  0.250000  0.333333  0.666667  1.0  -1.0011
  O  O164  1  0.750000  0.666667  0.333333  1.0  -1.0011
