# generated using pymatgen
data_Zr3FeH24C48N4ClO12
_symmetry_space_group_name_H-M   'P 1'
_cell_length_a   17.14300000
_cell_length_b   41.96800000
_cell_length_c   41.96800000
_cell_angle_alpha   120.00000000
_cell_angle_beta   90.00000000
_cell_angle_gamma   90.00000000
_symmetry_Int_Tables_number   1
_chemical_formula_structural   Zr3FeH24C48N4ClO12
_chemical_formula_sum   'Zr18 Fe6 H144 C288 N24 Cl6 O72'
_cell_volume   26148.93486827
_cell_formula_units_Z   6
loop_
 _symmetry_equiv_pos_site_id
 _symmetry_equiv_pos_as_xyz
  1  'x, y, z'
loop_
 _atom_site_type_symbol
 _atom_site_label
 _atom_site_symmetry_multiplicity
 _atom_site_fract_x
 _atom_site_fract_y
 _atom_site_fract_z
 _atom_site_occupancy
 _atom_site_charge
  Zr  Zr1  1  0.897340  0.542030  0.542030  1.0  2.1177
  Zr  Zr2  1  0.897340  0.000000  0.457970  1.0  2.1143
  Zr  Zr3  1  0.897340  0.457970  0.000000  1.0  2.1186
  Zr  Zr4  1  0.897340  0.457970  0.457970  1.0  2.1161
  Zr  Zr5  1  0.897340  0.000000  0.542030  1.0  2.1149
  Zr  Zr6  1  0.897340  0.542030  0.000000  1.0  2.1174
  Zr  Zr7  1  0.102660  0.000000  0.457970  1.0  2.114
  Zr  Zr8  1  0.102660  0.542030  0.542030  1.0  2.1179
  Zr  Zr9  1  0.102660  0.457970  0.000000  1.0  2.1132
  Zr  Zr10  1  0.102660  0.000000  0.542030  1.0  2.1145
  Zr  Zr11  1  0.102660  0.457970  0.457970  1.0  2.1155
  Zr  Zr12  1  0.102660  0.542030  0.000000  1.0  2.1123
  Zr  Zr13  1  0.000000  0.466180  0.533820  1.0  2.1442
  Zr  Zr14  1  0.000000  0.067640  0.533820  1.0  2.1369
  Zr  Zr15  1  0.000000  0.466180  0.932360  1.0  2.1444
  Zr  Zr16  1  0.000000  0.533820  0.466180  1.0  2.1424
  Zr  Zr17  1  0.000000  0.932360  0.466180  1.0  2.141
  Zr  Zr18  1  0.000000  0.533820  0.067640  1.0  2.1429
  Fe  Fe19  1  0.500000  0.488000  0.744000  1.0  0.8492
  Fe  Fe20  1  0.500000  0.256000  0.512000  1.0  0.8473
  Fe  Fe21  1  0.500000  0.256000  0.744000  1.0  0.8468
  Fe  Fe22  1  0.500000  0.512000  0.256000  1.0  0.8488
  Fe  Fe23  1  0.500000  0.744000  0.488000  1.0  0.848
  Fe  Fe24  1  0.500000  0.744000  0.256000  1.0  0.8487
  H  H25  1  0.842300  0.453200  0.609600  1.0  0.1136
  H  H26  1  0.791100  0.501900  0.722000  1.0  0.1203
  H  H27  1  0.763700  0.554500  0.638700  1.0  0.1199
  H  H28  1  0.675500  0.550400  0.678700  1.0  0.1121
  H  H29  1  0.750600  0.450300  0.649800  1.0  0.111
  H  H30  1  0.572000  0.496900  0.630100  1.0  0.1206
  H  H31  1  0.842300  0.156400  0.546800  1.0  0.1122
  H  H32  1  0.791100  0.220100  0.498100  1.0  0.121
  H  H33  1  0.763700  0.084200  0.445500  1.0  0.1191
  H  H34  1  0.675500  0.128300  0.449600  1.0  0.1126
  H  H35  1  0.750600  0.199500  0.549700  1.0  0.1122
  H  H36  1  0.572000  0.133200  0.503100  1.0  0.1227
  H  H37  1  0.842300  0.390400  0.843600  1.0  0.1134
  H  H38  1  0.791100  0.278000  0.779900  1.0  0.1209
  H  H39  1  0.763700  0.361300  0.915800  1.0  0.121
  H  H40  1  0.675500  0.321300  0.871700  1.0  0.1137
  H  H41  1  0.750600  0.350200  0.800500  1.0  0.113
  H  H42  1  0.572000  0.369900  0.866800  1.0  0.1211
  H  H43  1  0.842300  0.546800  0.390400  1.0  0.114
  H  H44  1  0.791100  0.498100  0.278000  1.0  0.1209
  H  H45  1  0.763700  0.445500  0.361300  1.0  0.1192
  H  H46  1  0.675500  0.449600  0.321300  1.0  0.1122
  H  H47  1  0.750600  0.549700  0.350200  1.0  0.1116
  H  H48  1  0.572000  0.503100  0.369900  1.0  0.1209
  H  H49  1  0.842300  0.843600  0.453200  1.0  0.1123
  H  H50  1  0.791100  0.779900  0.501900  1.0  0.1212
  H  H51  1  0.763700  0.915800  0.554500  1.0  0.12
  H  H52  1  0.675500  0.871700  0.550400  1.0  0.1127
  H  H53  1  0.750600  0.800500  0.450300  1.0  0.1114
  H  H54  1  0.572000  0.866800  0.496900  1.0  0.1225
  H  H55  1  0.842300  0.609600  0.156400  1.0  0.1136
  H  H56  1  0.791100  0.722000  0.220100  1.0  0.1205
  H  H57  1  0.763700  0.638700  0.084200  1.0  0.1201
  H  H58  1  0.675500  0.678700  0.128300  1.0  0.1137
  H  H59  1  0.750600  0.649800  0.199500  1.0  0.1122
  H  H60  1  0.572000  0.630100  0.133200  1.0  0.1227
  H  H61  1  0.157700  0.843600  0.390400  1.0  0.112
  H  H62  1  0.208900  0.779900  0.278000  1.0  0.1209
  H  H63  1  0.236300  0.915800  0.361300  1.0  0.1199
  H  H64  1  0.324500  0.871700  0.321300  1.0  0.1126
  H  H65  1  0.249400  0.800500  0.350200  1.0  0.1119
  H  H66  1  0.428000  0.866800  0.369900  1.0  0.1214
  H  H67  1  0.157700  0.609600  0.453200  1.0  0.1131
  H  H68  1  0.208900  0.722000  0.501900  1.0  0.1206
  H  H69  1  0.236300  0.638700  0.554500  1.0  0.1203
  H  H70  1  0.324500  0.678700  0.550400  1.0  0.1131
  H  H71  1  0.249400  0.649800  0.450300  1.0  0.1128
  H  H72  1  0.428000  0.630100  0.496900  1.0  0.1231
  H  H73  1  0.157700  0.546800  0.156400  1.0  0.113
  H  H74  1  0.208900  0.498100  0.220100  1.0  0.1201
  H  H75  1  0.236300  0.445500  0.084200  1.0  0.119
  H  H76  1  0.324500  0.449600  0.128300  1.0  0.1121
  H  H77  1  0.249400  0.549700  0.199500  1.0  0.1115
  H  H78  1  0.428000  0.503100  0.133200  1.0  0.121
  H  H79  1  0.157700  0.156400  0.609600  1.0  0.1121
  H  H80  1  0.208900  0.220100  0.722000  1.0  0.121
  H  H81  1  0.236300  0.084200  0.638700  1.0  0.1199
  H  H82  1  0.324500  0.128300  0.678700  1.0  0.1127
  H  H83  1  0.249400  0.199500  0.649800  1.0  0.1121
  H  H84  1  0.428000  0.133200  0.630100  1.0  0.1212
  H  H85  1  0.157700  0.390400  0.546800  1.0  0.113
  H  H86  1  0.208900  0.278000  0.498100  1.0  0.1205
  H  H87  1  0.236300  0.361300  0.445500  1.0  0.1202
  H  H88  1  0.324500  0.321300  0.449600  1.0  0.1129
  H  H89  1  0.249400  0.350200  0.549700  1.0  0.1125
  H  H90  1  0.428000  0.369900  0.503100  1.0  0.1237
  H  H91  1  0.157700  0.453200  0.843600  1.0  0.1131
  H  H92  1  0.208900  0.501900  0.779900  1.0  0.1204
  H  H93  1  0.236300  0.554500  0.915800  1.0  0.1196
  H  H94  1  0.324500  0.550400  0.871700  1.0  0.1119
  H  H95  1  0.249400  0.450300  0.800500  1.0  0.1112
  H  H96  1  0.428000  0.496900  0.866800  1.0  0.1214
  H  H97  1  0.157700  0.546800  0.390400  1.0  0.1135
  H  H98  1  0.208900  0.498100  0.278000  1.0  0.1204
  H  H99  1  0.236300  0.445500  0.361300  1.0  0.1192
  H  H100  1  0.324500  0.449600  0.321300  1.0  0.1121
  H  H101  1  0.249400  0.549700  0.350200  1.0  0.1118
  H  H102  1  0.428000  0.503100  0.369900  1.0  0.1214
  H  H103  1  0.157700  0.843600  0.453200  1.0  0.1118
  H  H104  1  0.208900  0.779900  0.501900  1.0  0.1209
  H  H105  1  0.236300  0.915800  0.554500  1.0  0.12
  H  H106  1  0.324500  0.871700  0.550400  1.0  0.1123
  H  H107  1  0.249400  0.800500  0.450300  1.0  0.1113
  H  H108  1  0.428000  0.866800  0.496900  1.0  0.1234
  H  H109  1  0.157700  0.609600  0.156400  1.0  0.1136
  H  H110  1  0.208900  0.722000  0.220100  1.0  0.1203
  H  H111  1  0.236300  0.638700  0.084200  1.0  0.1202
  H  H112  1  0.324500  0.678700  0.128300  1.0  0.1134
  H  H113  1  0.249400  0.649800  0.199500  1.0  0.1128
  H  H114  1  0.428000  0.630100  0.133200  1.0  0.1219
  H  H115  1  0.157700  0.453200  0.609600  1.0  0.1129
  H  H116  1  0.208900  0.501900  0.722000  1.0  0.1202
  H  H117  1  0.236300  0.554500  0.638700  1.0  0.1201
  H  H118  1  0.324500  0.550400  0.678700  1.0  0.1117
  H  H119  1  0.249400  0.450300  0.649800  1.0  0.1111
  H  H120  1  0.428000  0.496900  0.630100  1.0  0.1211
  H  H121  1  0.157700  0.156400  0.546800  1.0  0.112
  H  H122  1  0.208900  0.220100  0.498100  1.0  0.1209
  H  H123  1  0.236300  0.084200  0.445500  1.0  0.1192
  H  H124  1  0.324500  0.128300  0.449600  1.0  0.1126
  H  H125  1  0.249400  0.199500  0.549700  1.0  0.1125
  H  H126  1  0.428000  0.133200  0.503100  1.0  0.1234
  H  H127  1  0.157700  0.390400  0.843600  1.0  0.1131
  H  H128  1  0.208900  0.278000  0.779900  1.0  0.1208
  H  H129  1  0.236300  0.361300  0.915800  1.0  0.1207
  H  H130  1  0.324500  0.321300  0.871700  1.0  0.1136
  H  H131  1  0.249400  0.350200  0.800500  1.0  0.1127
  H  H132  1  0.428000  0.369900  0.866800  1.0  0.1223
  H  H133  1  0.842300  0.156400  0.609600  1.0  0.1125
  H  H134  1  0.791100  0.220100  0.722000  1.0  0.1212
  H  H135  1  0.763700  0.084200  0.638700  1.0  0.1199
  H  H136  1  0.675500  0.128300  0.678700  1.0  0.1127
  H  H137  1  0.750600  0.199500  0.649800  1.0  0.1119
  H  H138  1  0.572000  0.133200  0.630100  1.0  0.1209
  H  H139  1  0.842300  0.390400  0.546800  1.0  0.1131
  H  H140  1  0.791100  0.278000  0.498100  1.0  0.1205
  H  H141  1  0.763700  0.361300  0.445500  1.0  0.12
  H  H142  1  0.675500  0.321300  0.449600  1.0  0.113
  H  H143  1  0.750600  0.350200  0.549700  1.0  0.1119
  H  H144  1  0.572000  0.369900  0.503100  1.0  0.1231
  H  H145  1  0.842300  0.453200  0.843600  1.0  0.1139
  H  H146  1  0.791100  0.501900  0.779900  1.0  0.1209
  H  H147  1  0.763700  0.554500  0.915800  1.0  0.1195
  H  H148  1  0.675500  0.550400  0.871700  1.0  0.1122
  H  H149  1  0.750600  0.450300  0.800500  1.0  0.1112
  H  H150  1  0.572000  0.496900  0.866800  1.0  0.1212
  H  H151  1  0.842300  0.843600  0.390400  1.0  0.1122
  H  H152  1  0.791100  0.779900  0.278000  1.0  0.1211
  H  H153  1  0.763700  0.915800  0.361300  1.0  0.1198
  H  H154  1  0.675500  0.871700  0.321300  1.0  0.1129
  H  H155  1  0.750600  0.800500  0.350200  1.0  0.1116
  H  H156  1  0.572000  0.866800  0.369900  1.0  0.1206
  H  H157  1  0.842300  0.609600  0.453200  1.0  0.1135
  H  H158  1  0.791100  0.722000  0.501900  1.0  0.1209
  H  H159  1  0.763700  0.638700  0.554500  1.0  0.1204
  H  H160  1  0.675500  0.678700  0.550400  1.0  0.1131
  H  H161  1  0.750600  0.649800  0.450300  1.0  0.113
  H  H162  1  0.572000  0.630100  0.496900  1.0  0.1233
  H  H163  1  0.842300  0.546800  0.156400  1.0  0.1131
  H  H164  1  0.791100  0.498100  0.220100  1.0  0.1202
  H  H165  1  0.763700  0.445500  0.084200  1.0  0.119
  H  H166  1  0.675500  0.449600  0.128300  1.0  0.1121
  H  H167  1  0.750600  0.549700  0.199500  1.0  0.1113
  H  H168  1  0.572000  0.503100  0.133200  1.0  0.1218
  C  C169  1  0.641900  0.497740  0.691220  1.0  -0.0928
  C  C170  1  0.564600  0.497130  0.681050  1.0  0.1616
  C  C171  1  0.808100  0.473350  0.623540  1.0  -0.0695
  C  C172  1  0.746400  0.500310  0.734460  1.0  -0.1522
  C  C173  1  0.812400  0.504080  0.620700  1.0  -0.0992
  C  C174  1  0.868600  0.506400  0.594080  1.0  0.771
  C  C175  1  0.761900  0.532990  0.640780  1.0  -0.0638
  C  C176  1  0.666667  0.497420  0.722290  1.0  0.2559
  C  C177  1  0.708700  0.530090  0.664050  1.0  -0.0739
  C  C178  1  0.702500  0.499520  0.666530  1.0  0.0831
  C  C179  1  0.752800  0.471520  0.647210  1.0  -0.1215
  C  C180  1  0.539300  0.497000  0.648410  1.0  -0.1619
  C  C181  1  0.641900  0.193480  0.502260  1.0  -0.0925
  C  C182  1  0.564600  0.183920  0.502870  1.0  0.159
  C  C183  1  0.808100  0.150190  0.526650  1.0  -0.0682
  C  C184  1  0.746400  0.234150  0.499690  1.0  -0.1542
  C  C185  1  0.812400  0.116620  0.495920  1.0  -0.0977
  C  C186  1  0.868600  0.087680  0.493600  1.0  0.7724
  C  C187  1  0.761900  0.107790  0.467010  1.0  -0.0657
  C  C188  1  0.666667  0.224870  0.502580  1.0  0.2568
  C  C189  1  0.708700  0.133960  0.469910  1.0  -0.0749
  C  C190  1  0.702500  0.167010  0.500480  1.0  0.0831
  C  C191  1  0.752800  0.175690  0.528480  1.0  -0.1182
  C  C192  1  0.539300  0.151410  0.503000  1.0  -0.1643
  C  C193  1  0.641900  0.308780  0.806520  1.0  -0.093
  C  C194  1  0.564600  0.318950  0.816080  1.0  0.1599
  C  C195  1  0.808100  0.376460  0.849810  1.0  -0.0694
  C  C196  1  0.746400  0.265540  0.765850  1.0  -0.1526
  C  C197  1  0.812400  0.379300  0.883380  1.0  -0.0982
  C  C198  1  0.868600  0.405920  0.912320  1.0  0.7715
  C  C199  1  0.761900  0.359220  0.892210  1.0  -0.0659
  C  C200  1  0.666667  0.277710  0.775130  1.0  0.2564
  C  C201  1  0.708700  0.335950  0.866040  1.0  -0.0723
  C  C202  1  0.702500  0.333470  0.832990  1.0  0.0831
  C  C203  1  0.752800  0.352790  0.824310  1.0  -0.1172
  C  C204  1  0.539300  0.351590  0.848590  1.0  -0.1642
  C  C205  1  0.641900  0.502260  0.308780  1.0  -0.0921
  C  C206  1  0.564600  0.502870  0.318950  1.0  0.1617
  C  C207  1  0.808100  0.526650  0.376460  1.0  -0.0692
  C  C208  1  0.746400  0.499690  0.265540  1.0  -0.1512
  C  C209  1  0.812400  0.495920  0.379300  1.0  -0.0984
  C  C210  1  0.868600  0.493600  0.405920  1.0  0.7723
  C  C211  1  0.761900  0.467010  0.359220  1.0  -0.0639
  C  C212  1  0.666667  0.502580  0.277710  1.0  0.2563
  C  C213  1  0.708700  0.469910  0.335950  1.0  -0.0774
  C  C214  1  0.702500  0.500480  0.333470  1.0  0.0827
  C  C215  1  0.752800  0.528480  0.352790  1.0  -0.1194
  C  C216  1  0.539300  0.503000  0.351590  1.0  -0.1611
  C  C217  1  0.641900  0.806520  0.497740  1.0  -0.0934
  C  C218  1  0.564600  0.816080  0.497130  1.0  0.1598
  C  C219  1  0.808100  0.849810  0.473350  1.0  -0.0666
  C  C220  1  0.746400  0.765850  0.500310  1.0  -0.1543
  C  C221  1  0.812400  0.883380  0.504080  1.0  -0.0984
  C  C222  1  0.868600  0.912320  0.506400  1.0  0.7716
  C  C223  1  0.761900  0.892210  0.532990  1.0  -0.064
  C  C224  1  0.666667  0.775130  0.497420  1.0  0.2559
  C  C225  1  0.708700  0.866040  0.530090  1.0  -0.0741
  C  C226  1  0.702500  0.832990  0.499520  1.0  0.0832
  C  C227  1  0.752800  0.824310  0.471520  1.0  -0.1186
  C  C228  1  0.539300  0.848590  0.497000  1.0  -0.1654
  C  C229  1  0.641900  0.691220  0.193480  1.0  -0.093
  C  C230  1  0.564600  0.681050  0.183920  1.0  0.161
  C  C231  1  0.808100  0.623540  0.150190  1.0  -0.0686
  C  C232  1  0.746400  0.734460  0.234150  1.0  -0.1533
  C  C233  1  0.812400  0.620700  0.116620  1.0  -0.0993
  C  C234  1  0.868600  0.594080  0.087680  1.0  0.7723
  C  C235  1  0.761900  0.640780  0.107790  1.0  -0.0647
  C  C236  1  0.666667  0.722290  0.224870  1.0  0.2565
  C  C237  1  0.708700  0.664050  0.133960  1.0  -0.0729
  C  C238  1  0.702500  0.666530  0.167010  1.0  0.0823
  C  C239  1  0.752800  0.647210  0.175690  1.0  -0.1169
  C  C240  1  0.539300  0.648410  0.151410  1.0  -0.1642
  C  C241  1  0.358100  0.806520  0.308780  1.0  -0.0956
  C  C242  1  0.435400  0.816080  0.318950  1.0  0.1596
  C  C243  1  0.191900  0.849810  0.376460  1.0  -0.0673
  C  C244  1  0.253600  0.765850  0.265540  1.0  -0.1546
  C  C245  1  0.187600  0.883380  0.379300  1.0  -0.0983
  C  C246  1  0.131400  0.912320  0.405920  1.0  0.7723
  C  C247  1  0.238100  0.892210  0.359220  1.0  -0.0658
  C  C248  1  0.333400  0.775130  0.277710  1.0  0.2566
  C  C249  1  0.291300  0.866040  0.335950  1.0  -0.0747
  C  C250  1  0.297500  0.832990  0.333470  1.0  0.0855
  C  C251  1  0.247200  0.824310  0.352790  1.0  -0.1193
  C  C252  1  0.460700  0.848590  0.351590  1.0  -0.1663
  C  C253  1  0.358100  0.691220  0.497740  1.0  -0.0952
  C  C254  1  0.435400  0.681050  0.497130  1.0  0.1609
  C  C255  1  0.191900  0.623540  0.473350  1.0  -0.0689
  C  C256  1  0.253600  0.734460  0.500310  1.0  -0.154
  C  C257  1  0.187600  0.620700  0.504080  1.0  -0.0981
  C  C258  1  0.131400  0.594080  0.506400  1.0  0.7716
  C  C259  1  0.238100  0.640780  0.532990  1.0  -0.0663
  C  C260  1  0.333400  0.722290  0.497420  1.0  0.2566
  C  C261  1  0.291300  0.664050  0.530090  1.0  -0.0724
  C  C262  1  0.297500  0.666530  0.499520  1.0  0.0851
  C  C263  1  0.247200  0.647210  0.471520  1.0  -0.1176
  C  C264  1  0.460700  0.648410  0.497000  1.0  -0.165
  C  C265  1  0.358100  0.502260  0.193480  1.0  -0.0951
  C  C266  1  0.435400  0.502870  0.183920  1.0  0.162
  C  C267  1  0.191900  0.526650  0.150190  1.0  -0.0692
  C  C268  1  0.253600  0.499690  0.234150  1.0  -0.1526
  C  C269  1  0.187600  0.495920  0.116620  1.0  -0.0994
  C  C270  1  0.131400  0.493600  0.087680  1.0  0.7715
  C  C271  1  0.238100  0.467010  0.107790  1.0  -0.0641
  C  C272  1  0.333400  0.502580  0.224870  1.0  0.2564
  C  C273  1  0.291300  0.469910  0.133960  1.0  -0.0783
  C  C274  1  0.297500  0.500480  0.167010  1.0  0.0852
  C  C275  1  0.247200  0.528480  0.175690  1.0  -0.1207
  C  C276  1  0.460700  0.503000  0.151410  1.0  -0.1625
  C  C277  1  0.358100  0.193480  0.691220  1.0  -0.0952
  C  C278  1  0.435400  0.183920  0.681050  1.0  0.1599
  C  C279  1  0.191900  0.150190  0.623540  1.0  -0.0666
  C  C280  1  0.253600  0.234150  0.734460  1.0  -0.1549
  C  C281  1  0.187600  0.116620  0.620700  1.0  -0.0985
  C  C282  1  0.131400  0.087680  0.594080  1.0  0.7726
  C  C283  1  0.238100  0.107790  0.640780  1.0  -0.0654
  C  C284  1  0.333400  0.224870  0.722290  1.0  0.2557
  C  C285  1  0.291300  0.133960  0.664050  1.0  -0.0738
  C  C286  1  0.297500  0.167010  0.666530  1.0  0.0849
  C  C287  1  0.247200  0.175690  0.647210  1.0  -0.1186
  C  C288  1  0.460700  0.151410  0.648410  1.0  -0.1658
  C  C289  1  0.358100  0.308780  0.502260  1.0  -0.0955
  C  C290  1  0.435400  0.318950  0.502870  1.0  0.1607
  C  C291  1  0.191900  0.376460  0.526650  1.0  -0.0691
  C  C292  1  0.253600  0.265540  0.499690  1.0  -0.154
  C  C293  1  0.187600  0.379300  0.495920  1.0  -0.0991
  C  C294  1  0.131400  0.405920  0.493600  1.0  0.7724
  C  C295  1  0.238100  0.359220  0.467010  1.0  -0.0643
  C  C296  1  0.333400  0.277710  0.502580  1.0  0.257
  C  C297  1  0.291300  0.335950  0.469910  1.0  -0.0731
  C  C298  1  0.297500  0.333470  0.500480  1.0  0.0846
  C  C299  1  0.247200  0.352790  0.528480  1.0  -0.1189
  C  C300  1  0.460700  0.351590  0.503000  1.0  -0.1654
  C  C301  1  0.358100  0.497740  0.806520  1.0  -0.0946
  C  C302  1  0.435400  0.497130  0.816080  1.0  0.1619
  C  C303  1  0.191900  0.473350  0.849810  1.0  -0.0693
  C  C304  1  0.253600  0.500310  0.765850  1.0  -0.1523
  C  C305  1  0.187600  0.504080  0.883380  1.0  -0.0977
  C  C306  1  0.131400  0.506400  0.912320  1.0  0.7721
  C  C307  1  0.238100  0.532990  0.892210  1.0  -0.0631
  C  C308  1  0.333400  0.497420  0.775130  1.0  0.2571
  C  C309  1  0.291300  0.530090  0.866040  1.0  -0.0733
  C  C310  1  0.297500  0.499520  0.832990  1.0  0.0847
  C  C311  1  0.247200  0.471520  0.824310  1.0  -0.1229
  C  C312  1  0.460700  0.497000  0.848590  1.0  -0.1624
  C  C313  1  0.358100  0.502260  0.308780  1.0  -0.0946
  C  C314  1  0.435400  0.502870  0.318950  1.0  0.1616
  C  C315  1  0.191900  0.526650  0.376460  1.0  -0.0695
  C  C316  1  0.253600  0.499690  0.265540  1.0  -0.1516
  C  C317  1  0.187600  0.495920  0.379300  1.0  -0.0985
  C  C318  1  0.131400  0.493600  0.405920  1.0  0.7724
  C  C319  1  0.238100  0.467010  0.359220  1.0  -0.0639
  C  C320  1  0.333400  0.502580  0.277710  1.0  0.2573
  C  C321  1  0.291300  0.469910  0.335950  1.0  -0.078
  C  C322  1  0.297500  0.500480  0.333470  1.0  0.0848
  C  C323  1  0.247200  0.528480  0.352790  1.0  -0.1202
  C  C324  1  0.460700  0.503000  0.351590  1.0  -0.1625
  C  C325  1  0.358100  0.806520  0.497740  1.0  -0.0958
  C  C326  1  0.435400  0.816080  0.497130  1.0  0.1594
  C  C327  1  0.191900  0.849810  0.473350  1.0  -0.0666
  C  C328  1  0.253600  0.765850  0.500310  1.0  -0.1539
  C  C329  1  0.187600  0.883380  0.504080  1.0  -0.0984
  C  C330  1  0.131400  0.912320  0.506400  1.0  0.7721
  C  C331  1  0.238100  0.892210  0.532990  1.0  -0.0644
  C  C332  1  0.333400  0.775130  0.497420  1.0  0.2566
  C  C333  1  0.291300  0.866040  0.530090  1.0  -0.0741
  C  C334  1  0.297500  0.832990  0.499520  1.0  0.0853
  C  C335  1  0.247200  0.824310  0.471520  1.0  -0.1196
  C  C336  1  0.460700  0.848590  0.497000  1.0  -0.1662
  C  C337  1  0.358100  0.691220  0.193480  1.0  -0.0955
  C  C338  1  0.435400  0.681050  0.183920  1.0  0.1613
  C  C339  1  0.191900  0.623540  0.150190  1.0  -0.0687
  C  C340  1  0.253600  0.734460  0.234150  1.0  -0.1539
  C  C341  1  0.187600  0.620700  0.116620  1.0  -0.0994
  C  C342  1  0.131400  0.594080  0.087680  1.0  0.773
  C  C343  1  0.238100  0.640780  0.107790  1.0  -0.0647
  C  C344  1  0.333400  0.722290  0.224870  1.0  0.2568
  C  C345  1  0.291300  0.664050  0.133960  1.0  -0.0727
  C  C346  1  0.297500  0.666530  0.167010  1.0  0.0844
  C  C347  1  0.247200  0.647210  0.175690  1.0  -0.1181
  C  C348  1  0.460700  0.648410  0.151410  1.0  -0.1654
  C  C349  1  0.358100  0.497740  0.691220  1.0  -0.0951
  C  C350  1  0.435400  0.497130  0.681050  1.0  0.1616
  C  C351  1  0.191900  0.473350  0.623540  1.0  -0.0692
  C  C352  1  0.253600  0.500310  0.734460  1.0  -0.1519
  C  C353  1  0.187600  0.504080  0.620700  1.0  -0.0991
  C  C354  1  0.131400  0.506400  0.594080  1.0  0.7715
  C  C355  1  0.238100  0.532990  0.640780  1.0  -0.0641
  C  C356  1  0.333400  0.497420  0.722290  1.0  0.2566
  C  C357  1  0.291300  0.530090  0.664050  1.0  -0.0735
  C  C358  1  0.297500  0.499520  0.666530  1.0  0.0852
  C  C359  1  0.247200  0.471520  0.647210  1.0  -0.1224
  C  C360  1  0.460700  0.497000  0.648410  1.0  -0.1624
  C  C361  1  0.358100  0.193480  0.502260  1.0  -0.095
  C  C362  1  0.435400  0.183920  0.502870  1.0  0.1592
  C  C363  1  0.191900  0.150190  0.526650  1.0  -0.0681
  C  C364  1  0.253600  0.234150  0.499690  1.0  -0.1545
  C  C365  1  0.187600  0.116620  0.495920  1.0  -0.0984
  C  C366  1  0.131400  0.087680  0.493600  1.0  0.773
  C  C367  1  0.238100  0.107790  0.467010  1.0  -0.0654
  C  C368  1  0.333400  0.224870  0.502580  1.0  0.2565
  C  C369  1  0.291300  0.133960  0.469910  1.0  -0.0754
  C  C370  1  0.297500  0.167010  0.500480  1.0  0.0851
  C  C371  1  0.247200  0.175690  0.528480  1.0  -0.1195
  C  C372  1  0.460700  0.151410  0.503000  1.0  -0.1656
  C  C373  1  0.358100  0.308780  0.806520  1.0  -0.0954
  C  C374  1  0.435400  0.318950  0.816080  1.0  0.1596
  C  C375  1  0.191900  0.376460  0.849810  1.0  -0.069
  C  C376  1  0.253600  0.265540  0.765850  1.0  -0.1528
  C  C377  1  0.187600  0.379300  0.883380  1.0  -0.0981
  C  C378  1  0.131400  0.405920  0.912320  1.0  0.7714
  C  C379  1  0.238100  0.359220  0.892210  1.0  -0.066
  C  C380  1  0.333400  0.277710  0.775130  1.0  0.2575
  C  C381  1  0.291300  0.335950  0.866040  1.0  -0.0722
  C  C382  1  0.297500  0.333470  0.832990  1.0  0.0852
  C  C383  1  0.247200  0.352790  0.824310  1.0  -0.1181
  C  C384  1  0.460700  0.351590  0.848590  1.0  -0.165
  C  C385  1  0.641900  0.193480  0.691220  1.0  -0.0927
  C  C386  1  0.564600  0.183920  0.681050  1.0  0.1589
  C  C387  1  0.808100  0.150190  0.623540  1.0  -0.0666
  C  C388  1  0.746400  0.234150  0.734460  1.0  -0.1537
  C  C389  1  0.812400  0.116620  0.620700  1.0  -0.098
  C  C390  1  0.868600  0.087680  0.594080  1.0  0.7723
  C  C391  1  0.761900  0.107790  0.640780  1.0  -0.0654
  C  C392  1  0.666667  0.224870  0.722290  1.0  0.2562
  C  C393  1  0.708700  0.133960  0.664050  1.0  -0.0737
  C  C394  1  0.702500  0.167010  0.666530  1.0  0.0829
  C  C395  1  0.752800  0.175690  0.647210  1.0  -0.118
  C  C396  1  0.539300  0.151410  0.648410  1.0  -0.1648
  C  C397  1  0.641900  0.308780  0.502260  1.0  -0.0931
  C  C398  1  0.564600  0.318950  0.502870  1.0  0.1603
  C  C399  1  0.808100  0.376460  0.526650  1.0  -0.0686
  C  C400  1  0.746400  0.265540  0.499690  1.0  -0.1528
  C  C401  1  0.812400  0.379300  0.495920  1.0  -0.099
  C  C402  1  0.868600  0.405920  0.493600  1.0  0.7717
  C  C403  1  0.761900  0.359220  0.467010  1.0  -0.0642
  C  C404  1  0.666667  0.277710  0.502580  1.0  0.258
  C  C405  1  0.708700  0.335950  0.469910  1.0  -0.073
  C  C406  1  0.702500  0.333470  0.500480  1.0  0.0825
  C  C407  1  0.752800  0.352790  0.528480  1.0  -0.1176
  C  C408  1  0.539300  0.351590  0.503000  1.0  -0.1645
  C  C409  1  0.641900  0.497740  0.806520  1.0  -0.0919
  C  C410  1  0.564600  0.497130  0.816080  1.0  0.1612
  C  C411  1  0.808100  0.473350  0.849810  1.0  -0.0696
  C  C412  1  0.746400  0.500310  0.765850  1.0  -0.1506
  C  C413  1  0.812400  0.504080  0.883380  1.0  -0.0979
  C  C414  1  0.868600  0.506400  0.912320  1.0  0.7716
  C  C415  1  0.761900  0.532990  0.892210  1.0  -0.0629
  C  C416  1  0.666667  0.497420  0.775130  1.0  0.2573
  C  C417  1  0.708700  0.530090  0.866040  1.0  -0.0737
  C  C418  1  0.702500  0.499520  0.832990  1.0  0.0826
  C  C419  1  0.752800  0.471520  0.824310  1.0  -0.122
  C  C420  1  0.539300  0.497000  0.848590  1.0  -0.1609
  C  C421  1  0.641900  0.806520  0.308780  1.0  -0.0932
  C  C422  1  0.564600  0.816080  0.318950  1.0  0.1591
  C  C423  1  0.808100  0.849810  0.376460  1.0  -0.0673
  C  C424  1  0.746400  0.765850  0.265540  1.0  -0.1535
  C  C425  1  0.812400  0.883380  0.379300  1.0  -0.0982
  C  C426  1  0.868600  0.912320  0.405920  1.0  0.7716
  C  C427  1  0.761900  0.892210  0.359220  1.0  -0.0658
  C  C428  1  0.666667  0.775130  0.277710  1.0  0.2563
  C  C429  1  0.708700  0.866040  0.335950  1.0  -0.0744
  C  C430  1  0.702500  0.832990  0.333470  1.0  0.0834
  C  C431  1  0.752800  0.824310  0.352790  1.0  -0.118
  C  C432  1  0.539300  0.848590  0.351590  1.0  -0.1655
  C  C433  1  0.641900  0.691220  0.497740  1.0  -0.0926
  C  C434  1  0.564600  0.681050  0.497130  1.0  0.16
  C  C435  1  0.808100  0.623540  0.473350  1.0  -0.0695
  C  C436  1  0.746400  0.734460  0.500310  1.0  -0.152
  C  C437  1  0.812400  0.620700  0.504080  1.0  -0.0981
  C  C438  1  0.868600  0.594080  0.506400  1.0  0.7717
  C  C439  1  0.761900  0.640780  0.532990  1.0  -0.0662
  C  C440  1  0.666667  0.722290  0.497420  1.0  0.2569
  C  C441  1  0.708700  0.664050  0.530090  1.0  -0.0728
  C  C442  1  0.702500  0.666530  0.499520  1.0  0.0831
  C  C443  1  0.752800  0.647210  0.471520  1.0  -0.1166
  C  C444  1  0.539300  0.648410  0.497000  1.0  -0.1634
  C  C445  1  0.641900  0.502260  0.193480  1.0  -0.0925
  C  C446  1  0.564600  0.502870  0.183920  1.0  0.1612
  C  C447  1  0.808100  0.526650  0.150190  1.0  -0.0693
  C  C448  1  0.746400  0.499690  0.234150  1.0  -0.1519
  C  C449  1  0.812400  0.495920  0.116620  1.0  -0.0995
  C  C450  1  0.868600  0.493600  0.087680  1.0  0.7713
  C  C451  1  0.761900  0.467010  0.107790  1.0  -0.0641
  C  C452  1  0.666667  0.502580  0.224870  1.0  0.2569
  C  C453  1  0.708700  0.469910  0.133960  1.0  -0.0778
  C  C454  1  0.702500  0.500480  0.167010  1.0  0.083
  C  C455  1  0.752800  0.528480  0.175690  1.0  -0.1198
  C  C456  1  0.539300  0.503000  0.151410  1.0  -0.1621
  N  N457  1  0.617600  0.495950  0.747980  1.0  -0.3885
  N  N458  1  0.617600  0.252030  0.504060  1.0  -0.3879
  N  N459  1  0.617600  0.252020  0.747970  1.0  -0.3883
  N  N460  1  0.617600  0.504050  0.252020  1.0  -0.3882
  N  N461  1  0.617600  0.747970  0.495950  1.0  -0.3883
  N  N462  1  0.617600  0.747970  0.252020  1.0  -0.388
  N  N463  1  0.382400  0.747970  0.252020  1.0  -0.3915
  N  N464  1  0.382400  0.747970  0.495950  1.0  -0.3919
  N  N465  1  0.382400  0.504050  0.252030  1.0  -0.3917
  N  N466  1  0.382400  0.252030  0.747980  1.0  -0.3917
  N  N467  1  0.382400  0.252020  0.504050  1.0  -0.3914
  N  N468  1  0.382400  0.495950  0.747980  1.0  -0.392
  N  N469  1  0.500000  0.497070  0.701390  1.0  -0.4017
  N  N470  1  0.500000  0.204320  0.502930  1.0  -0.3995
  N  N471  1  0.500000  0.298610  0.795680  1.0  -0.4004
  N  N472  1  0.500000  0.502930  0.298610  1.0  -0.4015
  N  N473  1  0.500000  0.795680  0.497070  1.0  -0.4006
  N  N474  1  0.500000  0.701390  0.204320  1.0  -0.4017
  N  N475  1  0.500000  0.795680  0.298610  1.0  -0.3995
  N  N476  1  0.500000  0.701390  0.497070  1.0  -0.4002
  N  N477  1  0.500000  0.502930  0.204320  1.0  -0.4017
  N  N478  1  0.500000  0.204320  0.701390  1.0  -0.4009
  N  N479  1  0.500000  0.298610  0.502930  1.0  -0.4015
  N  N480  1  0.500000  0.497070  0.795680  1.0  -0.4013
  Cl  Cl481  1  0.500000  0.422960  0.711480  1.0  -0.4725
  Cl  Cl482  1  0.500000  0.288520  0.577040  1.0  -0.4722
  Cl  Cl483  1  0.500000  0.288520  0.711480  1.0  -0.4752
  Cl  Cl484  1  0.500000  0.577040  0.288520  1.0  -0.4714
  Cl  Cl485  1  0.500000  0.711480  0.422960  1.0  -0.4731
  Cl  Cl486  1  0.500000  0.711480  0.288520  1.0  -0.4721
  O  O487  1  0.921080  0.482400  0.581130  1.0  -0.6103
  O  O488  1  0.856520  0.530950  0.586270  1.0  -0.6842
  O  O489  1  0.921080  0.098730  0.517600  1.0  -0.6125
  O  O490  1  0.856520  0.055320  0.469050  1.0  -0.6776
  O  O491  1  0.921080  0.418870  0.901270  1.0  -0.6104
  O  O492  1  0.856520  0.413730  0.944680  1.0  -0.6837
  O  O493  1  0.921080  0.517600  0.418870  1.0  -0.6109
  O  O494  1  0.856520  0.469050  0.413730  1.0  -0.6833
  O  O495  1  0.921080  0.901270  0.482400  1.0  -0.6106
  O  O496  1  0.856520  0.944680  0.530950  1.0  -0.6789
  O  O497  1  0.921080  0.581130  0.098730  1.0  -0.6112
  O  O498  1  0.856520  0.586270  0.055320  1.0  -0.6784
  O  O499  1  0.078920  0.901270  0.418870  1.0  -0.612
  O  O500  1  0.143480  0.944680  0.413730  1.0  -0.6831
  O  O501  1  0.078920  0.581130  0.482400  1.0  -0.608
  O  O502  1  0.143480  0.586270  0.530950  1.0  -0.6783
  O  O503  1  0.078920  0.517600  0.098730  1.0  -0.6099
  O  O504  1  0.143480  0.469050  0.055320  1.0  -0.6811
  O  O505  1  0.078920  0.098730  0.581130  1.0  -0.6099
  O  O506  1  0.143480  0.055320  0.586270  1.0  -0.6827
  O  O507  1  0.078920  0.418870  0.517600  1.0  -0.61
  O  O508  1  0.143480  0.413730  0.469050  1.0  -0.6779
  O  O509  1  0.078920  0.482400  0.901270  1.0  -0.61
  O  O510  1  0.143480  0.530950  0.944680  1.0  -0.6827
  O  O511  1  0.078920  0.517600  0.418870  1.0  -0.6105
  O  O512  1  0.143480  0.469050  0.413730  1.0  -0.6829
  O  O513  1  0.078920  0.901270  0.482400  1.0  -0.61
  O  O514  1  0.143480  0.944680  0.530950  1.0  -0.6778
  O  O515  1  0.078920  0.581130  0.098730  1.0  -0.6102
  O  O516  1  0.143480  0.586270  0.055320  1.0  -0.6829
  O  O517  1  0.078920  0.482400  0.581130  1.0  -0.6094
  O  O518  1  0.143480  0.530950  0.586270  1.0  -0.6839
  O  O519  1  0.078920  0.098730  0.517600  1.0  -0.6122
  O  O520  1  0.143480  0.055320  0.469050  1.0  -0.6774
  O  O521  1  0.078920  0.418870  0.901270  1.0  -0.6094
  O  O522  1  0.143480  0.413730  0.944680  1.0  -0.6818
  O  O523  1  0.921080  0.098730  0.581130  1.0  -0.6106
  O  O524  1  0.856520  0.055320  0.586270  1.0  -0.6835
  O  O525  1  0.921080  0.418870  0.517600  1.0  -0.6111
  O  O526  1  0.856520  0.413730  0.469050  1.0  -0.6777
  O  O527  1  0.921080  0.482400  0.901270  1.0  -0.6105
  O  O528  1  0.856520  0.530950  0.944680  1.0  -0.6835
  O  O529  1  0.921080  0.901270  0.418870  1.0  -0.6122
  O  O530  1  0.856520  0.944680  0.413730  1.0  -0.6832
  O  O531  1  0.921080  0.581130  0.482400  1.0  -0.6087
  O  O532  1  0.856520  0.586270  0.530950  1.0  -0.6799
  O  O533  1  0.921080  0.517600  0.098730  1.0  -0.6102
  O  O534  1  0.856520  0.469050  0.055320  1.0  -0.6778
  O  O535  1  0.896900  0.483560  0.516450  1.0  -1.1386
  O  O536  1  0.896900  0.032890  0.516450  1.0  -1.1399
  O  O537  1  0.896900  0.483560  0.967120  1.0  -1.1303
  O  O538  1  0.896900  0.516440  0.483550  1.0  -1.1397
  O  O539  1  0.896900  0.967110  0.483550  1.0  -1.1395
  O  O540  1  0.896900  0.516440  0.032890  1.0  -1.1495
  O  O541  1  0.103100  0.967110  0.483550  1.0  -1.1381
  O  O542  1  0.103100  0.516440  0.483550  1.0  -1.138
  O  O543  1  0.103100  0.516440  0.032880  1.0  -1.1342
  O  O544  1  0.103100  0.032890  0.516450  1.0  -1.1382
  O  O545  1  0.103100  0.483560  0.516450  1.0  -1.1371
  O  O546  1  0.103100  0.483560  0.967120  1.0  -1.1496
  O  O547  1  0.000000  0.525960  0.559810  1.0  -1.1423
  O  O548  1  0.000000  0.033850  0.474040  1.0  -1.1294
  O  O549  1  0.000000  0.440190  0.966150  1.0  -1.1435
  O  O550  1  0.000000  0.474040  0.440190  1.0  -1.1424
  O  O551  1  0.000000  0.966150  0.525960  1.0  -1.1248
  O  O552  1  0.000000  0.559810  0.033850  1.0  -1.1244
  O  O553  1  0.000000  0.966150  0.440190  1.0  -1.1451
  O  O554  1  0.000000  0.559810  0.525960  1.0  -1.1285
  O  O555  1  0.000000  0.474040  0.033850  1.0  -1.1255
  O  O556  1  0.000000  0.033850  0.559810  1.0  -1.1397
  O  O557  1  0.000000  0.440190  0.474040  1.0  -1.1284
  O  O558  1  0.000000  0.525960  0.966150  1.0  -1.1428
