# generated using pymatgen
data_InH20(C9O2)4
_symmetry_space_group_name_H-M   'P 1'
_cell_length_a   17.48300000
_cell_length_b   26.47970000
_cell_length_c   26.47970000
_cell_angle_alpha   120.00000000
_cell_angle_beta   90.00000000
_cell_angle_gamma   90.00000000
_symmetry_Int_Tables_number   1
_chemical_formula_structural   InH20(C9O2)4
_chemical_formula_sum   'In6 H120 C216 O48'
_cell_volume   10616.28845525
_cell_formula_units_Z   6
loop_
 _symmetry_equiv_pos_site_id
 _symmetry_equiv_pos_as_xyz
  1  'x, y, z'
loop_
 _atom_site_type_symbol
 _atom_site_label
 _atom_site_symmetry_multiplicity
 _atom_site_fract_x
 _atom_site_fract_y
 _atom_site_fract_z
 _atom_site_occupancy
 _atom_site_charge
  In  In1  1  0.749030  0.393030  0.333780  1.0  1.5885
  In  In2  1  0.752480  0.941580  0.608660  1.0  1.5914
  In  In3  1  0.747990  0.665230  0.058120  1.0  1.5925
  In  In4  1  0.252420  0.057880  0.665290  1.0  1.5879
  In  In5  1  0.251990  0.333550  0.392320  1.0  1.5901
  In  In6  1  0.247620  0.607980  0.941160  1.0  1.5905
  H  H7  1  0.811010  0.155360  0.062000  1.0  0.1269
  H  H8  1  0.811130  0.254020  0.145410  1.0  0.1292
  H  H9  1  0.838490  0.387770  0.498150  1.0  0.1143
  H  H10  1  0.837000  0.419560  0.602450  1.0  0.1289
  H  H11  1  0.664760  0.547580  0.630300  1.0  0.1343
  H  H12  1  0.666250  0.515300  0.525780  1.0  0.1302
  H  H13  1  0.627060  0.512590  0.696910  1.0  0.1222
  H  H14  1  0.539730  0.478200  0.737370  1.0  0.1286
  H  H15  1  0.414650  0.498380  0.784520  1.0  0.1247
  H  H16  1  0.513120  0.636140  0.942770  1.0  0.1155
  H  H17  1  0.638330  0.617830  0.895100  1.0  0.125
  H  H18  1  0.815150  0.906730  0.846110  1.0  0.1296
  H  H19  1  0.815600  0.891860  0.747540  1.0  0.1319
  H  H20  1  0.842740  0.110650  0.612830  1.0  0.1105
  H  H21  1  0.840820  0.183220  0.581110  1.0  0.1288
  H  H22  1  0.663620  0.085760  0.456820  1.0  0.1313
  H  H23  1  0.665820  0.013200  0.488790  1.0  0.1305
  H  H24  1  0.629000  0.189420  0.492910  1.0  0.1245
  H  H25  1  0.544500  0.266640  0.528240  1.0  0.1306
  H  H26  1  0.419940  0.295720  0.509260  1.0  0.1289
  H  H27  1  0.517790  0.311710  0.368660  1.0  0.1188
  H  H28  1  0.642280  0.280930  0.386170  1.0  0.1198
  H  H29  1  0.802130  0.942010  0.101290  1.0  0.1265
  H  H30  1  0.801460  0.858390  0.116190  1.0  0.1277
  H  H31  1  0.627930  0.301590  0.808410  1.0  0.1296
  H  H32  1  0.545760  0.259410  0.729880  1.0  0.1329
  H  H33  1  0.421160  0.211440  0.700480  1.0  0.1303
  H  H34  1  0.517920  0.055360  0.686450  1.0  0.1182
  H  H35  1  0.642350  0.103580  0.717610  1.0  0.1179
  H  H36  1  0.673050  0.197260  0.242530  1.0  0.1262
  H  H37  1  0.668770  0.098700  0.157860  1.0  0.1301
  H  H38  1  0.872030  0.505930  0.697280  1.0  0.1277
  H  H39  1  0.954470  0.469950  0.739760  1.0  0.1342
  H  H40  1  0.079150  0.488950  0.787690  1.0  0.127
  H  H41  1  0.982500  0.631860  0.943160  1.0  0.1217
  H  H42  1  0.858040  0.614410  0.894990  1.0  0.1194
  H  H43  1  0.675940  0.044950  0.804300  1.0  0.1256
  H  H44  1  0.671240  0.058380  0.902610  1.0  0.1265
  H  H45  1  0.874160  0.188580  0.492370  1.0  0.1284
  H  H46  1  0.959900  0.264680  0.526570  1.0  0.1292
  H  H47  1  0.085080  0.290750  0.505430  1.0  0.1319
  H  H48  1  0.987030  0.305830  0.364350  1.0  0.1149
  H  H49  1  0.861870  0.277180  0.383560  1.0  0.1257
  H  H50  1  0.689870  0.754830  0.950570  1.0  0.1282
  H  H51  1  0.683800  0.839430  0.937220  1.0  0.1269
  H  H52  1  0.668590  0.501430  0.886250  1.0  0.1159
  H  H53  1  0.670090  0.396980  0.813990  1.0  0.1288
  H  H54  1  0.827050  0.367180  0.921970  1.0  0.1287
  H  H55  1  0.824800  0.471950  0.994540  1.0  0.1258
  H  H56  1  0.872690  0.302000  0.817400  1.0  0.1268
  H  H57  1  0.960190  0.262250  0.741540  1.0  0.1301
  H  H58  1  0.085360  0.215100  0.713890  1.0  0.1313
  H  H59  1  0.987400  0.056550  0.693020  1.0  0.1192
  H  H60  1  0.862230  0.104220  0.723020  1.0  0.1226
  H  H61  1  0.185320  0.951860  0.756880  1.0  0.1242
  H  H62  1  0.183190  0.938490  0.841860  1.0  0.129
  H  H63  1  0.371260  0.809110  0.301310  1.0  0.1277
  H  H64  1  0.454430  0.731500  0.259020  1.0  0.1306
  H  H65  1  0.578970  0.702800  0.211160  1.0  0.1331
  H  H66  1  0.481990  0.688680  0.055090  1.0  0.1172
  H  H67  1  0.357480  0.719490  0.103340  1.0  0.1171
  H  H68  1  0.312180  0.060610  0.155740  1.0  0.13
  H  H69  1  0.311560  0.144170  0.254330  1.0  0.1282
  H  H70  1  0.179360  0.242400  0.195640  1.0  0.1254
  H  H71  1  0.175990  0.157700  0.097080  1.0  0.1287
  H  H72  1  0.374500  0.696660  0.508510  1.0  0.1308
  H  H73  1  0.460410  0.738460  0.474320  1.0  0.1306
  H  H74  1  0.585630  0.785610  0.495550  1.0  0.1335
  H  H75  1  0.487500  0.941900  0.636390  1.0  0.118
  H  H76  1  0.362300  0.894110  0.617090  1.0  0.1197
  H  H77  1  0.184530  0.842630  0.902280  1.0  0.1293
  H  H78  1  0.187930  0.744110  0.887450  1.0  0.1252
  H  H79  1  0.158550  0.613370  0.110850  1.0  0.1103
  H  H80  1  0.159810  0.581640  0.183410  1.0  0.1293
  H  H81  1  0.332190  0.453650  0.083510  1.0  0.1347
  H  H82  1  0.330870  0.485830  0.011180  1.0  0.1257
  H  H83  1  0.369830  0.488970  0.185220  1.0  0.1241
  H  H84  1  0.456940  0.524040  0.260790  1.0  0.1299
  H  H85  1  0.582200  0.503730  0.287550  1.0  0.1347
  H  H86  1  0.484140  0.364890  0.306450  1.0  0.1129
  H  H87  1  0.358940  0.383220  0.277060  1.0  0.1221
  H  H88  1  0.315370  0.096380  0.938940  1.0  0.128
  H  H89  1  0.313630  0.110840  0.854970  1.0  0.1296
  H  H90  1  0.338970  0.887830  0.499830  1.0  0.1085
  H  H91  1  0.336470  0.815700  0.395440  1.0  0.135
  H  H92  1  0.163420  0.916340  0.369140  1.0  0.1314
  H  H93  1  0.166150  0.988420  0.473790  1.0  0.1304
  H  H94  1  0.126060  0.813840  0.301040  1.0  0.1256
  H  H95  1  0.041270  0.735540  0.258560  1.0  0.1282
  H  H96  1  0.917190  0.706170  0.210140  1.0  0.1253
  H  H97  1  0.014640  0.692850  0.054540  1.0  0.1206
  H  H98  1  0.138940  0.724450  0.103620  1.0  0.1189
  H  H99  1  0.342220  0.498230  0.387880  1.0  0.1086
  H  H100  1  0.340610  0.602500  0.419560  1.0  0.1278
  H  H101  1  0.164210  0.629770  0.544550  1.0  0.1328
  H  H102  1  0.166160  0.525240  0.512630  1.0  0.1293
  H  H103  1  0.129350  0.697130  0.508050  1.0  0.1247
  H  H104  1  0.044970  0.738910  0.472530  1.0  0.134
  H  H105  1  0.920390  0.786940  0.491540  1.0  0.1266
  H  H106  1  0.018280  0.943580  0.632050  1.0  0.1207
  H  H107  1  0.142790  0.895330  0.614500  1.0  0.1186
  H  H108  1  0.312770  0.806080  0.048080  1.0  0.1249
  H  H109  1  0.313160  0.904670  0.061920  1.0  0.1303
  H  H110  1  0.124830  0.495180  0.192030  1.0  0.1283
  H  H111  1  0.042220  0.531210  0.270510  1.0  0.1321
  H  H112  1  0.917490  0.511840  0.299030  1.0  0.1298
  H  H113  1  0.014460  0.369090  0.311720  1.0  0.119
  H  H114  1  0.139090  0.387010  0.281490  1.0  0.1179
  H  H115  1  0.739120  0.086030  0.986930  1.0  0.1292
  H  H116  1  0.747270  0.557640  0.856200  1.0  0.1182
  H  H117  1  0.744400  0.900450  0.915270  1.0  0.1231
  H  H118  1  0.752240  0.299660  0.444050  1.0  0.115
  H  H119  1  0.737390  0.014730  0.101220  1.0  0.1247
  H  H120  1  0.753440  0.143100  0.700330  1.0  0.1187
  H  H121  1  0.244500  0.100090  0.013530  1.0  0.1271
  H  H122  1  0.247620  0.700780  0.142070  1.0  0.1191
  H  H123  1  0.238990  0.986150  0.085390  1.0  0.13
  H  H124  1  0.252760  0.856080  0.556540  1.0  0.1177
  H  H125  1  0.256670  0.914450  0.900040  1.0  0.129
  H  H126  1  0.249950  0.444690  0.300180  1.0  0.1185
  C  C127  1  0.779200  0.163670  0.100460  1.0  -0.0908
  C  C128  1  0.779950  0.220380  0.148610  1.0  -0.0584
  C  C129  1  0.800040  0.422450  0.526470  1.0  -0.0729
  C  C130  1  0.799600  0.441110  0.586500  1.0  -0.1325
  C  C131  1  0.702670  0.512370  0.601980  1.0  -0.1214
  C  C132  1  0.703870  0.494130  0.542020  1.0  -0.0546
  C  C133  1  0.679820  0.517770  0.720380  1.0  -0.1265
  C  C134  1  0.677200  0.536120  0.780630  1.0  -0.0161
  C  C135  1  0.600470  0.546730  0.811600  1.0  0.0166
  C  C136  1  0.535240  0.513450  0.781990  1.0  -0.1134
  C  C137  1  0.463040  0.524620  0.809280  1.0  -0.072
  C  C138  1  0.453110  0.569040  0.867520  1.0  -0.0939
  C  C139  1  0.518270  0.601490  0.897880  1.0  -0.0844
  C  C140  1  0.590560  0.590690  0.870420  1.0  -0.0813
  C  C141  1  0.375140  0.582420  0.895740  1.0  0.6152
  C  C142  1  0.783110  0.936790  0.837810  1.0  -0.0919
  C  C143  1  0.784030  0.928450  0.781160  1.0  -0.0492
  C  C144  1  0.803140  0.104850  0.578950  1.0  -0.072
  C  C145  1  0.802370  0.146290  0.560390  1.0  -0.1272
  C  C146  1  0.702710  0.092010  0.491190  1.0  -0.1167
  C  C147  1  0.704340  0.050110  0.509230  1.0  -0.0569
  C  C148  1  0.682260  0.206020  0.486170  1.0  -0.106
  C  C149  1  0.680800  0.247800  0.467550  1.0  -0.0052
  C  C150  1  0.604750  0.270190  0.458350  1.0  -0.004
  C  C151  1  0.539970  0.275760  0.492830  1.0  -0.1125
  C  C152  1  0.468130  0.293160  0.482400  1.0  -0.0674
  C  C153  1  0.458130  0.306090  0.437340  1.0  -0.096
  C  C154  1  0.522980  0.302300  0.403880  1.0  -0.0766
  C  C155  1  0.594920  0.284750  0.414190  1.0  -0.1097
  C  C156  1  0.380110  0.320000  0.422980  1.0  0.6232
  C  C157  1  0.775510  0.902190  0.068390  1.0  -0.1107
  C  C158  1  0.776020  0.853910  0.076860  1.0  -0.0539
  C  C159  1  0.681510  0.278410  0.792820  1.0  -0.109
  C  C160  1  0.680950  0.218070  0.751040  1.0  -0.0231
  C  C161  1  0.605360  0.186240  0.727400  1.0  -0.0008
  C  C162  1  0.540980  0.214980  0.721030  1.0  -0.1168
  C  C163  1  0.469140  0.187200  0.703470  1.0  -0.0709
  C  C164  1  0.458800  0.129440  0.691120  1.0  -0.0979
  C  C165  1  0.523380  0.099830  0.695420  1.0  -0.081
  C  C166  1  0.595290  0.127630  0.713170  1.0  -0.1074
  C  C167  1  0.380670  0.101440  0.677600  1.0  0.6222
  C  C168  1  0.703060  0.188430  0.203150  1.0  -0.0665
  C  C169  1  0.701180  0.131750  0.154580  1.0  -0.1006
  C  C170  1  0.818480  0.513260  0.720430  1.0  -0.1084
  C  C171  1  0.819260  0.532410  0.780880  1.0  -0.0165
  C  C172  1  0.894950  0.541040  0.812640  1.0  -0.0011
  C  C173  1  0.959310  0.505830  0.784040  1.0  -0.1201
  C  C174  1  0.031180  0.516280  0.811780  1.0  -0.0698
  C  C175  1  0.041520  0.562050  0.869370  1.0  -0.0947
  C  C176  1  0.977000  0.596100  0.898830  1.0  -0.0776
  C  C177  1  0.905070  0.585810  0.871060  1.0  -0.0993
  C  C178  1  0.119580  0.576680  0.897390  1.0  0.6233
  C  C179  1  0.706260  0.014500  0.813090  1.0  -0.0691
  C  C180  1  0.704180  0.022350  0.869660  1.0  -0.1063
  C  C181  1  0.821090  0.206090  0.486550  1.0  -0.1102
  C  C182  1  0.823020  0.247150  0.467150  1.0  -0.0127
  C  C183  1  0.899490  0.267730  0.456470  1.0  0.0111
  C  C184  1  0.964540  0.272730  0.490450  1.0  -0.1179
  C  C185  1  0.036770  0.288270  0.478680  1.0  -0.0544
  C  C186  1  0.046810  0.300230  0.433000  1.0  -0.0931
  C  C187  1  0.981780  0.296970  0.399940  1.0  -0.0796
  C  C188  1  0.909520  0.280780  0.411270  1.0  -0.0809
  C  C189  1  0.124730  0.314400  0.418910  1.0  0.6136
  C  C190  1  0.714190  0.795710  0.983750  1.0  -0.0616
  C  C191  1  0.711490  0.844420  0.975980  1.0  -0.1035
  C  C192  1  0.703800  0.472670  0.894390  1.0  -0.0681
  C  C193  1  0.704130  0.412620  0.853190  1.0  -0.1271
  C  C194  1  0.792370  0.396030  0.913520  1.0  -0.1259
  C  C195  1  0.790750  0.456040  0.955320  1.0  -0.0749
  C  C196  1  0.820110  0.278530  0.798430  1.0  -0.1176
  C  C197  1  0.823000  0.218510  0.755840  1.0  -0.0263
  C  C198  1  0.899810  0.187760  0.735490  1.0  0.0231
  C  C199  1  0.964880  0.217540  0.731870  1.0  -0.1147
  C  C200  1  0.037090  0.190270  0.715400  1.0  -0.0735
  C  C201  1  0.047140  0.131930  0.701230  1.0  -0.0953
  C  C202  1  0.982150  0.101500  0.703470  1.0  -0.0847
  C  C203  1  0.909890  0.128940  0.720480  1.0  -0.075
  C  C204  1  0.125040  0.103610  0.685920  1.0  0.614
  C  C205  1  0.213660  0.983680  0.796540  1.0  -0.0646
  C  C206  1  0.213050  0.975880  0.845300  1.0  -0.1012
  C  C207  1  0.317870  0.792890  0.278040  1.0  -0.1176
  C  C208  1  0.319050  0.751730  0.217560  1.0  -0.0098
  C  C209  1  0.394740  0.729080  0.185910  1.0  0.0033
  C  C210  1  0.459160  0.722930  0.214680  1.0  -0.1007
  C  C211  1  0.530930  0.705790  0.186970  1.0  -0.0562
  C  C212  1  0.541050  0.693500  0.129230  1.0  -0.1022
  C  C213  1  0.476530  0.697630  0.099550  1.0  -0.0721
  C  C214  1  0.404660  0.715140  0.127370  1.0  -0.1055
  C  C215  1  0.619030  0.679680  0.101400  1.0  0.6237
  C  C216  1  0.281530  0.099390  0.163610  1.0  -0.0849
  C  C217  1  0.281830  0.147610  0.220280  1.0  -0.0476
  C  C218  1  0.208230  0.202760  0.187270  1.0  -0.0687
  C  C219  1  0.206880  0.154140  0.130580  1.0  -0.103
  C  C220  1  0.321460  0.720030  0.514310  1.0  -0.1109
  C  C221  1  0.323460  0.780470  0.533610  1.0  -0.0136
  C  C222  1  0.399950  0.811680  0.544290  1.0  0.013
  C  C223  1  0.465040  0.782650  0.510410  1.0  -0.123
  C  C224  1  0.537290  0.809920  0.522220  1.0  -0.0556
  C  C225  1  0.547320  0.867590  0.567880  1.0  -0.0939
  C  C226  1  0.482250  0.897440  0.600830  1.0  -0.083
  C  C227  1  0.409960  0.869960  0.589430  1.0  -0.0795
  C  C228  1  0.625250  0.895810  0.582030  1.0  0.6141
  C  C229  1  0.214030  0.835520  0.934120  1.0  -0.0994
  C  C230  1  0.215410  0.778880  0.925740  1.0  -0.0687
  C  C231  1  0.196980  0.578710  0.104550  1.0  -0.0695
  C  C232  1  0.197280  0.560080  0.145950  1.0  -0.1304
  C  C233  1  0.294270  0.488830  0.090320  1.0  -0.1218
  C  C234  1  0.293190  0.507020  0.048550  1.0  -0.07
  C  C235  1  0.317070  0.483810  0.203530  1.0  -0.1075
  C  C236  1  0.319760  0.465660  0.245570  1.0  -0.0181
  C  C237  1  0.396530  0.455000  0.265760  1.0  0.0189
  C  C238  1  0.461620  0.488550  0.269790  1.0  -0.1122
  C  C239  1  0.533880  0.477290  0.285750  1.0  -0.0536
  C  C240  1  0.543920  0.432550  0.299100  1.0  -0.0963
  C  C241  1  0.478890  0.399800  0.296590  1.0  -0.0801
  C  C242  1  0.406610  0.410600  0.279950  1.0  -0.0691
  C  C243  1  0.621810  0.419060  0.313910  1.0  0.6143
  C  C244  1  0.285480  0.064830  0.900060  1.0  -0.0889
  C  C245  1  0.285090  0.072990  0.851630  1.0  -0.0543
  C  C246  1  0.300140  0.894430  0.471860  1.0  -0.0717
  C  C247  1  0.299070  0.853230  0.411760  1.0  -0.127
  C  C248  1  0.201720  0.909290  0.397150  1.0  -0.1177
  C  C249  1  0.203640  0.950920  0.457190  1.0  -0.0605
  C  C250  1  0.179150  0.796240  0.277760  1.0  -0.1209
  C  C251  1  0.177220  0.754560  0.217370  1.0  0.0016
  C  C252  1  0.101210  0.733390  0.185770  1.0  0.0168
  C  C253  1  0.036700  0.727090  0.214250  1.0  -0.1091
  C  C254  1  0.965220  0.709550  0.186170  1.0  -0.0683
  C  C255  1  0.955350  0.697020  0.128270  1.0  -0.0933
  C  C256  1  0.019880  0.701840  0.099020  1.0  -0.0908
  C  C257  1  0.091510  0.719880  0.127310  1.0  -0.0942
  C  C258  1  0.877370  0.682030  0.100260  1.0  0.6235
  C  C259  1  0.302890  0.526390  0.421900  1.0  -0.0774
  C  C260  1  0.302290  0.586390  0.440450  1.0  -0.1095
  C  C261  1  0.203080  0.601550  0.510040  1.0  -0.1183
  C  C262  1  0.204560  0.541610  0.492030  1.0  -0.0668
  C  C263  1  0.182630  0.720440  0.514730  1.0  -0.1061
  C  C264  1  0.181250  0.780780  0.533210  1.0  -0.0061
  C  C265  1  0.105230  0.812380  0.542370  1.0  -0.0019
  C  C266  1  0.040450  0.783460  0.507930  1.0  -0.1042
  C  C267  1  0.968600  0.811270  0.518370  1.0  -0.0683
  C  C268  1  0.958600  0.869250  0.563420  1.0  -0.0949
  C  C269  1  0.023470  0.898950  0.596840  1.0  -0.0812
  C  C270  1  0.095410  0.871120  0.586510  1.0  -0.1125
  C  C271  1  0.880570  0.897480  0.577840  1.0  0.6245
  C  C272  1  0.284910  0.813710  0.015960  1.0  -0.0701
  C  C273  1  0.284510  0.870390  0.024030  1.0  -0.1094
  C  C274  1  0.178410  0.488060  0.207980  1.0  -0.1108
  C  C275  1  0.177690  0.469130  0.249470  1.0  -0.0197
  C  C276  1  0.101960  0.460290  0.272440  1.0  0.0028
  C  C277  1  0.037460  0.495300  0.278870  1.0  -0.1059
  C  C278  1  0.965540  0.484610  0.295900  1.0  -0.0686
  C  C279  1  0.955230  0.438760  0.307600  1.0  -0.098
  C  C280  1  0.019900  0.404880  0.303180  1.0  -0.0732
  C  C281  1  0.091910  0.415440  0.286000  1.0  -0.1042
  C  C282  1  0.877120  0.424020  0.320880  1.0  0.6232
  C  C283  1  0.739460  0.048650  0.993130  1.0  -0.047
  C  C284  1  0.738720  0.057550  0.050330  1.0  0.0358
  C  C285  1  0.739430  0.118320  0.102350  1.0  0.069
  C  C286  1  0.742150  0.233420  0.200550  1.0  -0.091
  C  C287  1  0.743930  0.293810  0.251350  1.0  0.6503
  C  C288  1  0.751890  0.428080  0.439200  1.0  0.6243
  C  C289  1  0.752170  0.448610  0.503310  1.0  -0.0983
  C  C290  1  0.750620  0.486250  0.625320  1.0  0.062
  C  C291  1  0.749610  0.505940  0.689640  1.0  0.0234
  C  C292  1  0.747830  0.543950  0.810330  1.0  -0.0523
  C  C293  1  0.742310  0.943850  0.952750  1.0  -0.0332
  C  C294  1  0.741220  0.992170  0.943820  1.0  0.0322
  C  C295  1  0.742770  0.983680  0.883110  1.0  0.0704
  C  C296  1  0.745850  0.967240  0.768120  1.0  -0.097
  C  C297  1  0.747580  0.957890  0.707800  1.0  0.6518
  C  C298  1  0.754710  0.012260  0.573860  1.0  0.6125
  C  C299  1  0.754280  0.056090  0.553620  1.0  -0.1028
  C  C300  1  0.751970  0.140720  0.516260  1.0  0.0444
  C  C301  1  0.751640  0.185040  0.496160  1.0  0.0233
  C  C302  1  0.752050  0.267410  0.457690  1.0  -0.051
  C  C303  1  0.738690  0.008240  0.057580  1.0  -0.0558
  C  C304  1  0.740950  0.950910  0.009320  1.0  0.0287
  C  C305  1  0.742580  0.898650  0.017990  1.0  0.033
  C  C306  1  0.745870  0.800080  0.034490  1.0  -0.0755
  C  C307  1  0.747060  0.748920  0.043430  1.0  0.6402
  C  C308  1  0.747570  0.559540  0.988970  1.0  0.6527
  C  C309  1  0.747140  0.495310  0.945990  1.0  -0.0739
  C  C310  1  0.748900  0.373300  0.861800  1.0  0.0595
  C  C311  1  0.750220  0.309100  0.817040  1.0  0.0319
  C  C312  1  0.752540  0.188790  0.733150  1.0  -0.0536
  C  C313  1  0.245380  0.056590  0.007480  1.0  -0.039
  C  C314  1  0.248210  0.008140  0.950330  1.0  0.05
  C  C315  1  0.249050  0.016320  0.897970  1.0  0.0621
  C  C316  1  0.249300  0.032520  0.799290  1.0  -0.0937
  C  C317  1  0.249520  0.041750  0.748230  1.0  0.6496
  C  C318  1  0.253390  0.987520  0.559690  1.0  0.6168
  C  C319  1  0.252570  0.943930  0.495510  1.0  -0.0909
  C  C320  1  0.249660  0.859800  0.373300  1.0  0.0573
  C  C321  1  0.248770  0.815610  0.308780  1.0  0.0154
  C  C322  1  0.247950  0.733190  0.187920  1.0  -0.0514
  C  C323  1  0.243930  0.992320  0.048110  1.0  -0.0861
  C  C324  1  0.244020  0.049520  0.056910  1.0  0.0304
  C  C325  1  0.243760  0.101580  0.117690  1.0  0.0638
  C  C326  1  0.245480  0.199910  0.232790  1.0  -0.0958
  C  C327  1  0.247000  0.250850  0.293150  1.0  0.6446
  C  C328  1  0.254450  0.439020  0.427180  1.0  0.6147
  C  C329  1  0.254180  0.503090  0.447440  1.0  -0.0989
  C  C330  1  0.252200  0.625050  0.484750  1.0  0.0452
  C  C331  1  0.251970  0.689440  0.504770  1.0  0.0223
  C  C332  1  0.252520  0.810210  0.543000  1.0  -0.0538
  C  C333  1  0.250640  0.951740  0.943380  1.0  -0.0704
  C  C334  1  0.247870  0.942960  0.991740  1.0  0.0529
  C  C335  1  0.248870  0.882320  0.983260  1.0  0.0617
  C  C336  1  0.250660  0.767280  0.966560  1.0  -0.0921
  C  C337  1  0.250850  0.706980  0.957250  1.0  0.6438
  C  C338  1  0.245250  0.573030  0.011660  1.0  0.6164
  C  C339  1  0.244940  0.552530  0.055280  1.0  -0.104
  C  C340  1  0.246240  0.514970  0.139740  1.0  0.0607
  C  C341  1  0.247250  0.495430  0.184490  1.0  0.0221
  C  C342  1  0.249200  0.457970  0.267650  1.0  -0.0503
  O  O343  1  0.362580  0.618860  0.948440  1.0  -0.5787
  O  O344  1  0.313280  0.559730  0.869820  1.0  -0.5858
  O  O345  1  0.366980  0.329500  0.381870  1.0  -0.597
  O  O346  1  0.318450  0.320790  0.448020  1.0  -0.5877
  O  O347  1  0.367380  0.050990  0.668480  1.0  -0.597
  O  O348  1  0.319060  0.125880  0.677040  1.0  -0.5928
  O  O349  1  0.132750  0.618240  0.947720  1.0  -0.6052
  O  O350  1  0.181200  0.551560  0.873130  1.0  -0.5928
  O  O351  1  0.137040  0.329680  0.381710  1.0  -0.5731
  O  O352  1  0.186740  0.311580  0.441690  1.0  -0.5871
  O  O353  1  0.137550  0.050910  0.669670  1.0  -0.5798
  O  O354  1  0.186870  0.129380  0.688670  1.0  -0.5864
  O  O355  1  0.632700  0.667610  0.050140  1.0  -0.5636
  O  O356  1  0.680280  0.681030  0.126760  1.0  -0.5784
  O  O357  1  0.637550  0.948290  0.619240  1.0  -0.5773
  O  O358  1  0.687280  0.870210  0.559270  1.0  -0.5863
  O  O359  1  0.634030  0.382930  0.330590  1.0  -0.5756
  O  O360  1  0.683900  0.441270  0.310260  1.0  -0.5859
  O  O361  1  0.863090  0.667660  0.048190  1.0  -0.5749
  O  O362  1  0.816580  0.684370  0.126680  1.0  -0.5845
  O  O363  1  0.867460  0.948120  0.618910  1.0  -0.5985
  O  O364  1  0.818890  0.873130  0.552920  1.0  -0.5924
  O  O365  1  0.863860  0.382250  0.329320  1.0  -0.6012
  O  O366  1  0.815550  0.449400  0.322130  1.0  -0.5937
  O  O367  1  0.765320  0.337410  0.248390  1.0  -0.5572
  O  O368  1  0.724870  0.307990  0.302500  1.0  -0.5952
  O  O369  1  0.777250  0.379880  0.400420  1.0  -0.5963
  O  O370  1  0.725500  0.456290  0.416680  1.0  -0.5668
  O  O371  1  0.768880  0.911450  0.664040  1.0  -0.5576
  O  O372  1  0.728430  0.995000  0.693820  1.0  -0.5964
  O  O373  1  0.780510  0.021480  0.621880  1.0  -0.5913
  O  O374  1  0.728530  0.961480  0.545580  1.0  -0.5731
  O  O375  1  0.748570  0.752380  0.092440  1.0  -0.5515
  O  O376  1  0.746670  0.696740  0.003040  1.0  -0.5937
  O  O377  1  0.738620  0.598280  0.975560  1.0  -0.592
  O  O378  1  0.757280  0.582240  0.042980  1.0  -0.5599
  O  O379  1  0.269300  0.088440  0.750790  1.0  -0.5612
  O  O380  1  0.230620  0.004280  0.697200  1.0  -0.5933
  O  O381  1  0.279050  0.977840  0.598230  1.0  -0.5933
  O  O382  1  0.227830  0.038520  0.582550  1.0  -0.5664
  O  O383  1  0.267870  0.248020  0.336930  1.0  -0.5603
  O  O384  1  0.228270  0.302010  0.307120  1.0  -0.5947
  O  O385  1  0.280030  0.400210  0.379090  1.0  -0.5949
  O  O386  1  0.228310  0.416540  0.455490  1.0  -0.5722
  O  O387  1  0.231360  0.662830  0.910470  1.0  -0.561
  O  O388  1  0.269520  0.693450  0.994780  1.0  -0.5936
  O  O389  1  0.220070  0.621280  0.021120  1.0  -0.5877
  O  O390  1  0.271360  0.544730  0.960830  1.0  -0.5726
