# generated using pymatgen
data_AlPO4
_symmetry_space_group_name_H-M   'P 1'
_cell_length_a   13.86650000
_cell_length_b   13.86650000
_cell_length_c   15.05600000
_cell_angle_alpha   90.00000000
_cell_angle_beta   90.00000000
_cell_angle_gamma   120.00000000
_symmetry_Int_Tables_number   1
_chemical_formula_structural   AlPO4
_chemical_formula_sum   'Al18 P18 O72'
_cell_volume   2507.11323635
_cell_formula_units_Z   18
loop_
 _symmetry_equiv_pos_site_id
 _symmetry_equiv_pos_as_xyz
  1  'x, y, z'
loop_
 _atom_site_type_symbol
 _atom_site_label
 _atom_site_symmetry_multiplicity
 _atom_site_fract_x
 _atom_site_fract_y
 _atom_site_fract_z
 _atom_site_occupancy
 _atom_site_charge
  Al  Al1  1  0.659200  0.101900  0.428600  1.0  1.8495
  Al  Al2  1  0.325870  0.435230  0.761930  1.0  1.8495
  Al  Al3  1  0.992530  0.768570  0.095270  1.0  1.8435
  Al  Al4  1  0.898100  0.557300  0.428600  1.0  1.8496
  Al  Al5  1  0.564770  0.890630  0.761930  1.0  1.8496
  Al  Al6  1  0.231430  0.223970  0.095270  1.0  1.8437
  Al  Al7  1  0.442700  0.340800  0.428600  1.0  1.8483
  Al  Al8  1  0.109370  0.674130  0.761930  1.0  1.8483
  Al  Al9  1  0.776030  0.007470  0.095270  1.0  1.8438
  Al  Al10  1  0.340800  0.898100  0.571400  1.0  1.8482
  Al  Al11  1  0.007470  0.231430  0.904730  1.0  1.8422
  Al  Al12  1  0.674130  0.564770  0.238070  1.0  1.8482
  Al  Al13  1  0.101900  0.442700  0.571400  1.0  1.8493
  Al  Al14  1  0.768570  0.776030  0.904730  1.0  1.8434
  Al  Al15  1  0.435230  0.109370  0.238070  1.0  1.8493
  Al  Al16  1  0.557300  0.659200  0.571400  1.0  1.8476
  Al  Al17  1  0.223970  0.992530  0.904730  1.0  1.8431
  Al  Al18  1  0.890630  0.325870  0.238070  1.0  1.8476
  P  P19  1  0.891300  0.324100  0.445600  1.0  1.9501
  P  P20  1  0.557970  0.657430  0.778930  1.0  1.9501
  P  P21  1  0.224630  0.990770  0.112270  1.0  1.9501
  P  P22  1  0.675900  0.567200  0.445600  1.0  1.946
  P  P23  1  0.342570  0.900530  0.778930  1.0  1.946
  P  P24  1  0.009230  0.233870  0.112270  1.0  1.946
  P  P25  1  0.432800  0.108700  0.445600  1.0  1.9435
  P  P26  1  0.099470  0.442030  0.778930  1.0  1.9435
  P  P27  1  0.766130  0.775370  0.112270  1.0  1.9435
  P  P28  1  0.108700  0.675900  0.554400  1.0  1.948
  P  P29  1  0.775370  0.009230  0.887730  1.0  1.948
  P  P30  1  0.442030  0.342570  0.221070  1.0  1.948
  P  P31  1  0.324100  0.432800  0.554400  1.0  1.9463
  P  P32  1  0.990770  0.766130  0.887730  1.0  1.9463
  P  P33  1  0.657430  0.099470  0.221070  1.0  1.9463
  P  P34  1  0.567200  0.891300  0.554400  1.0  1.9445
  P  P35  1  0.233870  0.224630  0.887730  1.0  1.9445
  P  P36  1  0.900530  0.557970  0.221070  1.0  1.9445
  O  O37  1  0.792300  0.212400  0.468800  1.0  -0.9269
  O  O38  1  0.862000  0.414100  0.456000  1.0  -0.9863
  O  O39  1  0.982200  0.341600  0.509000  1.0  -0.9436
  O  O40  1  0.930300  0.323100  0.352900  1.0  -0.9388
  O  O41  1  0.458970  0.545730  0.802130  1.0  -0.9269
  O  O42  1  0.528670  0.747430  0.789330  1.0  -0.9867
  O  O43  1  0.648870  0.674930  0.842330  1.0  -0.9454
  O  O44  1  0.596970  0.656430  0.686230  1.0  -0.9388
  O  O45  1  0.125630  0.879070  0.135470  1.0  -0.9269
  O  O46  1  0.195330  0.080770  0.122670  1.0  -0.9792
  O  O47  1  0.315530  0.008270  0.175670  1.0  -0.9436
  O  O48  1  0.263630  0.989770  0.019570  1.0  -0.9388
  O  O49  1  0.787600  0.579900  0.468800  1.0  -0.9246
  O  O50  1  0.585900  0.447900  0.456000  1.0  -0.9818
  O  O51  1  0.658400  0.640600  0.509000  1.0  -0.9423
  O  O52  1  0.676900  0.607200  0.352900  1.0  -0.9388
  O  O53  1  0.454270  0.913230  0.802130  1.0  -0.9246
  O  O54  1  0.252570  0.781230  0.789330  1.0  -0.9815
  O  O55  1  0.325070  0.973930  0.842330  1.0  -0.947
  O  O56  1  0.343570  0.940530  0.686230  1.0  -0.9388
  O  O57  1  0.120930  0.246570  0.135470  1.0  -0.9246
  O  O58  1  0.919230  0.114570  0.122670  1.0  -0.9875
  O  O59  1  0.991730  0.307270  0.175670  1.0  -0.9423
  O  O60  1  0.010230  0.273870  0.019570  1.0  -0.9386
  O  O61  1  0.420100  0.207700  0.468800  1.0  -0.9257
  O  O62  1  0.552100  0.138000  0.456000  1.0  -0.999
  O  O63  1  0.359400  0.017800  0.509000  1.0  -0.9418
  O  O64  1  0.392800  0.069700  0.352900  1.0  -0.9362
  O  O65  1  0.086770  0.541030  0.802130  1.0  -0.9257
  O  O66  1  0.218770  0.471330  0.789330  1.0  -0.9867
  O  O67  1  0.026070  0.351130  0.842330  1.0  -0.9411
  O  O68  1  0.059470  0.403030  0.686230  1.0  -0.9362
  O  O69  1  0.753430  0.874370  0.135470  1.0  -0.9255
  O  O70  1  0.885430  0.804670  0.122670  1.0  -0.9876
  O  O71  1  0.692730  0.684470  0.175670  1.0  -0.9418
  O  O72  1  0.726130  0.736370  0.019570  1.0  -0.9362
  O  O73  1  0.207700  0.787600  0.531200  1.0  -0.9252
  O  O74  1  0.138000  0.585900  0.544000  1.0  -0.9888
  O  O75  1  0.017800  0.658400  0.491000  1.0  -0.9448
  O  O76  1  0.069700  0.676900  0.647100  1.0  -0.9386
  O  O77  1  0.874370  0.120930  0.864530  1.0  -0.9252
  O  O78  1  0.804670  0.919230  0.877330  1.0  -0.9828
  O  O79  1  0.684470  0.991730  0.824330  1.0  -0.9448
  O  O80  1  0.736370  0.010230  0.980430  1.0  -0.9386
  O  O81  1  0.541030  0.454270  0.197870  1.0  -0.9252
  O  O82  1  0.471330  0.252570  0.210670  1.0  -0.9893
  O  O83  1  0.351130  0.325070  0.157670  1.0  -0.9461
  O  O84  1  0.403030  0.343570  0.313770  1.0  -0.9386
  O  O85  1  0.212400  0.420100  0.531200  1.0  -0.9237
  O  O86  1  0.414100  0.552100  0.544000  1.0  -0.984
  O  O87  1  0.341600  0.359400  0.491000  1.0  -0.9413
  O  O88  1  0.323100  0.392800  0.647100  1.0  -0.9373
  O  O89  1  0.879070  0.753430  0.864530  1.0  -0.9238
  O  O90  1  0.080770  0.885430  0.877330  1.0  -0.99
  O  O91  1  0.008270  0.692730  0.824330  1.0  -0.9413
  O  O92  1  0.989770  0.726130  0.980430  1.0  -0.9372
  O  O93  1  0.545730  0.086770  0.197870  1.0  -0.9237
  O  O94  1  0.747430  0.218770  0.210670  1.0  -0.9839
  O  O95  1  0.674930  0.026070  0.157670  1.0  -0.9453
  O  O96  1  0.656430  0.059470  0.313770  1.0  -0.9373
  O  O97  1  0.579900  0.792300  0.531200  1.0  -0.9239
  O  O98  1  0.447900  0.862000  0.544000  1.0  -1.0014
  O  O99  1  0.640600  0.982200  0.491000  1.0  -0.9396
  O  O100  1  0.607200  0.930300  0.647100  1.0  -0.9386
  O  O101  1  0.246570  0.125630  0.864530  1.0  -0.9237
  O  O102  1  0.114570  0.195330  0.877330  1.0  -0.9894
  O  O103  1  0.307270  0.315530  0.824330  1.0  -0.9396
  O  O104  1  0.273870  0.263630  0.980430  1.0  -0.9386
  O  O105  1  0.913230  0.458970  0.197870  1.0  -0.9239
  O  O106  1  0.781230  0.528670  0.210670  1.0  -0.9891
  O  O107  1  0.973930  0.648870  0.157670  1.0  -0.9391
  O  O108  1  0.940530  0.596970  0.313770  1.0  -0.9386
