# generated using pymatgen
data_AlPO4
_symmetry_space_group_name_H-M   'P 1'
_cell_length_a   13.82570000
_cell_length_b   14.47880000
_cell_length_c   10.16580000
_cell_angle_alpha   90.00000000
_cell_angle_beta   90.00000000
_cell_angle_gamma   90.00000000
_symmetry_Int_Tables_number   1
_chemical_formula_structural   AlPO4
_chemical_formula_sum   'Al16 P16 O64'
_cell_volume   2034.98522019
_cell_formula_units_Z   16
loop_
 _symmetry_equiv_pos_site_id
 _symmetry_equiv_pos_as_xyz
  1  'x, y, z'
loop_
 _atom_site_type_symbol
 _atom_site_label
 _atom_site_symmetry_multiplicity
 _atom_site_fract_x
 _atom_site_fract_y
 _atom_site_fract_z
 _atom_site_occupancy
 _atom_site_charge
  Al  Al1  1  0.263600  0.147200  0.532700  1.0  1.7849
  Al  Al2  1  0.763600  0.647200  0.532700  1.0  1.7849
  Al  Al3  1  0.736400  0.852800  0.032700  1.0  1.7853
  Al  Al4  1  0.236400  0.352800  0.032700  1.0  1.7853
  Al  Al5  1  0.736400  0.147200  0.967300  1.0  1.7848
  Al  Al6  1  0.236400  0.647200  0.967300  1.0  1.7848
  Al  Al7  1  0.263600  0.852800  0.467300  1.0  1.7856
  Al  Al8  1  0.763600  0.352800  0.467300  1.0  1.7856
  Al  Al9  1  0.500000  0.115700  0.250000  1.0  1.9061
  Al  Al10  1  0.500000  0.410300  0.250000  1.0  1.9348
  Al  Al11  1  0.000000  0.615700  0.250000  1.0  1.9061
  Al  Al12  1  0.000000  0.910300  0.250000  1.0  1.9348
  Al  Al13  1  0.500000  0.884300  0.750000  1.0  1.9063
  Al  Al14  1  0.500000  0.589700  0.750000  1.0  1.9346
  Al  Al15  1  0.000000  0.384300  0.750000  1.0  1.9063
  Al  Al16  1  0.000000  0.089700  0.750000  1.0  1.9346
  P  P17  1  0.332700  0.263000  0.284200  1.0  1.9593
  P  P18  1  0.832700  0.763000  0.284200  1.0  1.9593
  P  P19  1  0.667300  0.737000  0.784200  1.0  1.9632
  P  P20  1  0.167300  0.237000  0.784200  1.0  1.9632
  P  P21  1  0.667300  0.263000  0.215800  1.0  1.9634
  P  P22  1  0.167300  0.763000  0.215800  1.0  1.9634
  P  P23  1  0.332700  0.737000  0.715800  1.0  1.9593
  P  P24  1  0.832700  0.237000  0.715800  1.0  1.9593
  P  P25  1  0.095000  0.000000  0.500000  1.0  1.9855
  P  P26  1  0.431600  0.000000  0.500000  1.0  1.8198
  P  P27  1  0.595000  0.500000  0.500000  1.0  1.9855
  P  P28  1  0.931600  0.500000  0.500000  1.0  1.8198
  P  P29  1  0.905000  0.000000  0.000000  1.0  1.9907
  P  P30  1  0.568400  0.000000  0.000000  1.0  1.8177
  P  P31  1  0.405000  0.500000  0.000000  1.0  1.9907
  P  P32  1  0.068400  0.500000  0.000000  1.0  1.8177
  O  O33  1  0.391200  0.185100  0.224900  1.0  -0.9582
  O  O34  1  0.156900  0.084500  0.479600  1.0  -1.0104
  O  O35  1  0.369200  0.070200  0.569800  1.0  -0.8858
  O  O36  1  0.399000  0.344800  0.306400  1.0  -1.1041
  O  O37  1  0.253800  0.286800  0.190400  1.0  -0.854
  O  O38  1  0.496800  0.046500  0.395400  1.0  -0.9917
  O  O39  1  0.287900  0.239900  0.410600  1.0  -0.8424
  O  O40  1  0.031200  0.015500  0.615500  1.0  -0.9252
  O  O41  1  0.891200  0.685100  0.224900  1.0  -0.9582
  O  O42  1  0.656900  0.584500  0.479600  1.0  -1.0104
  O  O43  1  0.869200  0.570200  0.569800  1.0  -0.8858
  O  O44  1  0.899000  0.844800  0.306400  1.0  -1.1041
  O  O45  1  0.753800  0.786800  0.190400  1.0  -0.854
  O  O46  1  0.996800  0.546500  0.395400  1.0  -0.9917
  O  O47  1  0.787900  0.739900  0.410600  1.0  -0.8424
  O  O48  1  0.531200  0.515500  0.615500  1.0  -0.9248
  O  O49  1  0.608800  0.814900  0.724900  1.0  -0.9582
  O  O50  1  0.843100  0.915500  0.979600  1.0  -1.0097
  O  O51  1  0.630800  0.929800  0.069800  1.0  -0.8861
  O  O52  1  0.601000  0.655200  0.806400  1.0  -1.1021
  O  O53  1  0.746200  0.713200  0.690400  1.0  -0.8546
  O  O54  1  0.503200  0.953500  0.895400  1.0  -0.9914
  O  O55  1  0.712100  0.760100  0.910600  1.0  -0.8422
  O  O56  1  0.968800  0.984500  0.115500  1.0  -0.924
  O  O57  1  0.108800  0.314900  0.724900  1.0  -0.9582
  O  O58  1  0.343100  0.415500  0.979600  1.0  -1.0097
  O  O59  1  0.130800  0.429800  0.069800  1.0  -0.8861
  O  O60  1  0.101000  0.155200  0.806400  1.0  -1.1021
  O  O61  1  0.246200  0.213200  0.690400  1.0  -0.8546
  O  O62  1  0.003200  0.453500  0.895400  1.0  -0.9914
  O  O63  1  0.212100  0.260100  0.910600  1.0  -0.8422
  O  O64  1  0.468800  0.484500  0.115500  1.0  -0.924
  O  O65  1  0.608800  0.185100  0.275100  1.0  -0.9577
  O  O66  1  0.843100  0.084500  0.020400  1.0  -1.0106
  O  O67  1  0.630800  0.070200  0.930200  1.0  -0.8843
  O  O68  1  0.601000  0.344800  0.193600  1.0  -1.1034
  O  O69  1  0.746200  0.286800  0.309600  1.0  -0.8556
  O  O70  1  0.503200  0.046500  0.104600  1.0  -0.9934
  O  O71  1  0.712100  0.239900  0.089400  1.0  -0.8403
  O  O72  1  0.968800  0.015500  0.884500  1.0  -0.9244
  O  O73  1  0.108800  0.685100  0.275100  1.0  -0.9577
  O  O74  1  0.343100  0.584500  0.020400  1.0  -1.0106
  O  O75  1  0.130800  0.570200  0.930200  1.0  -0.8843
  O  O76  1  0.101000  0.844800  0.193600  1.0  -1.1034
  O  O77  1  0.246200  0.786800  0.309600  1.0  -0.8556
  O  O78  1  0.003200  0.546500  0.104600  1.0  -0.9934
  O  O79  1  0.212100  0.739900  0.089400  1.0  -0.8403
  O  O80  1  0.468800  0.515500  0.884500  1.0  -0.925
  O  O81  1  0.391200  0.814900  0.775100  1.0  -0.9592
  O  O82  1  0.156900  0.915500  0.520400  1.0  -1.0089
  O  O83  1  0.369200  0.929800  0.430200  1.0  -0.8863
  O  O84  1  0.399000  0.655200  0.693600  1.0  -1.1015
  O  O85  1  0.253800  0.713200  0.809600  1.0  -0.8551
  O  O86  1  0.496800  0.953500  0.604600  1.0  -0.9936
  O  O87  1  0.287900  0.760100  0.589400  1.0  -0.8417
  O  O88  1  0.031200  0.984500  0.384500  1.0  -0.925
  O  O89  1  0.891200  0.314900  0.775100  1.0  -0.9592
  O  O90  1  0.656900  0.415500  0.520400  1.0  -1.0089
  O  O91  1  0.869200  0.429800  0.430200  1.0  -0.8863
  O  O92  1  0.899000  0.155200  0.693600  1.0  -1.1015
  O  O93  1  0.753800  0.213200  0.809600  1.0  -0.8551
  O  O94  1  0.996800  0.453500  0.604600  1.0  -0.9936
  O  O95  1  0.787900  0.260100  0.589400  1.0  -0.8417
  O  O96  1  0.531200  0.484500  0.384500  1.0  -0.925
