# generated using pymatgen
data_AlPO4
_symmetry_space_group_name_H-M   'P 1'
_cell_length_a   14.66150000
_cell_length_b   14.66150000
_cell_length_c   9.61460000
_cell_angle_alpha   90.00000000
_cell_angle_beta   90.00000000
_cell_angle_gamma   90.00000000
_symmetry_Int_Tables_number   1
_chemical_formula_structural   AlPO4
_chemical_formula_sum   'Al16 P16 O64'
_cell_volume   2066.75039950
_cell_formula_units_Z   16
loop_
 _symmetry_equiv_pos_site_id
 _symmetry_equiv_pos_as_xyz
  1  'x, y, z'
loop_
 _atom_site_type_symbol
 _atom_site_label
 _atom_site_symmetry_multiplicity
 _atom_site_fract_x
 _atom_site_fract_y
 _atom_site_fract_z
 _atom_site_occupancy
 _atom_site_charge
  Al  Al1  1  0.507600  0.136000  0.399900  1.0  1.622
  Al  Al2  1  0.992400  0.364000  0.399900  1.0  1.6226
  Al  Al3  1  0.364000  0.507600  0.399900  1.0  1.6203
  Al  Al4  1  0.136000  0.992400  0.399900  1.0  1.6207
  Al  Al5  1  0.992400  0.136000  0.100100  1.0  1.6215
  Al  Al6  1  0.507600  0.364000  0.100100  1.0  1.6221
  Al  Al7  1  0.136000  0.507600  0.100100  1.0  1.6194
  Al  Al8  1  0.364000  0.992400  0.100100  1.0  1.6208
  Al  Al9  1  0.492400  0.864000  0.600100  1.0  1.6221
  Al  Al10  1  0.007600  0.636000  0.600100  1.0  1.6216
  Al  Al11  1  0.636000  0.492400  0.600100  1.0  1.6203
  Al  Al12  1  0.864000  0.007600  0.600100  1.0  1.6199
  Al  Al13  1  0.007600  0.864000  0.899900  1.0  1.6227
  Al  Al14  1  0.492400  0.636000  0.899900  1.0  1.6235
  Al  Al15  1  0.864000  0.492400  0.899900  1.0  1.6213
  Al  Al16  1  0.636000  0.007600  0.899900  1.0  1.6225
  P  P17  1  0.511200  0.147800  0.064200  1.0  1.8455
  P  P18  1  0.988800  0.352200  0.064200  1.0  1.801
  P  P19  1  0.352200  0.511200  0.064200  1.0  1.846
  P  P20  1  0.147800  0.988800  0.064200  1.0  1.8066
  P  P21  1  0.988800  0.147800  0.435800  1.0  1.7922
  P  P22  1  0.511200  0.352200  0.435800  1.0  1.8076
  P  P23  1  0.147800  0.511200  0.435800  1.0  1.8463
  P  P24  1  0.352200  0.988800  0.435800  1.0  1.7847
  P  P25  1  0.488800  0.852200  0.935800  1.0  1.7861
  P  P26  1  0.011200  0.647800  0.935800  1.0  1.8465
  P  P27  1  0.647800  0.488800  0.935800  1.0  1.7919
  P  P28  1  0.852200  0.011200  0.935800  1.0  1.8063
  P  P29  1  0.011200  0.852200  0.564200  1.0  1.8472
  P  P30  1  0.488800  0.647800  0.564200  1.0  1.8069
  P  P31  1  0.852200  0.488800  0.564200  1.0  1.7997
  P  P32  1  0.647800  0.011200  0.564200  1.0  1.8455
  O  O33  1  0.545200  0.135900  0.209700  1.0  -0.8906
  O  O34  1  0.426100  0.094900  0.034700  1.0  -0.8553
  O  O35  1  0.498700  0.247100  0.023800  1.0  -0.8182
  O  O36  1  0.585900  0.115600  0.969600  1.0  -0.8711
  O  O37  1  0.954800  0.364100  0.209700  1.0  -0.8907
  O  O38  1  0.073900  0.405100  0.034700  1.0  -0.8553
  O  O39  1  0.001300  0.252900  0.023800  1.0  -0.8179
  O  O40  1  0.914100  0.384400  0.969600  1.0  -0.8705
  O  O41  1  0.364100  0.545200  0.209700  1.0  -0.8918
  O  O42  1  0.405100  0.426100  0.034700  1.0  -0.8574
  O  O43  1  0.252900  0.498700  0.023800  1.0  -0.818
  O  O44  1  0.384400  0.585900  0.969600  1.0  -0.8713
  O  O45  1  0.135900  0.954800  0.209700  1.0  -0.8916
  O  O46  1  0.094900  0.073900  0.034700  1.0  -0.8598
  O  O47  1  0.247100  0.001300  0.023800  1.0  -0.8173
  O  O48  1  0.115600  0.914100  0.969600  1.0  -0.871
  O  O49  1  0.954800  0.135900  0.290300  1.0  -0.8919
  O  O50  1  0.073900  0.094900  0.465300  1.0  -0.856
  O  O51  1  0.001300  0.247100  0.476200  1.0  -0.8179
  O  O52  1  0.914100  0.115600  0.530400  1.0  -0.8714
  O  O53  1  0.545200  0.364100  0.290300  1.0  -0.8916
  O  O54  1  0.426100  0.405100  0.465300  1.0  -0.8551
  O  O55  1  0.498700  0.252900  0.476200  1.0  -0.8184
  O  O56  1  0.585900  0.384400  0.530400  1.0  -0.8714
  O  O57  1  0.135900  0.545200  0.290300  1.0  -0.8935
  O  O58  1  0.094900  0.426100  0.465300  1.0  -0.8579
  O  O59  1  0.247100  0.498700  0.476200  1.0  -0.8181
  O  O60  1  0.115600  0.585900  0.530400  1.0  -0.8721
  O  O61  1  0.364100  0.954800  0.290300  1.0  -0.8927
  O  O62  1  0.405100  0.073900  0.465300  1.0  -0.8599
  O  O63  1  0.252900  0.001300  0.476200  1.0  -0.8178
  O  O64  1  0.384400  0.914100  0.530400  1.0  -0.871
  O  O65  1  0.454800  0.864100  0.790300  1.0  -0.8917
  O  O66  1  0.573900  0.905100  0.965300  1.0  -0.8558
  O  O67  1  0.501300  0.752900  0.976200  1.0  -0.8179
  O  O68  1  0.414100  0.884400  0.030400  1.0  -0.8697
  O  O69  1  0.045200  0.635900  0.790300  1.0  -0.8915
  O  O70  1  0.926100  0.594900  0.965300  1.0  -0.8557
  O  O71  1  0.998700  0.747100  0.976200  1.0  -0.8185
  O  O72  1  0.085900  0.615600  0.030400  1.0  -0.8713
  O  O73  1  0.635900  0.454800  0.790300  1.0  -0.8933
  O  O74  1  0.594900  0.573900  0.965300  1.0  -0.8595
  O  O75  1  0.747100  0.501300  0.976200  1.0  -0.8177
  O  O76  1  0.615600  0.414100  0.030400  1.0  -0.8713
  O  O77  1  0.864100  0.045200  0.790300  1.0  -0.8924
  O  O78  1  0.905100  0.926100  0.965300  1.0  -0.8576
  O  O79  1  0.752900  0.998700  0.976200  1.0  -0.8177
  O  O80  1  0.884400  0.085900  0.030400  1.0  -0.871
  O  O81  1  0.045200  0.864100  0.709700  1.0  -0.8898
  O  O82  1  0.926100  0.905100  0.534700  1.0  -0.8547
  O  O83  1  0.998700  0.752900  0.523800  1.0  -0.8186
  O  O84  1  0.085900  0.884400  0.469600  1.0  -0.8708
  O  O85  1  0.454800  0.635900  0.709700  1.0  -0.8906
  O  O86  1  0.573900  0.594900  0.534700  1.0  -0.8553
  O  O87  1  0.501300  0.747100  0.523800  1.0  -0.8178
  O  O88  1  0.414100  0.615600  0.469600  1.0  -0.8713
  O  O89  1  0.864100  0.454800  0.709700  1.0  -0.891
  O  O90  1  0.905100  0.573900  0.534700  1.0  -0.8601
  O  O91  1  0.752900  0.501300  0.523800  1.0  -0.818
  O  O92  1  0.884400  0.414100  0.469600  1.0  -0.8703
  O  O93  1  0.635900  0.045200  0.709700  1.0  -0.8922
  O  O94  1  0.594900  0.926100  0.534700  1.0  -0.8577
  O  O95  1  0.747100  0.998700  0.523800  1.0  -0.8178
  O  O96  1  0.615600  0.085900  0.469600  1.0  -0.8701
