# generated using pymatgen
data_AlPO4
_symmetry_space_group_name_H-M   'P 1'
_cell_length_a   20.14690000
_cell_length_b   20.51470000
_cell_length_c   10.02420000
_cell_angle_alpha   90.00000000
_cell_angle_beta   90.00000000
_cell_angle_gamma   90.00000000
_symmetry_Int_Tables_number   1
_chemical_formula_structural   AlPO4
_chemical_formula_sum   'Al32 P32 O128'
_cell_volume   4143.07813845
_cell_formula_units_Z   32
loop_
 _symmetry_equiv_pos_site_id
 _symmetry_equiv_pos_as_xyz
  1  'x, y, z'
loop_
 _atom_site_type_symbol
 _atom_site_label
 _atom_site_symmetry_multiplicity
 _atom_site_fract_x
 _atom_site_fract_y
 _atom_site_fract_z
 _atom_site_occupancy
 _atom_site_charge
  Al  Al1  1  0.198300  0.328900  0.380100  1.0  1.7019
  Al  Al2  1  0.930600  0.434400  0.405900  1.0  1.8445
  Al  Al3  1  0.698300  0.828900  0.380100  1.0  1.7019
  Al  Al4  1  0.430600  0.934400  0.405900  1.0  1.8445
  Al  Al5  1  0.301700  0.671100  0.380100  1.0  1.7024
  Al  Al6  1  0.569400  0.565600  0.405900  1.0  1.844
  Al  Al7  1  0.801700  0.171100  0.380100  1.0  1.7024
  Al  Al8  1  0.069400  0.065600  0.405900  1.0  1.844
  Al  Al9  1  0.801700  0.328900  0.119900  1.0  1.7014
  Al  Al10  1  0.069400  0.434400  0.094100  1.0  1.8441
  Al  Al11  1  0.301700  0.828900  0.119900  1.0  1.7014
  Al  Al12  1  0.569400  0.934400  0.094100  1.0  1.8441
  Al  Al13  1  0.698300  0.671100  0.119900  1.0  1.7015
  Al  Al14  1  0.430600  0.565600  0.094100  1.0  1.8447
  Al  Al15  1  0.198300  0.171100  0.119900  1.0  1.7015
  Al  Al16  1  0.930600  0.065600  0.094100  1.0  1.8447
  Al  Al17  1  0.801700  0.671100  0.619900  1.0  1.7017
  Al  Al18  1  0.069400  0.565600  0.594100  1.0  1.8442
  Al  Al19  1  0.301700  0.171100  0.619900  1.0  1.7017
  Al  Al20  1  0.569400  0.065600  0.594100  1.0  1.8442
  Al  Al21  1  0.698300  0.328900  0.619900  1.0  1.7014
  Al  Al22  1  0.430600  0.434400  0.594100  1.0  1.8446
  Al  Al23  1  0.198300  0.828900  0.619900  1.0  1.7014
  Al  Al24  1  0.930600  0.934400  0.594100  1.0  1.8446
  Al  Al25  1  0.198300  0.671100  0.880100  1.0  1.7023
  Al  Al26  1  0.930600  0.565600  0.905900  1.0  1.8446
  Al  Al27  1  0.698300  0.171100  0.880100  1.0  1.7023
  Al  Al28  1  0.430600  0.065600  0.905900  1.0  1.8446
  Al  Al29  1  0.301700  0.328900  0.880100  1.0  1.7019
  Al  Al30  1  0.569400  0.434400  0.905900  1.0  1.8439
  Al  Al31  1  0.801700  0.828900  0.880100  1.0  1.7019
  Al  Al32  1  0.069400  0.934400  0.905900  1.0  1.8439
  P  P33  1  0.176200  0.321200  0.067800  1.0  1.8913
  P  P34  1  0.086700  0.442200  0.408600  1.0  1.8676
  P  P35  1  0.676200  0.821200  0.067800  1.0  1.8913
  P  P36  1  0.586700  0.942200  0.408600  1.0  1.8676
  P  P37  1  0.323800  0.678800  0.067800  1.0  1.8933
  P  P38  1  0.413300  0.557800  0.408600  1.0  1.8675
  P  P39  1  0.823800  0.178800  0.067800  1.0  1.8933
  P  P40  1  0.913300  0.057800  0.408600  1.0  1.8675
  P  P41  1  0.823800  0.321200  0.432200  1.0  1.8935
  P  P42  1  0.913300  0.442200  0.091400  1.0  1.8638
  P  P43  1  0.323800  0.821200  0.432200  1.0  1.8935
  P  P44  1  0.413300  0.942200  0.091400  1.0  1.8638
  P  P45  1  0.676200  0.678800  0.432200  1.0  1.8921
  P  P46  1  0.586700  0.557800  0.091400  1.0  1.864
  P  P47  1  0.176200  0.178800  0.432200  1.0  1.8921
  P  P48  1  0.086700  0.057800  0.091400  1.0  1.864
  P  P49  1  0.823800  0.678800  0.932200  1.0  1.8927
  P  P50  1  0.913300  0.557800  0.591400  1.0  1.8691
  P  P51  1  0.323800  0.178800  0.932200  1.0  1.8927
  P  P52  1  0.413300  0.057800  0.591400  1.0  1.8691
  P  P53  1  0.676200  0.321200  0.932200  1.0  1.8922
  P  P54  1  0.586700  0.442200  0.591400  1.0  1.8695
  P  P55  1  0.176200  0.821200  0.932200  1.0  1.8922
  P  P56  1  0.086700  0.942200  0.591400  1.0  1.8695
  P  P57  1  0.176200  0.678800  0.567800  1.0  1.8918
  P  P58  1  0.086700  0.557800  0.908600  1.0  1.8691
  P  P59  1  0.676200  0.178800  0.567800  1.0  1.8918
  P  P60  1  0.586700  0.057800  0.908600  1.0  1.8691
  P  P61  1  0.323800  0.321200  0.567800  1.0  1.8934
  P  P62  1  0.413300  0.442200  0.908600  1.0  1.869
  P  P63  1  0.823800  0.821200  0.567800  1.0  1.8934
  P  P64  1  0.913300  0.942200  0.908600  1.0  1.869
  O  O65  1  0.214300  0.334500  0.192700  1.0  -0.8456
  O  O66  1  0.163800  0.249300  0.055200  1.0  -0.8963
  O  O67  1  0.019000  0.416600  0.442300  1.0  -0.8961
  O  O68  1  0.108900  0.355600  0.066000  1.0  -0.9691
  O  O69  1  0.138500  0.391700  0.436500  1.0  -0.9125
  O  O70  1  0.103900  0.500800  0.490500  1.0  -0.91
  O  O71  1  0.090600  0.463100  0.262800  1.0  -0.92
  O  O72  1  0.218600  0.343300  0.949200  1.0  -0.9554
  O  O73  1  0.714300  0.834500  0.192700  1.0  -0.8456
  O  O74  1  0.663800  0.749300  0.055200  1.0  -0.8963
  O  O75  1  0.519000  0.916600  0.442300  1.0  -0.8961
  O  O76  1  0.608900  0.855600  0.066000  1.0  -0.9691
  O  O77  1  0.638500  0.891700  0.436500  1.0  -0.9125
  O  O78  1  0.603900  0.000800  0.490500  1.0  -0.91
  O  O79  1  0.590600  0.963100  0.262800  1.0  -0.92
  O  O80  1  0.718600  0.843300  0.949200  1.0  -0.9554
  O  O81  1  0.285700  0.665500  0.192700  1.0  -0.8455
  O  O82  1  0.336200  0.750700  0.055200  1.0  -0.8961
  O  O83  1  0.481000  0.583400  0.442300  1.0  -0.8948
  O  O84  1  0.391100  0.644400  0.066000  1.0  -0.9694
  O  O85  1  0.361500  0.608300  0.436500  1.0  -0.914
  O  O86  1  0.396100  0.499200  0.490500  1.0  -0.9107
  O  O87  1  0.409400  0.536900  0.262800  1.0  -0.92
  O  O88  1  0.281400  0.656700  0.949200  1.0  -0.9546
  O  O89  1  0.785700  0.165500  0.192700  1.0  -0.8455
  O  O90  1  0.836200  0.250700  0.055200  1.0  -0.8961
  O  O91  1  0.981000  0.083400  0.442300  1.0  -0.8948
  O  O92  1  0.891100  0.144400  0.066000  1.0  -0.9694
  O  O93  1  0.861500  0.108300  0.436500  1.0  -0.914
  O  O94  1  0.896100  0.999200  0.490500  1.0  -0.9107
  O  O95  1  0.909400  0.036900  0.262800  1.0  -0.92
  O  O96  1  0.781400  0.156700  0.949200  1.0  -0.9546
  O  O97  1  0.785700  0.334500  0.307300  1.0  -0.8468
  O  O98  1  0.836200  0.249300  0.444800  1.0  -0.8962
  O  O99  1  0.981000  0.416600  0.057700  1.0  -0.8958
  O  O100  1  0.891100  0.355600  0.434000  1.0  -0.9695
  O  O101  1  0.861500  0.391700  0.063500  1.0  -0.9138
  O  O102  1  0.896100  0.500800  0.009500  1.0  -0.9091
  O  O103  1  0.909400  0.463100  0.237200  1.0  -0.9194
  O  O104  1  0.781400  0.343300  0.550800  1.0  -0.9573
  O  O105  1  0.285700  0.834500  0.307300  1.0  -0.8468
  O  O106  1  0.336200  0.749300  0.444800  1.0  -0.8962
  O  O107  1  0.481000  0.916600  0.057700  1.0  -0.8958
  O  O108  1  0.391100  0.855600  0.434000  1.0  -0.9695
  O  O109  1  0.361500  0.891700  0.063500  1.0  -0.9138
  O  O110  1  0.396100  0.000800  0.009500  1.0  -0.9091
  O  O111  1  0.409400  0.963100  0.237200  1.0  -0.9194
  O  O112  1  0.281400  0.843300  0.550800  1.0  -0.9573
  O  O113  1  0.714300  0.665500  0.307300  1.0  -0.845
  O  O114  1  0.663800  0.750700  0.444800  1.0  -0.8962
  O  O115  1  0.519000  0.583400  0.057700  1.0  -0.8971
  O  O116  1  0.608900  0.644400  0.434000  1.0  -0.9691
  O  O117  1  0.638500  0.608300  0.063500  1.0  -0.9127
  O  O118  1  0.603900  0.499200  0.009500  1.0  -0.9093
  O  O119  1  0.590600  0.536900  0.237200  1.0  -0.9193
  O  O120  1  0.718600  0.656700  0.550800  1.0  -0.9567
  O  O121  1  0.214300  0.165500  0.307300  1.0  -0.845
  O  O122  1  0.163800  0.250700  0.444800  1.0  -0.8962
  O  O123  1  0.019000  0.083400  0.057700  1.0  -0.8971
  O  O124  1  0.108900  0.144400  0.434000  1.0  -0.9691
  O  O125  1  0.138500  0.108300  0.063500  1.0  -0.9127
  O  O126  1  0.103900  0.999200  0.009500  1.0  -0.9093
  O  O127  1  0.090600  0.036900  0.237200  1.0  -0.9193
  O  O128  1  0.218600  0.156700  0.550800  1.0  -0.9567
  O  O129  1  0.785700  0.665500  0.807300  1.0  -0.8462
  O  O130  1  0.836200  0.750700  0.944800  1.0  -0.8966
  O  O131  1  0.981000  0.583400  0.557700  1.0  -0.8957
  O  O132  1  0.891100  0.644400  0.934000  1.0  -0.9695
  O  O133  1  0.861500  0.608300  0.563500  1.0  -0.914
  O  O134  1  0.896100  0.499200  0.509500  1.0  -0.9096
  O  O135  1  0.909400  0.536900  0.737200  1.0  -0.9191
  O  O136  1  0.781400  0.656700  0.050800  1.0  -0.9564
  O  O137  1  0.285700  0.165500  0.807300  1.0  -0.8462
  O  O138  1  0.336200  0.250700  0.944800  1.0  -0.8966
  O  O139  1  0.481000  0.083400  0.557700  1.0  -0.8957
  O  O140  1  0.391100  0.144400  0.934000  1.0  -0.9695
  O  O141  1  0.361500  0.108300  0.563500  1.0  -0.914
  O  O142  1  0.396100  0.999200  0.509500  1.0  -0.9096
  O  O143  1  0.409400  0.036900  0.737200  1.0  -0.9191
  O  O144  1  0.281400  0.156700  0.050800  1.0  -0.9564
  O  O145  1  0.714300  0.334500  0.807300  1.0  -0.8457
  O  O146  1  0.663800  0.249300  0.944800  1.0  -0.8968
  O  O147  1  0.519000  0.416600  0.557700  1.0  -0.8971
  O  O148  1  0.608900  0.355600  0.934000  1.0  -0.9692
  O  O149  1  0.638500  0.391700  0.563500  1.0  -0.9128
  O  O150  1  0.603900  0.500800  0.509500  1.0  -0.9087
  O  O151  1  0.590600  0.463100  0.737200  1.0  -0.9192
  O  O152  1  0.718600  0.343300  0.050800  1.0  -0.9574
  O  O153  1  0.214300  0.834500  0.807300  1.0  -0.8457
  O  O154  1  0.163800  0.749300  0.944800  1.0  -0.8968
  O  O155  1  0.019000  0.916600  0.557700  1.0  -0.8971
  O  O156  1  0.108900  0.855600  0.934000  1.0  -0.9692
  O  O157  1  0.138500  0.891700  0.563500  1.0  -0.9128
  O  O158  1  0.103900  0.000800  0.509500  1.0  -0.9087
  O  O159  1  0.090600  0.963100  0.737200  1.0  -0.9192
  O  O160  1  0.218600  0.843300  0.050800  1.0  -0.9574
  O  O161  1  0.214300  0.665500  0.692700  1.0  -0.8448
  O  O162  1  0.163800  0.750700  0.555200  1.0  -0.8964
  O  O163  1  0.019000  0.583400  0.942300  1.0  -0.8962
  O  O164  1  0.108900  0.644400  0.566000  1.0  -0.9691
  O  O165  1  0.138500  0.608300  0.936500  1.0  -0.9125
  O  O166  1  0.103900  0.499200  0.990500  1.0  -0.9104
  O  O167  1  0.090600  0.536900  0.762800  1.0  -0.9203
  O  O168  1  0.218600  0.656700  0.449200  1.0  -0.9551
  O  O169  1  0.714300  0.165500  0.692700  1.0  -0.8448
  O  O170  1  0.663800  0.250700  0.555200  1.0  -0.8964
  O  O171  1  0.519000  0.083400  0.942300  1.0  -0.8962
  O  O172  1  0.608900  0.144400  0.566000  1.0  -0.9691
  O  O173  1  0.638500  0.108300  0.936500  1.0  -0.9125
  O  O174  1  0.603900  0.999200  0.990500  1.0  -0.9104
  O  O175  1  0.590600  0.036900  0.762800  1.0  -0.9203
  O  O176  1  0.718600  0.156700  0.449200  1.0  -0.9551
  O  O177  1  0.285700  0.334500  0.692700  1.0  -0.8462
  O  O178  1  0.336200  0.249300  0.555200  1.0  -0.8966
  O  O179  1  0.481000  0.416600  0.942300  1.0  -0.895
  O  O180  1  0.391100  0.355600  0.566000  1.0  -0.9695
  O  O181  1  0.361500  0.391700  0.936500  1.0  -0.9135
  O  O182  1  0.396100  0.500800  0.990500  1.0  -0.9103
  O  O183  1  0.409400  0.463100  0.762800  1.0  -0.9205
  O  O184  1  0.281400  0.343300  0.449200  1.0  -0.9552
  O  O185  1  0.785700  0.834500  0.692700  1.0  -0.8462
  O  O186  1  0.836200  0.749300  0.555200  1.0  -0.8966
  O  O187  1  0.981000  0.916600  0.942300  1.0  -0.895
  O  O188  1  0.891100  0.855600  0.566000  1.0  -0.9695
  O  O189  1  0.861500  0.891700  0.936500  1.0  -0.9135
  O  O190  1  0.896100  0.000800  0.990500  1.0  -0.9103
  O  O191  1  0.909400  0.963100  0.762800  1.0  -0.9205
  O  O192  1  0.781400  0.843300  0.449200  1.0  -0.9552
