# generated using pymatgen
data_AlPO4
_symmetry_space_group_name_H-M   'P 1'
_cell_length_a   10.22030000
_cell_length_b   14.14500000
_cell_length_c   14.60100000
_cell_angle_alpha   90.00000000
_cell_angle_beta   90.00000000
_cell_angle_gamma   90.00000000
_symmetry_Int_Tables_number   1
_chemical_formula_structural   AlPO4
_chemical_formula_sum   'Al16 P16 O64'
_cell_volume   2110.81026124
_cell_formula_units_Z   16
loop_
 _symmetry_equiv_pos_site_id
 _symmetry_equiv_pos_as_xyz
  1  'x, y, z'
loop_
 _atom_site_type_symbol
 _atom_site_label
 _atom_site_symmetry_multiplicity
 _atom_site_fract_x
 _atom_site_fract_y
 _atom_site_fract_z
 _atom_site_occupancy
 _atom_site_charge
  Al  Al1  1  0.125000  0.125000  0.479500  1.0  1.8913
  Al  Al2  1  0.125000  0.625000  0.979500  1.0  1.8913
  Al  Al3  1  0.625000  0.625000  0.479500  1.0  1.8913
  Al  Al4  1  0.625000  0.125000  0.979500  1.0  1.8913
  Al  Al5  1  0.625000  0.125000  0.270500  1.0  1.892
  Al  Al6  1  0.625000  0.625000  0.770500  1.0  1.892
  Al  Al7  1  0.125000  0.625000  0.270500  1.0  1.892
  Al  Al8  1  0.125000  0.125000  0.770500  1.0  1.892
  Al  Al9  1  0.875000  0.875000  0.520500  1.0  1.892
  Al  Al10  1  0.875000  0.375000  0.020500  1.0  1.892
  Al  Al11  1  0.375000  0.375000  0.520500  1.0  1.892
  Al  Al12  1  0.375000  0.875000  0.020500  1.0  1.892
  Al  Al13  1  0.375000  0.875000  0.729500  1.0  1.8913
  Al  Al14  1  0.375000  0.375000  0.229500  1.0  1.8913
  Al  Al15  1  0.875000  0.375000  0.729500  1.0  1.8913
  Al  Al16  1  0.875000  0.875000  0.229500  1.0  1.8913
  P  P17  1  0.875000  0.039000  0.375000  1.0  1.9367
  P  P18  1  0.875000  0.539000  0.875000  1.0  1.9367
  P  P19  1  0.375000  0.039000  0.875000  1.0  1.9367
  P  P20  1  0.375000  0.539000  0.375000  1.0  1.9367
  P  P21  1  0.875000  0.711000  0.375000  1.0  1.9368
  P  P22  1  0.875000  0.211000  0.875000  1.0  1.9368
  P  P23  1  0.375000  0.711000  0.875000  1.0  1.9368
  P  P24  1  0.375000  0.211000  0.375000  1.0  1.9368
  P  P25  1  0.125000  0.961000  0.625000  1.0  1.9048
  P  P26  1  0.125000  0.461000  0.125000  1.0  1.9048
  P  P27  1  0.625000  0.961000  0.125000  1.0  1.9048
  P  P28  1  0.625000  0.461000  0.625000  1.0  1.9048
  P  P29  1  0.125000  0.289000  0.625000  1.0  1.9047
  P  P30  1  0.125000  0.789000  0.125000  1.0  1.9047
  P  P31  1  0.625000  0.289000  0.125000  1.0  1.9047
  P  P32  1  0.625000  0.789000  0.625000  1.0  1.9047
  O  O33  1  0.986700  0.101400  0.405400  1.0  -0.9717
  O  O34  1  0.921200  0.978100  0.296900  1.0  -0.9335
  O  O35  1  0.986700  0.601400  0.905400  1.0  -0.9717
  O  O36  1  0.921200  0.478100  0.796900  1.0  -0.9335
  O  O37  1  0.486700  0.101400  0.905400  1.0  -0.9717
  O  O38  1  0.421200  0.978100  0.796900  1.0  -0.9335
  O  O39  1  0.486700  0.601400  0.405400  1.0  -0.9717
  O  O40  1  0.421200  0.478100  0.296900  1.0  -0.9335
  O  O41  1  0.763300  0.648600  0.405400  1.0  -0.9722
  O  O42  1  0.828800  0.771900  0.296900  1.0  -0.9338
  O  O43  1  0.763300  0.148600  0.905400  1.0  -0.9722
  O  O44  1  0.828800  0.271900  0.796900  1.0  -0.9338
  O  O45  1  0.263300  0.648600  0.905400  1.0  -0.9722
  O  O46  1  0.328800  0.771900  0.796900  1.0  -0.9338
  O  O47  1  0.263300  0.148600  0.405400  1.0  -0.9722
  O  O48  1  0.328800  0.271900  0.296900  1.0  -0.9338
  O  O49  1  0.763300  0.101400  0.344600  1.0  -0.9735
  O  O50  1  0.828800  0.978100  0.453100  1.0  -0.9334
  O  O51  1  0.763300  0.601400  0.844600  1.0  -0.9735
  O  O52  1  0.828800  0.478100  0.953100  1.0  -0.9334
  O  O53  1  0.263300  0.101400  0.844600  1.0  -0.9735
  O  O54  1  0.328800  0.978100  0.953100  1.0  -0.9334
  O  O55  1  0.263300  0.601400  0.344600  1.0  -0.9735
  O  O56  1  0.328800  0.478100  0.453100  1.0  -0.9334
  O  O57  1  0.986700  0.648600  0.344600  1.0  -0.9703
  O  O58  1  0.921200  0.771900  0.453100  1.0  -0.9345
  O  O59  1  0.986700  0.148600  0.844600  1.0  -0.9703
  O  O60  1  0.921200  0.271900  0.953100  1.0  -0.9345
  O  O61  1  0.486700  0.648600  0.844600  1.0  -0.9703
  O  O62  1  0.421200  0.771900  0.953100  1.0  -0.9345
  O  O63  1  0.486700  0.148600  0.344600  1.0  -0.9703
  O  O64  1  0.421200  0.271900  0.453100  1.0  -0.9345
  O  O65  1  0.013300  0.898600  0.594600  1.0  -0.9732
  O  O66  1  0.078800  0.021900  0.703100  1.0  -0.9329
  O  O67  1  0.013300  0.398600  0.094600  1.0  -0.9732
  O  O68  1  0.078800  0.521900  0.203100  1.0  -0.9329
  O  O69  1  0.513300  0.898600  0.094600  1.0  -0.9732
  O  O70  1  0.578800  0.021900  0.203100  1.0  -0.9329
  O  O71  1  0.513300  0.398600  0.594600  1.0  -0.9732
  O  O72  1  0.578800  0.521900  0.703100  1.0  -0.9329
  O  O73  1  0.236700  0.351400  0.594600  1.0  -0.9731
  O  O74  1  0.171200  0.228100  0.703100  1.0  -0.935
  O  O75  1  0.236700  0.851400  0.094600  1.0  -0.9731
  O  O76  1  0.171200  0.728100  0.203100  1.0  -0.935
  O  O77  1  0.736700  0.351400  0.094600  1.0  -0.9731
  O  O78  1  0.671200  0.228100  0.203100  1.0  -0.935
  O  O79  1  0.736700  0.851400  0.594600  1.0  -0.9731
  O  O80  1  0.671200  0.728100  0.703100  1.0  -0.935
  O  O81  1  0.236700  0.898600  0.655400  1.0  -0.9728
  O  O82  1  0.171200  0.021900  0.546900  1.0  -0.9335
  O  O83  1  0.236700  0.398600  0.155400  1.0  -0.9728
  O  O84  1  0.171200  0.521900  0.046900  1.0  -0.9335
  O  O85  1  0.736700  0.898600  0.155400  1.0  -0.9728
  O  O86  1  0.671200  0.021900  0.046900  1.0  -0.9335
  O  O87  1  0.736700  0.398600  0.655400  1.0  -0.9728
  O  O88  1  0.671200  0.521900  0.546900  1.0  -0.9335
  O  O89  1  0.013300  0.351400  0.655400  1.0  -0.9731
  O  O90  1  0.078800  0.228100  0.546900  1.0  -0.9333
  O  O91  1  0.013300  0.851400  0.155400  1.0  -0.9731
  O  O92  1  0.078800  0.728100  0.046900  1.0  -0.9333
  O  O93  1  0.513300  0.351400  0.155400  1.0  -0.9731
  O  O94  1  0.578800  0.228100  0.046900  1.0  -0.9333
  O  O95  1  0.513300  0.851400  0.655400  1.0  -0.9731
  O  O96  1  0.578800  0.728100  0.546900  1.0  -0.9333
