# generated using pymatgen
data_Al2Co3(PO4)5
_symmetry_space_group_name_H-M   'P 1'
_cell_length_a   14.13000000
_cell_length_b   13.17800000
_cell_length_c   14.01800000
_cell_angle_alpha   90.00000000
_cell_angle_beta   90.56100000
_cell_angle_gamma   90.00000000
_symmetry_Int_Tables_number   1
_chemical_formula_structural   Al2Co3(PO4)5
_chemical_formula_sum   'Al8 Co12 P20 O80'
_cell_volume   2610.09853310
_cell_formula_units_Z   4
loop_
 _symmetry_equiv_pos_site_id
 _symmetry_equiv_pos_as_xyz
  1  'x, y, z'
loop_
 _atom_site_type_symbol
 _atom_site_label
 _atom_site_symmetry_multiplicity
 _atom_site_fract_x
 _atom_site_fract_y
 _atom_site_fract_z
 _atom_site_occupancy
 _atom_site_charge
  Al  Al1  1  0.123900  0.858100  0.225700  1.0  1.6518
  Al  Al2  1  0.019200  0.742500  0.622900  1.0  1.7248
  Al  Al3  1  0.623900  0.358100  0.225700  1.0  1.6556
  Al  Al4  1  0.519200  0.242500  0.622900  1.0  1.7248
  Al  Al5  1  0.876100  0.858100  0.274300  1.0  1.6518
  Al  Al6  1  0.980800  0.742500  0.877100  1.0  1.7249
  Al  Al7  1  0.376100  0.358100  0.274300  1.0  1.6518
  Al  Al8  1  0.480800  0.242500  0.877100  1.0  1.7249
  Co  Co9  1  0.123900  0.141900  0.725700  1.0  1.0843
  Co  Co10  1  0.019200  0.257500  0.122900  1.0  1.0617
  Co  Co11  1  0.623900  0.641900  0.725700  1.0  1.0843
  Co  Co12  1  0.519200  0.757500  0.122900  1.0  1.0617
  Co  Co13  1  0.876100  0.141900  0.774300  1.0  1.0881
  Co  Co14  1  0.980800  0.257500  0.377100  1.0  1.0632
  Co  Co15  1  0.376100  0.641900  0.774300  1.0  1.0875
  Co  Co16  1  0.480800  0.757500  0.377100  1.0  1.0632
  Co  Co17  1  0.000000  0.446800  0.750000  1.0  1.075
  Co  Co18  1  0.500000  0.946800  0.750000  1.0  1.075
  Co  Co19  1  0.000000  0.553200  0.250000  1.0  1.0753
  Co  Co20  1  0.500000  0.053200  0.250000  1.0  1.0753
  P  P21  1  0.025400  0.262500  0.893300  1.0  1.8102
  P  P22  1  0.144300  0.629100  0.775000  1.0  1.7932
  P  P23  1  0.525400  0.762500  0.893300  1.0  1.8102
  P  P24  1  0.644300  0.129100  0.775000  1.0  1.7932
  P  P25  1  0.974600  0.262500  0.606700  1.0  1.7979
  P  P26  1  0.855700  0.629100  0.725000  1.0  1.7911
  P  P27  1  0.474600  0.762500  0.606700  1.0  1.7979
  P  P28  1  0.355700  0.129100  0.725000  1.0  1.7911
  P  P29  1  0.974600  0.737500  0.106700  1.0  1.7978
  P  P30  1  0.855700  0.370900  0.225000  1.0  1.8024
  P  P31  1  0.474600  0.237500  0.106700  1.0  1.7978
  P  P32  1  0.355700  0.870900  0.225000  1.0  1.8024
  P  P33  1  0.025400  0.737500  0.393300  1.0  1.81
  P  P34  1  0.144300  0.370900  0.275000  1.0  1.794
  P  P35  1  0.525400  0.237500  0.393300  1.0  1.81
  P  P36  1  0.644300  0.870900  0.275000  1.0  1.794
  P  P37  1  0.000000  0.940600  0.750000  1.0  1.8667
  P  P38  1  0.500000  0.440600  0.750000  1.0  1.8667
  P  P39  1  0.000000  0.059400  0.250000  1.0  1.8667
  P  P40  1  0.500000  0.559400  0.250000  1.0  1.8667
  O  O41  1  0.059700  0.263400  0.997900  1.0  -0.8539
  O  O42  1  0.993400  0.369100  0.868100  1.0  -0.7409
  O  O43  1  0.118500  0.522000  0.741200  1.0  -0.7496
  O  O44  1  0.083200  0.655000  0.859000  1.0  -0.7776
  O  O45  1  0.089200  0.002700  0.747600  1.0  -0.7818
  O  O46  1  0.126200  0.703600  0.696400  1.0  -0.7903
  O  O47  1  0.990900  0.878500  0.661300  1.0  -0.7759
  O  O48  1  0.106000  0.231100  0.830200  1.0  -0.7956
  O  O49  1  0.245100  0.634400  0.807300  1.0  -0.8107
  O  O50  1  0.943600  0.187900  0.883800  1.0  -0.7535
  O  O51  1  0.559700  0.763400  0.997900  1.0  -0.8539
  O  O52  1  0.493400  0.869100  0.868100  1.0  -0.7409
  O  O53  1  0.618500  0.022000  0.741200  1.0  -0.7496
  O  O54  1  0.583200  0.155000  0.859000  1.0  -0.7776
  O  O55  1  0.589200  0.502700  0.747600  1.0  -0.7818
  O  O56  1  0.626200  0.203600  0.696400  1.0  -0.7903
  O  O57  1  0.490900  0.378500  0.661300  1.0  -0.7759
  O  O58  1  0.606000  0.731100  0.830200  1.0  -0.7954
  O  O59  1  0.745100  0.134400  0.807300  1.0  -0.8107
  O  O60  1  0.443600  0.687900  0.883800  1.0  -0.7535
  O  O61  1  0.940300  0.263400  0.502100  1.0  -0.8507
  O  O62  1  0.006600  0.369100  0.631900  1.0  -0.7408
  O  O63  1  0.881500  0.522000  0.758800  1.0  -0.75
  O  O64  1  0.916800  0.655000  0.641000  1.0  -0.7764
  O  O65  1  0.910800  0.002700  0.752400  1.0  -0.7825
  O  O66  1  0.873800  0.703600  0.803600  1.0  -0.7903
  O  O67  1  0.009100  0.878500  0.838700  1.0  -0.7738
  O  O68  1  0.894000  0.231100  0.669800  1.0  -0.7944
  O  O69  1  0.754900  0.634400  0.692700  1.0  -0.8104
  O  O70  1  0.056400  0.187900  0.616200  1.0  -0.7556
  O  O71  1  0.440300  0.763400  0.502100  1.0  -0.8507
  O  O72  1  0.506600  0.869100  0.631900  1.0  -0.7408
  O  O73  1  0.381500  0.022000  0.758800  1.0  -0.75
  O  O74  1  0.416800  0.155000  0.641000  1.0  -0.7764
  O  O75  1  0.410800  0.502700  0.752400  1.0  -0.7824
  O  O76  1  0.373800  0.203600  0.803600  1.0  -0.7903
  O  O77  1  0.509100  0.378500  0.838700  1.0  -0.7738
  O  O78  1  0.394000  0.731100  0.669800  1.0  -0.7944
  O  O79  1  0.254900  0.134400  0.692700  1.0  -0.8104
  O  O80  1  0.556400  0.687900  0.616200  1.0  -0.7556
  O  O81  1  0.940300  0.736600  0.002100  1.0  -0.8665
  O  O82  1  0.006600  0.630900  0.131900  1.0  -0.7417
  O  O83  1  0.881500  0.478000  0.258800  1.0  -0.749
  O  O84  1  0.916800  0.345000  0.141000  1.0  -0.7759
  O  O85  1  0.910800  0.997300  0.252400  1.0  -0.7816
  O  O86  1  0.873800  0.296400  0.303600  1.0  -0.7904
  O  O87  1  0.009100  0.121500  0.338700  1.0  -0.7738
  O  O88  1  0.894000  0.768900  0.169800  1.0  -0.7939
  O  O89  1  0.754900  0.365600  0.192700  1.0  -0.8112
  O  O90  1  0.056400  0.812100  0.116200  1.0  -0.7543
  O  O91  1  0.440300  0.236600  0.002100  1.0  -0.8665
  O  O92  1  0.506600  0.130900  0.131900  1.0  -0.7417
  O  O93  1  0.381500  0.978000  0.258800  1.0  -0.749
  O  O94  1  0.416800  0.845000  0.141000  1.0  -0.7759
  O  O95  1  0.410800  0.497300  0.252400  1.0  -0.7816
  O  O96  1  0.373800  0.796400  0.303600  1.0  -0.7904
  O  O97  1  0.509100  0.621500  0.338700  1.0  -0.7738
  O  O98  1  0.394000  0.268900  0.169800  1.0  -0.794
  O  O99  1  0.254900  0.865600  0.192700  1.0  -0.8112
  O  O100  1  0.556400  0.312100  0.116200  1.0  -0.7543
  O  O101  1  0.059700  0.736600  0.497900  1.0  -0.8684
  O  O102  1  0.993400  0.630900  0.368100  1.0  -0.7415
  O  O103  1  0.118500  0.478000  0.241200  1.0  -0.7485
  O  O104  1  0.083200  0.345000  0.359000  1.0  -0.7768
  O  O105  1  0.089200  0.997300  0.247600  1.0  -0.7815
  O  O106  1  0.126200  0.296400  0.196400  1.0  -0.7901
  O  O107  1  0.990900  0.121500  0.161300  1.0  -0.7759
  O  O108  1  0.106000  0.768900  0.330200  1.0  -0.793
  O  O109  1  0.245100  0.365600  0.307300  1.0  -0.8118
  O  O110  1  0.943600  0.812100  0.383800  1.0  -0.7522
  O  O111  1  0.559700  0.236600  0.497900  1.0  -0.8684
  O  O112  1  0.493400  0.130900  0.368100  1.0  -0.7415
  O  O113  1  0.618500  0.978000  0.241200  1.0  -0.7485
  O  O114  1  0.583200  0.845000  0.359000  1.0  -0.7768
  O  O115  1  0.589200  0.497300  0.247600  1.0  -0.7817
  O  O116  1  0.626200  0.796400  0.196400  1.0  -0.7901
  O  O117  1  0.490900  0.621500  0.161300  1.0  -0.7759
  O  O118  1  0.606000  0.268900  0.330200  1.0  -0.793
  O  O119  1  0.745100  0.865600  0.307300  1.0  -0.8118
  O  O120  1  0.443600  0.312100  0.383800  1.0  -0.7522
