# generated using pymatgen
data_Al2Co3(PO4)5
_symmetry_space_group_name_H-M   'P 1'
_cell_length_a   13.82010000
_cell_length_b   13.18700000
_cell_length_c   13.85270000
_cell_angle_alpha   90.00000000
_cell_angle_beta   90.80400000
_cell_angle_gamma   90.00000000
_symmetry_Int_Tables_number   1
_chemical_formula_structural   Al2Co3(PO4)5
_chemical_formula_sum   'Al8 Co12 P20 O80'
_cell_volume   2524.34588194
_cell_formula_units_Z   4
loop_
 _symmetry_equiv_pos_site_id
 _symmetry_equiv_pos_as_xyz
  1  'x, y, z'
loop_
 _atom_site_type_symbol
 _atom_site_label
 _atom_site_symmetry_multiplicity
 _atom_site_fract_x
 _atom_site_fract_y
 _atom_site_fract_z
 _atom_site_occupancy
 _atom_site_charge
  Al  Al1  1  0.123900  0.859000  0.225400  1.0  1.6671
  Al  Al2  1  0.025000  0.740600  0.623600  1.0  1.7351
  Al  Al3  1  0.623900  0.359000  0.225400  1.0  1.6671
  Al  Al4  1  0.525000  0.240600  0.623600  1.0  1.7351
  Al  Al5  1  0.876100  0.859000  0.274600  1.0  1.662
  Al  Al6  1  0.975000  0.740600  0.876400  1.0  1.7372
  Al  Al7  1  0.376100  0.359000  0.274600  1.0  1.6643
  Al  Al8  1  0.475000  0.240600  0.876400  1.0  1.7372
  Co  Co9  1  0.123900  0.141000  0.725400  1.0  1.0333
  Co  Co10  1  0.025000  0.259400  0.123600  1.0  1.029
  Co  Co11  1  0.623900  0.641000  0.725400  1.0  1.0323
  Co  Co12  1  0.525000  0.759400  0.123600  1.0  1.029
  Co  Co13  1  0.876100  0.141000  0.774600  1.0  1.0347
  Co  Co14  1  0.975000  0.259400  0.376400  1.0  1.0307
  Co  Co15  1  0.376100  0.641000  0.774600  1.0  1.0347
  Co  Co16  1  0.475000  0.759400  0.376400  1.0  1.0307
  Co  Co17  1  0.000000  0.442200  0.750000  1.0  1.0739
  Co  Co18  1  0.500000  0.942200  0.750000  1.0  1.0739
  Co  Co19  1  0.000000  0.557800  0.250000  1.0  1.074
  Co  Co20  1  0.500000  0.057800  0.250000  1.0  1.074
  P  P21  1  0.029200  0.260700  0.894600  1.0  1.8671
  P  P22  1  0.144700  0.625100  0.780600  1.0  1.8825
  P  P23  1  0.529200  0.760700  0.894600  1.0  1.8671
  P  P24  1  0.644700  0.125100  0.780600  1.0  1.8825
  P  P25  1  0.970800  0.260700  0.605400  1.0  1.8676
  P  P26  1  0.855300  0.625100  0.719400  1.0  1.8785
  P  P27  1  0.470800  0.760700  0.605400  1.0  1.8676
  P  P28  1  0.355300  0.125100  0.719400  1.0  1.8785
  P  P29  1  0.970800  0.739300  0.105400  1.0  1.8676
  P  P30  1  0.855300  0.374900  0.219400  1.0  1.881
  P  P31  1  0.470800  0.239300  0.105400  1.0  1.8676
  P  P32  1  0.355300  0.874900  0.219400  1.0  1.881
  P  P33  1  0.029200  0.739300  0.394600  1.0  1.8671
  P  P34  1  0.144700  0.374900  0.280600  1.0  1.8823
  P  P35  1  0.529200  0.239300  0.394600  1.0  1.8671
  P  P36  1  0.644700  0.874900  0.280600  1.0  1.8823
  P  P37  1  0.000000  0.940600  0.750000  1.0  1.8411
  P  P38  1  0.500000  0.440600  0.750000  1.0  1.8411
  P  P39  1  0.000000  0.059400  0.250000  1.0  1.841
  P  P40  1  0.500000  0.559400  0.250000  1.0  1.841
  O  O41  1  0.068900  0.260300  0.998300  1.0  -0.8412
  O  O42  1  0.991100  0.365900  0.869600  1.0  -0.737
  O  O43  1  0.120400  0.517900  0.748000  1.0  -0.758
  O  O44  1  0.080000  0.654600  0.863500  1.0  -0.8193
  O  O45  1  0.089600  0.004800  0.757100  1.0  -0.797
  O  O46  1  0.133200  0.700300  0.698400  1.0  -0.7968
  O  O47  1  0.001600  0.875700  0.658700  1.0  -0.8306
  O  O48  1  0.113200  0.235000  0.828400  1.0  -0.7675
  O  O49  1  0.247900  0.627200  0.818900  1.0  -0.8169
  O  O50  1  0.948600  0.183100  0.885000  1.0  -0.7797
  O  O51  1  0.568900  0.760300  0.998300  1.0  -0.8412
  O  O52  1  0.491100  0.865900  0.869600  1.0  -0.737
  O  O53  1  0.620400  0.017900  0.748000  1.0  -0.758
  O  O54  1  0.580000  0.154600  0.863500  1.0  -0.8193
  O  O55  1  0.589600  0.504800  0.757100  1.0  -0.797
  O  O56  1  0.633200  0.200300  0.698400  1.0  -0.7968
  O  O57  1  0.501600  0.375700  0.658700  1.0  -0.8306
  O  O58  1  0.613200  0.735000  0.828400  1.0  -0.7675
  O  O59  1  0.747900  0.127200  0.818900  1.0  -0.8169
  O  O60  1  0.448600  0.683100  0.885000  1.0  -0.7797
  O  O61  1  0.931100  0.260300  0.501700  1.0  -0.8389
  O  O62  1  0.008900  0.365900  0.630400  1.0  -0.7382
  O  O63  1  0.879600  0.517900  0.752000  1.0  -0.7566
  O  O64  1  0.920000  0.654600  0.636500  1.0  -0.8189
  O  O65  1  0.910400  0.004800  0.742900  1.0  -0.797
  O  O66  1  0.866800  0.700300  0.801600  1.0  -0.796
  O  O67  1  0.998400  0.875700  0.841300  1.0  -0.8304
  O  O68  1  0.886800  0.235000  0.671600  1.0  -0.7683
  O  O69  1  0.752100  0.627200  0.681100  1.0  -0.8174
  O  O70  1  0.051400  0.183100  0.615000  1.0  -0.7815
  O  O71  1  0.431100  0.760300  0.501700  1.0  -0.8389
  O  O72  1  0.508900  0.865900  0.630400  1.0  -0.7382
  O  O73  1  0.379600  0.017900  0.752000  1.0  -0.7566
  O  O74  1  0.420000  0.154600  0.636500  1.0  -0.8189
  O  O75  1  0.410400  0.504800  0.742900  1.0  -0.797
  O  O76  1  0.366800  0.200300  0.801600  1.0  -0.796
  O  O77  1  0.498400  0.375700  0.841300  1.0  -0.8304
  O  O78  1  0.386800  0.735000  0.671600  1.0  -0.7683
  O  O79  1  0.252100  0.127200  0.681100  1.0  -0.8174
  O  O80  1  0.551400  0.683100  0.615000  1.0  -0.7815
  O  O81  1  0.931100  0.739700  0.001700  1.0  -0.8502
  O  O82  1  0.008900  0.634100  0.130400  1.0  -0.7383
  O  O83  1  0.879600  0.482100  0.252000  1.0  -0.7554
  O  O84  1  0.920000  0.345400  0.136500  1.0  -0.8145
  O  O85  1  0.910400  0.995200  0.242900  1.0  -0.7975
  O  O86  1  0.866800  0.299700  0.301600  1.0  -0.7934
  O  O87  1  0.998400  0.124300  0.341300  1.0  -0.8159
  O  O88  1  0.886800  0.765000  0.171600  1.0  -0.7673
  O  O89  1  0.752100  0.372800  0.181100  1.0  -0.8178
  O  O90  1  0.051400  0.816900  0.115000  1.0  -0.7819
  O  O91  1  0.431100  0.239700  0.001700  1.0  -0.8502
  O  O92  1  0.508900  0.134100  0.130400  1.0  -0.7383
  O  O93  1  0.379600  0.982100  0.252000  1.0  -0.7554
  O  O94  1  0.420000  0.845400  0.136500  1.0  -0.8145
  O  O95  1  0.410400  0.495200  0.242900  1.0  -0.7975
  O  O96  1  0.366800  0.799700  0.301600  1.0  -0.7934
  O  O97  1  0.498400  0.624300  0.341300  1.0  -0.8159
  O  O98  1  0.386800  0.265000  0.171600  1.0  -0.7673
  O  O99  1  0.252100  0.872800  0.181100  1.0  -0.8178
  O  O100  1  0.551400  0.316900  0.115000  1.0  -0.7819
  O  O101  1  0.068900  0.739700  0.498300  1.0  -0.8525
  O  O102  1  0.991100  0.634100  0.369600  1.0  -0.7368
  O  O103  1  0.120400  0.482100  0.248000  1.0  -0.7569
  O  O104  1  0.080000  0.345400  0.363500  1.0  -0.8151
  O  O105  1  0.089600  0.995200  0.257100  1.0  -0.7975
  O  O106  1  0.133200  0.299700  0.198400  1.0  -0.7952
  O  O107  1  0.001600  0.124300  0.158700  1.0  -0.816
  O  O108  1  0.113200  0.765000  0.328400  1.0  -0.7666
  O  O109  1  0.247900  0.372800  0.318900  1.0  -0.8171
  O  O110  1  0.948600  0.816900  0.385000  1.0  -0.7805
  O  O111  1  0.568900  0.239700  0.498300  1.0  -0.8525
  O  O112  1  0.491100  0.134100  0.369600  1.0  -0.7368
  O  O113  1  0.620400  0.982100  0.248000  1.0  -0.7569
  O  O114  1  0.580000  0.845400  0.363500  1.0  -0.8151
  O  O115  1  0.589600  0.495200  0.257100  1.0  -0.7975
  O  O116  1  0.633200  0.799700  0.198400  1.0  -0.7952
  O  O117  1  0.501600  0.624300  0.158700  1.0  -0.816
  O  O118  1  0.613200  0.265000  0.328400  1.0  -0.7666
  O  O119  1  0.747900  0.872800  0.318900  1.0  -0.8171
  O  O120  1  0.448600  0.316900  0.385000  1.0  -0.7805
