# generated using pymatgen
data_AlPO4
_symmetry_space_group_name_H-M   'P 1'
_cell_length_a   10.22330000
_cell_length_b   14.60520000
_cell_length_c   14.30410000
_cell_angle_alpha   90.00000000
_cell_angle_beta   90.16200000
_cell_angle_gamma   90.00000000
_symmetry_Int_Tables_number   1
_chemical_formula_structural   AlPO4
_chemical_formula_sum   'Al16 P16 O64'
_cell_volume   2135.78442612
_cell_formula_units_Z   16
loop_
 _symmetry_equiv_pos_site_id
 _symmetry_equiv_pos_as_xyz
  1  'x, y, z'
loop_
 _atom_site_type_symbol
 _atom_site_label
 _atom_site_symmetry_multiplicity
 _atom_site_fract_x
 _atom_site_fract_y
 _atom_site_fract_z
 _atom_site_occupancy
 _atom_site_charge
  Al  Al1  1  0.358200  0.386100  0.016300  1.0  1.7035
  Al  Al2  1  0.633800  0.230700  0.871100  1.0  1.7541
  Al  Al3  1  0.858200  0.886100  0.016300  1.0  1.7035
  Al  Al4  1  0.133800  0.730700  0.871100  1.0  1.7541
  Al  Al5  1  0.641800  0.386100  0.483700  1.0  1.7033
  Al  Al6  1  0.366200  0.230700  0.628900  1.0  1.753
  Al  Al7  1  0.141800  0.886100  0.483700  1.0  1.7033
  Al  Al8  1  0.866200  0.730700  0.628900  1.0  1.753
  Al  Al9  1  0.641800  0.613900  0.983700  1.0  1.7034
  Al  Al10  1  0.366200  0.769300  0.128900  1.0  1.7524
  Al  Al11  1  0.141800  0.113900  0.983700  1.0  1.7034
  Al  Al12  1  0.866200  0.269300  0.128900  1.0  1.7524
  Al  Al13  1  0.358200  0.613900  0.516300  1.0  1.7038
  Al  Al14  1  0.633800  0.769300  0.371100  1.0  1.7536
  Al  Al15  1  0.858200  0.113900  0.516300  1.0  1.7038
  Al  Al16  1  0.133800  0.269300  0.371100  1.0  1.7536
  P  P17  1  0.332600  0.235200  0.857400  1.0  1.8409
  P  P18  1  0.669500  0.397700  0.013000  1.0  1.8069
  P  P19  1  0.832600  0.735200  0.857400  1.0  1.8409
  P  P20  1  0.169500  0.897700  0.013000  1.0  1.8078
  P  P21  1  0.667400  0.235200  0.642600  1.0  1.8413
  P  P22  1  0.330500  0.397700  0.487000  1.0  1.8049
  P  P23  1  0.167400  0.735200  0.642600  1.0  1.8413
  P  P24  1  0.830500  0.897700  0.487000  1.0  1.8059
  P  P25  1  0.667400  0.764800  0.142600  1.0  1.8413
  P  P26  1  0.330500  0.602300  0.987000  1.0  1.8113
  P  P27  1  0.167400  0.264800  0.142600  1.0  1.8413
  P  P28  1  0.830500  0.102300  0.987000  1.0  1.8113
  P  P29  1  0.332600  0.764800  0.357400  1.0  1.841
  P  P30  1  0.669500  0.602300  0.513000  1.0  1.8134
  P  P31  1  0.832600  0.264800  0.357400  1.0  1.841
  P  P32  1  0.169500  0.102300  0.513000  1.0  1.8135
  O  O33  1  0.533400  0.391200  0.052100  1.0  -0.913
  O  O34  1  0.678000  0.345200  0.921900  1.0  -0.9099
  O  O35  1  0.462100  0.191400  0.886400  1.0  -0.8367
  O  O36  1  0.325900  0.251800  0.753800  1.0  -0.8633
  O  O37  1  0.316900  0.328600  0.903900  1.0  -0.9246
  O  O38  1  0.708600  0.496300  0.992100  1.0  -0.8451
  O  O39  1  0.221500  0.172700  0.883000  1.0  -0.8736
  O  O40  1  0.765300  0.361700  0.083800  1.0  -0.9398
  O  O41  1  0.033400  0.891200  0.052100  1.0  -0.913
  O  O42  1  0.178000  0.845200  0.921900  1.0  -0.9099
  O  O43  1  0.962100  0.691400  0.886400  1.0  -0.8367
  O  O44  1  0.825900  0.751800  0.753800  1.0  -0.8633
  O  O45  1  0.816900  0.828600  0.903900  1.0  -0.9242
  O  O46  1  0.208600  0.996300  0.992100  1.0  -0.8466
  O  O47  1  0.721500  0.672700  0.883000  1.0  -0.8733
  O  O48  1  0.265300  0.861700  0.083800  1.0  -0.9398
  O  O49  1  0.466600  0.391200  0.447900  1.0  -0.9111
  O  O50  1  0.322000  0.345200  0.578100  1.0  -0.9116
  O  O51  1  0.537900  0.191400  0.613600  1.0  -0.8368
  O  O52  1  0.674100  0.251800  0.746200  1.0  -0.8634
  O  O53  1  0.683100  0.328600  0.596100  1.0  -0.9245
  O  O54  1  0.291400  0.496300  0.507900  1.0  -0.8468
  O  O55  1  0.778500  0.172700  0.617000  1.0  -0.8736
  O  O56  1  0.234700  0.361700  0.416200  1.0  -0.939
  O  O57  1  0.966600  0.891200  0.447900  1.0  -0.9111
  O  O58  1  0.822000  0.845200  0.578100  1.0  -0.9116
  O  O59  1  0.037900  0.691400  0.613600  1.0  -0.8368
  O  O60  1  0.174100  0.751800  0.746200  1.0  -0.8634
  O  O61  1  0.183100  0.828600  0.596100  1.0  -0.9242
  O  O62  1  0.791400  0.996300  0.507900  1.0  -0.8481
  O  O63  1  0.278500  0.672700  0.617000  1.0  -0.8735
  O  O64  1  0.734700  0.861700  0.416200  1.0  -0.939
  O  O65  1  0.466600  0.608800  0.947900  1.0  -0.9111
  O  O66  1  0.322000  0.654800  0.078100  1.0  -0.9111
  O  O67  1  0.537900  0.808600  0.113600  1.0  -0.8392
  O  O68  1  0.674100  0.748200  0.246200  1.0  -0.8633
  O  O69  1  0.683100  0.671400  0.096100  1.0  -0.9241
  O  O70  1  0.291400  0.503700  0.007900  1.0  -0.8469
  O  O71  1  0.778500  0.827300  0.117000  1.0  -0.8738
  O  O72  1  0.234700  0.638300  0.916200  1.0  -0.9392
  O  O73  1  0.966600  0.108800  0.947900  1.0  -0.9111
  O  O74  1  0.822000  0.154800  0.078100  1.0  -0.9111
  O  O75  1  0.037900  0.308600  0.113600  1.0  -0.8392
  O  O76  1  0.174100  0.248200  0.246200  1.0  -0.8633
  O  O77  1  0.183100  0.171400  0.096100  1.0  -0.9241
  O  O78  1  0.791400  0.003700  0.007900  1.0  -0.8469
  O  O79  1  0.278500  0.327300  0.117000  1.0  -0.8737
  O  O80  1  0.734700  0.138300  0.916200  1.0  -0.9392
  O  O81  1  0.533400  0.608800  0.552100  1.0  -0.9131
  O  O82  1  0.678000  0.654800  0.421900  1.0  -0.909
  O  O83  1  0.462100  0.808600  0.386400  1.0  -0.8389
  O  O84  1  0.325900  0.748200  0.253800  1.0  -0.8632
  O  O85  1  0.316900  0.671400  0.403900  1.0  -0.9246
  O  O86  1  0.708600  0.503700  0.492100  1.0  -0.845
  O  O87  1  0.221500  0.827300  0.383000  1.0  -0.8747
  O  O88  1  0.765300  0.638300  0.583800  1.0  -0.9385
  O  O89  1  0.033400  0.108800  0.552100  1.0  -0.9131
  O  O90  1  0.178000  0.154800  0.421900  1.0  -0.909
  O  O91  1  0.962100  0.308600  0.386400  1.0  -0.8389
  O  O92  1  0.825900  0.248200  0.253800  1.0  -0.8632
  O  O93  1  0.816900  0.171400  0.403900  1.0  -0.9245
  O  O94  1  0.208600  0.003700  0.492100  1.0  -0.845
  O  O95  1  0.721500  0.327300  0.383000  1.0  -0.8746
  O  O96  1  0.265300  0.138300  0.583800  1.0  -0.9385
