# generated using pymatgen
data_AlPO4
_symmetry_space_group_name_H-M   'P 1'
_cell_length_a   10.24000000
_cell_length_b   10.24000000
_cell_length_c   9.65230000
_cell_angle_alpha   90.00000000
_cell_angle_beta   90.00000000
_cell_angle_gamma   90.00000000
_symmetry_Int_Tables_number   1
_chemical_formula_structural   AlPO4
_chemical_formula_sum   'Al8 P8 O32'
_cell_volume   1012.11701248
_cell_formula_units_Z   8
loop_
 _symmetry_equiv_pos_site_id
 _symmetry_equiv_pos_as_xyz
  1  'x, y, z'
loop_
 _atom_site_type_symbol
 _atom_site_label
 _atom_site_symmetry_multiplicity
 _atom_site_fract_x
 _atom_site_fract_y
 _atom_site_fract_z
 _atom_site_occupancy
 _atom_site_charge
  Al  Al1  1  0.633200  0.366800  0.131600  1.0  1.618
  Al  Al2  1  0.133200  0.866800  0.631600  1.0  1.618
  Al  Al3  1  0.366800  0.633200  0.131600  1.0  1.6182
  Al  Al4  1  0.866800  0.133200  0.631600  1.0  1.6182
  Al  Al5  1  0.366800  0.366800  0.868400  1.0  1.6169
  Al  Al6  1  0.866800  0.866800  0.368400  1.0  1.6169
  Al  Al7  1  0.633200  0.633200  0.868400  1.0  1.6161
  Al  Al8  1  0.133200  0.133200  0.368400  1.0  1.6161
  P  P9  1  0.664700  0.335300  0.809100  1.0  1.7366
  P  P10  1  0.164700  0.835300  0.309100  1.0  1.7366
  P  P11  1  0.335300  0.664700  0.809100  1.0  1.746
  P  P12  1  0.835300  0.164700  0.309100  1.0  1.746
  P  P13  1  0.335300  0.335300  0.190900  1.0  1.7292
  P  P14  1  0.835300  0.835300  0.690900  1.0  1.7292
  P  P15  1  0.664700  0.664700  0.190900  1.0  1.7355
  P  P16  1  0.164700  0.164700  0.690900  1.0  1.7355
  O  O17  1  0.696500  0.481800  0.781900  1.0  -0.8319
  O  O18  1  0.196500  0.981800  0.281900  1.0  -0.8321
  O  O19  1  0.303500  0.518200  0.781900  1.0  -0.8332
  O  O20  1  0.803500  0.018200  0.281900  1.0  -0.8334
  O  O21  1  0.481800  0.303500  0.218100  1.0  -0.8322
  O  O22  1  0.981800  0.803500  0.718100  1.0  -0.8322
  O  O23  1  0.518200  0.696500  0.218100  1.0  -0.8341
  O  O24  1  0.018200  0.196500  0.718100  1.0  -0.8341
  O  O25  1  0.303500  0.481800  0.218100  1.0  -0.8332
  O  O26  1  0.803500  0.981800  0.718100  1.0  -0.8332
  O  O27  1  0.696500  0.518200  0.218100  1.0  -0.8321
  O  O28  1  0.196500  0.018200  0.718100  1.0  -0.8324
  O  O29  1  0.518200  0.303500  0.781900  1.0  -0.8338
  O  O30  1  0.018200  0.803500  0.281900  1.0  -0.8338
  O  O31  1  0.481800  0.696500  0.781900  1.0  -0.8328
  O  O32  1  0.981800  0.196500  0.281900  1.0  -0.8326
  O  O33  1  0.699900  0.300100  0.955500  1.0  -0.8004
  O  O34  1  0.741300  0.258700  0.704600  1.0  -0.888
  O  O35  1  0.199900  0.800100  0.455500  1.0  -0.8004
  O  O36  1  0.241300  0.758700  0.204600  1.0  -0.888
  O  O37  1  0.300100  0.699900  0.955500  1.0  -0.8
  O  O38  1  0.258700  0.741300  0.704600  1.0  -0.8882
  O  O39  1  0.800100  0.199900  0.455500  1.0  -0.8
  O  O40  1  0.758700  0.241300  0.204600  1.0  -0.8882
  O  O41  1  0.300100  0.300100  0.044500  1.0  -0.8004
  O  O42  1  0.258700  0.258700  0.295400  1.0  -0.888
  O  O43  1  0.800100  0.800100  0.544500  1.0  -0.8004
  O  O44  1  0.758700  0.758700  0.795400  1.0  -0.888
  O  O45  1  0.699900  0.699900  0.044500  1.0  -0.8006
  O  O46  1  0.741300  0.741300  0.295400  1.0  -0.8874
  O  O47  1  0.199900  0.199900  0.544500  1.0  -0.8006
  O  O48  1  0.241300  0.241300  0.795400  1.0  -0.8874
