# generated using pymatgen
data_GaCo4(PO4)5
_symmetry_space_group_name_H-M   'P 1'
_cell_length_a   13.80780000
_cell_length_b   13.24900000
_cell_length_c   13.84200000
_cell_angle_alpha   90.00000000
_cell_angle_beta   91.32800000
_cell_angle_gamma   90.00000000
_symmetry_Int_Tables_number   1
_chemical_formula_structural   GaCo4(PO4)5
_chemical_formula_sum   'Ga4 Co16 P20 O80'
_cell_volume   2531.56898816
_cell_formula_units_Z   4
loop_
 _symmetry_equiv_pos_site_id
 _symmetry_equiv_pos_as_xyz
  1  'x, y, z'
loop_
 _atom_site_type_symbol
 _atom_site_label
 _atom_site_symmetry_multiplicity
 _atom_site_fract_x
 _atom_site_fract_y
 _atom_site_fract_z
 _atom_site_occupancy
 _atom_site_charge
  Ga  Ga1  1  0.123300  0.860700  0.224300  1.0  1.5881
  Ga  Ga2  1  0.623300  0.360700  0.224300  1.0  1.5881
  Ga  Ga3  1  0.876700  0.860700  0.275700  1.0  1.5901
  Ga  Ga4  1  0.376700  0.360700  0.275700  1.0  1.5901
  Co  Co5  1  0.026400  0.739100  0.622800  1.0  1.0979
  Co  Co6  1  0.876700  0.139300  0.775700  1.0  1.0967
  Co  Co7  1  0.526400  0.239100  0.622800  1.0  1.0979
  Co  Co8  1  0.376700  0.639300  0.775700  1.0  1.0967
  Co  Co9  1  0.973600  0.739100  0.877200  1.0  1.0989
  Co  Co10  1  0.123300  0.139300  0.724300  1.0  1.0941
  Co  Co11  1  0.473600  0.239100  0.877200  1.0  1.0989
  Co  Co12  1  0.623300  0.639300  0.724300  1.0  1.0941
  Co  Co13  1  0.973600  0.260900  0.377200  1.0  1.0982
  Co  Co14  1  0.473600  0.760900  0.377200  1.0  1.0982
  Co  Co15  1  0.026400  0.260900  0.122800  1.0  1.0945
  Co  Co16  1  0.526400  0.760900  0.122800  1.0  1.0945
  Co  Co17  1  0.000000  0.441200  0.750000  1.0  1.1148
  Co  Co18  1  0.500000  0.941200  0.750000  1.0  1.1148
  Co  Co19  1  0.000000  0.558800  0.250000  1.0  1.1148
  Co  Co20  1  0.500000  0.058800  0.250000  1.0  1.1148
  P  P21  1  0.968200  0.260900  0.606000  1.0  1.8145
  P  P22  1  0.855800  0.622700  0.715900  1.0  1.8959
  P  P23  1  0.468200  0.760900  0.606000  1.0  1.8145
  P  P24  1  0.355800  0.122700  0.715900  1.0  1.8962
  P  P25  1  0.031800  0.260900  0.894000  1.0  1.8141
  P  P26  1  0.144200  0.622700  0.784100  1.0  1.9026
  P  P27  1  0.531800  0.760900  0.894000  1.0  1.8141
  P  P28  1  0.644200  0.122700  0.784100  1.0  1.9026
  P  P29  1  0.031800  0.739100  0.394000  1.0  1.8144
  P  P30  1  0.144200  0.377300  0.284100  1.0  1.9025
  P  P31  1  0.531800  0.239100  0.394000  1.0  1.8144
  P  P32  1  0.644200  0.877300  0.284100  1.0  1.9025
  P  P33  1  0.968200  0.739100  0.106000  1.0  1.8145
  P  P34  1  0.855800  0.377300  0.215900  1.0  1.8961
  P  P35  1  0.468200  0.239100  0.106000  1.0  1.8145
  P  P36  1  0.355800  0.877300  0.215900  1.0  1.8961
  P  P37  1  0.000000  0.937900  0.750000  1.0  1.7814
  P  P38  1  0.500000  0.437900  0.750000  1.0  1.7814
  P  P39  1  0.000000  0.062100  0.250000  1.0  1.7813
  P  P40  1  0.500000  0.562100  0.250000  1.0  1.7813
  O  O41  1  0.925700  0.264100  0.502800  1.0  -0.792
  O  O42  1  0.008100  0.365900  0.633000  1.0  -0.7241
  O  O43  1  0.881900  0.517100  0.751000  1.0  -0.7409
  O  O44  1  0.921000  0.650000  0.633800  1.0  -0.7734
  O  O45  1  0.909900  0.001300  0.744400  1.0  -0.7627
  O  O46  1  0.866500  0.699700  0.797000  1.0  -0.7539
  O  O47  1  0.003000  0.873100  0.841800  1.0  -0.7884
  O  O48  1  0.884100  0.236000  0.672600  1.0  -0.7426
  O  O49  1  0.752100  0.621900  0.676600  1.0  -0.7611
  O  O50  1  0.047700  0.182400  0.612000  1.0  -0.762
  O  O51  1  0.425700  0.764100  0.502800  1.0  -0.792
  O  O52  1  0.508100  0.865900  0.633000  1.0  -0.7241
  O  O53  1  0.381900  0.017100  0.751000  1.0  -0.7409
  O  O54  1  0.421000  0.150000  0.633800  1.0  -0.7734
  O  O55  1  0.409900  0.501300  0.744400  1.0  -0.7627
  O  O56  1  0.366500  0.199700  0.797000  1.0  -0.7539
  O  O57  1  0.503000  0.373100  0.841800  1.0  -0.7884
  O  O58  1  0.384100  0.736000  0.672600  1.0  -0.7426
  O  O59  1  0.252100  0.121900  0.676600  1.0  -0.7611
  O  O60  1  0.547700  0.682400  0.612000  1.0  -0.762
  O  O61  1  0.074300  0.264100  0.997200  1.0  -0.793
  O  O62  1  0.991900  0.365900  0.867000  1.0  -0.7251
  O  O63  1  0.118100  0.517100  0.749000  1.0  -0.7433
  O  O64  1  0.079000  0.650000  0.866200  1.0  -0.7719
  O  O65  1  0.090100  0.001300  0.755600  1.0  -0.7626
  O  O66  1  0.133500  0.699700  0.703000  1.0  -0.7536
  O  O67  1  0.997000  0.873100  0.658200  1.0  -0.7888
  O  O68  1  0.115900  0.236000  0.827400  1.0  -0.7427
  O  O69  1  0.247900  0.621900  0.823400  1.0  -0.7595
  O  O70  1  0.952300  0.182400  0.888000  1.0  -0.7621
  O  O71  1  0.574300  0.764100  0.997200  1.0  -0.793
  O  O72  1  0.491900  0.865900  0.867000  1.0  -0.7251
  O  O73  1  0.618100  0.017100  0.749000  1.0  -0.7433
  O  O74  1  0.579000  0.150000  0.866200  1.0  -0.7719
  O  O75  1  0.590100  0.501300  0.755600  1.0  -0.7626
  O  O76  1  0.633500  0.199700  0.703000  1.0  -0.7536
  O  O77  1  0.497000  0.373100  0.658200  1.0  -0.7888
  O  O78  1  0.615900  0.736000  0.827400  1.0  -0.7427
  O  O79  1  0.747900  0.121900  0.823400  1.0  -0.7595
  O  O80  1  0.452300  0.682400  0.888000  1.0  -0.7621
  O  O81  1  0.074300  0.735900  0.497200  1.0  -0.7931
  O  O82  1  0.991900  0.634100  0.367000  1.0  -0.7255
  O  O83  1  0.118100  0.482900  0.249000  1.0  -0.7416
  O  O84  1  0.079000  0.350000  0.366200  1.0  -0.7722
  O  O85  1  0.090100  0.998700  0.255600  1.0  -0.7623
  O  O86  1  0.133500  0.300300  0.203000  1.0  -0.754
  O  O87  1  0.997000  0.126900  0.158200  1.0  -0.7884
  O  O88  1  0.115900  0.764000  0.327400  1.0  -0.743
  O  O89  1  0.247900  0.378100  0.323400  1.0  -0.7591
  O  O90  1  0.952300  0.817600  0.388000  1.0  -0.7626
  O  O91  1  0.574300  0.235900  0.497200  1.0  -0.7931
  O  O92  1  0.491900  0.134100  0.367000  1.0  -0.7255
  O  O93  1  0.618100  0.982900  0.249000  1.0  -0.7416
  O  O94  1  0.579000  0.850000  0.366200  1.0  -0.7722
  O  O95  1  0.590100  0.498700  0.255600  1.0  -0.7623
  O  O96  1  0.633500  0.800300  0.203000  1.0  -0.754
  O  O97  1  0.497000  0.626900  0.158200  1.0  -0.7884
  O  O98  1  0.615900  0.264000  0.327400  1.0  -0.743
  O  O99  1  0.747900  0.878100  0.323400  1.0  -0.7591
  O  O100  1  0.452300  0.317600  0.388000  1.0  -0.7626
  O  O101  1  0.925700  0.735900  0.002800  1.0  -0.7918
  O  O102  1  0.008100  0.634100  0.133000  1.0  -0.7251
  O  O103  1  0.881900  0.482900  0.251000  1.0  -0.7398
  O  O104  1  0.921000  0.350000  0.133800  1.0  -0.7732
  O  O105  1  0.909900  0.998700  0.244400  1.0  -0.7625
  O  O106  1  0.866500  0.300300  0.297000  1.0  -0.7538
  O  O107  1  0.003000  0.126900  0.341800  1.0  -0.7882
  O  O108  1  0.884100  0.764000  0.172600  1.0  -0.7428
  O  O109  1  0.752100  0.378100  0.176600  1.0  -0.7609
  O  O110  1  0.047700  0.817600  0.112000  1.0  -0.7621
  O  O111  1  0.425700  0.235900  0.002800  1.0  -0.7918
  O  O112  1  0.508100  0.134100  0.133000  1.0  -0.7251
  O  O113  1  0.381900  0.982900  0.251000  1.0  -0.7398
  O  O114  1  0.421000  0.850000  0.133800  1.0  -0.7732
  O  O115  1  0.409900  0.498700  0.244400  1.0  -0.7625
  O  O116  1  0.366500  0.800300  0.297000  1.0  -0.7538
  O  O117  1  0.503000  0.626900  0.341800  1.0  -0.7882
  O  O118  1  0.384100  0.264000  0.172600  1.0  -0.7428
  O  O119  1  0.252100  0.878100  0.176600  1.0  -0.7609
  O  O120  1  0.547700  0.317600  0.112000  1.0  -0.7621
