# generated using pymatgen
data_Ga2Co4(PO4)5
_symmetry_space_group_name_H-M   'P 1'
_cell_length_a   12.92280000
_cell_length_b   14.22620000
_cell_length_c   14.19780000
_cell_angle_alpha   90.00000000
_cell_angle_beta   92.79500000
_cell_angle_gamma   90.00000000
_symmetry_Int_Tables_number   1
_chemical_formula_structural   Ga2Co4(PO4)5
_chemical_formula_sum   'Ga8 Co16 P20 O80'
_cell_volume   2607.05168574
_cell_formula_units_Z   4
loop_
 _symmetry_equiv_pos_site_id
 _symmetry_equiv_pos_as_xyz
  1  'x, y, z'
loop_
 _atom_site_type_symbol
 _atom_site_label
 _atom_site_symmetry_multiplicity
 _atom_site_fract_x
 _atom_site_fract_y
 _atom_site_fract_z
 _atom_site_occupancy
 _atom_site_charge
  Ga  Ga1  1  0.805900  0.258800  0.726300  1.0  1.6137
  Ga  Ga2  1  0.108900  0.266500  0.603300  1.0  1.3073
  Ga  Ga3  1  0.694100  0.758800  0.773700  1.0  1.6151
  Ga  Ga4  1  0.391100  0.766500  0.896700  1.0  1.3009
  Ga  Ga5  1  0.194100  0.741200  0.273700  1.0  1.6145
  Ga  Ga6  1  0.891100  0.733500  0.396700  1.0  1.3041
  Ga  Ga7  1  0.305900  0.241200  0.226300  1.0  1.6131
  Ga  Ga8  1  0.608900  0.233500  0.103300  1.0  1.3063
  Co  Co9  1  0.092500  0.237600  0.871700  1.0  1.0575
  Co  Co10  1  0.505200  0.373700  0.771500  1.0  1.0685
  Co  Co11  1  0.513100  0.125600  0.757600  1.0  1.0627
  Co  Co12  1  0.120700  0.256800  0.616000  1.0  0.72
  Co  Co13  1  0.407500  0.737600  0.628300  1.0  1.0596
  Co  Co14  1  0.994800  0.873700  0.728500  1.0  1.0647
  Co  Co15  1  0.986900  0.625600  0.742400  1.0  1.0619
  Co  Co16  1  0.379300  0.756800  0.884000  1.0  0.7288
  Co  Co17  1  0.907500  0.762400  0.128300  1.0  1.06
  Co  Co18  1  0.494800  0.626300  0.228500  1.0  1.064
  Co  Co19  1  0.486900  0.874400  0.242400  1.0  1.062
  Co  Co20  1  0.879300  0.743200  0.384000  1.0  0.7261
  Co  Co21  1  0.592500  0.262400  0.371700  1.0  1.058
  Co  Co22  1  0.005200  0.126300  0.271500  1.0  1.068
  Co  Co23  1  0.013100  0.374400  0.257600  1.0  1.0625
  Co  Co24  1  0.620700  0.243200  0.116000  1.0  0.7168
  P  P25  1  0.098300  0.234700  0.103500  1.0  1.7587
  P  P26  1  0.987500  0.106700  0.713600  1.0  1.9202
  P  P27  1  0.990100  0.393600  0.744600  1.0  1.9327
  P  P28  1  0.153300  0.252800  0.392200  1.0  1.8735
  P  P29  1  0.306100  0.246200  0.775300  1.0  1.8994
  P  P30  1  0.401700  0.734700  0.396500  1.0  1.7585
  P  P31  1  0.512500  0.606700  0.786400  1.0  1.9209
  P  P32  1  0.509900  0.893600  0.755400  1.0  1.9325
  P  P33  1  0.346700  0.752800  0.107800  1.0  1.8731
  P  P34  1  0.193900  0.746200  0.724700  1.0  1.8989
  P  P35  1  0.901700  0.765300  0.896500  1.0  1.7449
  P  P36  1  0.012500  0.893300  0.286400  1.0  1.9227
  P  P37  1  0.009900  0.606400  0.255400  1.0  1.9299
  P  P38  1  0.846700  0.747200  0.607800  1.0  1.8728
  P  P39  1  0.693900  0.753800  0.224700  1.0  1.8989
  P  P40  1  0.598300  0.265300  0.603500  1.0  1.7453
  P  P41  1  0.487500  0.393300  0.213600  1.0  1.922
  P  P42  1  0.490100  0.106400  0.244600  1.0  1.9301
  P  P43  1  0.653300  0.247200  0.892200  1.0  1.8736
  P  P44  1  0.806100  0.253800  0.275300  1.0  1.8994
  O  O45  1  0.080200  0.145600  0.160600  1.0  -0.7791
  O  O46  1  0.062700  0.126800  0.797700  1.0  -0.7877
  O  O47  1  0.060600  0.187000  0.382500  1.0  -0.7997
  O  O48  1  0.887900  0.367400  0.691700  1.0  -0.7703
  O  O49  1  0.236300  0.259300  0.858700  1.0  -0.7725
  O  O50  1  0.081200  0.370100  0.685500  1.0  -0.8823
  O  O51  1  0.998300  0.337000  0.836900  1.0  -0.7888
  O  O52  1  0.021500  0.156000  0.624700  1.0  -0.883
  O  O53  1  0.212100  0.260400  0.116100  1.0  -0.7717
  O  O54  1  0.383500  0.168800  0.804500  1.0  -0.7784
  O  O55  1  0.878100  0.138300  0.733200  1.0  -0.7813
  O  O56  1  0.125400  0.348000  0.347100  1.0  -0.7799
  O  O57  1  0.245900  0.211400  0.342900  1.0  -0.7768
  O  O58  1  0.067500  0.215500  0.000900  1.0  -0.8502
  O  O59  1  0.361700  0.339500  0.762100  1.0  -0.766
  O  O60  1  0.245500  0.218300  0.686000  1.0  -0.8612
  O  O61  1  0.029800  0.313500  0.138000  1.0  -0.7952
  O  O62  1  0.186500  0.264900  0.495600  1.0  -0.8447
  O  O63  1  0.984300  0.002300  0.693900  1.0  -0.8814
  O  O64  1  0.991300  0.495900  0.770900  1.0  -0.857
  O  O65  1  0.419800  0.645600  0.339400  1.0  -0.7796
  O  O66  1  0.437300  0.626800  0.702300  1.0  -0.7879
  O  O67  1  0.439400  0.687000  0.117500  1.0  -0.8018
  O  O68  1  0.612100  0.867400  0.808300  1.0  -0.7702
  O  O69  1  0.263700  0.759300  0.641300  1.0  -0.7726
  O  O70  1  0.418800  0.870100  0.814500  1.0  -0.8832
  O  O71  1  0.501700  0.837000  0.663100  1.0  -0.7888
  O  O72  1  0.478500  0.656000  0.875300  1.0  -0.881
  O  O73  1  0.287900  0.760400  0.383900  1.0  -0.7713
  O  O74  1  0.116500  0.668800  0.695500  1.0  -0.7783
  O  O75  1  0.621900  0.638300  0.766800  1.0  -0.7811
  O  O76  1  0.374600  0.848000  0.152900  1.0  -0.7812
  O  O77  1  0.254100  0.711400  0.157100  1.0  -0.7765
  O  O78  1  0.432500  0.715500  0.499100  1.0  -0.8478
  O  O79  1  0.138300  0.839500  0.737900  1.0  -0.7659
  O  O80  1  0.254500  0.718300  0.814000  1.0  -0.8615
  O  O81  1  0.470200  0.813500  0.362000  1.0  -0.7942
  O  O82  1  0.313500  0.764900  0.004400  1.0  -0.8435
  O  O83  1  0.515700  0.502300  0.806100  1.0  -0.8808
  O  O84  1  0.508700  0.995900  0.729100  1.0  -0.8561
  O  O85  1  0.919800  0.854400  0.839400  1.0  -0.7785
  O  O86  1  0.937300  0.873200  0.202300  1.0  -0.7893
  O  O87  1  0.939400  0.813000  0.617500  1.0  -0.8
  O  O88  1  0.112100  0.632600  0.308300  1.0  -0.7703
  O  O89  1  0.763700  0.740700  0.141300  1.0  -0.7731
  O  O90  1  0.918800  0.629900  0.314500  1.0  -0.8818
  O  O91  1  0.001700  0.663000  0.163100  1.0  -0.788
  O  O92  1  0.978500  0.844000  0.375300  1.0  -0.8825
  O  O93  1  0.787900  0.739600  0.883900  1.0  -0.7713
  O  O94  1  0.616500  0.831200  0.195500  1.0  -0.7778
  O  O95  1  0.121900  0.861700  0.266800  1.0  -0.7808
  O  O96  1  0.874600  0.652000  0.652900  1.0  -0.7833
  O  O97  1  0.754100  0.788600  0.657100  1.0  -0.7766
  O  O98  1  0.932500  0.784500  0.999100  1.0  -0.8478
  O  O99  1  0.638300  0.660500  0.237900  1.0  -0.767
  O  O100  1  0.754500  0.781700  0.314000  1.0  -0.8621
  O  O101  1  0.970200  0.686500  0.862000  1.0  -0.7941
  O  O102  1  0.813500  0.735100  0.504400  1.0  -0.843
  O  O103  1  0.015700  0.997700  0.306100  1.0  -0.8806
  O  O104  1  0.008700  0.504100  0.229100  1.0  -0.8564
  O  O105  1  0.580200  0.354400  0.660600  1.0  -0.7786
  O  O106  1  0.562700  0.373200  0.297700  1.0  -0.7881
  O  O107  1  0.560600  0.313000  0.882500  1.0  -0.7994
  O  O108  1  0.387900  0.132600  0.191700  1.0  -0.7703
  O  O109  1  0.736300  0.240700  0.358700  1.0  -0.7733
  O  O110  1  0.581200  0.129900  0.185500  1.0  -0.8817
  O  O111  1  0.498300  0.163000  0.336900  1.0  -0.7879
  O  O112  1  0.521500  0.344000  0.124700  1.0  -0.8841
  O  O113  1  0.712100  0.239600  0.616100  1.0  -0.7719
  O  O114  1  0.883500  0.331200  0.304500  1.0  -0.7779
  O  O115  1  0.378100  0.361700  0.233200  1.0  -0.7815
  O  O116  1  0.625400  0.152000  0.847100  1.0  -0.7822
  O  O117  1  0.745900  0.288600  0.842900  1.0  -0.7761
  O  O118  1  0.567500  0.284500  0.500900  1.0  -0.8497
  O  O119  1  0.861700  0.160500  0.262100  1.0  -0.7668
  O  O120  1  0.745500  0.281700  0.186000  1.0  -0.8616
  O  O121  1  0.529800  0.186500  0.638000  1.0  -0.7951
  O  O122  1  0.686500  0.235100  0.995600  1.0  -0.8443
  O  O123  1  0.484300  0.497700  0.193900  1.0  -0.8824
  O  O124  1  0.491300  0.004100  0.270900  1.0  -0.8565
