# generated using pymatgen
data_GaCo3P4O17
_symmetry_space_group_name_H-M   'P 1'
_cell_length_a   8.90910000
_cell_length_b   14.97480000
_cell_length_c   14.78910000
_cell_angle_alpha   90.00000000
_cell_angle_beta   90.00000000
_cell_angle_gamma   90.00000000
_symmetry_Int_Tables_number   1
_chemical_formula_structural   GaCo3P4O17
_chemical_formula_sum   'Ga4 Co12 P16 O68'
_cell_volume   1973.04327137
_cell_formula_units_Z   4
loop_
 _symmetry_equiv_pos_site_id
 _symmetry_equiv_pos_as_xyz
  1  'x, y, z'
loop_
 _atom_site_type_symbol
 _atom_site_label
 _atom_site_symmetry_multiplicity
 _atom_site_fract_x
 _atom_site_fract_y
 _atom_site_fract_z
 _atom_site_occupancy
 _atom_site_charge
  Ga  Ga1  1  0.077500  0.130200  0.250000  1.0  1.613
  Ga  Ga2  1  0.922500  0.869800  0.750000  1.0  1.6125
  Ga  Ga3  1  0.922500  0.630200  0.250000  1.0  1.6125
  Ga  Ga4  1  0.077500  0.369800  0.750000  1.0  1.6129
  Co  Co5  1  0.155600  0.844700  0.382100  1.0  1.1352
  Co  Co6  1  0.844400  0.155300  0.882100  1.0  1.1378
  Co  Co7  1  0.844400  0.344700  0.117900  1.0  1.14
  Co  Co8  1  0.155600  0.655300  0.617900  1.0  1.1366
  Co  Co9  1  0.844400  0.155300  0.617900  1.0  1.1397
  Co  Co10  1  0.155600  0.844700  0.117900  1.0  1.1371
  Co  Co11  1  0.155600  0.655300  0.882100  1.0  1.1349
  Co  Co12  1  0.844400  0.344700  0.382100  1.0  1.138
  Co  Co13  1  0.669500  0.006700  0.250000  1.0  0.9674
  Co  Co14  1  0.330500  0.993300  0.750000  1.0  0.9667
  Co  Co15  1  0.330500  0.506700  0.250000  1.0  0.9669
  Co  Co16  1  0.669500  0.493300  0.750000  1.0  0.9664
  P  P17  1  0.826800  0.134000  0.102100  1.0  1.789
  P  P18  1  0.173200  0.866000  0.602100  1.0  1.7914
  P  P19  1  0.173200  0.634000  0.397900  1.0  1.8252
  P  P20  1  0.826800  0.366000  0.897900  1.0  1.7785
  P  P21  1  0.173200  0.866000  0.897900  1.0  1.795
  P  P22  1  0.826800  0.134000  0.397900  1.0  1.794
  P  P23  1  0.826800  0.366000  0.602100  1.0  1.765
  P  P24  1  0.173200  0.634000  0.102100  1.0  1.8243
  P  P25  1  0.311300  0.975900  0.250000  1.0  1.5908
  P  P26  1  0.136300  0.330600  0.250000  1.0  1.8728
  P  P27  1  0.688700  0.024100  0.750000  1.0  1.5999
  P  P28  1  0.863700  0.669400  0.750000  1.0  1.8271
  P  P29  1  0.688700  0.475900  0.250000  1.0  1.6006
  P  P30  1  0.863700  0.830600  0.250000  1.0  1.8335
  P  P31  1  0.311300  0.524100  0.750000  1.0  1.59
  P  P32  1  0.136300  0.169400  0.750000  1.0  1.8716
  O  O33  1  0.756500  0.226400  0.120700  1.0  -0.7175
  O  O34  1  0.045500  0.350900  0.163100  1.0  -0.8127
  O  O35  1  0.730300  0.063800  0.135300  1.0  -0.6623
  O  O36  1  0.851400  0.115200  0.004700  1.0  -0.8185
  O  O37  1  0.976700  0.139200  0.128800  1.0  -0.6029
  O  O38  1  0.317500  0.905100  0.314600  1.0  -0.6169
  O  O39  1  0.193000  0.029600  0.202000  1.0  -0.5518
  O  O40  1  0.243500  0.773600  0.620700  1.0  -0.7186
  O  O41  1  0.954500  0.649100  0.663100  1.0  -0.8144
  O  O42  1  0.269700  0.936200  0.635300  1.0  -0.6623
  O  O43  1  0.148600  0.884800  0.504700  1.0  -0.8212
  O  O44  1  0.023300  0.860800  0.628800  1.0  -0.6034
  O  O45  1  0.682500  0.094900  0.814600  1.0  -0.6181
  O  O46  1  0.807000  0.970400  0.702000  1.0  -0.5531
  O  O47  1  0.243500  0.726400  0.379300  1.0  -0.7184
  O  O48  1  0.954500  0.850900  0.336900  1.0  -0.8144
  O  O49  1  0.269700  0.563800  0.364700  1.0  -0.6635
  O  O50  1  0.148600  0.615200  0.495300  1.0  -0.8174
  O  O51  1  0.023300  0.639200  0.371200  1.0  -0.6032
  O  O52  1  0.682500  0.405100  0.185400  1.0  -0.617
  O  O53  1  0.807000  0.529600  0.298000  1.0  -0.5528
  O  O54  1  0.756500  0.273600  0.879300  1.0  -0.7182
  O  O55  1  0.045500  0.149100  0.836900  1.0  -0.8131
  O  O56  1  0.730300  0.436200  0.864700  1.0  -0.6623
  O  O57  1  0.851400  0.384800  0.995300  1.0  -0.8213
  O  O58  1  0.976700  0.360800  0.871200  1.0  -0.6029
  O  O59  1  0.317500  0.594900  0.685400  1.0  -0.6173
  O  O60  1  0.193000  0.470400  0.798000  1.0  -0.5509
  O  O61  1  0.243500  0.773600  0.879300  1.0  -0.7187
  O  O62  1  0.954500  0.649100  0.836900  1.0  -0.8149
  O  O63  1  0.269700  0.936200  0.864700  1.0  -0.6631
  O  O64  1  0.148600  0.884800  0.995300  1.0  -0.8213
  O  O65  1  0.023300  0.860800  0.871200  1.0  -0.6033
  O  O66  1  0.682500  0.094900  0.685400  1.0  -0.6171
  O  O67  1  0.807000  0.970400  0.798000  1.0  -0.5515
  O  O68  1  0.756500  0.226400  0.379300  1.0  -0.718
  O  O69  1  0.045500  0.350900  0.336900  1.0  -0.8136
  O  O70  1  0.730300  0.063800  0.364700  1.0  -0.6628
  O  O71  1  0.851400  0.115200  0.495300  1.0  -0.818
  O  O72  1  0.976700  0.139200  0.371200  1.0  -0.6028
  O  O73  1  0.317500  0.905100  0.185400  1.0  -0.6169
  O  O74  1  0.193000  0.029600  0.298000  1.0  -0.5518
  O  O75  1  0.756500  0.273600  0.620700  1.0  -0.7177
  O  O76  1  0.045500  0.149100  0.663100  1.0  -0.8129
  O  O77  1  0.730300  0.436200  0.635300  1.0  -0.6621
  O  O78  1  0.851400  0.384800  0.504700  1.0  -0.8211
  O  O79  1  0.976700  0.360800  0.628800  1.0  -0.603
  O  O80  1  0.317500  0.594900  0.814600  1.0  -0.6173
  O  O81  1  0.193000  0.470400  0.702000  1.0  -0.5526
  O  O82  1  0.243500  0.726400  0.120700  1.0  -0.7183
  O  O83  1  0.954500  0.850900  0.163100  1.0  -0.8127
  O  O84  1  0.269700  0.563800  0.135300  1.0  -0.6626
  O  O85  1  0.148600  0.615200  0.004700  1.0  -0.818
  O  O86  1  0.023300  0.639200  0.128800  1.0  -0.6034
  O  O87  1  0.682500  0.405100  0.314600  1.0  -0.618
  O  O88  1  0.807000  0.529600  0.202000  1.0  -0.5522
  O  O89  1  0.185200  0.232600  0.250000  1.0  -0.822
  O  O90  1  0.285100  0.379800  0.250000  1.0  -0.7278
  O  O91  1  0.454300  0.030000  0.250000  1.0  -0.7691
  O  O92  1  0.814800  0.767400  0.750000  1.0  -0.8216
  O  O93  1  0.714900  0.620200  0.750000  1.0  -0.7269
  O  O94  1  0.545700  0.970000  0.750000  1.0  -0.7689
  O  O95  1  0.814800  0.732600  0.250000  1.0  -0.8217
  O  O96  1  0.714900  0.879800  0.250000  1.0  -0.7269
  O  O97  1  0.545700  0.530000  0.250000  1.0  -0.7689
  O  O98  1  0.185200  0.267400  0.750000  1.0  -0.8222
  O  O99  1  0.285100  0.120200  0.750000  1.0  -0.7284
  O  O100  1  0.454300  0.470000  0.750000  1.0  -0.7693
