# generated using pymatgen
data_Al5Co(PO4)6
_symmetry_space_group_name_H-M   'P 1'
_cell_length_a   13.91100000
_cell_length_b   12.77220000
_cell_length_c   18.63400000
_cell_angle_alpha   90.00000000
_cell_angle_beta   90.35900000
_cell_angle_gamma   90.00000000
_symmetry_Int_Tables_number   1
_chemical_formula_structural   Al5Co(PO4)6
_chemical_formula_sum   'Al20 Co4 P24 O96'
_cell_volume   3310.71370927
_cell_formula_units_Z   4
loop_
 _symmetry_equiv_pos_site_id
 _symmetry_equiv_pos_as_xyz
  1  'x, y, z'
loop_
 _atom_site_type_symbol
 _atom_site_label
 _atom_site_symmetry_multiplicity
 _atom_site_fract_x
 _atom_site_fract_y
 _atom_site_fract_z
 _atom_site_occupancy
 _atom_site_charge
  Al  Al1  1  0.106900  0.038800  0.163400  1.0  1.8542
  Al  Al2  1  0.769500  0.906700  0.047400  1.0  1.9567
  Al  Al3  1  0.883400  0.222500  0.060600  1.0  2.0119
  Al  Al4  1  0.606900  0.538800  0.163400  1.0  1.8542
  Al  Al5  1  0.269500  0.406700  0.047400  1.0  1.9566
  Al  Al6  1  0.383400  0.722500  0.060600  1.0  2.0125
  Al  Al7  1  0.893100  0.038800  0.336600  1.0  1.8526
  Al  Al8  1  0.230500  0.906700  0.452600  1.0  1.9567
  Al  Al9  1  0.116600  0.222500  0.439400  1.0  2.0112
  Al  Al10  1  0.393100  0.538800  0.336600  1.0  1.8526
  Al  Al11  1  0.730500  0.406700  0.452600  1.0  1.9566
  Al  Al12  1  0.616600  0.722500  0.439400  1.0  2.0117
  Al  Al13  1  0.893100  0.961200  0.836600  1.0  1.8526
  Al  Al14  1  0.230500  0.093300  0.952600  1.0  1.9569
  Al  Al15  1  0.393100  0.461200  0.836600  1.0  1.8527
  Al  Al16  1  0.730500  0.593300  0.952600  1.0  1.9569
  Al  Al17  1  0.106900  0.961200  0.663400  1.0  1.8543
  Al  Al18  1  0.769500  0.093300  0.547400  1.0  1.9569
  Al  Al19  1  0.606900  0.461200  0.663400  1.0  1.8543
  Al  Al20  1  0.269500  0.593300  0.547400  1.0  1.9569
  Co  Co21  1  0.116600  0.777500  0.939400  1.0  0.9445
  Co  Co22  1  0.616600  0.277500  0.939400  1.0  0.9445
  Co  Co23  1  0.883400  0.777500  0.560600  1.0  0.9436
  Co  Co24  1  0.383400  0.277500  0.560600  1.0  0.9436
  P  P25  1  0.231000  0.900400  0.058900  1.0  2.1328
  P  P26  1  0.109200  0.233600  0.061100  1.0  2.1187
  P  P27  1  0.881100  0.029900  0.165500  1.0  2.0616
  P  P28  1  0.731000  0.400400  0.058900  1.0  2.1101
  P  P29  1  0.609200  0.733600  0.061100  1.0  2.1187
  P  P30  1  0.381100  0.529900  0.165500  1.0  2.0616
  P  P31  1  0.769000  0.900400  0.441100  1.0  2.1317
  P  P32  1  0.890800  0.233600  0.438900  1.0  2.1188
  P  P33  1  0.118900  0.029900  0.334500  1.0  2.0894
  P  P34  1  0.269000  0.400400  0.441100  1.0  2.109
  P  P35  1  0.390800  0.733600  0.438900  1.0  2.1188
  P  P36  1  0.618900  0.529900  0.334500  1.0  2.0894
  P  P37  1  0.769000  0.099600  0.941100  1.0  2.1088
  P  P38  1  0.890800  0.766400  0.938900  1.0  2.1082
  P  P39  1  0.118900  0.970100  0.834500  1.0  2.0856
  P  P40  1  0.269000  0.599600  0.941100  1.0  2.1091
  P  P41  1  0.390800  0.266400  0.938900  1.0  2.1112
  P  P42  1  0.618900  0.470100  0.834500  1.0  2.0856
  P  P43  1  0.231000  0.099600  0.558900  1.0  2.1098
  P  P44  1  0.109200  0.766400  0.561100  1.0  2.1082
  P  P45  1  0.881100  0.970100  0.665500  1.0  2.0902
  P  P46  1  0.731000  0.599600  0.558900  1.0  2.1103
  P  P47  1  0.609200  0.266400  0.561100  1.0  2.1112
  P  P48  1  0.381100  0.470100  0.665500  1.0  2.0902
  O  O49  1  0.813200  0.949800  0.130800  1.0  -0.9395
  O  O50  1  0.142900  0.175700  0.995200  1.0  -1.0545
  O  O51  1  0.005600  0.259700  0.051300  1.0  -0.9639
  O  O52  1  0.157200  0.833400  0.021700  1.0  -1.0317
  O  O53  1  0.190100  0.944100  0.126500  1.0  -0.8895
  O  O54  1  0.981600  0.994900  0.155200  1.0  -0.8837
  O  O55  1  0.864400  0.136800  0.131800  1.0  -1.0441
  O  O56  1  0.164500  0.335800  0.069100  1.0  -0.9791
  O  O57  1  0.856700  0.037000  0.243100  1.0  -0.8939
  O  O58  1  0.317700  0.835900  0.080200  1.0  -0.9997
  O  O59  1  0.126300  0.170600  0.127600  1.0  -0.8869
  O  O60  1  0.265300  0.986900  0.009900  1.0  -1.0346
  O  O61  1  0.313200  0.449800  0.130800  1.0  -0.9395
  O  O62  1  0.642900  0.675700  0.995200  1.0  -1.0559
  O  O63  1  0.505600  0.759700  0.051300  1.0  -0.9639
  O  O64  1  0.657200  0.333400  0.021700  1.0  -1.0317
  O  O65  1  0.690100  0.444100  0.126500  1.0  -0.8895
  O  O66  1  0.481600  0.494900  0.155200  1.0  -0.8837
  O  O67  1  0.364400  0.636800  0.131800  1.0  -1.0424
  O  O68  1  0.664500  0.835800  0.069100  1.0  -0.9793
  O  O69  1  0.356700  0.537000  0.243100  1.0  -0.8939
  O  O70  1  0.817700  0.335900  0.080200  1.0  -0.9997
  O  O71  1  0.626300  0.670600  0.127600  1.0  -0.8869
  O  O72  1  0.765300  0.486900  0.009900  1.0  -1.0343
  O  O73  1  0.186800  0.949800  0.369200  1.0  -0.9396
  O  O74  1  0.857100  0.175700  0.504800  1.0  -1.053
  O  O75  1  0.994400  0.259700  0.448700  1.0  -0.962
  O  O76  1  0.842800  0.833400  0.478300  1.0  -1.0338
  O  O77  1  0.809900  0.944100  0.373500  1.0  -0.8887
  O  O78  1  0.018400  0.994900  0.344800  1.0  -0.8842
  O  O79  1  0.135600  0.136800  0.368200  1.0  -1.0444
  O  O80  1  0.835500  0.335800  0.430900  1.0  -0.978
  O  O81  1  0.143300  0.037000  0.256900  1.0  -0.8941
  O  O82  1  0.682300  0.835900  0.419800  1.0  -1.0003
  O  O83  1  0.873700  0.170600  0.372400  1.0  -0.8887
  O  O84  1  0.734700  0.986900  0.490100  1.0  -1.0356
  O  O85  1  0.686800  0.449800  0.369200  1.0  -0.9395
  O  O86  1  0.357100  0.675700  0.504800  1.0  -1.0544
  O  O87  1  0.494400  0.759700  0.448700  1.0  -0.962
  O  O88  1  0.342800  0.333400  0.478300  1.0  -1.0337
  O  O89  1  0.309900  0.444100  0.373500  1.0  -0.8887
  O  O90  1  0.518400  0.494900  0.344800  1.0  -0.8842
  O  O91  1  0.635600  0.636800  0.368200  1.0  -1.043
  O  O92  1  0.335500  0.835800  0.430900  1.0  -0.9784
  O  O93  1  0.643300  0.537000  0.256900  1.0  -0.8941
  O  O94  1  0.182300  0.335900  0.419800  1.0  -1.0003
  O  O95  1  0.373700  0.670600  0.372400  1.0  -0.8887
  O  O96  1  0.234700  0.486900  0.490100  1.0  -1.0354
  O  O97  1  0.186800  0.050200  0.869200  1.0  -0.9384
  O  O98  1  0.857100  0.824300  0.004800  1.0  -1.0542
  O  O99  1  0.994400  0.740300  0.948700  1.0  -0.9394
  O  O100  1  0.842800  0.166600  0.978300  1.0  -1.0795
  O  O101  1  0.809900  0.055900  0.873500  1.0  -0.889
  O  O102  1  0.018400  0.005100  0.844800  1.0  -0.8845
  O  O103  1  0.135600  0.863200  0.868200  1.0  -1.0402
  O  O104  1  0.835500  0.664200  0.930900  1.0  -0.9782
  O  O105  1  0.143300  0.963000  0.756900  1.0  -0.8941
  O  O106  1  0.682300  0.164100  0.919800  1.0  -0.9778
  O  O107  1  0.873700  0.829400  0.872400  1.0  -0.8883
  O  O108  1  0.734700  0.013100  0.990100  1.0  -1.0332
  O  O109  1  0.686800  0.550200  0.869200  1.0  -0.9384
  O  O110  1  0.357100  0.324300  0.004800  1.0  -1.053
  O  O111  1  0.494400  0.240300  0.948700  1.0  -0.9394
  O  O112  1  0.342800  0.666667  0.978300  1.0  -1.0793
  O  O113  1  0.309900  0.555900  0.873500  1.0  -0.889
  O  O114  1  0.518400  0.505100  0.844800  1.0  -0.8845
  O  O115  1  0.635600  0.363200  0.868200  1.0  -1.04
  O  O116  1  0.335500  0.164200  0.930900  1.0  -0.9782
  O  O117  1  0.643300  0.463000  0.756900  1.0  -0.8941
  O  O118  1  0.182300  0.664100  0.919800  1.0  -0.9778
  O  O119  1  0.373700  0.329400  0.872400  1.0  -0.8883
  O  O120  1  0.234700  0.513100  0.990100  1.0  -1.0358
  O  O121  1  0.813200  0.050200  0.630800  1.0  -0.9388
  O  O122  1  0.142900  0.824300  0.495200  1.0  -1.0563
  O  O123  1  0.005600  0.740300  0.551300  1.0  -0.9404
  O  O124  1  0.157200  0.166600  0.521700  1.0  -1.0782
  O  O125  1  0.190100  0.055900  0.626500  1.0  -0.8897
  O  O126  1  0.981600  0.005100  0.655200  1.0  -0.8843
  O  O127  1  0.864400  0.863200  0.631800  1.0  -1.0393
  O  O128  1  0.164500  0.664200  0.569100  1.0  -0.979
  O  O129  1  0.856700  0.963000  0.743100  1.0  -0.8939
  O  O130  1  0.317700  0.164100  0.580200  1.0  -0.977
  O  O131  1  0.126300  0.829400  0.627600  1.0  -0.8868
  O  O132  1  0.265300  0.013100  0.509900  1.0  -1.0319
  O  O133  1  0.313200  0.550200  0.630800  1.0  -0.9388
  O  O134  1  0.642900  0.324300  0.495200  1.0  -1.055
  O  O135  1  0.505600  0.240300  0.551300  1.0  -0.9404
  O  O136  1  0.657200  0.666667  0.521700  1.0  -1.0788
  O  O137  1  0.690100  0.555900  0.626500  1.0  -0.8897
  O  O138  1  0.481600  0.505100  0.655200  1.0  -0.8843
  O  O139  1  0.364400  0.363200  0.631800  1.0  -1.0391
  O  O140  1  0.664500  0.164200  0.569100  1.0  -0.979
  O  O141  1  0.356700  0.463000  0.743100  1.0  -0.8939
  O  O142  1  0.817700  0.664100  0.580200  1.0  -0.977
  O  O143  1  0.626300  0.329400  0.627600  1.0  -0.8868
  O  O144  1  0.765300  0.513100  0.509900  1.0  -1.0344
