# generated using pymatgen
data_NaH9(CO)6
_symmetry_space_group_name_H-M   'P 1'
_cell_length_a   11.08450000
_cell_length_b   11.08450000
_cell_length_c   11.08450000
_cell_angle_alpha   90.00000000
_cell_angle_beta   90.00000000
_cell_angle_gamma   90.00000000
_symmetry_Int_Tables_number   1
_chemical_formula_structural   NaH9(CO)6
_chemical_formula_sum   'Na4 H36 C24 O24'
_cell_volume   1361.90973160
_cell_formula_units_Z   4
loop_
 _symmetry_equiv_pos_site_id
 _symmetry_equiv_pos_as_xyz
  1  'x, y, z'
loop_
 _atom_site_type_symbol
 _atom_site_label
 _atom_site_symmetry_multiplicity
 _atom_site_fract_x
 _atom_site_fract_y
 _atom_site_fract_z
 _atom_site_occupancy
 _atom_site_charge
  Na  Na1  1  0.152100  0.347900  0.652100  1.0  0.9477
  Na  Na2  1  0.347900  0.652100  0.152100  1.0  0.9478
  Na  Na3  1  0.847900  0.847900  0.847900  1.0  0.9477
  Na  Na4  1  0.652100  0.152100  0.347900  1.0  0.948
  H  H5  1  0.428800  0.343800  0.024300  1.0  0.1583
  H  H6  1  0.350900  0.251400  0.950900  1.0  0.1585
  H  H7  1  0.444700  0.333500  0.884200  1.0  0.1505
  H  H8  1  0.071200  0.656200  0.524300  1.0  0.1584
  H  H9  1  0.149100  0.748600  0.450900  1.0  0.1594
  H  H10  1  0.055300  0.666500  0.384200  1.0  0.1504
  H  H11  1  0.571200  0.843800  0.475700  1.0  0.1588
  H  H12  1  0.649100  0.751400  0.549100  1.0  0.1581
  H  H13  1  0.555300  0.833500  0.615800  1.0  0.1511
  H  H14  1  0.928800  0.156200  0.975700  1.0  0.1581
  H  H15  1  0.850900  0.248600  0.049100  1.0  0.1594
  H  H16  1  0.944700  0.166500  0.115800  1.0  0.1511
  H  H17  1  0.024300  0.428800  0.343800  1.0  0.1596
  H  H18  1  0.950900  0.350900  0.251400  1.0  0.1567
  H  H19  1  0.884200  0.444700  0.333500  1.0  0.1503
  H  H20  1  0.524300  0.071200  0.656200  1.0  0.1598
  H  H21  1  0.450900  0.149100  0.748600  1.0  0.1559
  H  H22  1  0.384200  0.055300  0.666500  1.0  0.1499
  H  H23  1  0.475700  0.571200  0.843800  1.0  0.1592
  H  H24  1  0.549100  0.649100  0.751400  1.0  0.1569
  H  H25  1  0.615800  0.555300  0.833500  1.0  0.1522
  H  H26  1  0.975700  0.928800  0.156200  1.0  0.1594
  H  H27  1  0.049100  0.850900  0.248600  1.0  0.1556
  H  H28  1  0.115800  0.944700  0.166500  1.0  0.152
  H  H29  1  0.343800  0.024300  0.428800  1.0  0.1596
  H  H30  1  0.251400  0.950900  0.350900  1.0  0.1572
  H  H31  1  0.333500  0.884200  0.444700  1.0  0.1504
  H  H32  1  0.656200  0.524300  0.071200  1.0  0.1597
  H  H33  1  0.748600  0.450900  0.149100  1.0  0.1583
  H  H34  1  0.666500  0.384200  0.055300  1.0  0.1504
  H  H35  1  0.843800  0.475700  0.571200  1.0  0.1576
  H  H36  1  0.751400  0.549100  0.649100  1.0  0.1578
  H  H37  1  0.833500  0.615800  0.555300  1.0  0.15
  H  H38  1  0.156200  0.975700  0.928800  1.0  0.1589
  H  H39  1  0.248600  0.049100  0.850900  1.0  0.159
  H  H40  1  0.166500  0.115800  0.944700  1.0  0.1505
  C  C41  1  0.291900  0.424800  0.931500  1.0  0.7272
  C  C42  1  0.387800  0.329700  0.949300  1.0  -0.5135
  C  C43  1  0.208100  0.575200  0.431500  1.0  0.727
  C  C44  1  0.112200  0.670300  0.449300  1.0  -0.5123
  C  C45  1  0.708100  0.924800  0.568500  1.0  0.7262
  C  C46  1  0.612200  0.829700  0.550700  1.0  -0.5133
  C  C47  1  0.791900  0.075200  0.068500  1.0  0.7274
  C  C48  1  0.887800  0.170300  0.050700  1.0  -0.5125
  C  C49  1  0.931500  0.291900  0.424800  1.0  0.7304
  C  C50  1  0.949300  0.387800  0.329700  1.0  -0.5112
  C  C51  1  0.431500  0.208100  0.575200  1.0  0.7304
  C  C52  1  0.449300  0.112200  0.670300  1.0  -0.5106
  C  C53  1  0.568500  0.708100  0.924800  1.0  0.731
  C  C54  1  0.550700  0.612200  0.829700  1.0  -0.5114
  C  C55  1  0.068500  0.791900  0.075200  1.0  0.7291
  C  C56  1  0.050700  0.887800  0.170300  1.0  -0.5106
  C  C57  1  0.424800  0.931500  0.291900  1.0  0.7328
  C  C58  1  0.329700  0.949300  0.387800  1.0  -0.5081
  C  C59  1  0.575200  0.431500  0.208100  1.0  0.7339
  C  C60  1  0.670300  0.449300  0.112200  1.0  -0.51
  C  C61  1  0.924800  0.568500  0.708100  1.0  0.7337
  C  C62  1  0.829700  0.550700  0.612200  1.0  -0.5091
  C  C63  1  0.075200  0.068500  0.791900  1.0  0.7335
  C  C64  1  0.170300  0.050700  0.887800  1.0  -0.5078
  O  O65  1  0.227900  0.422300  0.837200  1.0  -0.5164
  O  O66  1  0.275900  0.503900  0.012300  1.0  -0.485
  O  O67  1  0.272100  0.577700  0.337200  1.0  -0.5169
  O  O68  1  0.224100  0.496100  0.512300  1.0  -0.4898
  O  O69  1  0.772100  0.922300  0.662800  1.0  -0.5156
  O  O70  1  0.724100  0.003900  0.487700  1.0  -0.4837
  O  O71  1  0.727900  0.077700  0.162800  1.0  -0.5149
  O  O72  1  0.775900  0.996100  0.987700  1.0  -0.4851
  O  O73  1  0.837200  0.227900  0.422300  1.0  -0.5148
  O  O74  1  0.012300  0.275900  0.503900  1.0  -0.4872
  O  O75  1  0.337200  0.272100  0.577700  1.0  -0.515
  O  O76  1  0.512300  0.224100  0.496100  1.0  -0.485
  O  O77  1  0.662800  0.772100  0.922300  1.0  -0.5126
  O  O78  1  0.487700  0.724100  0.003900  1.0  -0.487
  O  O79  1  0.162800  0.727900  0.077700  1.0  -0.514
  O  O80  1  0.987700  0.775900  0.996100  1.0  -0.4885
  O  O81  1  0.422300  0.837200  0.227900  1.0  -0.5177
  O  O82  1  0.503900  0.012300  0.275900  1.0  -0.4882
  O  O83  1  0.577700  0.337200  0.272100  1.0  -0.5148
  O  O84  1  0.496100  0.512300  0.224100  1.0  -0.4884
  O  O85  1  0.922300  0.662800  0.772100  1.0  -0.5146
  O  O86  1  0.003900  0.487700  0.724100  1.0  -0.4886
  O  O87  1  0.077700  0.162800  0.727900  1.0  -0.5164
  O  O88  1  0.996100  0.987700  0.775900  1.0  -0.4928
