# generated using pymatgen
data_ZnP2H3O8
_symmetry_space_group_name_H-M   'P 1'
_cell_length_a   10.42000000
_cell_length_b   10.45230000
_cell_length_c   11.62210000
_cell_angle_alpha   90.00000000
_cell_angle_beta   90.00000000
_cell_angle_gamma   90.00000000
_symmetry_Int_Tables_number   1
_chemical_formula_structural   ZnP2H3O8
_chemical_formula_sum   'Zn4 P8 H12 O32'
_cell_volume   1265.79738215
_cell_formula_units_Z   4
loop_
 _symmetry_equiv_pos_site_id
 _symmetry_equiv_pos_as_xyz
  1  'x, y, z'
loop_
 _atom_site_type_symbol
 _atom_site_label
 _atom_site_symmetry_multiplicity
 _atom_site_fract_x
 _atom_site_fract_y
 _atom_site_fract_z
 _atom_site_occupancy
 _atom_site_charge
  Zn  Zn1  1  0.553130  0.200640  0.118760  1.0  1.1036
  Zn  Zn2  1  0.946870  0.799360  0.618760  1.0  1.1042
  Zn  Zn3  1  0.446870  0.700640  0.381240  1.0  1.1042
  Zn  Zn4  1  0.053130  0.299360  0.881240  1.0  1.1035
  P  P5  1  0.312300  0.160100  0.955100  1.0  1.8115
  P  P6  1  0.486800  0.927600  0.199400  1.0  1.859
  P  P7  1  0.187700  0.839900  0.455100  1.0  1.8143
  P  P8  1  0.013200  0.072400  0.699400  1.0  1.8553
  P  P9  1  0.687700  0.660100  0.544900  1.0  1.8139
  P  P10  1  0.513200  0.427600  0.300600  1.0  1.8576
  P  P11  1  0.812300  0.339900  0.044900  1.0  1.8127
  P  P12  1  0.986800  0.572400  0.800600  1.0  1.8571
  H  H13  1  0.263000  0.024000  0.087000  1.0  0.3391
  H  H14  1  0.236000  0.005000  0.840000  1.0  0.2339
  H  H15  1  0.447000  0.851000  0.028000  1.0  0.1747
  H  H16  1  0.237000  0.976000  0.587000  1.0  0.3365
  H  H17  1  0.264000  0.995000  0.340000  1.0  0.2352
  H  H18  1  0.053000  0.149000  0.528000  1.0  0.1752
  H  H19  1  0.737000  0.524000  0.413000  1.0  0.3377
  H  H20  1  0.764000  0.505000  0.660000  1.0  0.2346
  H  H21  1  0.553000  0.351000  0.472000  1.0  0.175
  H  H22  1  0.763000  0.476000  0.913000  1.0  0.3359
  H  H23  1  0.736000  0.495000  0.160000  1.0  0.2362
  H  H24  1  0.947000  0.649000  0.972000  1.0  0.1755
  O  O25  1  0.560600  0.048900  0.204900  1.0  -0.7699
  O  O26  1  0.521400  0.837100  0.294400  1.0  -0.8602
  O  O27  1  0.244800  0.114600  0.061700  1.0  -0.5274
  O  O28  1  0.454700  0.189700  0.980100  1.0  -0.7819
  O  O29  1  0.237100  0.273400  0.911600  1.0  -0.7664
  O  O30  1  0.345500  0.955200  0.199200  1.0  -0.7116
  O  O31  1  0.517600  0.865300  0.083900  1.0  -0.5364
  O  O32  1  0.312000  0.053600  0.864900  1.0  -0.5695
  O  O33  1  0.939400  0.951100  0.704900  1.0  -0.7672
  O  O34  1  0.978600  0.162900  0.794400  1.0  -0.86
  O  O35  1  0.255200  0.885400  0.561700  1.0  -0.5261
  O  O36  1  0.045300  0.810300  0.480100  1.0  -0.7828
  O  O37  1  0.262900  0.726600  0.411600  1.0  -0.7663
  O  O38  1  0.154500  0.044800  0.699200  1.0  -0.7108
  O  O39  1  0.982400  0.134700  0.583900  1.0  -0.5384
  O  O40  1  0.188000  0.946400  0.364900  1.0  -0.5691
  O  O41  1  0.439400  0.548900  0.295100  1.0  -0.7666
  O  O42  1  0.478600  0.337100  0.205600  1.0  -0.8608
  O  O43  1  0.755200  0.614600  0.438300  1.0  -0.5242
  O  O44  1  0.545300  0.689700  0.519900  1.0  -0.7819
  O  O45  1  0.762900  0.773400  0.588400  1.0  -0.7667
  O  O46  1  0.654500  0.455200  0.300800  1.0  -0.7105
  O  O47  1  0.482400  0.365300  0.416100  1.0  -0.5399
  O  O48  1  0.688000  0.553600  0.635100  1.0  -0.5693
  O  O49  1  0.060600  0.451100  0.795100  1.0  -0.7698
  O  O50  1  0.021400  0.662900  0.705600  1.0  -0.8609
  O  O51  1  0.744800  0.385400  0.938300  1.0  -0.5243
  O  O52  1  0.954700  0.310300  0.019900  1.0  -0.7817
  O  O53  1  0.737100  0.226600  0.088400  1.0  -0.7661
  O  O54  1  0.845500  0.544800  0.800800  1.0  -0.7111
  O  O55  1  0.017600  0.634700  0.916100  1.0  -0.5383
  O  O56  1  0.812000  0.446400  0.135100  1.0  -0.57
