# generated using pymatgen
data_Ga5(P2O9)2
_symmetry_space_group_name_H-M   'P 1'
_cell_length_a   14.37530000
_cell_length_b   11.94100000
_cell_length_c   10.17600000
_cell_angle_alpha   90.00000000
_cell_angle_beta   91.10200000
_cell_angle_gamma   90.00000000
_symmetry_Int_Tables_number   1
_chemical_formula_structural   Ga5(P2O9)2
_chemical_formula_sum   'Ga20 P16 O72'
_cell_volume   1746.44285410
_cell_formula_units_Z   4
loop_
 _symmetry_equiv_pos_site_id
 _symmetry_equiv_pos_as_xyz
  1  'x, y, z'
loop_
 _atom_site_type_symbol
 _atom_site_label
 _atom_site_symmetry_multiplicity
 _atom_site_fract_x
 _atom_site_fract_y
 _atom_site_fract_z
 _atom_site_occupancy
 _atom_site_charge
  Ga  Ga1  1  0.248920  0.500740  0.496540  1.0  1.7373
  Ga  Ga2  1  0.087560  0.375000  0.673430  1.0  1.6756
  Ga  Ga3  1  0.411020  0.361800  0.345660  1.0  1.7455
  Ga  Ga4  1  0.086280  0.632190  0.660200  1.0  1.6986
  Ga  Ga5  1  0.409430  0.633650  0.330750  1.0  1.7313
  Ga  Ga6  1  0.251080  0.000740  0.003460  1.0  1.7377
  Ga  Ga7  1  0.412440  0.875000  0.826570  1.0  1.6753
  Ga  Ga8  1  0.088980  0.861800  0.154340  1.0  1.7451
  Ga  Ga9  1  0.413720  0.132190  0.839800  1.0  1.6994
  Ga  Ga10  1  0.090570  0.133650  0.169250  1.0  1.7384
  Ga  Ga11  1  0.751080  0.499260  0.503460  1.0  1.7373
  Ga  Ga12  1  0.912440  0.625000  0.326570  1.0  1.6746
  Ga  Ga13  1  0.588980  0.638200  0.654340  1.0  1.7456
  Ga  Ga14  1  0.913720  0.367810  0.339800  1.0  1.6996
  Ga  Ga15  1  0.590570  0.366350  0.669250  1.0  1.7303
  Ga  Ga16  1  0.748920  0.999260  0.996540  1.0  1.7369
  Ga  Ga17  1  0.587560  0.125000  0.173430  1.0  1.6758
  Ga  Ga18  1  0.911020  0.138200  0.845660  1.0  1.7457
  Ga  Ga19  1  0.586280  0.867810  0.160200  1.0  1.6986
  Ga  Ga20  1  0.909430  0.866350  0.830750  1.0  1.7378
  P  P21  1  0.125170  0.300830  0.392120  1.0  1.7972
  P  P22  1  0.123520  0.692810  0.375490  1.0  1.8471
  P  P23  1  0.375830  0.697680  0.611210  1.0  1.8748
  P  P24  1  0.376500  0.311770  0.629280  1.0  1.8471
  P  P25  1  0.374830  0.800830  0.107880  1.0  1.7971
  P  P26  1  0.376480  0.192810  0.124510  1.0  1.8475
  P  P27  1  0.124170  0.197680  0.888790  1.0  1.8749
  P  P28  1  0.123500  0.811770  0.870720  1.0  1.8473
  P  P29  1  0.874830  0.699170  0.607880  1.0  1.7976
  P  P30  1  0.876480  0.307190  0.624510  1.0  1.8478
  P  P31  1  0.624170  0.302320  0.388790  1.0  1.8744
  P  P32  1  0.623500  0.688230  0.370720  1.0  1.8464
  P  P33  1  0.625170  0.199170  0.892120  1.0  1.7977
  P  P34  1  0.623520  0.807190  0.875490  1.0  1.8473
  P  P35  1  0.875830  0.802320  0.111210  1.0  1.8744
  P  P36  1  0.876500  0.188230  0.129280  1.0  1.8462
  O  O37  1  0.131000  0.500500  0.592800  1.0  -1.1592
  O  O38  1  0.367600  0.499100  0.391300  1.0  -1.1707
  O  O39  1  0.209300  0.376700  0.382600  1.0  -0.8121
  O  O40  1  0.292800  0.619500  0.615700  1.0  -0.8228
  O  O41  1  0.041000  0.359000  0.325000  1.0  -0.9226
  O  O42  1  0.207000  0.614700  0.370500  1.0  -0.8102
  O  O43  1  0.040300  0.634100  0.308400  1.0  -0.897
  O  O44  1  0.143600  0.189000  0.319600  1.0  -0.8351
  O  O45  1  0.461000  0.638800  0.673000  1.0  -0.8737
  O  O46  1  0.144300  0.800000  0.298500  1.0  -0.8551
  O  O47  1  0.102100  0.729100  0.516300  1.0  -0.8433
  O  O48  1  0.296600  0.394200  0.629300  1.0  -0.8225
  O  O49  1  0.395000  0.270000  0.489000  1.0  -0.8784
  O  O50  1  0.463800  0.368500  0.691700  1.0  -0.9236
  O  O51  1  0.355800  0.803700  0.687600  1.0  -0.8295
  O  O52  1  0.351400  0.208400  0.709900  1.0  -0.8494
  O  O53  1  0.107600  0.269400  0.536500  1.0  -0.8229
  O  O54  1  0.394900  0.734700  0.468600  1.0  -0.831
  O  O55  1  0.369000  0.000500  0.907200  1.0  -1.1597
  O  O56  1  0.132400  0.999100  0.108700  1.0  -1.1719
  O  O57  1  0.290700  0.876700  0.117400  1.0  -0.8123
  O  O58  1  0.207200  0.119500  0.884300  1.0  -0.824
  O  O59  1  0.459000  0.859000  0.175000  1.0  -0.9241
  O  O60  1  0.293000  0.114700  0.129500  1.0  -0.8082
  O  O61  1  0.459700  0.134100  0.191600  1.0  -0.8962
  O  O62  1  0.356400  0.689000  0.180400  1.0  -0.8344
  O  O63  1  0.039000  0.138800  0.827000  1.0  -0.8741
  O  O64  1  0.355700  0.300000  0.201500  1.0  -0.8548
  O  O65  1  0.397900  0.229100  0.983700  1.0  -0.8441
  O  O66  1  0.203400  0.894200  0.870700  1.0  -0.8229
  O  O67  1  0.105000  0.770000  0.011000  1.0  -0.8792
  O  O68  1  0.036200  0.868500  0.808300  1.0  -0.9211
  O  O69  1  0.144200  0.303700  0.812400  1.0  -0.8295
  O  O70  1  0.148600  0.708400  0.790100  1.0  -0.8484
  O  O71  1  0.392400  0.769400  0.963500  1.0  -0.824
  O  O72  1  0.105100  0.234700  0.031400  1.0  -0.8306
  O  O73  1  0.869000  0.499500  0.407200  1.0  -1.1597
  O  O74  1  0.632400  0.500900  0.608700  1.0  -1.172
  O  O75  1  0.790700  0.623300  0.617400  1.0  -0.8122
  O  O76  1  0.707200  0.380500  0.384300  1.0  -0.8241
  O  O77  1  0.959000  0.641000  0.675000  1.0  -0.9246
  O  O78  1  0.793000  0.385300  0.629500  1.0  -0.808
  O  O79  1  0.959700  0.365900  0.691600  1.0  -0.8968
  O  O80  1  0.856400  0.811000  0.680400  1.0  -0.8355
  O  O81  1  0.539000  0.361200  0.327000  1.0  -0.8731
  O  O82  1  0.855700  0.200000  0.701500  1.0  -0.8549
  O  O83  1  0.897900  0.270900  0.483700  1.0  -0.844
  O  O84  1  0.703400  0.605800  0.370700  1.0  -0.8236
  O  O85  1  0.605000  0.730000  0.511000  1.0  -0.8792
  O  O86  1  0.536200  0.631500  0.308300  1.0  -0.9204
  O  O87  1  0.644200  0.196300  0.312400  1.0  -0.828
  O  O88  1  0.648600  0.791600  0.290100  1.0  -0.8484
  O  O89  1  0.892400  0.730600  0.463500  1.0  -0.8206
  O  O90  1  0.605100  0.265300  0.531400  1.0  -0.8304
  O  O91  1  0.631000  0.999500  0.092800  1.0  -1.1593
  O  O92  1  0.867600  0.000900  0.891300  1.0  -1.1708
  O  O93  1  0.709300  0.123300  0.882600  1.0  -0.8122
  O  O94  1  0.792800  0.880500  0.115700  1.0  -0.8235
  O  O95  1  0.541000  0.141000  0.825000  1.0  -0.9235
  O  O96  1  0.707000  0.885300  0.870500  1.0  -0.8098
  O  O97  1  0.540300  0.865900  0.808400  1.0  -0.8974
  O  O98  1  0.643600  0.311000  0.819600  1.0  -0.8363
  O  O99  1  0.961000  0.861200  0.173000  1.0  -0.873
  O  O100  1  0.644300  0.700000  0.798500  1.0  -0.8549
  O  O101  1  0.602100  0.770900  0.016300  1.0  -0.8435
  O  O102  1  0.796600  0.105800  0.129300  1.0  -0.8225
  O  O103  1  0.895000  0.230000  0.989000  1.0  -0.8785
  O  O104  1  0.963800  0.131500  0.191700  1.0  -0.9233
  O  O105  1  0.855800  0.696300  0.187600  1.0  -0.8281
  O  O106  1  0.851400  0.291600  0.209900  1.0  -0.8494
  O  O107  1  0.607600  0.230600  0.036500  1.0  -0.8203
  O  O108  1  0.894900  0.765300  0.968600  1.0  -0.8305
