# generated using pymatgen
data_K2Cr2Ag11(CO2)12
_symmetry_space_group_name_H-M   'P 1'
_cell_length_a   18.30200000
_cell_length_b   14.67000000
_cell_length_c   12.29800000
_cell_angle_alpha   90.00000000
_cell_angle_beta   113.62000000
_cell_angle_gamma   90.00000000
_symmetry_Int_Tables_number   1
_chemical_formula_structural   K2Cr2Ag11(CO2)12
_chemical_formula_sum   'K8 Cr8 Ag44 C48 O96'
_cell_volume   3025.27116503
_cell_formula_units_Z   4
loop_
 _symmetry_equiv_pos_site_id
 _symmetry_equiv_pos_as_xyz
  1  'x, y, z'
loop_
 _atom_site_type_symbol
 _atom_site_label
 _atom_site_symmetry_multiplicity
 _atom_site_fract_x
 _atom_site_fract_y
 _atom_site_fract_z
 _atom_site_occupancy
 _atom_site_charge
  K  K1  1  0.000600  0.729600  0.867800  1.0  0.8153
  K  K2  1  0.999400  0.729600  0.632200  1.0  0.8683
  K  K3  1  0.499400  0.770400  0.132200  1.0  0.8638
  K  K4  1  0.500600  0.770400  0.367800  1.0  0.8106
  K  K5  1  0.500600  0.229600  0.867800  1.0  0.8153
  K  K6  1  0.499400  0.229600  0.632200  1.0  0.8683
  K  K7  1  0.999400  0.270400  0.132200  1.0  0.8638
  K  K8  1  0.000600  0.270400  0.367800  1.0  0.8106
  Cr  Cr9  1  0.289720  0.495100  0.474630  1.0  1.3535
  Cr  Cr10  1  0.710280  0.495100  0.025370  1.0  1.3538
  Cr  Cr11  1  0.210280  0.004900  0.525370  1.0  1.3539
  Cr  Cr12  1  0.789720  0.004900  0.974630  1.0  1.3535
  Cr  Cr13  1  0.789720  0.995100  0.474630  1.0  1.3535
  Cr  Cr14  1  0.210280  0.995100  0.025370  1.0  1.3538
  Cr  Cr15  1  0.710280  0.504900  0.525370  1.0  1.3539
  Cr  Cr16  1  0.289720  0.504900  0.974630  1.0  1.3535
  Ag  Ag17  1  0.245470  0.197950  0.744620  1.0  0.481
  Ag  Ag18  1  0.922480  0.810310  0.128520  1.0  0.2392
  Ag  Ag19  1  0.073500  0.654800  0.794400  1.0  0.4514
  Ag  Ag20  1  0.041600  0.760600  0.936800  1.0  0.9716
  Ag  Ag21  1  0.948600  0.724400  0.881900  1.0  0.9122
  Ag  Ag22  1  0.754530  0.197950  0.755380  1.0  0.4808
  Ag  Ag23  1  0.077520  0.810310  0.371480  1.0  0.239
  Ag  Ag24  1  0.926500  0.654800  0.705600  1.0  0.4509
  Ag  Ag25  1  0.958400  0.760600  0.563200  1.0  0.9803
  Ag  Ag26  1  0.051400  0.724400  0.618100  1.0  0.917
  Ag  Ag27  1  0.577520  0.689690  0.871480  1.0  0.2392
  Ag  Ag28  1  0.426500  0.845200  0.205600  1.0  0.4495
  Ag  Ag29  1  0.458400  0.739400  0.063200  1.0  0.9767
  Ag  Ag30  1  0.551400  0.775600  0.118100  1.0  0.9187
  Ag  Ag31  1  0.254530  0.302050  0.255380  1.0  0.481
  Ag  Ag32  1  0.422480  0.689690  0.628520  1.0  0.2396
  Ag  Ag33  1  0.573500  0.845200  0.294400  1.0  0.4501
  Ag  Ag34  1  0.541600  0.739400  0.436800  1.0  0.9675
  Ag  Ag35  1  0.448600  0.775600  0.381900  1.0  0.9131
  Ag  Ag36  1  0.745470  0.302050  0.244620  1.0  0.4814
  Ag  Ag37  1  0.000000  0.958000  0.750000  1.0  0.3694
  Ag  Ag38  1  0.500000  0.542000  0.250000  1.0  0.3694
  Ag  Ag39  1  0.422480  0.310310  0.128520  1.0  0.2392
  Ag  Ag40  1  0.573500  0.154800  0.794400  1.0  0.4514
  Ag  Ag41  1  0.541600  0.260600  0.936800  1.0  0.9716
  Ag  Ag42  1  0.448600  0.224400  0.881900  1.0  0.9109
  Ag  Ag43  1  0.745470  0.697950  0.744620  1.0  0.481
  Ag  Ag44  1  0.577520  0.310310  0.371480  1.0  0.239
  Ag  Ag45  1  0.426500  0.154800  0.705600  1.0  0.4509
  Ag  Ag46  1  0.458400  0.260600  0.563200  1.0  0.9803
  Ag  Ag47  1  0.551400  0.224400  0.618100  1.0  0.9158
  Ag  Ag48  1  0.254530  0.697950  0.755380  1.0  0.4808
  Ag  Ag49  1  0.754530  0.802050  0.255380  1.0  0.481
  Ag  Ag50  1  0.077520  0.189690  0.871480  1.0  0.2392
  Ag  Ag51  1  0.926500  0.345200  0.205600  1.0  0.4495
  Ag  Ag52  1  0.958400  0.239400  0.063200  1.0  0.977
  Ag  Ag53  1  0.051400  0.275600  0.118100  1.0  0.9173
  Ag  Ag54  1  0.245470  0.802050  0.244620  1.0  0.4814
  Ag  Ag55  1  0.922480  0.189690  0.628520  1.0  0.2396
  Ag  Ag56  1  0.073500  0.345200  0.294400  1.0  0.4501
  Ag  Ag57  1  0.041600  0.239400  0.436800  1.0  0.9675
  Ag  Ag58  1  0.948600  0.275600  0.381900  1.0  0.9119
  Ag  Ag59  1  0.500000  0.458000  0.750000  1.0  0.3694
  Ag  Ag60  1  0.000000  0.042000  0.250000  1.0  0.3694
  C  C61  1  0.314000  0.355300  0.634600  1.0  0.5494
  C  C62  1  0.223200  0.347800  0.539700  1.0  0.4841
  C  C63  1  0.811700  0.637900  0.131000  1.0  0.5012
  C  C64  1  0.790300  0.647000  0.996700  1.0  0.5554
  C  C65  1  0.918300  0.953500  0.924400  1.0  0.4842
  C  C66  1  0.888000  0.044200  0.857400  1.0  0.4784
  C  C67  1  0.686000  0.355300  0.865400  1.0  0.5495
  C  C68  1  0.776800  0.347800  0.960300  1.0  0.4854
  C  C69  1  0.188300  0.637900  0.369000  1.0  0.5026
  C  C70  1  0.209700  0.647000  0.503300  1.0  0.5555
  C  C71  1  0.081700  0.953500  0.575600  1.0  0.4833
  C  C72  1  0.112000  0.044200  0.642600  1.0  0.4787
  C  C73  1  0.688300  0.862100  0.869000  1.0  0.5027
  C  C74  1  0.709700  0.853000  0.003300  1.0  0.5557
  C  C75  1  0.581700  0.546500  0.075600  1.0  0.4835
  C  C76  1  0.612000  0.455800  0.142600  1.0  0.4796
  C  C77  1  0.186000  0.144700  0.365400  1.0  0.5494
  C  C78  1  0.276800  0.152200  0.460300  1.0  0.4853
  C  C79  1  0.311700  0.862100  0.631000  1.0  0.5008
  C  C80  1  0.290300  0.853000  0.496700  1.0  0.5561
  C  C81  1  0.418300  0.546500  0.424400  1.0  0.4845
  C  C82  1  0.388000  0.455800  0.357400  1.0  0.4787
  C  C83  1  0.814000  0.144700  0.134600  1.0  0.5493
  C  C84  1  0.723200  0.152200  0.039700  1.0  0.4839
  C  C85  1  0.311700  0.137900  0.131000  1.0  0.5012
  C  C86  1  0.290300  0.147000  0.996700  1.0  0.5554
  C  C87  1  0.418300  0.453500  0.924400  1.0  0.4842
  C  C88  1  0.388000  0.544200  0.857400  1.0  0.4851
  C  C89  1  0.814000  0.855300  0.634600  1.0  0.5494
  C  C90  1  0.723200  0.847800  0.539700  1.0  0.4841
  C  C91  1  0.688300  0.137900  0.369000  1.0  0.5026
  C  C92  1  0.709700  0.147000  0.503300  1.0  0.5555
  C  C93  1  0.581700  0.453500  0.575600  1.0  0.4833
  C  C94  1  0.612000  0.544200  0.642600  1.0  0.4853
  C  C95  1  0.186000  0.855300  0.865400  1.0  0.5495
  C  C96  1  0.276800  0.847800  0.960300  1.0  0.4854
  C  C97  1  0.686000  0.644700  0.365400  1.0  0.5494
  C  C98  1  0.776800  0.652200  0.460300  1.0  0.4853
  C  C99  1  0.188300  0.362100  0.869000  1.0  0.5027
  C  C100  1  0.209700  0.353000  0.003300  1.0  0.5557
  C  C101  1  0.081700  0.046500  0.075600  1.0  0.4835
  C  C102  1  0.112000  0.955800  0.142600  1.0  0.4862
  C  C103  1  0.314000  0.644700  0.134600  1.0  0.5493
  C  C104  1  0.223200  0.652200  0.039700  1.0  0.4839
  C  C105  1  0.811700  0.362100  0.631000  1.0  0.5008
  C  C106  1  0.790300  0.353000  0.496700  1.0  0.5561
  C  C107  1  0.918300  0.046500  0.424400  1.0  0.4845
  C  C108  1  0.888000  0.955800  0.357400  1.0  0.4852
  O  O109  1  0.351300  0.419900  0.615600  1.0  -0.7279
  O  O110  1  0.205700  0.408500  0.460200  1.0  -0.7268
  O  O111  1  0.338300  0.300700  0.715000  1.0  -0.6909
  O  O112  1  0.181300  0.287400  0.552400  1.0  -0.7305
  O  O113  1  0.781000  0.569400  0.160600  1.0  -0.6802
  O  O114  1  0.743100  0.584500  0.934300  1.0  -0.7084
  O  O115  1  0.853300  0.696000  0.196900  1.0  -0.7005
  O  O116  1  0.814600  0.710300  0.957800  1.0  -0.694
  O  O117  1  0.882800  0.928600  0.990100  1.0  -0.7292
  O  O118  1  0.826600  0.077400  0.871300  1.0  -0.734
  O  O119  1  0.973800  0.912400  0.915600  1.0  -0.6938
  O  O120  1  0.921600  0.080200  0.799600  1.0  -0.6778
  O  O121  1  0.648700  0.419900  0.884400  1.0  -0.7282
  O  O122  1  0.794300  0.408500  0.039800  1.0  -0.7288
  O  O123  1  0.661700  0.300700  0.785000  1.0  -0.6914
  O  O124  1  0.818700  0.287400  0.947600  1.0  -0.7288
  O  O125  1  0.219000  0.569400  0.339400  1.0  -0.6791
  O  O126  1  0.256900  0.584500  0.565700  1.0  -0.7089
  O  O127  1  0.146700  0.696000  0.303100  1.0  -0.7009
  O  O128  1  0.185400  0.710300  0.542200  1.0  -0.6949
  O  O129  1  0.117200  0.928600  0.509900  1.0  -0.7298
  O  O130  1  0.173400  0.077400  0.628700  1.0  -0.7328
  O  O131  1  0.026200  0.912400  0.584400  1.0  -0.6952
  O  O132  1  0.078400  0.080200  0.700400  1.0  -0.679
  O  O133  1  0.719000  0.930600  0.839400  1.0  -0.6796
  O  O134  1  0.756900  0.915500  0.065700  1.0  -0.7089
  O  O135  1  0.646700  0.804000  0.803100  1.0  -0.7003
  O  O136  1  0.685400  0.789700  0.042200  1.0  -0.6947
  O  O137  1  0.617200  0.571400  0.009900  1.0  -0.7302
  O  O138  1  0.673400  0.422600  0.128700  1.0  -0.7322
  O  O139  1  0.526200  0.587600  0.084400  1.0  -0.6951
  O  O140  1  0.578400  0.419800  0.200400  1.0  -0.6781
  O  O141  1  0.148700  0.080100  0.384400  1.0  -0.7283
  O  O142  1  0.294300  0.091500  0.539800  1.0  -0.7291
  O  O143  1  0.161700  0.199300  0.285000  1.0  -0.6898
  O  O144  1  0.318700  0.212600  0.447600  1.0  -0.7297
  O  O145  1  0.281000  0.930600  0.660600  1.0  -0.6818
  O  O146  1  0.243100  0.915500  0.434300  1.0  -0.708
  O  O147  1  0.353300  0.804000  0.696900  1.0  -0.6996
  O  O148  1  0.314600  0.789700  0.457800  1.0  -0.6921
  O  O149  1  0.382800  0.571400  0.490100  1.0  -0.7313
  O  O150  1  0.326600  0.422600  0.371300  1.0  -0.7343
  O  O151  1  0.473800  0.587600  0.415600  1.0  -0.694
  O  O152  1  0.421600  0.419800  0.299600  1.0  -0.677
  O  O153  1  0.851300  0.080100  0.115600  1.0  -0.728
  O  O154  1  0.705700  0.091500  0.960200  1.0  -0.727
  O  O155  1  0.838300  0.199300  0.215000  1.0  -0.6914
  O  O156  1  0.681300  0.212600  0.052400  1.0  -0.7296
  O  O157  1  0.281000  0.069400  0.160600  1.0  -0.6802
  O  O158  1  0.243100  0.084500  0.934300  1.0  -0.7084
  O  O159  1  0.353300  0.196000  0.196900  1.0  -0.7005
  O  O160  1  0.314600  0.210300  0.957800  1.0  -0.694
  O  O161  1  0.382800  0.428600  0.990100  1.0  -0.7292
  O  O162  1  0.326600  0.577400  0.871300  1.0  -0.734
  O  O163  1  0.473800  0.412400  0.915600  1.0  -0.6938
  O  O164  1  0.421600  0.580200  0.799600  1.0  -0.6778
  O  O165  1  0.851300  0.919900  0.615600  1.0  -0.7279
  O  O166  1  0.705700  0.908500  0.460200  1.0  -0.7268
  O  O167  1  0.838300  0.800700  0.715000  1.0  -0.69
  O  O168  1  0.681300  0.787400  0.552400  1.0  -0.7305
  O  O169  1  0.719000  0.069400  0.339400  1.0  -0.6791
  O  O170  1  0.756900  0.084500  0.565700  1.0  -0.7089
  O  O171  1  0.646700  0.196000  0.303100  1.0  -0.7009
  O  O172  1  0.685400  0.210300  0.542200  1.0  -0.6949
  O  O173  1  0.617200  0.428600  0.509900  1.0  -0.7298
  O  O174  1  0.673400  0.577400  0.628700  1.0  -0.7328
  O  O175  1  0.526200  0.412400  0.584400  1.0  -0.6952
  O  O176  1  0.578400  0.580200  0.700400  1.0  -0.679
  O  O177  1  0.148700  0.919900  0.884400  1.0  -0.7282
  O  O178  1  0.294300  0.908500  0.039800  1.0  -0.7288
  O  O179  1  0.161700  0.800700  0.785000  1.0  -0.6901
  O  O180  1  0.318700  0.787400  0.947600  1.0  -0.7288
  O  O181  1  0.648700  0.580100  0.384400  1.0  -0.7283
  O  O182  1  0.794300  0.591500  0.539800  1.0  -0.7291
  O  O183  1  0.661700  0.699300  0.285000  1.0  -0.6887
  O  O184  1  0.818700  0.712600  0.447600  1.0  -0.7297
  O  O185  1  0.219000  0.430600  0.839400  1.0  -0.6796
  O  O186  1  0.256900  0.415500  0.065700  1.0  -0.7089
  O  O187  1  0.146700  0.304000  0.803100  1.0  -0.7003
  O  O188  1  0.185400  0.289700  0.042200  1.0  -0.6947
  O  O189  1  0.117200  0.071400  0.009900  1.0  -0.7302
  O  O190  1  0.173400  0.922600  0.128700  1.0  -0.7322
  O  O191  1  0.026200  0.087600  0.084400  1.0  -0.6951
  O  O192  1  0.078400  0.919800  0.200400  1.0  -0.6781
  O  O193  1  0.351300  0.580100  0.115600  1.0  -0.728
  O  O194  1  0.205700  0.591500  0.960200  1.0  -0.727
  O  O195  1  0.338300  0.699300  0.215000  1.0  -0.6903
  O  O196  1  0.181300  0.712600  0.052400  1.0  -0.7296
  O  O197  1  0.781000  0.430600  0.660600  1.0  -0.6818
  O  O198  1  0.743100  0.415500  0.434300  1.0  -0.708
  O  O199  1  0.853300  0.304000  0.696900  1.0  -0.6996
  O  O200  1  0.814600  0.289700  0.457800  1.0  -0.6921
  O  O201  1  0.882800  0.071400  0.490100  1.0  -0.7313
  O  O202  1  0.826600  0.922600  0.371300  1.0  -0.7343
  O  O203  1  0.973800  0.087600  0.415600  1.0  -0.694
  O  O204  1  0.921600  0.919800  0.299600  1.0  -0.677
