# generated using pymatgen
data_Cr2Ag3(CO2)12
_symmetry_space_group_name_H-M   'P 1'
_cell_length_a   11.73700000
_cell_length_b   11.73700000
_cell_length_c   12.31300000
_cell_angle_alpha   72.09240000
_cell_angle_beta   72.09240000
_cell_angle_gamma   76.91330000
_symmetry_Int_Tables_number   1
_chemical_formula_structural   Cr2Ag3(CO2)12
_chemical_formula_sum   'Cr4 Ag6 C24 O48'
_cell_volume   1519.45733674
_cell_formula_units_Z   2
loop_
 _symmetry_equiv_pos_site_id
 _symmetry_equiv_pos_as_xyz
  1  'x, y, z'
loop_
 _atom_site_type_symbol
 _atom_site_label
 _atom_site_symmetry_multiplicity
 _atom_site_fract_x
 _atom_site_fract_y
 _atom_site_fract_z
 _atom_site_occupancy
 _atom_site_charge
  Cr  Cr1  1  0.204570  0.213810  0.475460  1.0  1.5065
  Cr  Cr2  1  0.786190  0.795430  0.024540  1.0  1.5075
  Cr  Cr3  1  0.795430  0.786190  0.524540  1.0  1.5078
  Cr  Cr4  1  0.213810  0.204570  0.975460  1.0  1.5064
  Ag  Ag5  1  0.949270  0.556090  0.745080  1.0  0.6285
  Ag  Ag6  1  0.443910  0.050730  0.754920  1.0  0.6283
  Ag  Ag7  1  0.050730  0.443910  0.254920  1.0  0.6294
  Ag  Ag8  1  0.556090  0.949270  0.245080  1.0  0.6278
  Ag  Ag9  1  0.956770  0.043230  0.750000  1.0  0.5239
  Ag  Ag10  1  0.043230  0.956770  0.250000  1.0  0.5247
  C  C11  1  0.042200  0.331600  0.633000  1.0  0.6699
  C  C12  1  0.122200  0.426000  0.543900  1.0  0.5859
  C  C13  1  0.827400  0.552000  0.129000  1.0  0.6954
  C  C14  1  0.857700  0.564300  0.997600  1.0  0.7323
  C  C15  1  0.034600  0.126000  0.925000  1.0  0.6404
  C  C16  1  0.156300  0.066300  0.858400  1.0  0.6175
  C  C17  1  0.668400  0.957800  0.867000  1.0  0.6704
  C  C18  1  0.574000  0.877800  0.956100  1.0  0.5874
  C  C19  1  0.448000  0.172600  0.371000  1.0  0.6937
  C  C20  1  0.435700  0.142300  0.502400  1.0  0.7353
  C  C21  1  0.874000  0.965400  0.575000  1.0  0.6438
  C  C22  1  0.933700  0.843700  0.641600  1.0  0.6208
  C  C23  1  0.957800  0.668400  0.367000  1.0  0.671
  C  C24  1  0.877800  0.574000  0.456100  1.0  0.5869
  C  C25  1  0.172600  0.448000  0.871000  1.0  0.6942
  C  C26  1  0.142300  0.435700  0.002400  1.0  0.7404
  C  C27  1  0.965400  0.874000  0.075000  1.0  0.6407
  C  C28  1  0.843700  0.933700  0.141600  1.0  0.615
  C  C29  1  0.331600  0.042200  0.133000  1.0  0.6695
  C  C30  1  0.426000  0.122200  0.043900  1.0  0.587
  C  C31  1  0.552000  0.827400  0.629000  1.0  0.6926
  C  C32  1  0.564300  0.857700  0.497600  1.0  0.74
  C  C33  1  0.126000  0.034600  0.425000  1.0  0.6447
  C  C34  1  0.066300  0.156300  0.358400  1.0  0.6171
  O  O35  1  0.068500  0.226300  0.613800  1.0  -0.5623
  O  O36  1  0.200700  0.384500  0.462500  1.0  -0.5066
  O  O37  1  0.959400  0.361200  0.716000  1.0  -0.5357
  O  O38  1  0.105300  0.530700  0.552300  1.0  -0.5013
  O  O39  1  0.788900  0.652100  0.158600  1.0  -0.5056
  O  O40  1  0.842300  0.672700  0.933900  1.0  -0.534
  O  O41  1  0.845300  0.450300  0.197800  1.0  -0.5772
  O  O42  1  0.894200  0.474600  0.956400  1.0  -0.5563
  O  O43  1  0.045800  0.187600  0.990700  1.0  -0.5081
  O  O44  1  0.248400  0.095400  0.871200  1.0  -0.537
  O  O45  1  0.937000  0.113200  0.917100  1.0  -0.5266
  O  O46  1  0.158600  0.996800  0.800400  1.0  -0.4977
  O  O47  1  0.773700  0.931500  0.886200  1.0  -0.5615
  O  O48  1  0.615500  0.799300  0.037500  1.0  -0.5074
  O  O49  1  0.638800  0.040600  0.784000  1.0  -0.5329
  O  O50  1  0.469300  0.894700  0.947700  1.0  -0.5019
  O  O51  1  0.347900  0.211100  0.341400  1.0  -0.5057
  O  O52  1  0.327300  0.157700  0.566100  1.0  -0.5326
  O  O53  1  0.549700  0.154700  0.302200  1.0  -0.5781
  O  O54  1  0.525400  0.105800  0.543600  1.0  -0.5475
  O  O55  1  0.812400  0.954200  0.509300  1.0  -0.5105
  O  O56  1  0.904600  0.751600  0.628800  1.0  -0.537
  O  O57  1  0.886800  0.063000  0.582900  1.0  -0.5205
  O  O58  1  0.003200  0.841400  0.699600  1.0  -0.5058
  O  O59  1  0.931500  0.773700  0.386200  1.0  -0.5633
  O  O60  1  0.799300  0.615500  0.537500  1.0  -0.5067
  O  O61  1  0.040600  0.638800  0.284000  1.0  -0.5368
  O  O62  1  0.894700  0.469300  0.447700  1.0  -0.503
  O  O63  1  0.211100  0.347900  0.841400  1.0  -0.5041
  O  O64  1  0.157700  0.327300  0.066100  1.0  -0.5349
  O  O65  1  0.154700  0.549700  0.802200  1.0  -0.5774
  O  O66  1  0.105800  0.525400  0.043600  1.0  -0.5559
  O  O67  1  0.954200  0.812400  0.009300  1.0  -0.509
  O  O68  1  0.751600  0.904600  0.128800  1.0  -0.5366
  O  O69  1  0.063000  0.886800  0.082900  1.0  -0.5244
  O  O70  1  0.841400  0.003200  0.199600  1.0  -0.4997
  O  O71  1  0.226300  0.068500  0.113800  1.0  -0.5621
  O  O72  1  0.384500  0.200700  0.962500  1.0  -0.5087
  O  O73  1  0.361200  0.959400  0.216000  1.0  -0.5325
  O  O74  1  0.530700  0.105300  0.052300  1.0  -0.5024
  O  O75  1  0.652100  0.788900  0.658600  1.0  -0.506
  O  O76  1  0.672700  0.842300  0.433900  1.0  -0.5332
  O  O77  1  0.450300  0.845300  0.697800  1.0  -0.5761
  O  O78  1  0.474600  0.894200  0.456400  1.0  -0.5471
  O  O79  1  0.187600  0.045800  0.490700  1.0  -0.51
  O  O80  1  0.095400  0.248400  0.371200  1.0  -0.5387
  O  O81  1  0.113200  0.937000  0.417100  1.0  -0.5194
  O  O82  1  0.996800  0.158600  0.300400  1.0  -0.5049
