# generated using pymatgen
data_Cs2Cr2Ag9(C6O13)2
_symmetry_space_group_name_H-M   'P 1'
_cell_length_a   18.33800000
_cell_length_b   14.61900000
_cell_length_c   12.37900000
_cell_angle_alpha   90.00000000
_cell_angle_beta   113.00000000
_cell_angle_gamma   90.00000000
_symmetry_Int_Tables_number   1
_chemical_formula_structural   Cs2Cr2Ag9(C6O13)2
_chemical_formula_sum   'Cs8 Cr8 Ag36 C48 O104'
_cell_volume   3054.78943651
_cell_formula_units_Z   4
loop_
 _symmetry_equiv_pos_site_id
 _symmetry_equiv_pos_as_xyz
  1  'x, y, z'
loop_
 _atom_site_type_symbol
 _atom_site_label
 _atom_site_symmetry_multiplicity
 _atom_site_fract_x
 _atom_site_fract_y
 _atom_site_fract_z
 _atom_site_occupancy
 _atom_site_charge
  Cs  Cs1  1  0.508800  0.214500  0.860200  1.0  0.9039
  Cs  Cs2  1  0.008800  0.714500  0.860200  1.0  0.9039
  Cs  Cs3  1  0.491200  0.214500  0.639800  1.0  0.8512
  Cs  Cs4  1  0.991200  0.714500  0.639800  1.0  0.8512
  Cs  Cs5  1  0.491200  0.785500  0.139800  1.0  0.8511
  Cs  Cs6  1  0.991200  0.285500  0.139800  1.0  0.8511
  Cs  Cs7  1  0.508800  0.785500  0.360200  1.0  0.904
  Cs  Cs8  1  0.008800  0.285500  0.360200  1.0  0.904
  Cr  Cr9  1  0.290500  0.495630  0.476140  1.0  1.4138
  Cr  Cr10  1  0.790500  0.995630  0.476140  1.0  1.4138
  Cr  Cr11  1  0.709500  0.495630  0.023860  1.0  1.4131
  Cr  Cr12  1  0.209500  0.995630  0.023860  1.0  1.4131
  Cr  Cr13  1  0.709500  0.504370  0.523860  1.0  1.4132
  Cr  Cr14  1  0.209500  0.004370  0.523860  1.0  1.4132
  Cr  Cr15  1  0.290500  0.504370  0.976140  1.0  1.4139
  Cr  Cr16  1  0.790500  0.004370  0.976140  1.0  1.4139
  Ag  Ag17  1  0.248280  0.197380  0.744620  1.0  0.5489
  Ag  Ag18  1  0.077690  0.190230  0.875250  1.0  0.5912
  Ag  Ag19  1  0.574900  0.158900  0.802200  1.0  0.5181
  Ag  Ag20  1  0.546900  0.243000  0.941300  1.0  1.0007
  Ag  Ag21  1  0.748280  0.697380  0.744620  1.0  0.5489
  Ag  Ag22  1  0.577690  0.690230  0.875250  1.0  0.5912
  Ag  Ag23  1  0.074900  0.658900  0.802200  1.0  0.5181
  Ag  Ag24  1  0.046900  0.743000  0.941300  1.0  1.0007
  Ag  Ag25  1  0.751720  0.197380  0.755380  1.0  0.5485
  Ag  Ag26  1  0.922310  0.190230  0.624750  1.0  0.5905
  Ag  Ag27  1  0.425100  0.158900  0.697800  1.0  0.517
  Ag  Ag28  1  0.453100  0.243000  0.558700  1.0  0.9988
  Ag  Ag29  1  0.251720  0.697380  0.755380  1.0  0.5485
  Ag  Ag30  1  0.422310  0.690230  0.624750  1.0  0.5905
  Ag  Ag31  1  0.925100  0.658900  0.697800  1.0  0.517
  Ag  Ag32  1  0.953100  0.743000  0.558700  1.0  0.9988
  Ag  Ag33  1  0.751720  0.802620  0.255380  1.0  0.5479
  Ag  Ag34  1  0.922310  0.809770  0.124750  1.0  0.5908
  Ag  Ag35  1  0.425100  0.841100  0.197800  1.0  0.5168
  Ag  Ag36  1  0.453100  0.757000  0.058700  1.0  0.9957
  Ag  Ag37  1  0.251720  0.302620  0.255380  1.0  0.5479
  Ag  Ag38  1  0.422310  0.309770  0.124750  1.0  0.5908
  Ag  Ag39  1  0.925100  0.341100  0.197800  1.0  0.5168
  Ag  Ag40  1  0.953100  0.257000  0.058700  1.0  0.9957
  Ag  Ag41  1  0.248280  0.802620  0.244620  1.0  0.5484
  Ag  Ag42  1  0.077690  0.809770  0.375250  1.0  0.5908
  Ag  Ag43  1  0.574900  0.841100  0.302200  1.0  0.5171
  Ag  Ag44  1  0.546900  0.757000  0.441300  1.0  0.9985
  Ag  Ag45  1  0.748280  0.302620  0.244620  1.0  0.5484
  Ag  Ag46  1  0.577690  0.309770  0.375250  1.0  0.5908
  Ag  Ag47  1  0.074900  0.341100  0.302200  1.0  0.5171
  Ag  Ag48  1  0.046900  0.257000  0.441300  1.0  0.9985
  Ag  Ag49  1  0.500000  0.462630  0.750000  1.0  0.4674
  Ag  Ag50  1  0.000000  0.962630  0.750000  1.0  0.4674
  Ag  Ag51  1  0.500000  0.537370  0.250000  1.0  0.4675
  Ag  Ag52  1  0.000000  0.037370  0.250000  1.0  0.4675
  C  C53  1  0.314100  0.355300  0.635500  1.0  0.5178
  C  C54  1  0.226800  0.347700  0.545500  1.0  0.5275
  C  C55  1  0.189500  0.639100  0.372700  1.0  0.5348
  C  C56  1  0.210100  0.646800  0.504700  1.0  0.5154
  C  C57  1  0.418900  0.545600  0.424900  1.0  0.5174
  C  C58  1  0.387700  0.453500  0.359300  1.0  0.5341
  C  C59  1  0.814100  0.855300  0.635500  1.0  0.5178
  C  C60  1  0.726800  0.847700  0.545500  1.0  0.5275
  C  C61  1  0.689500  0.139100  0.372700  1.0  0.5348
  C  C62  1  0.710100  0.146800  0.504700  1.0  0.5154
  C  C63  1  0.918900  0.045600  0.424900  1.0  0.5174
  C  C64  1  0.887700  0.953500  0.359300  1.0  0.5341
  C  C65  1  0.685900  0.355300  0.864500  1.0  0.5154
  C  C66  1  0.773200  0.347700  0.954500  1.0  0.5281
  C  C67  1  0.810500  0.639100  0.127300  1.0  0.5349
  C  C68  1  0.789900  0.646800  0.995300  1.0  0.5163
  C  C69  1  0.581100  0.545600  0.075100  1.0  0.517
  C  C70  1  0.612300  0.453500  0.140700  1.0  0.5345
  C  C71  1  0.185900  0.855300  0.864500  1.0  0.5154
  C  C72  1  0.273200  0.847700  0.954500  1.0  0.5281
  C  C73  1  0.310500  0.139100  0.127300  1.0  0.5349
  C  C74  1  0.289900  0.146800  0.995300  1.0  0.5163
  C  C75  1  0.081100  0.045600  0.075100  1.0  0.517
  C  C76  1  0.112300  0.953500  0.140700  1.0  0.5345
  C  C77  1  0.685900  0.644700  0.364500  1.0  0.5153
  C  C78  1  0.773200  0.652300  0.454500  1.0  0.5286
  C  C79  1  0.810500  0.360900  0.627300  1.0  0.5338
  C  C80  1  0.789900  0.353200  0.495300  1.0  0.5157
  C  C81  1  0.581100  0.454400  0.575100  1.0  0.5178
  C  C82  1  0.612300  0.546500  0.640700  1.0  0.5361
  C  C83  1  0.185900  0.144700  0.364500  1.0  0.5153
  C  C84  1  0.273200  0.152300  0.454500  1.0  0.5286
  C  C85  1  0.310500  0.860900  0.627300  1.0  0.5338
  C  C86  1  0.289900  0.853200  0.495300  1.0  0.5157
  C  C87  1  0.081100  0.954400  0.575100  1.0  0.5178
  C  C88  1  0.112300  0.046500  0.640700  1.0  0.5361
  C  C89  1  0.314100  0.644700  0.135500  1.0  0.5176
  C  C90  1  0.226800  0.652300  0.045500  1.0  0.5279
  C  C91  1  0.189500  0.360900  0.872700  1.0  0.5349
  C  C92  1  0.210100  0.353200  0.004700  1.0  0.514
  C  C93  1  0.418900  0.454400  0.924900  1.0  0.5181
  C  C94  1  0.387700  0.546500  0.859300  1.0  0.5362
  C  C95  1  0.814100  0.144700  0.135500  1.0  0.5176
  C  C96  1  0.726800  0.152300  0.045500  1.0  0.5279
  C  C97  1  0.689500  0.860900  0.872700  1.0  0.5349
  C  C98  1  0.710100  0.853200  0.004700  1.0  0.514
  C  C99  1  0.918900  0.954400  0.924900  1.0  0.5181
  C  C100  1  0.887700  0.046500  0.859300  1.0  0.5362
  O  O101  1  0.352200  0.421800  0.613000  1.0  -0.659
  O  O102  1  0.206800  0.408700  0.464800  1.0  -0.6905
  O  O103  1  0.342000  0.299700  0.716600  1.0  -0.6306
  O  O104  1  0.183800  0.287500  0.557900  1.0  -0.6485
  O  O105  1  0.219900  0.569100  0.343000  1.0  -0.6226
  O  O106  1  0.258000  0.584500  0.568000  1.0  -0.6339
  O  O107  1  0.147700  0.303900  0.806200  1.0  -0.6167
  O  O108  1  0.315900  0.210300  0.955900  1.0  -0.6053
  O  O109  1  0.383400  0.570400  0.488900  1.0  -0.6434
  O  O110  1  0.327100  0.422400  0.372300  1.0  -0.6546
  O  O111  1  0.525500  0.413700  0.586200  1.0  -0.6782
  O  O112  1  0.579300  0.582900  0.699400  1.0  -0.6054
  O  O113  1  0.994900  0.301100  0.898200  1.0  -0.6398
  O  O114  1  0.852200  0.921800  0.613000  1.0  -0.659
  O  O115  1  0.706800  0.908700  0.464800  1.0  -0.6905
  O  O116  1  0.842000  0.799700  0.716600  1.0  -0.6306
  O  O117  1  0.683800  0.787500  0.557900  1.0  -0.6485
  O  O118  1  0.719900  0.069100  0.343000  1.0  -0.6226
  O  O119  1  0.758000  0.084500  0.568000  1.0  -0.6339
  O  O120  1  0.647700  0.803900  0.806200  1.0  -0.6167
  O  O121  1  0.815900  0.710300  0.955900  1.0  -0.6053
  O  O122  1  0.883400  0.070400  0.488900  1.0  -0.6434
  O  O123  1  0.827100  0.922400  0.372300  1.0  -0.6546
  O  O124  1  0.025500  0.913700  0.586200  1.0  -0.6782
  O  O125  1  0.079300  0.082900  0.699400  1.0  -0.6054
  O  O126  1  0.494900  0.801100  0.898200  1.0  -0.6398
  O  O127  1  0.647800  0.421800  0.887000  1.0  -0.6608
  O  O128  1  0.793200  0.408700  0.035200  1.0  -0.6906
  O  O129  1  0.658000  0.299700  0.783400  1.0  -0.6341
  O  O130  1  0.816200  0.287500  0.942100  1.0  -0.6469
  O  O131  1  0.780100  0.569100  0.157000  1.0  -0.6212
  O  O132  1  0.742000  0.584500  0.932000  1.0  -0.6352
  O  O133  1  0.852300  0.303900  0.693800  1.0  -0.6163
  O  O134  1  0.684100  0.210300  0.544100  1.0  -0.6039
  O  O135  1  0.616600  0.570400  0.011100  1.0  -0.6444
  O  O136  1  0.672900  0.422400  0.127700  1.0  -0.6534
  O  O137  1  0.474500  0.413700  0.913800  1.0  -0.6782
  O  O138  1  0.420700  0.582900  0.800600  1.0  -0.604
  O  O139  1  0.005100  0.301100  0.601800  1.0  -0.639
  O  O140  1  0.147800  0.921800  0.887000  1.0  -0.6608
  O  O141  1  0.293200  0.908700  0.035200  1.0  -0.6906
  O  O142  1  0.158000  0.799700  0.783400  1.0  -0.6341
  O  O143  1  0.316200  0.787500  0.942100  1.0  -0.6469
  O  O144  1  0.280100  0.069100  0.157000  1.0  -0.6212
  O  O145  1  0.242000  0.084500  0.932000  1.0  -0.6352
  O  O146  1  0.352300  0.803900  0.693800  1.0  -0.6163
  O  O147  1  0.184100  0.710300  0.544100  1.0  -0.6039
  O  O148  1  0.116600  0.070400  0.011100  1.0  -0.6444
  O  O149  1  0.172900  0.922400  0.127700  1.0  -0.6534
  O  O150  1  0.974500  0.913700  0.913800  1.0  -0.6782
  O  O151  1  0.920700  0.082900  0.800600  1.0  -0.604
  O  O152  1  0.505100  0.801100  0.601800  1.0  -0.639
  O  O153  1  0.647800  0.578200  0.387000  1.0  -0.6606
  O  O154  1  0.793200  0.591300  0.535200  1.0  -0.6901
  O  O155  1  0.658000  0.700300  0.283400  1.0  -0.6337
  O  O156  1  0.816200  0.712500  0.442100  1.0  -0.6449
  O  O157  1  0.780100  0.430900  0.657000  1.0  -0.6213
  O  O158  1  0.742000  0.415500  0.432000  1.0  -0.6347
  O  O159  1  0.852300  0.696100  0.193800  1.0  -0.6177
  O  O160  1  0.684100  0.789700  0.044100  1.0  -0.6046
  O  O161  1  0.616600  0.429600  0.511100  1.0  -0.6444
  O  O162  1  0.672900  0.577600  0.627700  1.0  -0.6545
  O  O163  1  0.474500  0.586300  0.413800  1.0  -0.6771
  O  O164  1  0.420700  0.417100  0.300600  1.0  -0.6052
  O  O165  1  0.005100  0.698900  0.101800  1.0  -0.64
  O  O166  1  0.147800  0.078200  0.387000  1.0  -0.6606
  O  O167  1  0.293200  0.091300  0.535200  1.0  -0.6901
  O  O168  1  0.158000  0.200300  0.283400  1.0  -0.6337
  O  O169  1  0.316200  0.212500  0.442100  1.0  -0.6449
  O  O170  1  0.280100  0.930900  0.657000  1.0  -0.6213
  O  O171  1  0.242000  0.915500  0.432000  1.0  -0.6347
  O  O172  1  0.352300  0.196100  0.193800  1.0  -0.6177
  O  O173  1  0.184100  0.289700  0.044100  1.0  -0.6046
  O  O174  1  0.116600  0.929600  0.511100  1.0  -0.6444
  O  O175  1  0.172900  0.077600  0.627700  1.0  -0.6545
  O  O176  1  0.974500  0.086300  0.413800  1.0  -0.6771
  O  O177  1  0.920700  0.917100  0.300600  1.0  -0.6052
  O  O178  1  0.505100  0.198900  0.101800  1.0  -0.64
  O  O179  1  0.352200  0.578200  0.113000  1.0  -0.6592
  O  O180  1  0.206800  0.591300  0.964800  1.0  -0.6902
  O  O181  1  0.342000  0.700300  0.216600  1.0  -0.6322
  O  O182  1  0.183800  0.712500  0.057900  1.0  -0.6439
  O  O183  1  0.219900  0.430900  0.843000  1.0  -0.622
  O  O184  1  0.258000  0.415500  0.068000  1.0  -0.6338
  O  O185  1  0.147700  0.696100  0.306200  1.0  -0.6174
  O  O186  1  0.315900  0.789700  0.455900  1.0  -0.6036
  O  O187  1  0.383400  0.429600  0.988900  1.0  -0.6425
  O  O188  1  0.327100  0.577600  0.872300  1.0  -0.6546
  O  O189  1  0.525500  0.586300  0.086200  1.0  -0.6769
  O  O190  1  0.579300  0.417100  0.199400  1.0  -0.6054
  O  O191  1  0.994900  0.698900  0.398200  1.0  -0.6407
  O  O192  1  0.852200  0.078200  0.113000  1.0  -0.6592
  O  O193  1  0.706800  0.091300  0.964800  1.0  -0.6902
  O  O194  1  0.842000  0.200300  0.216600  1.0  -0.6322
  O  O195  1  0.683800  0.212500  0.057900  1.0  -0.6439
  O  O196  1  0.719900  0.930900  0.843000  1.0  -0.622
  O  O197  1  0.758000  0.915500  0.068000  1.0  -0.6338
  O  O198  1  0.647700  0.196100  0.306200  1.0  -0.6174
  O  O199  1  0.815900  0.289700  0.455900  1.0  -0.6036
  O  O200  1  0.883400  0.929600  0.988900  1.0  -0.6425
  O  O201  1  0.827100  0.077600  0.872300  1.0  -0.6546
  O  O202  1  0.025500  0.086300  0.086200  1.0  -0.6769
  O  O203  1  0.079300  0.917100  0.199400  1.0  -0.6054
  O  O204  1  0.494900  0.198900  0.398200  1.0  -0.6407
