# generated using pymatgen
data_Cs2Cr2Ag9(C6O13)2
_symmetry_space_group_name_H-M   'P 1'
_cell_length_a   18.33500000
_cell_length_b   14.62800000
_cell_length_c   12.38300000
_cell_angle_alpha   90.00000000
_cell_angle_beta   113.00000000
_cell_angle_gamma   90.00000000
_symmetry_Int_Tables_number   1
_chemical_formula_structural   Cs2Cr2Ag9(C6O13)2
_chemical_formula_sum   'Cs8 Cr8 Ag36 C48 O104'
_cell_volume   3057.15755712
_cell_formula_units_Z   4
loop_
 _symmetry_equiv_pos_site_id
 _symmetry_equiv_pos_as_xyz
  1  'x, y, z'
loop_
 _atom_site_type_symbol
 _atom_site_label
 _atom_site_symmetry_multiplicity
 _atom_site_fract_x
 _atom_site_fract_y
 _atom_site_fract_z
 _atom_site_occupancy
 _atom_site_charge
  Cs  Cs1  1  0.508800  0.215400  0.860800  1.0  0.8637
  Cs  Cs2  1  0.008800  0.715400  0.860800  1.0  0.8637
  Cs  Cs3  1  0.491200  0.215400  0.639200  1.0  0.824
  Cs  Cs4  1  0.991200  0.715400  0.639200  1.0  0.824
  Cs  Cs5  1  0.491200  0.784600  0.139200  1.0  0.8225
  Cs  Cs6  1  0.991200  0.284600  0.139200  1.0  0.8225
  Cs  Cs7  1  0.508800  0.784600  0.360800  1.0  0.8629
  Cs  Cs8  1  0.008800  0.284600  0.360800  1.0  0.8629
  Cr  Cr9  1  0.290600  0.495610  0.476300  1.0  1.4233
  Cr  Cr10  1  0.790600  0.995610  0.476300  1.0  1.4233
  Cr  Cr11  1  0.709400  0.495610  0.023700  1.0  1.4234
  Cr  Cr12  1  0.209400  0.995610  0.023700  1.0  1.4234
  Cr  Cr13  1  0.709400  0.504390  0.523700  1.0  1.4242
  Cr  Cr14  1  0.209400  0.004390  0.523700  1.0  1.4242
  Cr  Cr15  1  0.290600  0.504390  0.976300  1.0  1.424
  Cr  Cr16  1  0.790600  0.004390  0.976300  1.0  1.424
  Ag  Ag17  1  0.248230  0.197690  0.744400  1.0  0.5549
  Ag  Ag18  1  0.577960  0.690090  0.876020  1.0  0.6046
  Ag  Ag19  1  0.577100  0.157100  0.803400  1.0  0.4822
  Ag  Ag20  1  0.541000  0.234300  0.938300  1.0  0.9672
  Ag  Ag21  1  0.748230  0.697690  0.744400  1.0  0.5549
  Ag  Ag22  1  0.077960  0.190090  0.876020  1.0  0.6046
  Ag  Ag23  1  0.077100  0.657100  0.803400  1.0  0.4822
  Ag  Ag24  1  0.041000  0.734300  0.938300  1.0  0.9672
  Ag  Ag25  1  0.751770  0.197690  0.755600  1.0  0.5543
  Ag  Ag26  1  0.422040  0.690090  0.623980  1.0  0.6041
  Ag  Ag27  1  0.422900  0.157100  0.696600  1.0  0.4829
  Ag  Ag28  1  0.459000  0.234300  0.561700  1.0  0.9691
  Ag  Ag29  1  0.251770  0.697690  0.755600  1.0  0.5543
  Ag  Ag30  1  0.922040  0.190090  0.623980  1.0  0.6041
  Ag  Ag31  1  0.922900  0.657100  0.696600  1.0  0.4829
  Ag  Ag32  1  0.959000  0.734300  0.561700  1.0  0.9691
  Ag  Ag33  1  0.751770  0.802310  0.255600  1.0  0.5541
  Ag  Ag34  1  0.422040  0.309910  0.123980  1.0  0.6047
  Ag  Ag35  1  0.422900  0.842900  0.196600  1.0  0.4848
  Ag  Ag36  1  0.459000  0.765700  0.061700  1.0  0.9653
  Ag  Ag37  1  0.251770  0.302310  0.255600  1.0  0.5541
  Ag  Ag38  1  0.922040  0.809910  0.123980  1.0  0.6047
  Ag  Ag39  1  0.922900  0.342900  0.196600  1.0  0.4848
  Ag  Ag40  1  0.959000  0.265700  0.061700  1.0  0.9653
  Ag  Ag41  1  0.248230  0.802310  0.244400  1.0  0.5545
  Ag  Ag42  1  0.577960  0.309910  0.376020  1.0  0.6046
  Ag  Ag43  1  0.577100  0.842900  0.303400  1.0  0.4831
  Ag  Ag44  1  0.541000  0.765700  0.438300  1.0  0.9631
  Ag  Ag45  1  0.748230  0.302310  0.244400  1.0  0.5545
  Ag  Ag46  1  0.077960  0.809910  0.376020  1.0  0.6046
  Ag  Ag47  1  0.077100  0.342900  0.303400  1.0  0.4831
  Ag  Ag48  1  0.041000  0.265700  0.438300  1.0  0.9631
  Ag  Ag49  1  0.500000  0.464130  0.750000  1.0  0.4552
  Ag  Ag50  1  0.000000  0.964130  0.750000  1.0  0.4552
  Ag  Ag51  1  0.500000  0.535870  0.250000  1.0  0.4555
  Ag  Ag52  1  0.000000  0.035870  0.250000  1.0  0.4555
  C  C53  1  0.314900  0.355400  0.633200  1.0  0.5708
  C  C54  1  0.227400  0.348000  0.545700  1.0  0.5534
  C  C55  1  0.188900  0.640100  0.371300  1.0  0.5612
  C  C56  1  0.210500  0.647400  0.506000  1.0  0.5323
  C  C57  1  0.581400  0.545500  0.075600  1.0  0.5051
  C  C58  1  0.387700  0.453000  0.358700  1.0  0.5418
  C  C59  1  0.814900  0.855400  0.633200  1.0  0.5708
  C  C60  1  0.727400  0.848000  0.545700  1.0  0.5534
  C  C61  1  0.688900  0.140100  0.371300  1.0  0.5612
  C  C62  1  0.710500  0.147400  0.506000  1.0  0.5323
  C  C63  1  0.081400  0.045500  0.075600  1.0  0.5051
  C  C64  1  0.887700  0.953000  0.358700  1.0  0.5418
  C  C65  1  0.685100  0.355400  0.866800  1.0  0.5693
  C  C66  1  0.772600  0.348000  0.954300  1.0  0.5531
  C  C67  1  0.811100  0.640100  0.128700  1.0  0.56
  C  C68  1  0.789500  0.647400  0.994000  1.0  0.5356
  C  C69  1  0.418600  0.545500  0.424400  1.0  0.5056
  C  C70  1  0.612300  0.453000  0.141300  1.0  0.5434
  C  C71  1  0.185100  0.855400  0.866800  1.0  0.5693
  C  C72  1  0.272600  0.848000  0.954300  1.0  0.5531
  C  C73  1  0.311100  0.140100  0.128700  1.0  0.56
  C  C74  1  0.289500  0.147400  0.994000  1.0  0.5356
  C  C75  1  0.918600  0.045500  0.424400  1.0  0.5056
  C  C76  1  0.112300  0.953000  0.141300  1.0  0.5434
  C  C77  1  0.685100  0.644600  0.366800  1.0  0.5695
  C  C78  1  0.772600  0.652000  0.454300  1.0  0.5541
  C  C79  1  0.811100  0.359900  0.628700  1.0  0.5596
  C  C80  1  0.789500  0.352600  0.494000  1.0  0.5337
  C  C81  1  0.418600  0.454500  0.924400  1.0  0.506
  C  C82  1  0.612300  0.547000  0.641300  1.0  0.5427
  C  C83  1  0.185100  0.144600  0.366800  1.0  0.5695
  C  C84  1  0.272600  0.152000  0.454300  1.0  0.5541
  C  C85  1  0.311100  0.859900  0.628700  1.0  0.5596
  C  C86  1  0.289500  0.852600  0.494000  1.0  0.5337
  C  C87  1  0.918600  0.954500  0.924400  1.0  0.506
  C  C88  1  0.112300  0.047000  0.641300  1.0  0.5427
  C  C89  1  0.314900  0.644600  0.133200  1.0  0.5708
  C  C90  1  0.227400  0.652000  0.045700  1.0  0.5545
  C  C91  1  0.188900  0.359900  0.871300  1.0  0.5612
  C  C92  1  0.210500  0.352600  0.006000  1.0  0.5324
  C  C93  1  0.581400  0.454500  0.575600  1.0  0.5055
  C  C94  1  0.387700  0.547000  0.858700  1.0  0.5415
  C  C95  1  0.814900  0.144600  0.133200  1.0  0.5708
  C  C96  1  0.727400  0.152000  0.045700  1.0  0.5545
  C  C97  1  0.688900  0.859900  0.871300  1.0  0.5612
  C  C98  1  0.710500  0.852600  0.006000  1.0  0.5324
  C  C99  1  0.081400  0.954500  0.575600  1.0  0.5055
  C  C100  1  0.887700  0.047000  0.858700  1.0  0.5415
  O  O101  1  0.351900  0.421200  0.613500  1.0  -0.6325
  O  O102  1  0.207200  0.409100  0.465500  1.0  -0.6811
  O  O103  1  0.341600  0.300200  0.716900  1.0  -0.6579
  O  O104  1  0.183600  0.287600  0.559300  1.0  -0.723
  O  O105  1  0.219300  0.569700  0.343600  1.0  -0.6265
  O  O106  1  0.258100  0.585500  0.567200  1.0  -0.6428
  O  O107  1  0.648100  0.804000  0.805500  1.0  -0.6065
  O  O108  1  0.684400  0.789800  0.045200  1.0  -0.5805
  O  O109  1  0.616800  0.570800  0.010500  1.0  -0.6427
  O  O110  1  0.326400  0.421900  0.372000  1.0  -0.6619
  O  O111  1  0.525700  0.413600  0.586300  1.0  -0.6747
  O  O112  1  0.579000  0.581400  0.698900  1.0  -0.5907
  O  O113  1  0.496500  0.794200  0.904900  1.0  -0.6444
  O  O114  1  0.851900  0.921200  0.613500  1.0  -0.6325
  O  O115  1  0.707200  0.909100  0.465500  1.0  -0.6811
  O  O116  1  0.841600  0.800200  0.716900  1.0  -0.6579
  O  O117  1  0.683600  0.787600  0.559300  1.0  -0.723
  O  O118  1  0.719300  0.069700  0.343600  1.0  -0.6265
  O  O119  1  0.758100  0.085500  0.567200  1.0  -0.6428
  O  O120  1  0.148100  0.304000  0.805500  1.0  -0.6065
  O  O121  1  0.184400  0.289800  0.045200  1.0  -0.5805
  O  O122  1  0.116800  0.070800  0.010500  1.0  -0.6427
  O  O123  1  0.826400  0.921900  0.372000  1.0  -0.6619
  O  O124  1  0.025700  0.913600  0.586300  1.0  -0.6747
  O  O125  1  0.079000  0.081400  0.698900  1.0  -0.5907
  O  O126  1  0.996500  0.294200  0.904900  1.0  -0.6444
  O  O127  1  0.648100  0.421200  0.886500  1.0  -0.6325
  O  O128  1  0.792800  0.409100  0.034500  1.0  -0.6814
  O  O129  1  0.658400  0.300200  0.783100  1.0  -0.6609
  O  O130  1  0.816400  0.287600  0.940700  1.0  -0.7238
  O  O131  1  0.780700  0.569700  0.156400  1.0  -0.6289
  O  O132  1  0.741900  0.585500  0.932800  1.0  -0.644
  O  O133  1  0.351900  0.804000  0.694500  1.0  -0.6069
  O  O134  1  0.315600  0.789800  0.454800  1.0  -0.5799
  O  O135  1  0.383200  0.570800  0.489500  1.0  -0.6425
  O  O136  1  0.673600  0.421900  0.128000  1.0  -0.6603
  O  O137  1  0.474300  0.413600  0.913700  1.0  -0.6748
  O  O138  1  0.421000  0.581400  0.801100  1.0  -0.5899
  O  O139  1  0.503500  0.794200  0.595100  1.0  -0.6444
  O  O140  1  0.148100  0.921200  0.886500  1.0  -0.6325
  O  O141  1  0.292800  0.909100  0.034500  1.0  -0.6814
  O  O142  1  0.158400  0.800200  0.783100  1.0  -0.6609
  O  O143  1  0.316400  0.787600  0.940700  1.0  -0.7238
  O  O144  1  0.280700  0.069700  0.156400  1.0  -0.6289
  O  O145  1  0.241900  0.085500  0.932800  1.0  -0.644
  O  O146  1  0.851900  0.304000  0.694500  1.0  -0.6069
  O  O147  1  0.815600  0.289800  0.454800  1.0  -0.5799
  O  O148  1  0.883200  0.070800  0.489500  1.0  -0.6425
  O  O149  1  0.173600  0.921900  0.128000  1.0  -0.6603
  O  O150  1  0.974300  0.913600  0.913700  1.0  -0.6748
  O  O151  1  0.921000  0.081400  0.801100  1.0  -0.5899
  O  O152  1  0.003500  0.294200  0.595100  1.0  -0.6444
  O  O153  1  0.648100  0.578800  0.386500  1.0  -0.6324
  O  O154  1  0.792800  0.590900  0.534500  1.0  -0.6811
  O  O155  1  0.658400  0.699800  0.283100  1.0  -0.6604
  O  O156  1  0.816400  0.712400  0.440700  1.0  -0.7251
  O  O157  1  0.780700  0.430300  0.656400  1.0  -0.6285
  O  O158  1  0.741900  0.414500  0.432800  1.0  -0.6434
  O  O159  1  0.351900  0.196000  0.194500  1.0  -0.6075
  O  O160  1  0.315600  0.210200  0.954800  1.0  -0.5809
  O  O161  1  0.383200  0.429200  0.989500  1.0  -0.6414
  O  O162  1  0.673600  0.578100  0.628000  1.0  -0.6613
  O  O163  1  0.474300  0.586400  0.413700  1.0  -0.6741
  O  O164  1  0.421000  0.418600  0.301100  1.0  -0.5917
  O  O165  1  0.503500  0.205800  0.095100  1.0  -0.6454
  O  O166  1  0.148100  0.078800  0.386500  1.0  -0.6324
  O  O167  1  0.292800  0.090900  0.534500  1.0  -0.6811
  O  O168  1  0.158400  0.199800  0.283100  1.0  -0.6604
  O  O169  1  0.316400  0.212400  0.440700  1.0  -0.7251
  O  O170  1  0.280700  0.930300  0.656400  1.0  -0.6285
  O  O171  1  0.241900  0.914500  0.432800  1.0  -0.6434
  O  O172  1  0.851900  0.696000  0.194500  1.0  -0.6075
  O  O173  1  0.815600  0.710200  0.954800  1.0  -0.5809
  O  O174  1  0.883200  0.929200  0.989500  1.0  -0.6414
  O  O175  1  0.173600  0.078100  0.628000  1.0  -0.6613
  O  O176  1  0.974300  0.086400  0.413700  1.0  -0.6741
  O  O177  1  0.921000  0.918600  0.301100  1.0  -0.5917
  O  O178  1  0.003500  0.705800  0.095100  1.0  -0.6454
  O  O179  1  0.351900  0.578800  0.113500  1.0  -0.6323
  O  O180  1  0.207200  0.590900  0.965500  1.0  -0.681
  O  O181  1  0.341600  0.699800  0.216900  1.0  -0.6591
  O  O182  1  0.183600  0.712400  0.059300  1.0  -0.7228
  O  O183  1  0.219300  0.430300  0.843600  1.0  -0.6276
  O  O184  1  0.258100  0.414500  0.067200  1.0  -0.6426
  O  O185  1  0.648100  0.196000  0.305500  1.0  -0.6071
  O  O186  1  0.684400  0.210200  0.545200  1.0  -0.5799
  O  O187  1  0.616800  0.429200  0.510500  1.0  -0.6422
  O  O188  1  0.326400  0.578100  0.872000  1.0  -0.6616
  O  O189  1  0.525700  0.586400  0.086300  1.0  -0.6739
  O  O190  1  0.579000  0.418600  0.198900  1.0  -0.5911
  O  O191  1  0.496500  0.205800  0.404900  1.0  -0.6454
  O  O192  1  0.851900  0.078800  0.113500  1.0  -0.6323
  O  O193  1  0.707200  0.090900  0.965500  1.0  -0.681
  O  O194  1  0.841600  0.199800  0.216900  1.0  -0.6591
  O  O195  1  0.683600  0.212400  0.059300  1.0  -0.7228
  O  O196  1  0.719300  0.930300  0.843600  1.0  -0.6276
  O  O197  1  0.758100  0.914500  0.067200  1.0  -0.6426
  O  O198  1  0.148100  0.696000  0.305500  1.0  -0.6071
  O  O199  1  0.184400  0.710200  0.545200  1.0  -0.5799
  O  O200  1  0.116800  0.929200  0.510500  1.0  -0.6422
  O  O201  1  0.826400  0.078100  0.872000  1.0  -0.6616
  O  O202  1  0.025700  0.086400  0.086300  1.0  -0.6739
  O  O203  1  0.079000  0.918600  0.198900  1.0  -0.5911
  O  O204  1  0.996500  0.705800  0.404900  1.0  -0.6454
