# generated using pymatgen
data_CuH15C13(NO2)2
_symmetry_space_group_name_H-M   'P 1'
_cell_length_a   13.32600000
_cell_length_b   15.45540000
_cell_length_c   15.45540000
_cell_angle_alpha   67.90800000
_cell_angle_beta   73.29720000
_cell_angle_gamma   106.70300000
_symmetry_Int_Tables_number   1
_chemical_formula_structural   CuH15C13(NO2)2
_chemical_formula_sum   'Cu6 H90 C78 N12 O24'
_cell_volume   2528.99263148
_cell_formula_units_Z   6
loop_
 _symmetry_equiv_pos_site_id
 _symmetry_equiv_pos_as_xyz
  1  'x, y, z'
loop_
 _atom_site_type_symbol
 _atom_site_label
 _atom_site_symmetry_multiplicity
 _atom_site_fract_x
 _atom_site_fract_y
 _atom_site_fract_z
 _atom_site_occupancy
 _atom_site_charge
  Cu  Cu1  1  0.260500  0.490500  0.903200  1.0  0.8519
  Cu  Cu2  1  0.163700  0.903200  0.606300  1.0  0.852
  Cu  Cu3  1  0.770000  0.606300  0.490500  1.0  0.8532
  Cu  Cu4  1  0.739500  0.509500  0.096800  1.0  0.8526
  Cu  Cu5  1  0.836300  0.096800  0.393700  1.0  0.8557
  Cu  Cu6  1  0.230000  0.393700  0.509500  1.0  0.8518
  H  H7  1  0.379010  0.795020  0.613990  1.0  0.0936
  H  H8  1  0.273010  0.701020  0.618990  1.0  0.0686
  H  H9  1  0.299010  0.824020  0.555990  1.0  0.0801
  H  H10  1  0.036010  0.818020  0.834990  1.0  0.0919
  H  H11  1  0.060000  0.715000  0.056000  1.0  0.1099
  H  H12  1  0.967000  0.744000  0.013000  1.0  0.107
  H  H13  1  0.070000  0.520000  0.110000  1.0  0.0109
  H  H14  1  0.110000  0.423000  0.178000  1.0  0.1077
  H  H15  1  0.287000  0.462000  0.199000  1.0  0.0778
  H  H16  1  0.193000  0.604000  0.146000  1.0  0.0858
  H  H17  1  0.256000  0.587000  0.225000  1.0  0.0975
  H  H18  1  0.346000  0.639000  0.091000  1.0  0.054
  H  H19  1  0.408000  0.622000  0.975000  1.0  0.0848
  H  H20  1  0.471000  0.604000  0.056000  1.0  0.1067
  H  H21  1  0.421000  0.512000  0.027000  1.0  0.0738
  H  H22  1  0.993000  0.613990  0.590990  1.0  0.0944
  H  H23  1  0.892000  0.618990  0.679990  1.0  0.0674
  H  H24  1  0.855000  0.555990  0.619990  1.0  0.0793
  H  H25  1  0.871000  0.834990  0.346990  1.0  0.0922
  H  H26  1  0.116000  0.056000  0.229000  1.0  0.1088
  H  H27  1  0.980000  0.013000  0.243000  1.0  0.1063
  H  H28  1  0.180000  0.110000  0.370000  1.0  0.0164
  H  H29  1  0.288000  0.178000  0.399000  1.0  0.1106
  H  H30  1  0.486000  0.199000  0.339000  1.0  0.0787
  H  H31  1  0.339000  0.146000  0.250000  1.0  0.0852
  H  H32  1  0.481000  0.225000  0.188000  1.0  0.0946
  H  H33  1  0.437000  0.091000  0.270000  1.0  0.0609
  H  H34  1  0.383000  0.975000  0.403000  1.0  0.085
  H  H35  1  0.527000  0.056000  0.340000  1.0  0.1115
  H  H36  1  0.448000  0.027000  0.461000  1.0  0.0725
  H  H37  1  0.583990  0.590990  0.795020  1.0  0.0926
  H  H38  1  0.571990  0.679990  0.701020  1.0  0.0676
  H  H39  1  0.474990  0.619990  0.824020  1.0  0.079
  H  H40  1  0.217990  0.346990  0.818020  1.0  0.0924
  H  H41  1  0.345000  0.229000  0.715000  1.0  0.1107
  H  H42  1  0.223000  0.243000  0.744000  1.0  0.1059
  H  H43  1  0.550000  0.370000  0.520000  1.0  0.0175
  H  H44  1  0.687000  0.399000  0.423000  1.0  0.1096
  H  H45  1  0.825000  0.339000  0.462000  1.0  0.08
  H  H46  1  0.589000  0.250000  0.604000  1.0  0.0871
  H  H47  1  0.669000  0.188000  0.587000  1.0  0.0955
  H  H48  1  0.707000  0.270000  0.639000  1.0  0.0575
  H  H49  1  0.786000  0.403000  0.622000  1.0  0.0846
  H  H50  1  0.867000  0.340000  0.604000  1.0  0.105
  H  H51  1  0.909000  0.461000  0.512000  1.0  0.0735
  H  H52  1  0.620990  0.204980  0.386010  1.0  0.0939
  H  H53  1  0.726990  0.298980  0.381010  1.0  0.0673
  H  H54  1  0.700990  0.175980  0.444010  1.0  0.0786
  H  H55  1  0.963990  0.181980  0.165010  1.0  0.0915
  H  H56  1  0.940000  0.285000  0.944000  1.0  0.109
  H  H57  1  0.033000  0.256000  0.987000  1.0  0.1065
  H  H58  1  0.930000  0.480000  0.890000  1.0  0.017
  H  H59  1  0.890000  0.577000  0.822000  1.0  0.1099
  H  H60  1  0.713000  0.538000  0.801000  1.0  0.0791
  H  H61  1  0.807000  0.396000  0.854000  1.0  0.0885
  H  H62  1  0.744000  0.413000  0.775000  1.0  0.0941
  H  H63  1  0.654000  0.361000  0.909000  1.0  0.0549
  H  H64  1  0.592000  0.378000  0.025000  1.0  0.0845
  H  H65  1  0.529000  0.396000  0.944000  1.0  0.1057
  H  H66  1  0.579000  0.488000  0.973000  1.0  0.0732
  H  H67  1  0.007000  0.386010  0.409010  1.0  0.0939
  H  H68  1  0.108000  0.381010  0.320010  1.0  0.0684
  H  H69  1  0.145000  0.444010  0.380010  1.0  0.0786
  H  H70  1  0.129000  0.165010  0.653010  1.0  0.0927
  H  H71  1  0.884000  0.944000  0.771000  1.0  0.1081
  H  H72  1  0.020000  0.987000  0.757000  1.0  0.1062
  H  H73  1  0.820000  0.890000  0.630000  1.0  0.0186
  H  H74  1  0.712000  0.822000  0.601000  1.0  0.1106
  H  H75  1  0.514000  0.801000  0.661000  1.0  0.0801
  H  H76  1  0.661000  0.854000  0.750000  1.0  0.0873
  H  H77  1  0.519000  0.775000  0.812000  1.0  0.0958
  H  H78  1  0.563000  0.909000  0.730000  1.0  0.0646
  H  H79  1  0.617000  0.025000  0.597000  1.0  0.086
  H  H80  1  0.473000  0.944000  0.660000  1.0  0.1096
  H  H81  1  0.552000  0.973000  0.539000  1.0  0.0738
  H  H82  1  0.416010  0.409010  0.204980  1.0  0.0938
  H  H83  1  0.428010  0.320010  0.298980  1.0  0.0668
  H  H84  1  0.525010  0.380010  0.175980  1.0  0.0787
  H  H85  1  0.782010  0.653010  0.181980  1.0  0.0921
  H  H86  1  0.655000  0.771000  0.285000  1.0  0.1101
  H  H87  1  0.777000  0.757000  0.256000  1.0  0.1066
  H  H88  1  0.450000  0.630000  0.480000  1.0  0.0118
  H  H89  1  0.313000  0.601000  0.577000  1.0  0.1088
  H  H90  1  0.175000  0.661000  0.538000  1.0  0.0792
  H  H91  1  0.411000  0.750000  0.396000  1.0  0.088
  H  H92  1  0.331000  0.812000  0.413000  1.0  0.0982
  H  H93  1  0.293000  0.730000  0.361000  1.0  0.0547
  H  H94  1  0.214000  0.597000  0.378000  1.0  0.0834
  H  H95  1  0.133000  0.660000  0.396000  1.0  0.1043
  H  H96  1  0.091000  0.539000  0.488000  1.0  0.0738
  C  C97  1  0.215900  0.666800  0.814300  1.0  0.2917
  C  C98  1  0.218310  0.741120  0.727490  1.0  0.2194
  C  C99  1  0.293310  0.766620  0.623090  1.0  -0.2582
  C  C100  1  0.087910  0.775820  0.830290  1.0  0.0585
  C  C101  1  0.077000  0.705610  0.919110  1.0  -0.0269
  C  C102  1  0.001600  0.689900  0.028500  1.0  -0.1912
  C  C103  1  0.141800  0.644100  0.917900  1.0  0.0079
  C  C104  1  0.137600  0.576400  0.011600  1.0  0.3797
  C  C105  1  0.192700  0.452600  0.112500  1.0  0.0564
  C  C106  1  0.208400  0.357800  0.112200  1.0  0.6303
  C  C107  1  0.282400  0.513000  0.134800  1.0  0.0746
  C  C108  1  0.263300  0.599600  0.153000  1.0  -0.2192
  C  C109  1  0.406000  0.565700  0.041400  1.0  -0.1146
  C  C110  1  0.030200  0.814300  0.518900  1.0  0.2921
  C  C111  1  0.945800  0.727490  0.531390  1.0  0.2185
  C  C112  1  0.916400  0.623090  0.610290  1.0  -0.2569
  C  C113  1  0.918200  0.830290  0.393890  1.0  0.0615
  C  C114  1  0.996110  0.919110  0.375280  1.0  -0.0293
  C  C115  1  0.030100  0.028500  0.281600  1.0  -0.1961
  C  C116  1  0.059700  0.917900  0.438000  1.0  0.0072
  C  C117  1  0.149200  0.011600  0.412000  1.0  0.3809
  C  C118  1  0.305200  0.112500  0.434900  1.0  0.0551
  C  C119  1  0.320600  0.112200  0.530000  1.0  0.6383
  C  C120  1  0.417200  0.134800  0.352200  1.0  0.0762
  C  C121  1  0.416300  0.153000  0.247400  1.0  -0.2249
  C  C122  1  0.447400  0.041400  0.392900  1.0  -0.1109
  C  C123  1  0.549100  0.518900  0.666800  1.0  0.2916
  C  C124  1  0.477190  0.531390  0.741120  1.0  0.2177
  C  C125  1  0.526690  0.610290  0.766620  1.0  -0.2562
  C  C126  1  0.312090  0.393890  0.775820  1.0  0.0622
  C  C127  1  0.371390  0.375280  0.705610  1.0  -0.0256
  C  C128  1  0.311700  0.281600  0.689900  1.0  -0.1842
  C  C129  1  0.497700  0.438000  0.644100  1.0  0.0075
  C  C130  1  0.561200  0.412000  0.576400  1.0  0.376
  C  C131  1  0.740100  0.434900  0.452600  1.0  0.0572
  C  C132  1  0.850600  0.530000  0.357800  1.0  0.63
  C  C133  1  0.769400  0.352200  0.513000  1.0  0.0751
  C  C134  1  0.663700  0.247400  0.599600  1.0  -0.2202
  C  C135  1  0.840300  0.392900  0.565700  1.0  -0.1106
  C  C136  1  0.784100  0.333200  0.185700  1.0  0.291
  C  C137  1  0.781690  0.258880  0.272510  1.0  0.2201
  C  C138  1  0.706690  0.233380  0.376910  1.0  -0.2561
  C  C139  1  0.912090  0.224180  0.169710  1.0  0.0611
  C  C140  1  0.923000  0.294390  0.080890  1.0  -0.029
  C  C141  1  0.998400  0.310100  0.971500  1.0  -0.1908
  C  C142  1  0.858200  0.355900  0.082100  1.0  0.0074
  C  C143  1  0.862400  0.423600  0.988400  1.0  0.3782
  C  C144  1  0.807300  0.547400  0.887500  1.0  0.0578
  C  C145  1  0.791600  0.642200  0.887800  1.0  0.6291
  C  C146  1  0.717600  0.487000  0.865200  1.0  0.0741
  C  C147  1  0.736700  0.400400  0.847000  1.0  -0.2222
  C  C148  1  0.594000  0.434300  0.958600  1.0  -0.1132
  C  C149  1  0.969800  0.185700  0.481100  1.0  0.2913
  C  C150  1  0.054200  0.272510  0.468610  1.0  0.2195
  C  C151  1  0.083600  0.376910  0.389710  1.0  -0.2558
  C  C152  1  0.081800  0.169710  0.606110  1.0  0.0638
  C  C153  1  0.003890  0.080890  0.624720  1.0  -0.0275
  C  C154  1  0.969900  0.971500  0.718400  1.0  -0.1937
  C  C155  1  0.940300  0.082100  0.562000  1.0  0.0069
  C  C156  1  0.850800  0.988400  0.588000  1.0  0.3798
  C  C157  1  0.694800  0.887500  0.565100  1.0  0.0545
  C  C158  1  0.679400  0.887800  0.470000  1.0  0.6373
  C  C159  1  0.582800  0.865200  0.647800  1.0  0.0755
  C  C160  1  0.583700  0.847000  0.752600  1.0  -0.2225
  C  C161  1  0.552600  0.958600  0.607100  1.0  -0.1125
  C  C162  1  0.450900  0.481100  0.333200  1.0  0.2916
  C  C163  1  0.522810  0.468610  0.258880  1.0  0.2193
  C  C164  1  0.473310  0.389710  0.233380  1.0  -0.2564
  C  C165  1  0.687910  0.606110  0.224180  1.0  0.0623
  C  C166  1  0.628610  0.624720  0.294390  1.0  -0.0261
  C  C167  1  0.688300  0.718400  0.310100  1.0  -0.1869
  C  C168  1  0.502300  0.562000  0.355900  1.0  0.0074
  C  C169  1  0.438800  0.588000  0.423600  1.0  0.3803
  C  C170  1  0.259900  0.565100  0.547400  1.0  0.0566
  C  C171  1  0.149400  0.470000  0.642200  1.0  0.631
  C  C172  1  0.230600  0.647800  0.487000  1.0  0.0754
  C  C173  1  0.336300  0.752600  0.400400  1.0  -0.2213
  C  C174  1  0.159700  0.607100  0.434300  1.0  -0.109
  N  N175  1  0.156310  0.794920  0.735390  1.0  -0.3498
  N  N176  1  0.193200  0.516100  0.015200  1.0  -0.37
  N  N177  1  0.891700  0.735390  0.469690  1.0  -0.3493
  N  N178  1  0.208400  0.015200  0.468700  1.0  -0.371
  N  N179  1  0.361390  0.469690  0.794920  1.0  -0.3481
  N  N180  1  0.677100  0.468700  0.516100  1.0  -0.3722
  N  N181  1  0.843690  0.205080  0.264610  1.0  -0.3488
  N  N182  1  0.806800  0.483900  0.984800  1.0  -0.3702
  N  N183  1  0.108300  0.264610  0.530310  1.0  -0.3491
  N  N184  1  0.791600  0.984800  0.531300  1.0  -0.3708
  N  N185  1  0.638610  0.530310  0.205080  1.0  -0.3453
  N  N186  1  0.322900  0.531300  0.483900  1.0  -0.3705
  O  O187  1  0.915300  0.587700  0.100000  1.0  -0.602
  O  O188  1  0.279800  0.617900  0.800800  1.0  -0.5927
  O  O189  1  0.242800  0.365800  0.019400  1.0  -0.5888
  O  O190  1  0.194200  0.286400  0.190500  1.0  -0.5219
  O  O191  1  0.015300  0.100000  0.312300  1.0  -0.6063
  O  O192  1  0.080600  0.800800  0.581300  1.0  -0.5928
  O  O193  1  0.262200  0.019400  0.614800  1.0  -0.5897
  O  O194  1  0.384700  0.190500  0.523100  1.0  -0.5261
  O  O195  1  0.327600  0.312300  0.587700  1.0  -0.6052
  O  O196  1  0.661900  0.581300  0.617900  1.0  -0.5911
  O  O197  1  0.877000  0.614800  0.365800  1.0  -0.5839
  O  O198  1  0.907800  0.523100  0.286400  1.0  -0.5241
  O  O199  1  0.084700  0.412300  0.900000  1.0  -0.604
  O  O200  1  0.720200  0.382100  0.199200  1.0  -0.5913
  O  O201  1  0.757200  0.634200  0.980600  1.0  -0.5892
  O  O202  1  0.805800  0.713600  0.809500  1.0  -0.5207
  O  O203  1  0.984700  0.900000  0.687700  1.0  -0.6073
  O  O204  1  0.919400  0.199200  0.418700  1.0  -0.5923
  O  O205  1  0.737800  0.980600  0.385200  1.0  -0.5846
  O  O206  1  0.615300  0.809500  0.476900  1.0  -0.5264
  O  O207  1  0.672400  0.687700  0.412300  1.0  -0.6059
  O  O208  1  0.338100  0.418700  0.382100  1.0  -0.5915
  O  O209  1  0.123000  0.385200  0.634200  1.0  -0.5838
  O  O210  1  0.092200  0.476900  0.713600  1.0  -0.5204
