# generated using pymatgen
data_Co3P2H24(C3O)14
_symmetry_space_group_name_H-M   'P 1'
_cell_length_a   19.53600000
_cell_length_b   24.87500000
_cell_length_c   24.96270000
_cell_angle_alpha   90.00000000
_cell_angle_beta   90.00000000
_cell_angle_gamma   90.00000000
_symmetry_Int_Tables_number   1
_chemical_formula_structural   Co3P2H24(C3O)14
_chemical_formula_sum   'Co24 P16 H192 C336 O112'
_cell_volume   12130.82376660
_cell_formula_units_Z   8
loop_
 _symmetry_equiv_pos_site_id
 _symmetry_equiv_pos_as_xyz
  1  'x, y, z'
loop_
 _atom_site_type_symbol
 _atom_site_label
 _atom_site_symmetry_multiplicity
 _atom_site_fract_x
 _atom_site_fract_y
 _atom_site_fract_z
 _atom_site_occupancy
 _atom_site_charge
  Co  Co1  1  0.917200  0.906560  0.922020  1.0  1.0685
  Co  Co2  1  0.750520  0.940390  0.875560  1.0  1.0598
  Co  Co3  1  0.080540  0.527190  0.917650  1.0  1.0214
  Co  Co4  1  0.417200  0.093440  0.577980  1.0  1.0691
  Co  Co5  1  0.250520  0.059610  0.624440  1.0  1.06
  Co  Co6  1  0.580540  0.472810  0.582350  1.0  1.0217
  Co  Co7  1  0.582800  0.406560  0.077980  1.0  1.0698
  Co  Co8  1  0.749480  0.440390  0.124440  1.0  1.0588
  Co  Co9  1  0.419460  0.027190  0.082350  1.0  1.0203
  Co  Co10  1  0.082800  0.593440  0.422020  1.0  1.0692
  Co  Co11  1  0.249480  0.559610  0.375560  1.0  1.0583
  Co  Co12  1  0.919460  0.972810  0.417650  1.0  1.0215
  Co  Co13  1  0.082800  0.093440  0.077980  1.0  1.07
  Co  Co14  1  0.249480  0.059610  0.124440  1.0  1.0587
  Co  Co15  1  0.919460  0.472810  0.082350  1.0  1.0209
  Co  Co16  1  0.582800  0.906560  0.422020  1.0  1.0692
  Co  Co17  1  0.749480  0.940390  0.375560  1.0  1.0583
  Co  Co18  1  0.419460  0.527190  0.417650  1.0  1.0211
  Co  Co19  1  0.417200  0.593440  0.922020  1.0  1.0685
  Co  Co20  1  0.250520  0.559610  0.875560  1.0  1.0598
  Co  Co21  1  0.580540  0.972810  0.917650  1.0  1.0219
  Co  Co22  1  0.917200  0.406560  0.577980  1.0  1.069
  Co  Co23  1  0.750520  0.440390  0.624440  1.0  1.0601
  Co  Co24  1  0.080540  0.027190  0.582350  1.0  1.0211
  P  P25  1  0.916770  0.762670  0.597040  1.0  1.2334
  P  P26  1  0.089340  0.881860  0.904100  1.0  1.1238
  P  P27  1  0.416770  0.237330  0.902960  1.0  1.2348
  P  P28  1  0.589340  0.118140  0.595900  1.0  1.1227
  P  P29  1  0.583230  0.262670  0.402960  1.0  1.2326
  P  P30  1  0.410660  0.381860  0.095900  1.0  1.1264
  P  P31  1  0.083230  0.737330  0.097040  1.0  1.2325
  P  P32  1  0.910660  0.618140  0.404100  1.0  1.1249
  P  P33  1  0.083230  0.237330  0.402960  1.0  1.233
  P  P34  1  0.910660  0.118140  0.095900  1.0  1.1251
  P  P35  1  0.583230  0.762670  0.097040  1.0  1.2319
  P  P36  1  0.410660  0.881860  0.404100  1.0  1.1262
  P  P37  1  0.416770  0.737330  0.597040  1.0  1.2338
  P  P38  1  0.589340  0.618140  0.904100  1.0  1.1226
  P  P39  1  0.916770  0.262670  0.902960  1.0  1.2347
  P  P40  1  0.089340  0.381860  0.595900  1.0  1.1239
  H  H41  1  0.995600  0.789100  0.689000  1.0  0.1155
  H  H42  1  0.975500  0.830800  0.772300  1.0  0.0982
  H  H43  1  0.774900  0.845000  0.735500  1.0  0.1148
  H  H44  1  0.795200  0.800800  0.653900  1.0  0.0961
  H  H45  1  0.978400  0.673000  0.546800  1.0  0.1019
  H  H46  1  0.962800  0.579000  0.547200  1.0  0.1109
  H  H47  1  0.815900  0.596000  0.661600  1.0  0.109
  H  H48  1  0.832400  0.689200  0.660500  1.0  0.1072
  H  H49  1  0.892500  0.859400  0.542300  1.0  0.1127
  H  H50  1  0.802900  0.897900  0.492000  1.0  0.1166
  H  H51  1  0.698100  0.757100  0.502500  1.0  0.1108
  H  H52  1  0.784200  0.720300  0.554400  1.0  0.0968
  H  H53  1  0.181000  0.809600  0.845900  1.0  0.1021
  H  H54  1  0.195000  0.716600  0.843000  1.0  0.1173
  H  H55  1  0.026900  0.697300  0.937200  1.0  0.1104
  H  H56  1  0.015900  0.790900  0.944000  1.0  0.1046
  H  H57  1  0.210800  0.909700  0.843200  1.0  0.1049
  H  H58  1  0.230300  0.953400  0.761100  1.0  0.1091
  H  H59  1  0.026100  0.968700  0.739100  1.0  0.1144
  H  H60  1  0.006600  0.924600  0.820700  1.0  0.0902
  H  H61  1  0.211100  0.835200  0.958700  1.0  0.1134
  H  H62  1  0.298800  0.872600  0.010100  1.0  0.1076
  H  H63  1  0.209700  0.018600  0.000800  1.0  0.1085
  H  H64  1  0.122500  0.982300  0.948600  1.0  0.1073
  H  H65  1  0.495600  0.210900  0.811000  1.0  0.1151
  H  H66  1  0.475500  0.169200  0.727700  1.0  0.098
  H  H67  1  0.274900  0.155000  0.764500  1.0  0.115
  H  H68  1  0.295200  0.199200  0.846100  1.0  0.0957
  H  H69  1  0.478400  0.327000  0.953200  1.0  0.102
  H  H70  1  0.462800  0.421000  0.952800  1.0  0.1115
  H  H71  1  0.315900  0.404000  0.838400  1.0  0.1085
  H  H72  1  0.332400  0.310800  0.839500  1.0  0.1067
  H  H73  1  0.392500  0.140600  0.957700  1.0  0.1123
  H  H74  1  0.302900  0.102100  0.008000  1.0  0.1169
  H  H75  1  0.198100  0.242900  0.997500  1.0  0.1108
  H  H76  1  0.284200  0.279700  0.945600  1.0  0.0971
  H  H77  1  0.681000  0.190400  0.654100  1.0  0.1017
  H  H78  1  0.695000  0.283400  0.657000  1.0  0.1174
  H  H79  1  0.526900  0.302700  0.562800  1.0  0.1107
  H  H80  1  0.515900  0.209100  0.556000  1.0  0.105
  H  H81  1  0.710800  0.090300  0.656800  1.0  0.1049
  H  H82  1  0.730300  0.046600  0.738900  1.0  0.1086
  H  H83  1  0.526100  0.031300  0.760900  1.0  0.1144
  H  H84  1  0.506600  0.075400  0.679300  1.0  0.0906
  H  H85  1  0.711100  0.164800  0.541300  1.0  0.1133
  H  H86  1  0.798800  0.127400  0.489900  1.0  0.1081
  H  H87  1  0.709700  0.981400  0.499200  1.0  0.1077
  H  H88  1  0.622500  0.017700  0.551400  1.0  0.1068
  H  H89  1  0.504400  0.289100  0.311000  1.0  0.1152
  H  H90  1  0.524500  0.330800  0.227700  1.0  0.0979
  H  H91  1  0.725100  0.345000  0.264500  1.0  0.1146
  H  H92  1  0.704800  0.300800  0.346100  1.0  0.096
  H  H93  1  0.521600  0.173000  0.453200  1.0  0.1012
  H  H94  1  0.537200  0.079000  0.452800  1.0  0.1113
  H  H95  1  0.684100  0.096000  0.338400  1.0  0.1083
  H  H96  1  0.667600  0.189200  0.339500  1.0  0.1065
  H  H97  1  0.607500  0.359400  0.457700  1.0  0.1127
  H  H98  1  0.697100  0.397900  0.508000  1.0  0.1173
  H  H99  1  0.801900  0.257100  0.497500  1.0  0.1111
  H  H100  1  0.715800  0.220300  0.445600  1.0  0.0955
  H  H101  1  0.319000  0.309600  0.154100  1.0  0.1014
  H  H102  1  0.305000  0.216600  0.157000  1.0  0.1175
  H  H103  1  0.473100  0.197300  0.062800  1.0  0.1106
  H  H104  1  0.484100  0.290900  0.056000  1.0  0.1054
  H  H105  1  0.289200  0.409700  0.156800  1.0  0.1047
  H  H106  1  0.269700  0.453400  0.238900  1.0  0.1088
  H  H107  1  0.473900  0.468700  0.260900  1.0  0.1143
  H  H108  1  0.493400  0.424600  0.179300  1.0  0.0901
  H  H109  1  0.288900  0.335200  0.041300  1.0  0.1141
  H  H110  1  0.201200  0.372600  0.989900  1.0  0.1072
  H  H111  1  0.290300  0.518600  0.999200  1.0  0.1083
  H  H112  1  0.377500  0.482300  0.051400  1.0  0.1072
  H  H113  1  0.004400  0.710900  0.189000  1.0  0.1151
  H  H114  1  0.024500  0.669200  0.272300  1.0  0.098
  H  H115  1  0.225100  0.655000  0.235500  1.0  0.1138
  H  H116  1  0.204800  0.699200  0.153900  1.0  0.0966
  H  H117  1  0.021600  0.827000  0.046800  1.0  0.1013
  H  H118  1  0.037200  0.921000  0.047200  1.0  0.1109
  H  H119  1  0.184100  0.904000  0.161600  1.0  0.1091
  H  H120  1  0.167600  0.810800  0.160500  1.0  0.1065
  H  H121  1  0.107500  0.640600  0.042300  1.0  0.1121
  H  H122  1  0.197100  0.602100  0.992000  1.0  0.1169
  H  H123  1  0.301900  0.742900  0.002500  1.0  0.1113
  H  H124  1  0.215800  0.779700  0.054400  1.0  0.0959
  H  H125  1  0.819000  0.690400  0.345900  1.0  0.1017
  H  H126  1  0.805000  0.783400  0.343000  1.0  0.1173
  H  H127  1  0.973100  0.802700  0.437200  1.0  0.1104
  H  H128  1  0.984100  0.709100  0.444000  1.0  0.1048
  H  H129  1  0.789200  0.590300  0.343200  1.0  0.105
  H  H130  1  0.769700  0.546600  0.261100  1.0  0.1094
  H  H131  1  0.973900  0.531300  0.239100  1.0  0.1137
  H  H132  1  0.993400  0.575400  0.320700  1.0  0.0901
  H  H133  1  0.788900  0.664800  0.458700  1.0  0.1138
  H  H134  1  0.701200  0.627400  0.510100  1.0  0.1072
  H  H135  1  0.790300  0.481400  0.500800  1.0  0.1078
  H  H136  1  0.877500  0.517700  0.448600  1.0  0.1069
  H  H137  1  0.004400  0.210900  0.311000  1.0  0.1146
  H  H138  1  0.024500  0.169200  0.227700  1.0  0.0982
  H  H139  1  0.225100  0.155000  0.264500  1.0  0.1146
  H  H140  1  0.204800  0.199200  0.346100  1.0  0.096
  H  H141  1  0.021600  0.327000  0.453200  1.0  0.1014
  H  H142  1  0.037200  0.421000  0.452800  1.0  0.111
  H  H143  1  0.184100  0.404000  0.338400  1.0  0.1086
  H  H144  1  0.167600  0.310800  0.339500  1.0  0.1065
  H  H145  1  0.107500  0.140600  0.457700  1.0  0.112
  H  H146  1  0.197100  0.102100  0.508000  1.0  0.1169
  H  H147  1  0.301900  0.242900  0.497500  1.0  0.1113
  H  H148  1  0.215800  0.279700  0.445600  1.0  0.0966
  H  H149  1  0.819000  0.190400  0.154100  1.0  0.1015
  H  H150  1  0.805000  0.283400  0.157000  1.0  0.1174
  H  H151  1  0.973100  0.302700  0.062800  1.0  0.1109
  H  H152  1  0.984100  0.209100  0.056000  1.0  0.1055
  H  H153  1  0.789200  0.090300  0.156800  1.0  0.1049
  H  H154  1  0.769700  0.046600  0.238900  1.0  0.1089
  H  H155  1  0.973900  0.031300  0.260900  1.0  0.1141
  H  H156  1  0.993400  0.075400  0.179300  1.0  0.0902
  H  H157  1  0.788900  0.164800  0.041300  1.0  0.1139
  H  H158  1  0.701200  0.127400  0.989900  1.0  0.1075
  H  H159  1  0.790300  0.981400  0.999200  1.0  0.1081
  H  H160  1  0.877500  0.017700  0.051400  1.0  0.1071
  H  H161  1  0.504400  0.789100  0.189000  1.0  0.1157
  H  H162  1  0.524500  0.830800  0.272300  1.0  0.0981
  H  H163  1  0.725100  0.845000  0.235500  1.0  0.114
  H  H164  1  0.704800  0.800800  0.153900  1.0  0.0967
  H  H165  1  0.521600  0.673000  0.046800  1.0  0.1015
  H  H166  1  0.537200  0.579000  0.047200  1.0  0.1106
  H  H167  1  0.684100  0.596000  0.161600  1.0  0.1091
  H  H168  1  0.667600  0.689200  0.160500  1.0  0.1065
  H  H169  1  0.607500  0.859400  0.042300  1.0  0.1125
  H  H170  1  0.697100  0.897900  0.992000  1.0  0.1167
  H  H171  1  0.801900  0.757100  0.002500  1.0  0.1112
  H  H172  1  0.715800  0.720300  0.054400  1.0  0.0961
  H  H173  1  0.319000  0.809600  0.345900  1.0  0.1017
  H  H174  1  0.305000  0.716600  0.343000  1.0  0.1171
  H  H175  1  0.473100  0.697300  0.437200  1.0  0.1105
  H  H176  1  0.484100  0.790900  0.444000  1.0  0.105
  H  H177  1  0.289200  0.909700  0.343200  1.0  0.105
  H  H178  1  0.269700  0.953400  0.261100  1.0  0.1094
  H  H179  1  0.473900  0.968700  0.239100  1.0  0.1141
  H  H180  1  0.493400  0.924600  0.320700  1.0  0.0898
  H  H181  1  0.288900  0.835200  0.458700  1.0  0.1135
  H  H182  1  0.201200  0.872600  0.510100  1.0  0.1072
  H  H183  1  0.290300  0.018600  0.500800  1.0  0.1084
  H  H184  1  0.377500  0.982300  0.448600  1.0  0.1074
  H  H185  1  0.495600  0.710900  0.689000  1.0  0.1155
  H  H186  1  0.475500  0.669200  0.772300  1.0  0.0981
  H  H187  1  0.274900  0.655000  0.735500  1.0  0.1147
  H  H188  1  0.295200  0.699200  0.653900  1.0  0.0961
  H  H189  1  0.478400  0.827000  0.546800  1.0  0.102
  H  H190  1  0.462800  0.921000  0.547200  1.0  0.1112
  H  H191  1  0.315900  0.904000  0.661600  1.0  0.1089
  H  H192  1  0.332400  0.810800  0.660500  1.0  0.1071
  H  H193  1  0.392500  0.640600  0.542300  1.0  0.1125
  H  H194  1  0.302900  0.602100  0.492000  1.0  0.1167
  H  H195  1  0.198100  0.742900  0.502500  1.0  0.1108
  H  H196  1  0.284200  0.779700  0.554400  1.0  0.0966
  H  H197  1  0.681000  0.690400  0.845900  1.0  0.1025
  H  H198  1  0.695000  0.783400  0.843000  1.0  0.1174
  H  H199  1  0.526900  0.802700  0.937200  1.0  0.1102
  H  H200  1  0.515900  0.709100  0.944000  1.0  0.1046
  H  H201  1  0.710800  0.590300  0.843200  1.0  0.1047
  H  H202  1  0.730300  0.546600  0.761100  1.0  0.1092
  H  H203  1  0.526100  0.531300  0.739100  1.0  0.114
  H  H204  1  0.506600  0.575400  0.820700  1.0  0.0906
  H  H205  1  0.711100  0.664800  0.958700  1.0  0.1136
  H  H206  1  0.798800  0.627400  0.010100  1.0  0.1077
  H  H207  1  0.709700  0.481400  0.000800  1.0  0.1077
  H  H208  1  0.622500  0.517700  0.948600  1.0  0.1065
  H  H209  1  0.995600  0.289100  0.811000  1.0  0.1151
  H  H210  1  0.975500  0.330800  0.727700  1.0  0.0978
  H  H211  1  0.774900  0.345000  0.764500  1.0  0.115
  H  H212  1  0.795200  0.300800  0.846100  1.0  0.0956
  H  H213  1  0.978400  0.173000  0.953200  1.0  0.1016
  H  H214  1  0.962800  0.079000  0.952800  1.0  0.1116
  H  H215  1  0.815900  0.096000  0.838400  1.0  0.1083
  H  H216  1  0.832400  0.189200  0.839500  1.0  0.1072
  H  H217  1  0.892500  0.359400  0.957700  1.0  0.1127
  H  H218  1  0.802900  0.397900  0.008000  1.0  0.1174
  H  H219  1  0.698100  0.257100  0.997500  1.0  0.1108
  H  H220  1  0.784200  0.220300  0.945600  1.0  0.0961
  H  H221  1  0.181000  0.309600  0.654100  1.0  0.1013
  H  H222  1  0.195000  0.216600  0.657000  1.0  0.1175
  H  H223  1  0.026900  0.197300  0.562800  1.0  0.1103
  H  H224  1  0.015900  0.290900  0.556000  1.0  0.1047
  H  H225  1  0.210800  0.409700  0.656800  1.0  0.1048
  H  H226  1  0.230300  0.453400  0.738900  1.0  0.1084
  H  H227  1  0.026100  0.468700  0.760900  1.0  0.1145
  H  H228  1  0.006600  0.424600  0.679300  1.0  0.0904
  H  H229  1  0.211100  0.335200  0.541300  1.0  0.1137
  H  H230  1  0.298800  0.372600  0.489900  1.0  0.1077
  H  H231  1  0.209700  0.518600  0.499200  1.0  0.108
  H  H232  1  0.122500  0.482300  0.551400  1.0  0.1071
  C  C233  1  0.897800  0.792400  0.662800  1.0  -0.2278
  C  C234  1  0.950700  0.800500  0.698100  1.0  -0.0483
  C  C235  1  0.938700  0.826000  0.747900  1.0  -0.048
  C  C236  1  0.873900  0.843760  0.761400  1.0  -0.1155
  C  C237  1  0.861000  0.874000  0.813000  1.0  0.7459
  C  C238  1  0.820000  0.834000  0.726300  1.0  -0.0481
  C  C239  1  0.832400  0.807900  0.677400  1.0  -0.024
  C  C240  1  0.906900  0.690320  0.602500  1.0  -0.2426
  C  C241  1  0.945200  0.657500  0.570000  1.0  -0.0282
  C  C242  1  0.936300  0.601100  0.570400  1.0  -0.043
  C  C243  1  0.888200  0.577820  0.605100  1.0  -0.1431
  C  C244  1  0.875500  0.518100  0.605100  1.0  0.7124
  C  C245  1  0.849100  0.611300  0.638300  1.0  -0.0466
  C  C246  1  0.858700  0.666900  0.637400  1.0  -0.0261
  C  C247  1  0.847700  0.785800  0.554100  1.0  -0.302
  C  C248  1  0.852700  0.838800  0.534700  1.0  -0.023
  C  C249  1  0.799500  0.861850  0.504300  1.0  -0.0711
  C  C250  1  0.741500  0.831000  0.492300  1.0  -0.115
  C  C251  1  0.683300  0.856300  0.462900  1.0  0.6313
  C  C252  1  0.737200  0.778100  0.511000  1.0  -0.0487
  C  C253  1  0.788600  0.756100  0.541500  1.0  -0.0329
  C  C254  1  0.097800  0.810180  0.895520  1.0  -0.3277
  C  C255  1  0.150400  0.787120  0.865200  1.0  -0.0308
  C  C256  1  0.158500  0.731700  0.863000  1.0  -0.0431
  C  C257  1  0.112200  0.697670  0.890700  1.0  -0.1182
  C  C258  1  0.122600  0.637300  0.889100  1.0  0.7138
  C  C259  1  0.058900  0.720070  0.919600  1.0  -0.0339
  C  C260  1  0.051700  0.775910  0.923100  1.0  -0.0221
  C  C261  1  0.106200  0.914010  0.840790  1.0  -0.383
  C  C262  1  0.173100  0.921900  0.822400  1.0  -0.0359
  C  C263  1  0.184700  0.948000  0.773200  1.0  -0.0432
  C  C264  1  0.130300  0.965800  0.742200  1.0  -0.1191
  C  C265  1  0.143600  0.995700  0.690200  1.0  0.7259
  C  C266  1  0.063800  0.957000  0.760100  1.0  -0.0444
  C  C267  1  0.052300  0.930800  0.809100  1.0  -0.0219
  C  C268  1  0.157600  0.904770  0.947080  1.0  -0.2883
  C  C269  1  0.210500  0.872600  0.966600  1.0  -0.0483
  C  C270  1  0.262600  0.894900  0.997800  1.0  -0.0298
  C  C271  1  0.262500  0.949080  0.011150  1.0  -0.1293
  C  C272  1  0.319900  0.973540  0.042220  1.0  0.648
  C  C273  1  0.210200  0.981400  0.992300  1.0  -0.076
  C  C274  1  0.158300  0.959600  0.961000  1.0  -0.0287
  C  C275  1  0.397800  0.207600  0.837200  1.0  -0.2267
  C  C276  1  0.450700  0.199500  0.801900  1.0  -0.0482
  C  C277  1  0.438700  0.174000  0.752100  1.0  -0.0474
  C  C278  1  0.373900  0.156240  0.738600  1.0  -0.1163
  C  C279  1  0.361000  0.126000  0.687000  1.0  0.7447
  C  C280  1  0.320000  0.166000  0.773700  1.0  -0.0487
  C  C281  1  0.332400  0.192100  0.822600  1.0  -0.0241
  C  C282  1  0.406900  0.309680  0.897500  1.0  -0.2434
  C  C283  1  0.445200  0.342500  0.930000  1.0  -0.0287
  C  C284  1  0.436300  0.398900  0.929600  1.0  -0.0421
  C  C285  1  0.388200  0.422180  0.894900  1.0  -0.1439
  C  C286  1  0.375500  0.481900  0.894900  1.0  0.7117
  C  C287  1  0.349100  0.388700  0.861700  1.0  -0.0458
  C  C288  1  0.358700  0.333100  0.862600  1.0  -0.026
  C  C289  1  0.347700  0.214200  0.945900  1.0  -0.3012
  C  C290  1  0.352700  0.161200  0.965300  1.0  -0.0241
  C  C291  1  0.299500  0.138150  0.995700  1.0  -0.0717
  C  C292  1  0.241500  0.169000  0.007700  1.0  -0.1139
  C  C293  1  0.183300  0.143700  0.037100  1.0  0.6313
  C  C294  1  0.237200  0.221900  0.989000  1.0  -0.0499
  C  C295  1  0.288600  0.243900  0.958500  1.0  -0.0333
  C  C296  1  0.597800  0.189820  0.604480  1.0  -0.3279
  C  C297  1  0.650400  0.212880  0.634800  1.0  -0.03
  C  C298  1  0.658500  0.268300  0.637000  1.0  -0.043
  C  C299  1  0.612200  0.302330  0.609300  1.0  -0.1181
  C  C300  1  0.622600  0.362700  0.610900  1.0  0.7125
  C  C301  1  0.558900  0.279930  0.580400  1.0  -0.0333
  C  C302  1  0.551700  0.224090  0.576900  1.0  -0.0234
  C  C303  1  0.606200  0.085990  0.659210  1.0  -0.3847
  C  C304  1  0.673100  0.078100  0.677600  1.0  -0.0355
  C  C305  1  0.684700  0.052000  0.726800  1.0  -0.0435
  C  C306  1  0.630300  0.034200  0.757800  1.0  -0.1187
  C  C307  1  0.643600  0.004300  0.809800  1.0  0.7258
  C  C308  1  0.563800  0.043000  0.739900  1.0  -0.0438
  C  C309  1  0.552300  0.069200  0.690900  1.0  -0.0204
  C  C310  1  0.657600  0.095230  0.552920  1.0  -0.289
  C  C311  1  0.710500  0.127400  0.533400  1.0  -0.0492
  C  C312  1  0.762600  0.105100  0.502200  1.0  -0.0293
  C  C313  1  0.762500  0.050920  0.488850  1.0  -0.1297
  C  C314  1  0.819900  0.026460  0.457780  1.0  0.6481
  C  C315  1  0.710200  0.018600  0.507700  1.0  -0.076
  C  C316  1  0.658300  0.040400  0.539000  1.0  -0.028
  C  C317  1  0.602200  0.292400  0.337200  1.0  -0.225
  C  C318  1  0.549300  0.300500  0.301900  1.0  -0.0495
  C  C319  1  0.561300  0.326000  0.252100  1.0  -0.0465
  C  C320  1  0.626100  0.343760  0.238600  1.0  -0.1155
  C  C321  1  0.639000  0.374000  0.187000  1.0  0.745
  C  C322  1  0.680000  0.334000  0.273700  1.0  -0.0478
  C  C323  1  0.667600  0.307900  0.322600  1.0  -0.024
  C  C324  1  0.593100  0.190320  0.397500  1.0  -0.2449
  C  C325  1  0.554800  0.157500  0.430000  1.0  -0.0301
  C  C326  1  0.563700  0.101100  0.429600  1.0  -0.042
  C  C327  1  0.611800  0.077820  0.394900  1.0  -0.1455
  C  C328  1  0.624500  0.018100  0.394900  1.0  0.7119
  C  C329  1  0.650900  0.111300  0.361700  1.0  -0.0476
  C  C330  1  0.641300  0.166900  0.362600  1.0  -0.0265
  C  C331  1  0.652300  0.285800  0.445900  1.0  -0.3028
  C  C332  1  0.647300  0.338800  0.465300  1.0  -0.0236
  C  C333  1  0.700500  0.361850  0.495700  1.0  -0.0709
  C  C334  1  0.758500  0.331000  0.507700  1.0  -0.1123
  C  C335  1  0.816700  0.356300  0.537100  1.0  0.6301
  C  C336  1  0.762800  0.278100  0.489000  1.0  -0.048
  C  C337  1  0.711400  0.256100  0.458500  1.0  -0.0322
  C  C338  1  0.402200  0.310180  0.104480  1.0  -0.3281
  C  C339  1  0.349600  0.287120  0.134800  1.0  -0.031
  C  C340  1  0.341500  0.231700  0.137000  1.0  -0.0434
  C  C341  1  0.387800  0.197670  0.109300  1.0  -0.1185
  C  C342  1  0.377400  0.137300  0.110900  1.0  0.7143
  C  C343  1  0.441100  0.220070  0.080400  1.0  -0.0317
  C  C344  1  0.448300  0.275910  0.076900  1.0  -0.0241
  C  C345  1  0.393800  0.414010  0.159210  1.0  -0.3846
  C  C346  1  0.326900  0.421900  0.177600  1.0  -0.0359
  C  C347  1  0.315300  0.448000  0.226800  1.0  -0.0452
  C  C348  1  0.369700  0.465800  0.257800  1.0  -0.1182
  C  C349  1  0.356400  0.495700  0.309800  1.0  0.7267
  C  C350  1  0.436200  0.457000  0.239900  1.0  -0.0434
  C  C351  1  0.447700  0.430800  0.190900  1.0  -0.0203
  C  C352  1  0.342400  0.404770  0.052920  1.0  -0.2886
  C  C353  1  0.289500  0.372600  0.033400  1.0  -0.0488
  C  C354  1  0.237400  0.394900  0.002200  1.0  -0.0295
  C  C355  1  0.237500  0.449080  0.988850  1.0  -0.1303
  C  C356  1  0.180100  0.473540  0.957780  1.0  0.649
  C  C357  1  0.289800  0.481400  0.007700  1.0  -0.0766
  C  C358  1  0.341700  0.459600  0.039000  1.0  -0.0295
  C  C359  1  0.102200  0.707600  0.162800  1.0  -0.2264
  C  C360  1  0.049300  0.699500  0.198100  1.0  -0.0497
  C  C361  1  0.061300  0.674000  0.247900  1.0  -0.0472
  C  C362  1  0.126100  0.656240  0.261400  1.0  -0.1156
  C  C363  1  0.139000  0.626000  0.313000  1.0  0.7461
  C  C364  1  0.180000  0.666000  0.226300  1.0  -0.0479
  C  C365  1  0.167600  0.692100  0.177400  1.0  -0.0239
  C  C366  1  0.093100  0.809680  0.102500  1.0  -0.2435
  C  C367  1  0.054800  0.842500  0.070000  1.0  -0.0308
  C  C368  1  0.063700  0.898900  0.070400  1.0  -0.0424
  C  C369  1  0.111800  0.922180  0.105100  1.0  -0.1453
  C  C370  1  0.124500  0.981900  0.105100  1.0  0.7115
  C  C371  1  0.150900  0.888700  0.138300  1.0  -0.0466
  C  C372  1  0.141300  0.833100  0.137400  1.0  -0.0254
  C  C373  1  0.152300  0.714200  0.054100  1.0  -0.303
  C  C374  1  0.147300  0.661200  0.034700  1.0  -0.0228
  C  C375  1  0.200500  0.638150  0.004300  1.0  -0.0711
  C  C376  1  0.258500  0.669000  0.992300  1.0  -0.1135
  C  C377  1  0.316700  0.643700  0.962900  1.0  0.6301
  C  C378  1  0.262800  0.721900  0.011000  1.0  -0.0487
  C  C379  1  0.211400  0.743900  0.041500  1.0  -0.0323
  C  C380  1  0.902200  0.689820  0.395520  1.0  -0.3282
  C  C381  1  0.849600  0.712880  0.365200  1.0  -0.0309
  C  C382  1  0.841500  0.768300  0.363000  1.0  -0.0416
  C  C383  1  0.887800  0.802330  0.390700  1.0  -0.1174
  C  C384  1  0.877400  0.862700  0.389100  1.0  0.7135
  C  C385  1  0.941100  0.779930  0.419600  1.0  -0.031
  C  C386  1  0.948300  0.724090  0.423100  1.0  -0.0236
  C  C387  1  0.893800  0.585990  0.340790  1.0  -0.3815
  C  C388  1  0.826900  0.578100  0.322400  1.0  -0.0368
  C  C389  1  0.815300  0.552000  0.273200  1.0  -0.045
  C  C390  1  0.869700  0.534200  0.242200  1.0  -0.1197
  C  C391  1  0.856400  0.504300  0.190200  1.0  0.7256
  C  C392  1  0.936200  0.543000  0.260100  1.0  -0.0436
  C  C393  1  0.947700  0.569200  0.309100  1.0  -0.0212
  C  C394  1  0.842400  0.595230  0.447080  1.0  -0.2876
  C  C395  1  0.789500  0.627400  0.466600  1.0  -0.0495
  C  C396  1  0.737400  0.605100  0.497800  1.0  -0.0302
  C  C397  1  0.737500  0.550920  0.511150  1.0  -0.1292
  C  C398  1  0.680100  0.526460  0.542220  1.0  0.6481
  C  C399  1  0.789800  0.518600  0.492300  1.0  -0.0755
  C  C400  1  0.841700  0.540400  0.461000  1.0  -0.0292
  C  C401  1  0.102200  0.207600  0.337200  1.0  -0.2251
  C  C402  1  0.049300  0.199500  0.301900  1.0  -0.0499
  C  C403  1  0.061300  0.174000  0.252100  1.0  -0.0467
  C  C404  1  0.126100  0.156240  0.238600  1.0  -0.1159
  C  C405  1  0.139000  0.126000  0.187000  1.0  0.7448
  C  C406  1  0.180000  0.166000  0.273700  1.0  -0.0485
  C  C407  1  0.167600  0.192100  0.322600  1.0  -0.0241
  C  C408  1  0.093100  0.309680  0.397500  1.0  -0.2456
  C  C409  1  0.054800  0.342500  0.430000  1.0  -0.0298
  C  C410  1  0.063700  0.398900  0.429600  1.0  -0.0427
  C  C411  1  0.111800  0.422180  0.394900  1.0  -0.1436
  C  C412  1  0.124500  0.481900  0.394900  1.0  0.7123
  C  C413  1  0.150900  0.388700  0.361700  1.0  -0.0475
  C  C414  1  0.141300  0.333100  0.362600  1.0  -0.0264
  C  C415  1  0.152300  0.214200  0.445900  1.0  -0.3026
  C  C416  1  0.147300  0.161200  0.465300  1.0  -0.0234
  C  C417  1  0.200500  0.138150  0.495700  1.0  -0.0714
  C  C418  1  0.258500  0.169000  0.507700  1.0  -0.1125
  C  C419  1  0.316700  0.143700  0.537100  1.0  0.63
  C  C420  1  0.262800  0.221900  0.489000  1.0  -0.0479
  C  C421  1  0.211400  0.243900  0.458500  1.0  -0.0323
  C  C422  1  0.902200  0.189820  0.104480  1.0  -0.328
  C  C423  1  0.849600  0.212880  0.134800  1.0  -0.031
  C  C424  1  0.841500  0.268300  0.137000  1.0  -0.0434
  C  C425  1  0.887800  0.302330  0.109300  1.0  -0.1182
  C  C426  1  0.877400  0.362700  0.110900  1.0  0.7129
  C  C427  1  0.941100  0.279930  0.080400  1.0  -0.0308
  C  C428  1  0.948300  0.224090  0.076900  1.0  -0.0246
  C  C429  1  0.893800  0.085990  0.159210  1.0  -0.3837
  C  C430  1  0.826900  0.078100  0.177600  1.0  -0.0359
  C  C431  1  0.815300  0.052000  0.226800  1.0  -0.0451
  C  C432  1  0.869700  0.034200  0.257800  1.0  -0.1185
  C  C433  1  0.856400  0.004300  0.309800  1.0  0.7263
  C  C434  1  0.936200  0.043000  0.239900  1.0  -0.0431
  C  C435  1  0.947700  0.069200  0.190900  1.0  -0.0201
  C  C436  1  0.842400  0.095230  0.052920  1.0  -0.2886
  C  C437  1  0.789500  0.127400  0.033400  1.0  -0.049
  C  C438  1  0.737400  0.105100  0.002200  1.0  -0.0294
  C  C439  1  0.737500  0.050920  0.988850  1.0  -0.1303
  C  C440  1  0.680100  0.026460  0.957780  1.0  0.6487
  C  C441  1  0.789800  0.018600  0.007700  1.0  -0.0762
  C  C442  1  0.841700  0.040400  0.039000  1.0  -0.0293
  C  C443  1  0.602200  0.792400  0.162800  1.0  -0.2265
  C  C444  1  0.549300  0.800500  0.198100  1.0  -0.0492
  C  C445  1  0.561300  0.826000  0.247900  1.0  -0.047
  C  C446  1  0.626100  0.843760  0.261400  1.0  -0.1158
  C  C447  1  0.639000  0.874000  0.313000  1.0  0.7463
  C  C448  1  0.680000  0.834000  0.226300  1.0  -0.0473
  C  C449  1  0.667600  0.807900  0.177400  1.0  -0.0237
  C  C450  1  0.593100  0.690320  0.102500  1.0  -0.244
  C  C451  1  0.554800  0.657500  0.070000  1.0  -0.0309
  C  C452  1  0.563700  0.601100  0.070400  1.0  -0.042
  C  C453  1  0.611800  0.577820  0.105100  1.0  -0.1438
  C  C454  1  0.624500  0.518100  0.105100  1.0  0.7118
  C  C455  1  0.650900  0.611300  0.138300  1.0  -0.0465
  C  C456  1  0.641300  0.666900  0.137400  1.0  -0.0255
  C  C457  1  0.652300  0.785800  0.054100  1.0  -0.3027
  C  C458  1  0.647300  0.838800  0.034700  1.0  -0.0236
  C  C459  1  0.700500  0.861850  0.004300  1.0  -0.071
  C  C460  1  0.758500  0.831000  0.992300  1.0  -0.1134
  C  C461  1  0.816700  0.856300  0.962900  1.0  0.6301
  C  C462  1  0.762800  0.778100  0.011000  1.0  -0.0486
  C  C463  1  0.711400  0.756100  0.041500  1.0  -0.0321
  C  C464  1  0.402200  0.810180  0.395520  1.0  -0.328
  C  C465  1  0.349600  0.787120  0.365200  1.0  -0.0309
  C  C466  1  0.341500  0.731700  0.363000  1.0  -0.0414
  C  C467  1  0.387800  0.697670  0.390700  1.0  -0.1185
  C  C468  1  0.377400  0.637300  0.389100  1.0  0.7141
  C  C469  1  0.441100  0.720070  0.419600  1.0  -0.0322
  C  C470  1  0.448300  0.775910  0.423100  1.0  -0.0234
  C  C471  1  0.393800  0.914010  0.340790  1.0  -0.3819
  C  C472  1  0.326900  0.921900  0.322400  1.0  -0.0366
  C  C473  1  0.315300  0.948000  0.273200  1.0  -0.045
  C  C474  1  0.369700  0.965800  0.242200  1.0  -0.119
  C  C475  1  0.356400  0.995700  0.190200  1.0  0.7261
  C  C476  1  0.436200  0.957000  0.260100  1.0  -0.0434
  C  C477  1  0.447700  0.930800  0.309100  1.0  -0.0212
  C  C478  1  0.342400  0.904770  0.447080  1.0  -0.2881
  C  C479  1  0.289500  0.872600  0.466600  1.0  -0.049
  C  C480  1  0.237400  0.894900  0.497800  1.0  -0.0304
  C  C481  1  0.237500  0.949080  0.511150  1.0  -0.1291
  C  C482  1  0.180100  0.973540  0.542220  1.0  0.6481
  C  C483  1  0.289800  0.981400  0.492300  1.0  -0.0752
  C  C484  1  0.341700  0.959600  0.461000  1.0  -0.0289
  C  C485  1  0.397800  0.707600  0.662800  1.0  -0.2277
  C  C486  1  0.450700  0.699500  0.698100  1.0  -0.0486
  C  C487  1  0.438700  0.674000  0.747900  1.0  -0.048
  C  C488  1  0.373900  0.656240  0.761400  1.0  -0.1156
  C  C489  1  0.361000  0.626000  0.813000  1.0  0.7456
  C  C490  1  0.320000  0.666000  0.726300  1.0  -0.0489
  C  C491  1  0.332400  0.692100  0.677400  1.0  -0.024
  C  C492  1  0.406900  0.809680  0.602500  1.0  -0.242
  C  C493  1  0.445200  0.842500  0.570000  1.0  -0.0293
  C  C494  1  0.436300  0.898900  0.570400  1.0  -0.0417
  C  C495  1  0.388200  0.922180  0.605100  1.0  -0.1445
  C  C496  1  0.375500  0.981900  0.605100  1.0  0.7114
  C  C497  1  0.349100  0.888700  0.638300  1.0  -0.0468
  C  C498  1  0.358700  0.833100  0.637400  1.0  -0.0256
  C  C499  1  0.347700  0.714200  0.554100  1.0  -0.3016
  C  C500  1  0.352700  0.661200  0.534700  1.0  -0.0234
  C  C501  1  0.299500  0.638150  0.504300  1.0  -0.0715
  C  C502  1  0.241500  0.669000  0.492300  1.0  -0.1151
  C  C503  1  0.183300  0.643700  0.462900  1.0  0.6309
  C  C504  1  0.237200  0.721900  0.511000  1.0  -0.0498
  C  C505  1  0.288600  0.743900  0.541500  1.0  -0.033
  C  C506  1  0.597800  0.689820  0.895520  1.0  -0.328
  C  C507  1  0.650400  0.712880  0.865200  1.0  -0.031
  C  C508  1  0.658500  0.768300  0.863000  1.0  -0.043
  C  C509  1  0.612200  0.802330  0.890700  1.0  -0.1165
  C  C510  1  0.622600  0.862700  0.889100  1.0  0.714
  C  C511  1  0.558900  0.779930  0.919600  1.0  -0.0338
  C  C512  1  0.551700  0.724090  0.923100  1.0  -0.0226
  C  C513  1  0.606200  0.585990  0.840790  1.0  -0.3827
  C  C514  1  0.673100  0.578100  0.822400  1.0  -0.0361
  C  C515  1  0.684700  0.552000  0.773200  1.0  -0.0436
  C  C516  1  0.630300  0.534200  0.742200  1.0  -0.1198
  C  C517  1  0.643600  0.504300  0.690200  1.0  0.7253
  C  C518  1  0.563800  0.543000  0.760100  1.0  -0.0435
  C  C519  1  0.552300  0.569200  0.809100  1.0  -0.0215
  C  C520  1  0.657600  0.595230  0.947080  1.0  -0.2883
  C  C521  1  0.710500  0.627400  0.966600  1.0  -0.0492
  C  C522  1  0.762600  0.605100  0.997800  1.0  -0.0293
  C  C523  1  0.762500  0.550920  0.011150  1.0  -0.1294
  C  C524  1  0.819900  0.526460  0.042220  1.0  0.6475
  C  C525  1  0.710200  0.518600  0.992300  1.0  -0.0758
  C  C526  1  0.658300  0.540400  0.961000  1.0  -0.0278
  C  C527  1  0.897800  0.292400  0.837200  1.0  -0.2267
  C  C528  1  0.950700  0.300500  0.801900  1.0  -0.0479
  C  C529  1  0.938700  0.326000  0.752100  1.0  -0.0475
  C  C530  1  0.873900  0.343760  0.738600  1.0  -0.1157
  C  C531  1  0.861000  0.374000  0.687000  1.0  0.7449
  C  C532  1  0.820000  0.334000  0.773700  1.0  -0.0479
  C  C533  1  0.832400  0.307900  0.822600  1.0  -0.0239
  C  C534  1  0.906900  0.190320  0.897500  1.0  -0.2432
  C  C535  1  0.945200  0.157500  0.930000  1.0  -0.0276
  C  C536  1  0.936300  0.101100  0.929600  1.0  -0.043
  C  C537  1  0.888200  0.077820  0.894900  1.0  -0.1448
  C  C538  1  0.875500  0.018100  0.894900  1.0  0.7121
  C  C539  1  0.849100  0.111300  0.861700  1.0  -0.0458
  C  C540  1  0.858700  0.166900  0.862600  1.0  -0.0263
  C  C541  1  0.847700  0.285800  0.945900  1.0  -0.3018
  C  C542  1  0.852700  0.338800  0.965300  1.0  -0.0232
  C  C543  1  0.799500  0.361850  0.995700  1.0  -0.0709
  C  C544  1  0.741500  0.331000  0.007700  1.0  -0.1138
  C  C545  1  0.683300  0.356300  0.037100  1.0  0.6315
  C  C546  1  0.737200  0.278100  0.989000  1.0  -0.0489
  C  C547  1  0.788600  0.256100  0.958500  1.0  -0.0332
  C  C548  1  0.097800  0.310180  0.604480  1.0  -0.3276
  C  C549  1  0.150400  0.287120  0.634800  1.0  -0.0298
  C  C550  1  0.158500  0.231700  0.637000  1.0  -0.0434
  C  C551  1  0.112200  0.197670  0.609300  1.0  -0.1186
  C  C552  1  0.122600  0.137300  0.610900  1.0  0.7133
  C  C553  1  0.058900  0.220070  0.580400  1.0  -0.0332
  C  C554  1  0.051700  0.275910  0.576900  1.0  -0.0222
  C  C555  1  0.106200  0.414010  0.659210  1.0  -0.3853
  C  C556  1  0.173100  0.421900  0.677600  1.0  -0.0355
  C  C557  1  0.184700  0.448000  0.726800  1.0  -0.0431
  C  C558  1  0.130300  0.465800  0.757800  1.0  -0.1184
  C  C559  1  0.143600  0.495700  0.809800  1.0  0.7263
  C  C560  1  0.063800  0.457000  0.739900  1.0  -0.045
  C  C561  1  0.052300  0.430800  0.690900  1.0  -0.0208
  C  C562  1  0.157600  0.404770  0.552920  1.0  -0.2886
  C  C563  1  0.210500  0.372600  0.533400  1.0  -0.0482
  C  C564  1  0.262600  0.394900  0.502200  1.0  -0.0294
  C  C565  1  0.262500  0.449080  0.488850  1.0  -0.1295
  C  C566  1  0.319900  0.473540  0.457780  1.0  0.6486
  C  C567  1  0.210200  0.481400  0.507700  1.0  -0.0768
  C  C568  1  0.158300  0.459600  0.539000  1.0  -0.0294
  O  O569  1  0.909330  0.874900  0.846980  1.0  -0.5891
  O  O570  1  0.803800  0.896930  0.817500  1.0  -0.6133
  O  O571  1  0.922690  0.487940  0.586200  1.0  -0.5928
  O  O572  1  0.818520  0.503050  0.623070  1.0  -0.6133
  O  O573  1  0.692070  0.901580  0.438440  1.0  -0.6623
  O  O574  1  0.624200  0.835600  0.462300  1.0  -0.5842
  O  O575  1  0.986120  0.778840  0.577060  1.0  -0.5897
  O  O576  1  0.181950  0.621970  0.874120  1.0  -0.6401
  O  O577  1  0.073300  0.607540  0.902030  1.0  -0.6076
  O  O578  1  0.203040  0.015030  0.684280  1.0  -0.6136
  O  O579  1  0.093140  0.999870  0.658220  1.0  -0.6556
  O  O580  1  0.377440  0.950190  0.046070  1.0  -0.5778
  O  O581  1  0.312680  0.021250  0.062630  1.0  -0.6692
  O  O582  1  0.020670  0.896880  0.926360  1.0  -0.7928
  O  O583  1  0.409330  0.125100  0.653020  1.0  -0.5899
  O  O584  1  0.303800  0.103070  0.682500  1.0  -0.6136
  O  O585  1  0.422690  0.512060  0.913800  1.0  -0.5932
  O  O586  1  0.318520  0.496950  0.876930  1.0  -0.6136
  O  O587  1  0.192070  0.098420  0.061560  1.0  -0.6626
  O  O588  1  0.124200  0.164400  0.037700  1.0  -0.5841
  O  O589  1  0.486120  0.221160  0.922940  1.0  -0.59
  O  O590  1  0.681950  0.378030  0.625880  1.0  -0.6427
  O  O591  1  0.573300  0.392460  0.597970  1.0  -0.6095
  O  O592  1  0.703040  0.984970  0.815720  1.0  -0.6134
  O  O593  1  0.593140  0.000130  0.841780  1.0  -0.6568
  O  O594  1  0.877440  0.049810  0.453930  1.0  -0.5758
  O  O595  1  0.812680  0.978750  0.437370  1.0  -0.6695
  O  O596  1  0.520670  0.103120  0.573640  1.0  -0.793
  O  O597  1  0.590670  0.374900  0.153020  1.0  -0.5897
  O  O598  1  0.696200  0.396930  0.182500  1.0  -0.6126
  O  O599  1  0.577310  0.987940  0.413800  1.0  -0.5939
  O  O600  1  0.681480  0.003050  0.376930  1.0  -0.6116
  O  O601  1  0.807930  0.401580  0.561560  1.0  -0.6614
  O  O602  1  0.875800  0.335600  0.537700  1.0  -0.5854
  O  O603  1  0.513880  0.278840  0.422940  1.0  -0.5867
  O  O604  1  0.318050  0.121970  0.125880  1.0  -0.6413
  O  O605  1  0.426700  0.107540  0.097970  1.0  -0.6083
  O  O606  1  0.296960  0.515030  0.315720  1.0  -0.6132
  O  O607  1  0.406860  0.499870  0.341780  1.0  -0.6577
  O  O608  1  0.122560  0.450190  0.953930  1.0  -0.5781
  O  O609  1  0.187320  0.521250  0.937370  1.0  -0.668
  O  O610  1  0.479330  0.396880  0.073640  1.0  -0.7921
  O  O611  1  0.090670  0.625100  0.346980  1.0  -0.5897
  O  O612  1  0.196200  0.603070  0.317500  1.0  -0.6123
  O  O613  1  0.077310  0.012060  0.086200  1.0  -0.5942
  O  O614  1  0.181480  0.996950  0.123070  1.0  -0.6119
  O  O615  1  0.307930  0.598420  0.938440  1.0  -0.6618
  O  O616  1  0.375800  0.664400  0.962300  1.0  -0.5841
  O  O617  1  0.013880  0.721160  0.077060  1.0  -0.5878
  O  O618  1  0.818050  0.878030  0.374120  1.0  -0.6398
  O  O619  1  0.926700  0.892460  0.402030  1.0  -0.6095
  O  O620  1  0.796960  0.484970  0.184280  1.0  -0.613
  O  O621  1  0.906860  0.500130  0.158220  1.0  -0.657
  O  O622  1  0.622560  0.549810  0.546070  1.0  -0.5772
  O  O623  1  0.687320  0.478750  0.562630  1.0  -0.6685
  O  O624  1  0.979330  0.603120  0.426360  1.0  -0.7918
  O  O625  1  0.090670  0.125100  0.153020  1.0  -0.59
  O  O626  1  0.196200  0.103070  0.182500  1.0  -0.6126
  O  O627  1  0.077310  0.512060  0.413800  1.0  -0.5941
  O  O628  1  0.181480  0.496950  0.376930  1.0  -0.6125
  O  O629  1  0.307930  0.098420  0.561560  1.0  -0.6617
  O  O630  1  0.375800  0.164400  0.537700  1.0  -0.5858
  O  O631  1  0.013880  0.221160  0.422940  1.0  -0.588
  O  O632  1  0.818050  0.378030  0.125880  1.0  -0.6414
  O  O633  1  0.926700  0.392460  0.097970  1.0  -0.6107
  O  O634  1  0.796960  0.984970  0.315720  1.0  -0.6131
  O  O635  1  0.906860  0.000130  0.341780  1.0  -0.6579
  O  O636  1  0.622560  0.049810  0.953930  1.0  -0.5765
  O  O637  1  0.687320  0.978750  0.937370  1.0  -0.6688
  O  O638  1  0.979330  0.103120  0.073640  1.0  -0.7921
  O  O639  1  0.590670  0.874900  0.346980  1.0  -0.5894
  O  O640  1  0.696200  0.896930  0.317500  1.0  -0.6123
  O  O641  1  0.577310  0.487940  0.086200  1.0  -0.5941
  O  O642  1  0.681480  0.503050  0.123070  1.0  -0.6115
  O  O643  1  0.807930  0.901580  0.938440  1.0  -0.6614
  O  O644  1  0.875800  0.835600  0.962300  1.0  -0.5858
  O  O645  1  0.513880  0.778840  0.077060  1.0  -0.5863
  O  O646  1  0.318050  0.621970  0.374120  1.0  -0.6399
  O  O647  1  0.426700  0.607540  0.402030  1.0  -0.6111
  O  O648  1  0.296960  0.015030  0.184280  1.0  -0.6131
  O  O649  1  0.406860  0.999870  0.158220  1.0  -0.6569
  O  O650  1  0.122560  0.950190  0.546070  1.0  -0.5784
  O  O651  1  0.187320  0.021250  0.562630  1.0  -0.6676
  O  O652  1  0.479330  0.896880  0.426360  1.0  -0.7926
  O  O653  1  0.409330  0.625100  0.846980  1.0  -0.5896
  O  O654  1  0.303800  0.603070  0.817500  1.0  -0.6138
  O  O655  1  0.422690  0.012060  0.586200  1.0  -0.5932
  O  O656  1  0.318520  0.996950  0.623070  1.0  -0.6136
  O  O657  1  0.192070  0.598420  0.438440  1.0  -0.6626
  O  O658  1  0.124200  0.664400  0.462300  1.0  -0.5841
  O  O659  1  0.486120  0.721160  0.577060  1.0  -0.5898
  O  O660  1  0.681950  0.878030  0.874120  1.0  -0.6401
  O  O661  1  0.573300  0.892460  0.902030  1.0  -0.6082
  O  O662  1  0.703040  0.484970  0.684280  1.0  -0.6134
  O  O663  1  0.593140  0.500130  0.658220  1.0  -0.6559
  O  O664  1  0.877440  0.549810  0.046070  1.0  -0.5763
  O  O665  1  0.812680  0.478750  0.062630  1.0  -0.6701
  O  O666  1  0.520670  0.603120  0.926360  1.0  -0.7923
  O  O667  1  0.909330  0.374900  0.653020  1.0  -0.5895
  O  O668  1  0.803800  0.396930  0.682500  1.0  -0.6135
  O  O669  1  0.922690  0.987940  0.913800  1.0  -0.5927
  O  O670  1  0.818520  0.003050  0.876930  1.0  -0.6127
  O  O671  1  0.692070  0.401580  0.061560  1.0  -0.6623
  O  O672  1  0.624200  0.335600  0.037700  1.0  -0.5851
  O  O673  1  0.986120  0.278840  0.922940  1.0  -0.5894
  O  O674  1  0.181950  0.121970  0.625880  1.0  -0.6424
  O  O675  1  0.073300  0.107540  0.597970  1.0  -0.6077
  O  O676  1  0.203040  0.515030  0.815720  1.0  -0.6137
  O  O677  1  0.093140  0.499870  0.841780  1.0  -0.6566
  O  O678  1  0.377440  0.450190  0.453930  1.0  -0.5769
  O  O679  1  0.312680  0.521250  0.437370  1.0  -0.6688
  O  O680  1  0.020670  0.396880  0.573640  1.0  -0.793
