# generated using pymatgen
data_Mn3P2H23(C3O)14
_symmetry_space_group_name_H-M   'P 1'
_cell_length_a   20.05940000
_cell_length_b   24.99430000
_cell_length_c   25.06450000
_cell_angle_alpha   90.00000000
_cell_angle_beta   90.00000000
_cell_angle_gamma   90.00000000
_symmetry_Int_Tables_number   1
_chemical_formula_structural   Mn3P2H23(C3O)14
_chemical_formula_sum   'Mn24 P16 H184 C336 O112'
_cell_volume   12566.60494316
_cell_formula_units_Z   8
loop_
 _symmetry_equiv_pos_site_id
 _symmetry_equiv_pos_as_xyz
  1  'x, y, z'
loop_
 _atom_site_type_symbol
 _atom_site_label
 _atom_site_symmetry_multiplicity
 _atom_site_fract_x
 _atom_site_fract_y
 _atom_site_fract_z
 _atom_site_occupancy
 _atom_site_charge
  Mn  Mn1  1  0.919560  0.909030  0.924130  1.0  1.122
  Mn  Mn2  1  0.752000  0.941130  0.873340  1.0  1.0453
  Mn  Mn3  1  0.081370  0.526500  0.915940  1.0  1.0755
  Mn  Mn4  1  0.419560  0.090970  0.575870  1.0  1.1225
  Mn  Mn5  1  0.252000  0.058870  0.626660  1.0  1.0451
  Mn  Mn6  1  0.581370  0.473500  0.584060  1.0  1.0755
  Mn  Mn7  1  0.580440  0.409030  0.075870  1.0  1.1226
  Mn  Mn8  1  0.748000  0.441130  0.126660  1.0  1.0441
  Mn  Mn9  1  0.418630  0.026500  0.084060  1.0  1.074
  Mn  Mn10  1  0.080440  0.590970  0.424130  1.0  1.1221
  Mn  Mn11  1  0.248000  0.558870  0.373340  1.0  1.0438
  Mn  Mn12  1  0.918630  0.973500  0.415940  1.0  1.0748
  Mn  Mn13  1  0.080440  0.090970  0.075870  1.0  1.1227
  Mn  Mn14  1  0.248000  0.058870  0.126660  1.0  1.044
  Mn  Mn15  1  0.918630  0.473500  0.084060  1.0  1.0739
  Mn  Mn16  1  0.580440  0.909030  0.424130  1.0  1.1222
  Mn  Mn17  1  0.748000  0.941130  0.373340  1.0  1.0439
  Mn  Mn18  1  0.418630  0.526500  0.415940  1.0  1.0742
  Mn  Mn19  1  0.419560  0.590970  0.924130  1.0  1.122
  Mn  Mn20  1  0.252000  0.558870  0.873340  1.0  1.0452
  Mn  Mn21  1  0.581370  0.973500  0.915940  1.0  1.0737
  Mn  Mn22  1  0.919560  0.409030  0.575870  1.0  1.1224
  Mn  Mn23  1  0.752000  0.441130  0.626660  1.0  1.0452
  Mn  Mn24  1  0.081370  0.026500  0.584060  1.0  1.0724
  P  P25  1  0.911620  0.764460  0.596410  1.0  1.206
  P  P26  1  0.091760  0.880600  0.905940  1.0  1.1479
  P  P27  1  0.411620  0.235540  0.903590  1.0  1.2067
  P  P28  1  0.591760  0.119400  0.594060  1.0  1.1481
  P  P29  1  0.588380  0.264460  0.403590  1.0  1.2069
  P  P30  1  0.408240  0.380600  0.094060  1.0  1.1498
  P  P31  1  0.088380  0.735540  0.096410  1.0  1.2067
  P  P32  1  0.908240  0.619400  0.405940  1.0  1.1502
  P  P33  1  0.088380  0.235540  0.403590  1.0  1.2069
  P  P34  1  0.908240  0.119400  0.094060  1.0  1.1503
  P  P35  1  0.588380  0.764460  0.096410  1.0  1.2065
  P  P36  1  0.408240  0.880600  0.405940  1.0  1.1498
  P  P37  1  0.411620  0.735540  0.596410  1.0  1.2063
  P  P38  1  0.591760  0.619400  0.905940  1.0  1.1482
  P  P39  1  0.911620  0.264460  0.903590  1.0  1.2066
  P  P40  1  0.091760  0.380600  0.594060  1.0  1.1478
  H  H41  1  0.992800  0.799000  0.682200  1.0  0.1092
  H  H42  1  0.975900  0.839300  0.764800  1.0  0.103
  H  H43  1  0.779000  0.840100  0.739300  1.0  0.107
  H  H44  1  0.794300  0.797700  0.657500  1.0  0.1102
  H  H45  1  0.964800  0.673800  0.545300  1.0  0.0955
  H  H46  1  0.954200  0.583200  0.548300  1.0  0.1167
  H  H47  1  0.815500  0.599000  0.663700  1.0  0.1177
  H  H48  1  0.830400  0.691100  0.661600  1.0  0.0994
  H  H49  1  0.883700  0.862800  0.546900  1.0  0.1064
  H  H50  1  0.798300  0.898600  0.494700  1.0  0.1008
  H  H51  1  0.705300  0.755700  0.495700  1.0  0.1031
  H  H52  1  0.791200  0.719500  0.546100  1.0  0.1046
  H  H53  1  0.182400  0.809800  0.850400  1.0  0.0997
  H  H54  1  0.196900  0.717500  0.846800  1.0  0.1097
  H  H55  1  0.035000  0.698200  0.940500  1.0  0.1124
  H  H56  1  0.021800  0.790200  0.943800  1.0  0.0978
  H  H57  1  0.209900  0.913500  0.846900  1.0  0.0982
  H  H58  1  0.228200  0.958000  0.766600  1.0  0.1077
  H  H59  1  0.012100  0.920400  0.821400  1.0  0.1101
  H  H60  1  0.213200  0.836000  0.955600  1.0  0.0953
  H  H61  1  0.299100  0.872400  0.006000  1.0  0.1054
  H  H62  1  0.205700  0.014200  0.006400  1.0  0.0974
  H  H63  1  0.119900  0.978100  0.955600  1.0  0.1138
  H  H64  1  0.492800  0.201000  0.817800  1.0  0.1092
  H  H65  1  0.475900  0.160700  0.735200  1.0  0.1029
  H  H66  1  0.279000  0.159900  0.760700  1.0  0.1073
  H  H67  1  0.294300  0.202300  0.842500  1.0  0.1095
  H  H68  1  0.464800  0.326200  0.954700  1.0  0.0952
  H  H69  1  0.454200  0.416800  0.951700  1.0  0.1166
  H  H70  1  0.315500  0.401000  0.836300  1.0  0.1175
  H  H71  1  0.330400  0.308900  0.838400  1.0  0.0994
  H  H72  1  0.383700  0.137200  0.953100  1.0  0.1063
  H  H73  1  0.298300  0.101400  0.005300  1.0  0.1008
  H  H74  1  0.205300  0.244300  0.004300  1.0  0.1033
  H  H75  1  0.291200  0.280500  0.953900  1.0  0.1048
  H  H76  1  0.682400  0.190200  0.649600  1.0  0.0989
  H  H77  1  0.696900  0.282500  0.653200  1.0  0.1105
  H  H78  1  0.535000  0.301800  0.559500  1.0  0.1127
  H  H79  1  0.521800  0.209800  0.556200  1.0  0.0983
  H  H80  1  0.709900  0.086500  0.653100  1.0  0.098
  H  H81  1  0.728200  0.042000  0.733400  1.0  0.107
  H  H82  1  0.512100  0.079600  0.678600  1.0  0.1101
  H  H83  1  0.713200  0.164000  0.544400  1.0  0.0948
  H  H84  1  0.799100  0.127600  0.494000  1.0  0.106
  H  H85  1  0.705700  0.985800  0.493600  1.0  0.097
  H  H86  1  0.619900  0.021900  0.544400  1.0  0.1138
  H  H87  1  0.507200  0.299000  0.317800  1.0  0.1096
  H  H88  1  0.524100  0.339300  0.235200  1.0  0.1028
  H  H89  1  0.721000  0.340100  0.260700  1.0  0.1071
  H  H90  1  0.705700  0.297700  0.342500  1.0  0.1106
  H  H91  1  0.535200  0.173800  0.454700  1.0  0.0952
  H  H92  1  0.545800  0.083200  0.451700  1.0  0.1161
  H  H93  1  0.684500  0.099000  0.336300  1.0  0.1176
  H  H94  1  0.669600  0.191100  0.338400  1.0  0.0992
  H  H95  1  0.616300  0.362800  0.453100  1.0  0.1064
  H  H96  1  0.701700  0.398600  0.505300  1.0  0.1013
  H  H97  1  0.794700  0.255700  0.504300  1.0  0.1035
  H  H98  1  0.708800  0.219500  0.453900  1.0  0.1048
  H  H99  1  0.317600  0.309800  0.149600  1.0  0.0989
  H  H100  1  0.303100  0.217500  0.153200  1.0  0.1107
  H  H101  1  0.465000  0.198200  0.059500  1.0  0.1125
  H  H102  1  0.478200  0.290200  0.056200  1.0  0.0985
  H  H103  1  0.290100  0.413500  0.153100  1.0  0.0982
  H  H104  1  0.271800  0.458000  0.233400  1.0  0.1076
  H  H105  1  0.487900  0.420400  0.178600  1.0  0.1097
  H  H106  1  0.286800  0.336000  0.044400  1.0  0.0941
  H  H107  1  0.200900  0.372400  0.994000  1.0  0.1048
  H  H108  1  0.294300  0.514200  0.993600  1.0  0.0969
  H  H109  1  0.380100  0.478100  0.044400  1.0  0.1137
  H  H110  1  0.007200  0.701000  0.182200  1.0  0.1096
  H  H111  1  0.024100  0.660700  0.264800  1.0  0.1026
  H  H112  1  0.221000  0.659900  0.239300  1.0  0.1066
  H  H113  1  0.205700  0.702300  0.157500  1.0  0.1109
  H  H114  1  0.035200  0.826200  0.045300  1.0  0.0961
  H  H115  1  0.045800  0.916800  0.048300  1.0  0.1165
  H  H116  1  0.184500  0.901000  0.163700  1.0  0.1177
  H  H117  1  0.169600  0.808900  0.161600  1.0  0.0994
  H  H118  1  0.116300  0.637200  0.046900  1.0  0.1064
  H  H119  1  0.201700  0.601400  0.994700  1.0  0.1016
  H  H120  1  0.294700  0.744300  0.995700  1.0  0.1042
  H  H121  1  0.208800  0.780500  0.046100  1.0  0.1042
  H  H122  1  0.817600  0.690200  0.350400  1.0  0.0993
  H  H123  1  0.803100  0.782500  0.346800  1.0  0.1098
  H  H124  1  0.965000  0.801800  0.440500  1.0  0.1124
  H  H125  1  0.978200  0.709800  0.443800  1.0  0.0982
  H  H126  1  0.790100  0.586500  0.346900  1.0  0.0983
  H  H127  1  0.771800  0.542000  0.266600  1.0  0.1079
  H  H128  1  0.987900  0.579600  0.321400  1.0  0.1099
  H  H129  1  0.786800  0.664000  0.455600  1.0  0.0939
  H  H130  1  0.700900  0.627600  0.506000  1.0  0.1047
  H  H131  1  0.794300  0.485800  0.506400  1.0  0.0968
  H  H132  1  0.880100  0.521900  0.455600  1.0  0.1142
  H  H133  1  0.007200  0.201000  0.317800  1.0  0.1095
  H  H134  1  0.024100  0.160700  0.235200  1.0  0.1031
  H  H135  1  0.221000  0.159900  0.260700  1.0  0.107
  H  H136  1  0.205700  0.202300  0.342500  1.0  0.1105
  H  H137  1  0.035200  0.326200  0.454700  1.0  0.0956
  H  H138  1  0.045800  0.416800  0.451700  1.0  0.1162
  H  H139  1  0.184500  0.401000  0.336300  1.0  0.1176
  H  H140  1  0.169600  0.308900  0.338400  1.0  0.0993
  H  H141  1  0.116300  0.137200  0.453100  1.0  0.1061
  H  H142  1  0.201700  0.101400  0.505300  1.0  0.1012
  H  H143  1  0.294700  0.244300  0.504300  1.0  0.104
  H  H144  1  0.208800  0.280500  0.453900  1.0  0.105
  H  H145  1  0.817600  0.190200  0.149600  1.0  0.0989
  H  H146  1  0.803100  0.282500  0.153200  1.0  0.1106
  H  H147  1  0.965000  0.301800  0.059500  1.0  0.1127
  H  H148  1  0.978200  0.209800  0.056200  1.0  0.0985
  H  H149  1  0.790100  0.086500  0.153100  1.0  0.098
  H  H150  1  0.771800  0.042000  0.233400  1.0  0.1075
  H  H151  1  0.987900  0.079600  0.178600  1.0  0.1099
  H  H152  1  0.786800  0.164000  0.044400  1.0  0.0951
  H  H153  1  0.700900  0.127600  0.994000  1.0  0.105
  H  H154  1  0.794300  0.985800  0.993600  1.0  0.0971
  H  H155  1  0.880100  0.021900  0.044400  1.0  0.1142
  H  H156  1  0.507200  0.799000  0.182200  1.0  0.1094
  H  H157  1  0.524100  0.839300  0.264800  1.0  0.1028
  H  H158  1  0.721000  0.840100  0.239300  1.0  0.1066
  H  H159  1  0.705700  0.797700  0.157500  1.0  0.1111
  H  H160  1  0.535200  0.673800  0.045300  1.0  0.0962
  H  H161  1  0.545800  0.583200  0.048300  1.0  0.1159
  H  H162  1  0.684500  0.599000  0.163700  1.0  0.118
  H  H163  1  0.669600  0.691100  0.161600  1.0  0.0991
  H  H164  1  0.616300  0.862800  0.046900  1.0  0.1065
  H  H165  1  0.701700  0.898600  0.994700  1.0  0.1011
  H  H166  1  0.794700  0.755700  0.995700  1.0  0.1036
  H  H167  1  0.708800  0.719500  0.046100  1.0  0.1046
  H  H168  1  0.317600  0.809800  0.350400  1.0  0.0999
  H  H169  1  0.303100  0.717500  0.346800  1.0  0.1098
  H  H170  1  0.465000  0.698200  0.440500  1.0  0.1124
  H  H171  1  0.478200  0.790200  0.443800  1.0  0.0983
  H  H172  1  0.290100  0.913500  0.346900  1.0  0.0986
  H  H173  1  0.271800  0.958000  0.266600  1.0  0.1079
  H  H174  1  0.487900  0.920400  0.321400  1.0  0.1097
  H  H175  1  0.286800  0.836000  0.455600  1.0  0.0949
  H  H176  1  0.200900  0.872400  0.506000  1.0  0.1048
  H  H177  1  0.294300  0.014200  0.506400  1.0  0.0972
  H  H178  1  0.380100  0.978100  0.455600  1.0  0.1138
  H  H179  1  0.492800  0.701000  0.682200  1.0  0.1095
  H  H180  1  0.475900  0.660700  0.764800  1.0  0.1027
  H  H181  1  0.279000  0.659900  0.739300  1.0  0.1071
  H  H182  1  0.294300  0.702300  0.657500  1.0  0.1101
  H  H183  1  0.464800  0.826200  0.545300  1.0  0.0956
  H  H184  1  0.454200  0.916800  0.548300  1.0  0.1168
  H  H185  1  0.315500  0.901000  0.663700  1.0  0.1175
  H  H186  1  0.330400  0.808900  0.661600  1.0  0.0997
  H  H187  1  0.383700  0.637200  0.546900  1.0  0.1063
  H  H188  1  0.298300  0.601400  0.494700  1.0  0.1012
  H  H189  1  0.205300  0.744300  0.495700  1.0  0.1035
  H  H190  1  0.291200  0.780500  0.546100  1.0  0.1044
  H  H191  1  0.682400  0.690200  0.850400  1.0  0.0998
  H  H192  1  0.696900  0.782500  0.846800  1.0  0.1098
  H  H193  1  0.535000  0.801800  0.940500  1.0  0.1124
  H  H194  1  0.521800  0.709800  0.943800  1.0  0.098
  H  H195  1  0.709900  0.586500  0.846900  1.0  0.0979
  H  H196  1  0.728200  0.542000  0.766600  1.0  0.1076
  H  H197  1  0.512100  0.579600  0.821400  1.0  0.11
  H  H198  1  0.713200  0.664000  0.955600  1.0  0.094
  H  H199  1  0.799100  0.627600  0.006000  1.0  0.1055
  H  H200  1  0.705700  0.485800  0.006400  1.0  0.097
  H  H201  1  0.619900  0.521900  0.955600  1.0  0.1137
  H  H202  1  0.992800  0.299000  0.817800  1.0  0.1093
  H  H203  1  0.975900  0.339300  0.735200  1.0  0.1027
  H  H204  1  0.779000  0.340100  0.760700  1.0  0.1072
  H  H205  1  0.794300  0.297700  0.842500  1.0  0.1096
  H  H206  1  0.964800  0.173800  0.954700  1.0  0.0948
  H  H207  1  0.954200  0.083200  0.951700  1.0  0.1168
  H  H208  1  0.815500  0.099000  0.836300  1.0  0.1174
  H  H209  1  0.830400  0.191100  0.838400  1.0  0.0997
  H  H210  1  0.883700  0.362800  0.953100  1.0  0.1065
  H  H211  1  0.798300  0.398600  0.005300  1.0  0.1009
  H  H212  1  0.705300  0.255700  0.004300  1.0  0.103
  H  H213  1  0.791200  0.219500  0.953900  1.0  0.1044
  H  H214  1  0.182400  0.309800  0.649600  1.0  0.0986
  H  H215  1  0.196900  0.217500  0.653200  1.0  0.1104
  H  H216  1  0.035000  0.198200  0.559500  1.0  0.1126
  H  H217  1  0.021800  0.290200  0.556200  1.0  0.0979
  H  H218  1  0.209900  0.413500  0.653100  1.0  0.0983
  H  H219  1  0.228200  0.458000  0.733400  1.0  0.1071
  H  H220  1  0.012100  0.420400  0.678600  1.0  0.1101
  H  H221  1  0.213200  0.336000  0.544400  1.0  0.0943
  H  H222  1  0.299100  0.372400  0.494000  1.0  0.1056
  H  H223  1  0.205700  0.514200  0.493600  1.0  0.0969
  H  H224  1  0.119900  0.478100  0.544400  1.0  0.1137
  C  C225  1  0.895400  0.794630  0.660830  1.0  -0.288
  C  C226  1  0.949200  0.807120  0.693400  1.0  -0.0561
  C  C227  1  0.939200  0.831700  0.742800  1.0  -0.0587
  C  C228  1  0.875900  0.844740  0.759750  1.0  -0.1403
  C  C229  1  0.863900  0.874820  0.811760  1.0  0.7462
  C  C230  1  0.822400  0.831800  0.727800  1.0  -0.0353
  C  C231  1  0.831400  0.806610  0.678600  1.0  -0.0572
  C  C232  1  0.900600  0.693180  0.603210  1.0  -0.1869
  C  C233  1  0.935100  0.658880  0.570160  1.0  -0.0147
  C  C234  1  0.928700  0.604700  0.571450  1.0  -0.0813
  C  C235  1  0.885100  0.581560  0.606580  1.0  -0.1033
  C  C236  1  0.874900  0.521530  0.607320  1.0  0.7253
  C  C237  1  0.846700  0.614240  0.640200  1.0  -0.0739
  C  C238  1  0.855400  0.669350  0.638500  1.0  -0.0371
  C  C239  1  0.844700  0.788130  0.553510  1.0  -0.3037
  C  C240  1  0.847400  0.841180  0.536820  1.0  -0.0251
  C  C241  1  0.796600  0.862560  0.505250  1.0  -0.0313
  C  C242  1  0.743300  0.830280  0.489400  1.0  -0.1286
  C  C243  1  0.686600  0.854180  0.458830  1.0  0.6804
  C  C244  1  0.741500  0.777370  0.505700  1.0  -0.0403
  C  C245  1  0.792300  0.755840  0.536600  1.0  -0.0428
  C  C246  1  0.101200  0.809240  0.897820  1.0  -0.2818
  C  C247  1  0.152700  0.787290  0.868700  1.0  -0.0194
  C  C248  1  0.161100  0.732110  0.866100  1.0  -0.0377
  C  C249  1  0.116300  0.698720  0.892380  1.0  -0.1336
  C  C250  1  0.125700  0.638420  0.890210  1.0  0.7495
  C  C251  1  0.064700  0.720550  0.922000  1.0  -0.0454
  C  C252  1  0.057200  0.775510  0.924170  1.0  -0.0178
  C  C253  1  0.108700  0.912990  0.842730  1.0  -0.2878
  C  C254  1  0.173400  0.923990  0.825770  1.0  -0.0395
  C  C255  1  0.184400  0.950510  0.777640  1.0  -0.062
  C  C256  1  0.131400  0.965790  0.746130  1.0  -0.1451
  C  C257  1  0.143200  0.995080  0.694110  1.0  0.6949
  C  C258  1  0.067800  0.953800  0.762600  1.0  0.0166
  C  C259  1  0.056000  0.927800  0.810700  1.0  0.0044
  C  C260  1  0.158400  0.903510  0.949350  1.0  -0.2488
  C  C261  1  0.211700  0.872290  0.965400  1.0  -0.0435
  C  C262  1  0.262900  0.893990  0.995800  1.0  -0.0419
  C  C263  1  0.260890  0.947190  0.011260  1.0  -0.1404
  C  C264  1  0.317600  0.972100  0.042110  1.0  0.6766
  C  C265  1  0.207600  0.978130  0.996020  1.0  -0.0392
  C  C266  1  0.156200  0.956580  0.965430  1.0  -0.0384
  C  C267  1  0.395400  0.205370  0.839170  1.0  -0.2861
  C  C268  1  0.449200  0.192880  0.806600  1.0  -0.0558
  C  C269  1  0.439200  0.168300  0.757200  1.0  -0.0585
  C  C270  1  0.375900  0.155260  0.740250  1.0  -0.141
  C  C271  1  0.363900  0.125180  0.688240  1.0  0.7452
  C  C272  1  0.322400  0.168200  0.772200  1.0  -0.0357
  C  C273  1  0.331400  0.193390  0.821400  1.0  -0.0578
  C  C274  1  0.400600  0.306820  0.896790  1.0  -0.1886
  C  C275  1  0.435100  0.341120  0.929840  1.0  -0.016
  C  C276  1  0.428700  0.395300  0.928550  1.0  -0.0804
  C  C277  1  0.385100  0.418440  0.893420  1.0  -0.1054
  C  C278  1  0.374900  0.478470  0.892680  1.0  0.7269
  C  C279  1  0.346700  0.385760  0.859800  1.0  -0.0708
  C  C280  1  0.355400  0.330650  0.861500  1.0  -0.0385
  C  C281  1  0.344700  0.211870  0.946490  1.0  -0.3041
  C  C282  1  0.347400  0.158820  0.963180  1.0  -0.0262
  C  C283  1  0.296600  0.137440  0.994750  1.0  -0.0303
  C  C284  1  0.243300  0.169720  0.010600  1.0  -0.1277
  C  C285  1  0.186600  0.145820  0.041170  1.0  0.6809
  C  C286  1  0.241500  0.222630  0.994300  1.0  -0.0407
  C  C287  1  0.292300  0.244160  0.963400  1.0  -0.0447
  C  C288  1  0.601200  0.190760  0.602180  1.0  -0.2815
  C  C289  1  0.652700  0.212710  0.631300  1.0  -0.0201
  C  C290  1  0.661100  0.267890  0.633900  1.0  -0.0391
  C  C291  1  0.616300  0.301280  0.607620  1.0  -0.1343
  C  C292  1  0.625700  0.361580  0.609790  1.0  0.7489
  C  C293  1  0.564700  0.279450  0.578000  1.0  -0.0446
  C  C294  1  0.557200  0.224490  0.575830  1.0  -0.0175
  C  C295  1  0.608700  0.087010  0.657270  1.0  -0.2903
  C  C296  1  0.673400  0.076010  0.674230  1.0  -0.0396
  C  C297  1  0.684400  0.049490  0.722360  1.0  -0.0614
  C  C298  1  0.631400  0.034210  0.753870  1.0  -0.1468
  C  C299  1  0.643200  0.004920  0.805890  1.0  0.6944
  C  C300  1  0.567800  0.046200  0.737400  1.0  0.0132
  C  C301  1  0.556000  0.072200  0.689300  1.0  0.0048
  C  C302  1  0.658400  0.096490  0.550650  1.0  -0.2489
  C  C303  1  0.711700  0.127710  0.534600  1.0  -0.0446
  C  C304  1  0.762900  0.106010  0.504200  1.0  -0.0425
  C  C305  1  0.760890  0.052810  0.488740  1.0  -0.1405
  C  C306  1  0.817600  0.027900  0.457890  1.0  0.6758
  C  C307  1  0.707600  0.021870  0.503980  1.0  -0.0378
  C  C308  1  0.656200  0.043420  0.534570  1.0  -0.0373
  C  C309  1  0.604600  0.294630  0.339170  1.0  -0.2861
  C  C310  1  0.550800  0.307120  0.306600  1.0  -0.0545
  C  C311  1  0.560800  0.331700  0.257200  1.0  -0.0592
  C  C312  1  0.624100  0.344740  0.240250  1.0  -0.1415
  C  C313  1  0.636100  0.374820  0.188240  1.0  0.7451
  C  C314  1  0.677600  0.331800  0.272200  1.0  -0.0346
  C  C315  1  0.668600  0.306610  0.321400  1.0  -0.0588
  C  C316  1  0.599400  0.193180  0.396790  1.0  -0.1888
  C  C317  1  0.564900  0.158880  0.429840  1.0  -0.0175
  C  C318  1  0.571300  0.104700  0.428550  1.0  -0.0809
  C  C319  1  0.614900  0.081560  0.393420  1.0  -0.1054
  C  C320  1  0.625100  0.021530  0.392680  1.0  0.7265
  C  C321  1  0.653300  0.114240  0.359800  1.0  -0.0708
  C  C322  1  0.644600  0.169350  0.361500  1.0  -0.038
  C  C323  1  0.655300  0.288130  0.446490  1.0  -0.3054
  C  C324  1  0.652600  0.341180  0.463180  1.0  -0.0258
  C  C325  1  0.703400  0.362560  0.494750  1.0  -0.0303
  C  C326  1  0.756700  0.330280  0.510600  1.0  -0.1278
  C  C327  1  0.813400  0.354180  0.541170  1.0  0.6808
  C  C328  1  0.758500  0.277370  0.494300  1.0  -0.0381
  C  C329  1  0.707700  0.255840  0.463400  1.0  -0.0441
  C  C330  1  0.398800  0.309240  0.102180  1.0  -0.2813
  C  C331  1  0.347300  0.287290  0.131300  1.0  -0.0205
  C  C332  1  0.338900  0.232110  0.133900  1.0  -0.0391
  C  C333  1  0.383700  0.198720  0.107620  1.0  -0.1317
  C  C334  1  0.374300  0.138420  0.109790  1.0  0.7508
  C  C335  1  0.435300  0.220550  0.078000  1.0  -0.0447
  C  C336  1  0.442800  0.275510  0.075830  1.0  -0.0183
  C  C337  1  0.391300  0.412990  0.157270  1.0  -0.2906
  C  C338  1  0.326600  0.423990  0.174230  1.0  -0.0392
  C  C339  1  0.315600  0.450510  0.222360  1.0  -0.0621
  C  C340  1  0.368600  0.465790  0.253870  1.0  -0.1476
  C  C341  1  0.356800  0.495080  0.305890  1.0  0.695
  C  C342  1  0.432200  0.453800  0.237400  1.0  0.0107
  C  C343  1  0.444000  0.427800  0.189300  1.0  0.005
  C  C344  1  0.341600  0.403510  0.050650  1.0  -0.2507
  C  C345  1  0.288300  0.372290  0.034600  1.0  -0.0425
  C  C346  1  0.237100  0.393990  0.004200  1.0  -0.0413
  C  C347  1  0.239110  0.447190  0.988740  1.0  -0.1403
  C  C348  1  0.182400  0.472100  0.957890  1.0  0.6774
  C  C349  1  0.292400  0.478130  0.003980  1.0  -0.0391
  C  C350  1  0.343800  0.456580  0.034570  1.0  -0.0383
  C  C351  1  0.104600  0.705370  0.160830  1.0  -0.2879
  C  C352  1  0.050800  0.692880  0.193400  1.0  -0.055
  C  C353  1  0.060800  0.668300  0.242800  1.0  -0.0584
  C  C354  1  0.124100  0.655260  0.259750  1.0  -0.1406
  C  C355  1  0.136100  0.625180  0.311760  1.0  0.7457
  C  C356  1  0.177600  0.668200  0.227800  1.0  -0.035
  C  C357  1  0.168600  0.693390  0.178600  1.0  -0.0589
  C  C358  1  0.099400  0.806820  0.103210  1.0  -0.1875
  C  C359  1  0.064900  0.841120  0.070160  1.0  -0.0169
  C  C360  1  0.071300  0.895300  0.071450  1.0  -0.0822
  C  C361  1  0.114900  0.918440  0.106580  1.0  -0.1041
  C  C362  1  0.125100  0.978470  0.107320  1.0  0.7251
  C  C363  1  0.153300  0.885760  0.140200  1.0  -0.0724
  C  C364  1  0.144600  0.830650  0.138500  1.0  -0.0359
  C  C365  1  0.155300  0.711870  0.053510  1.0  -0.3044
  C  C366  1  0.152600  0.658820  0.036820  1.0  -0.0246
  C  C367  1  0.203400  0.637440  0.005250  1.0  -0.0301
  C  C368  1  0.256700  0.669720  0.989400  1.0  -0.1268
  C  C369  1  0.313400  0.645820  0.958830  1.0  0.6809
  C  C370  1  0.258500  0.722630  0.005700  1.0  -0.0386
  C  C371  1  0.207700  0.744160  0.036600  1.0  -0.0433
  C  C372  1  0.898800  0.690760  0.397820  1.0  -0.2814
  C  C373  1  0.847300  0.712710  0.368700  1.0  -0.0194
  C  C374  1  0.838900  0.767890  0.366100  1.0  -0.0375
  C  C375  1  0.883700  0.801280  0.392380  1.0  -0.1321
  C  C376  1  0.874300  0.861580  0.390210  1.0  0.7512
  C  C377  1  0.935300  0.779450  0.422000  1.0  -0.0432
  C  C378  1  0.942800  0.724490  0.424170  1.0  -0.0184
  C  C379  1  0.891300  0.587010  0.342730  1.0  -0.2883
  C  C380  1  0.826600  0.576010  0.325770  1.0  -0.0396
  C  C381  1  0.815600  0.549490  0.277640  1.0  -0.0626
  C  C382  1  0.868600  0.534210  0.246130  1.0  -0.1474
  C  C383  1  0.856800  0.504920  0.194110  1.0  0.6945
  C  C384  1  0.932200  0.546200  0.262600  1.0  0.0124
  C  C385  1  0.944000  0.572200  0.310700  1.0  0.0048
  C  C386  1  0.841600  0.596490  0.449350  1.0  -0.2499
  C  C387  1  0.788300  0.627710  0.465400  1.0  -0.0432
  C  C388  1  0.737100  0.606010  0.495800  1.0  -0.0418
  C  C389  1  0.739110  0.552810  0.511260  1.0  -0.1391
  C  C390  1  0.682400  0.527900  0.542110  1.0  0.6774
  C  C391  1  0.792400  0.521870  0.496020  1.0  -0.039
  C  C392  1  0.843800  0.543420  0.465430  1.0  -0.0394
  C  C393  1  0.104600  0.205370  0.339170  1.0  -0.286
  C  C394  1  0.050800  0.192880  0.306600  1.0  -0.0551
  C  C395  1  0.060800  0.168300  0.257200  1.0  -0.0589
  C  C396  1  0.124100  0.155260  0.240250  1.0  -0.1417
  C  C397  1  0.136100  0.125180  0.188240  1.0  0.7448
  C  C398  1  0.177600  0.168200  0.272200  1.0  -0.0354
  C  C399  1  0.168600  0.193390  0.321400  1.0  -0.0588
  C  C400  1  0.099400  0.306820  0.396790  1.0  -0.1892
  C  C401  1  0.064900  0.341120  0.429840  1.0  -0.0168
  C  C402  1  0.071300  0.395300  0.428550  1.0  -0.0818
  C  C403  1  0.114900  0.418440  0.393420  1.0  -0.1037
  C  C404  1  0.125100  0.478470  0.392680  1.0  0.7279
  C  C405  1  0.153300  0.385760  0.359800  1.0  -0.0711
  C  C406  1  0.144600  0.330650  0.361500  1.0  -0.0383
  C  C407  1  0.155300  0.211870  0.446490  1.0  -0.3051
  C  C408  1  0.152600  0.158820  0.463180  1.0  -0.0255
  C  C409  1  0.203400  0.137440  0.494750  1.0  -0.0302
  C  C410  1  0.256700  0.169720  0.510600  1.0  -0.128
  C  C411  1  0.313400  0.145820  0.541170  1.0  0.6812
  C  C412  1  0.258500  0.222630  0.494300  1.0  -0.038
  C  C413  1  0.207700  0.244160  0.463400  1.0  -0.0447
  C  C414  1  0.898800  0.190760  0.102180  1.0  -0.2813
  C  C415  1  0.847300  0.212710  0.131300  1.0  -0.0208
  C  C416  1  0.838900  0.267890  0.133900  1.0  -0.0394
  C  C417  1  0.883700  0.301280  0.107620  1.0  -0.1334
  C  C418  1  0.874300  0.361580  0.109790  1.0  0.7501
  C  C419  1  0.935300  0.279450  0.078000  1.0  -0.0432
  C  C420  1  0.942800  0.224490  0.075830  1.0  -0.0185
  C  C421  1  0.891300  0.087010  0.157270  1.0  -0.2906
  C  C422  1  0.826600  0.076010  0.174230  1.0  -0.0396
  C  C423  1  0.815600  0.049490  0.222360  1.0  -0.0617
  C  C424  1  0.868600  0.034210  0.253870  1.0  -0.1477
  C  C425  1  0.856800  0.004920  0.305890  1.0  0.6947
  C  C426  1  0.932200  0.046200  0.237400  1.0  0.0103
  C  C427  1  0.944000  0.072200  0.189300  1.0  0.0046
  C  C428  1  0.841600  0.096490  0.050650  1.0  -0.25
  C  C429  1  0.788300  0.127710  0.034600  1.0  -0.043
  C  C430  1  0.737100  0.106010  0.004200  1.0  -0.0416
  C  C431  1  0.739110  0.052810  0.988740  1.0  -0.1404
  C  C432  1  0.682400  0.027900  0.957890  1.0  0.6771
  C  C433  1  0.792400  0.021870  0.003980  1.0  -0.0384
  C  C434  1  0.843800  0.043420  0.034570  1.0  -0.0382
  C  C435  1  0.604600  0.794630  0.160830  1.0  -0.2881
  C  C436  1  0.550800  0.807120  0.193400  1.0  -0.0544
  C  C437  1  0.560800  0.831700  0.242800  1.0  -0.0588
  C  C438  1  0.624100  0.844740  0.259750  1.0  -0.1411
  C  C439  1  0.636100  0.874820  0.311760  1.0  0.7462
  C  C440  1  0.677600  0.831800  0.227800  1.0  -0.0344
  C  C441  1  0.668600  0.806610  0.178600  1.0  -0.0588
  C  C442  1  0.599400  0.693180  0.103210  1.0  -0.1878
  C  C443  1  0.564900  0.658880  0.070160  1.0  -0.0172
  C  C444  1  0.571300  0.604700  0.071450  1.0  -0.0813
  C  C445  1  0.614900  0.581560  0.106580  1.0  -0.103
  C  C446  1  0.625100  0.521530  0.107320  1.0  0.725
  C  C447  1  0.653300  0.614240  0.140200  1.0  -0.0722
  C  C448  1  0.644600  0.669350  0.138500  1.0  -0.0365
  C  C449  1  0.655300  0.788130  0.053510  1.0  -0.3039
  C  C450  1  0.652600  0.841180  0.036820  1.0  -0.0254
  C  C451  1  0.703400  0.862560  0.005250  1.0  -0.031
  C  C452  1  0.756700  0.830280  0.989400  1.0  -0.1268
  C  C453  1  0.813400  0.854180  0.958830  1.0  0.6804
  C  C454  1  0.758500  0.777370  0.005700  1.0  -0.0391
  C  C455  1  0.707700  0.755840  0.036600  1.0  -0.0431
  C  C456  1  0.398800  0.809240  0.397820  1.0  -0.2815
  C  C457  1  0.347300  0.787290  0.368700  1.0  -0.0191
  C  C458  1  0.338900  0.732110  0.366100  1.0  -0.0367
  C  C459  1  0.383700  0.698720  0.392380  1.0  -0.1323
  C  C460  1  0.374300  0.638420  0.390210  1.0  0.7507
  C  C461  1  0.435300  0.720550  0.422000  1.0  -0.045
  C  C462  1  0.442800  0.775510  0.424170  1.0  -0.0184
  C  C463  1  0.391300  0.912990  0.342730  1.0  -0.2881
  C  C464  1  0.326600  0.923990  0.325770  1.0  -0.0392
  C  C465  1  0.315600  0.950510  0.277640  1.0  -0.0629
  C  C466  1  0.368600  0.965790  0.246130  1.0  -0.1467
  C  C467  1  0.356800  0.995080  0.194110  1.0  0.6948
  C  C468  1  0.432200  0.953800  0.262600  1.0  0.0122
  C  C469  1  0.444000  0.927800  0.310700  1.0  0.0054
  C  C470  1  0.341600  0.903510  0.449350  1.0  -0.2509
  C  C471  1  0.288300  0.872290  0.465400  1.0  -0.0425
  C  C472  1  0.237100  0.893990  0.495800  1.0  -0.0416
  C  C473  1  0.239110  0.947190  0.511260  1.0  -0.1391
  C  C474  1  0.182400  0.972100  0.542110  1.0  0.6776
  C  C475  1  0.292400  0.978130  0.496020  1.0  -0.0393
  C  C476  1  0.343800  0.956580  0.465430  1.0  -0.0385
  C  C477  1  0.395400  0.705370  0.660830  1.0  -0.2879
  C  C478  1  0.449200  0.692880  0.693400  1.0  -0.0561
  C  C479  1  0.439200  0.668300  0.742800  1.0  -0.058
  C  C480  1  0.375900  0.655260  0.759750  1.0  -0.14
  C  C481  1  0.363900  0.625180  0.811760  1.0  0.7457
  C  C482  1  0.322400  0.668200  0.727800  1.0  -0.0356
  C  C483  1  0.331400  0.693390  0.678600  1.0  -0.0575
  C  C484  1  0.400600  0.806820  0.603210  1.0  -0.1865
  C  C485  1  0.435100  0.841120  0.570160  1.0  -0.0152
  C  C486  1  0.428700  0.895300  0.571450  1.0  -0.0802
  C  C487  1  0.385100  0.918440  0.606580  1.0  -0.1044
  C  C488  1  0.374900  0.978470  0.607320  1.0  0.725
  C  C489  1  0.346700  0.885760  0.640200  1.0  -0.0742
  C  C490  1  0.355400  0.830650  0.638500  1.0  -0.0365
  C  C491  1  0.344700  0.711870  0.553510  1.0  -0.3034
  C  C492  1  0.347400  0.658820  0.536820  1.0  -0.0256
  C  C493  1  0.296600  0.637440  0.505250  1.0  -0.0302
  C  C494  1  0.243300  0.669720  0.489400  1.0  -0.1285
  C  C495  1  0.186600  0.645820  0.458830  1.0  0.6807
  C  C496  1  0.241500  0.722630  0.505700  1.0  -0.0404
  C  C497  1  0.292300  0.744160  0.536600  1.0  -0.0428
  C  C498  1  0.601200  0.690760  0.897820  1.0  -0.2817
  C  C499  1  0.652700  0.712710  0.868700  1.0  -0.0196
  C  C500  1  0.661100  0.767890  0.866100  1.0  -0.0383
  C  C501  1  0.616300  0.801280  0.892380  1.0  -0.1329
  C  C502  1  0.625700  0.861580  0.890210  1.0  0.751
  C  C503  1  0.564700  0.779450  0.922000  1.0  -0.0452
  C  C504  1  0.557200  0.724490  0.924170  1.0  -0.0176
  C  C505  1  0.608700  0.587010  0.842730  1.0  -0.2881
  C  C506  1  0.673400  0.576010  0.825770  1.0  -0.0397
  C  C507  1  0.684400  0.549490  0.777640  1.0  -0.0618
  C  C508  1  0.631400  0.534210  0.746130  1.0  -0.1461
  C  C509  1  0.643200  0.504920  0.694110  1.0  0.6944
  C  C510  1  0.567800  0.546200  0.762600  1.0  0.0161
  C  C511  1  0.556000  0.572200  0.810700  1.0  0.0046
  C  C512  1  0.658400  0.596490  0.949350  1.0  -0.2487
  C  C513  1  0.711700  0.627710  0.965400  1.0  -0.0447
  C  C514  1  0.762900  0.606010  0.995800  1.0  -0.0417
  C  C515  1  0.760890  0.552810  0.011260  1.0  -0.1404
  C  C516  1  0.817600  0.527900  0.042110  1.0  0.6762
  C  C517  1  0.707600  0.521870  0.996020  1.0  -0.0386
  C  C518  1  0.656200  0.543420  0.965430  1.0  -0.0382
  C  C519  1  0.895400  0.294630  0.839170  1.0  -0.2863
  C  C520  1  0.949200  0.307120  0.806600  1.0  -0.0557
  C  C521  1  0.939200  0.331700  0.757200  1.0  -0.0593
  C  C522  1  0.875900  0.344740  0.740250  1.0  -0.1407
  C  C523  1  0.863900  0.374820  0.688240  1.0  0.7455
  C  C524  1  0.822400  0.331800  0.772200  1.0  -0.0351
  C  C525  1  0.831400  0.306610  0.821400  1.0  -0.0575
  C  C526  1  0.900600  0.193180  0.896790  1.0  -0.1885
  C  C527  1  0.935100  0.158880  0.929840  1.0  -0.0153
  C  C528  1  0.928700  0.104700  0.928550  1.0  -0.0811
  C  C529  1  0.885100  0.081560  0.893420  1.0  -0.1064
  C  C530  1  0.874900  0.021530  0.892680  1.0  0.7259
  C  C531  1  0.846700  0.114240  0.859800  1.0  -0.0704
  C  C532  1  0.855400  0.169350  0.861500  1.0  -0.0381
  C  C533  1  0.844700  0.288130  0.946490  1.0  -0.3051
  C  C534  1  0.847400  0.341180  0.963180  1.0  -0.025
  C  C535  1  0.796600  0.362560  0.994750  1.0  -0.0306
  C  C536  1  0.743300  0.330280  0.010600  1.0  -0.1275
  C  C537  1  0.686600  0.354180  0.041170  1.0  0.6806
  C  C538  1  0.741500  0.277370  0.994300  1.0  -0.0401
  C  C539  1  0.792300  0.255840  0.963400  1.0  -0.0442
  C  C540  1  0.101200  0.309240  0.602180  1.0  -0.2815
  C  C541  1  0.152700  0.287290  0.631300  1.0  -0.0199
  C  C542  1  0.161100  0.232110  0.633900  1.0  -0.0389
  C  C543  1  0.116300  0.198720  0.607620  1.0  -0.1322
  C  C544  1  0.125700  0.138420  0.609790  1.0  0.7487
  C  C545  1  0.064700  0.220550  0.578000  1.0  -0.0445
  C  C546  1  0.057200  0.275510  0.575830  1.0  -0.0174
  C  C547  1  0.108700  0.412990  0.657270  1.0  -0.29
  C  C548  1  0.173400  0.423990  0.674230  1.0  -0.0393
  C  C549  1  0.184400  0.450510  0.722360  1.0  -0.0616
  C  C550  1  0.131400  0.465790  0.753870  1.0  -0.1462
  C  C551  1  0.143200  0.495080  0.805890  1.0  0.6947
  C  C552  1  0.067800  0.453800  0.737400  1.0  0.0141
  C  C553  1  0.056000  0.427800  0.689300  1.0  0.0041
  C  C554  1  0.158400  0.403510  0.550650  1.0  -0.2487
  C  C555  1  0.211700  0.372290  0.534600  1.0  -0.0434
  C  C556  1  0.262900  0.393990  0.504200  1.0  -0.0426
  C  C557  1  0.260890  0.447190  0.488740  1.0  -0.1405
  C  C558  1  0.317600  0.472100  0.457890  1.0  0.6763
  C  C559  1  0.207600  0.478130  0.503980  1.0  -0.0387
  C  C560  1  0.156200  0.456580  0.534570  1.0  -0.0384
  O  O561  1  0.912300  0.877960  0.844350  1.0  -0.6087
  O  O562  1  0.806660  0.893560  0.818100  1.0  -0.6144
  O  O563  1  0.920300  0.492590  0.588210  1.0  -0.6145
  O  O564  1  0.820950  0.505200  0.627520  1.0  -0.6455
  O  O565  1  0.691960  0.901840  0.440340  1.0  -0.6761
  O  O566  1  0.632030  0.829290  0.454790  1.0  -0.6003
  O  O567  1  0.979150  0.778470  0.576020  1.0  -0.5652
  O  O568  1  0.181730  0.622510  0.874580  1.0  -0.6356
  O  O569  1  0.078030  0.610140  0.903920  1.0  -0.6037
  O  O570  1  0.200020  0.014600  0.687150  1.0  -0.6175
  O  O571  1  0.094950  0.997830  0.662120  1.0  -0.6874
  O  O572  1  0.372440  0.948400  0.045040  1.0  -0.6176
  O  O573  1  0.309490  0.018320  0.062440  1.0  -0.6768
  O  O574  1  0.024260  0.895030  0.926880  1.0  -0.8161
  O  O575  1  0.412300  0.122040  0.655650  1.0  -0.61
  O  O576  1  0.306660  0.106440  0.681900  1.0  -0.614
  O  O577  1  0.420300  0.507410  0.911790  1.0  -0.6159
  O  O578  1  0.320950  0.494800  0.872480  1.0  -0.6432
  O  O579  1  0.191960  0.098160  0.059660  1.0  -0.677
  O  O580  1  0.132030  0.170710  0.045210  1.0  -0.6009
  O  O581  1  0.479150  0.221530  0.923980  1.0  -0.5662
  O  O582  1  0.681730  0.377490  0.625420  1.0  -0.6383
  O  O583  1  0.578030  0.389860  0.596080  1.0  -0.6044
  O  O584  1  0.700020  0.985400  0.812850  1.0  -0.6171
  O  O585  1  0.594950  0.002170  0.837880  1.0  -0.6869
  O  O586  1  0.872440  0.051600  0.454960  1.0  -0.6171
  O  O587  1  0.809490  0.981680  0.437560  1.0  -0.6767
  O  O588  1  0.524260  0.104970  0.573120  1.0  -0.8171
  O  O589  1  0.587700  0.377960  0.155650  1.0  -0.6097
  O  O590  1  0.693340  0.393560  0.181900  1.0  -0.6139
  O  O591  1  0.579700  0.992590  0.411790  1.0  -0.6156
  O  O592  1  0.679050  0.005200  0.372480  1.0  -0.6432
  O  O593  1  0.808040  0.401840  0.559660  1.0  -0.6766
  O  O594  1  0.867970  0.329290  0.545210  1.0  -0.6026
  O  O595  1  0.520850  0.278470  0.423980  1.0  -0.5655
  O  O596  1  0.318270  0.122510  0.125420  1.0  -0.6382
  O  O597  1  0.421970  0.110140  0.096080  1.0  -0.6027
  O  O598  1  0.299980  0.514600  0.312850  1.0  -0.6156
  O  O599  1  0.405050  0.497830  0.337880  1.0  -0.6835
  O  O600  1  0.127560  0.448400  0.954960  1.0  -0.6184
  O  O601  1  0.190510  0.518320  0.937560  1.0  -0.6767
  O  O602  1  0.475740  0.395030  0.073120  1.0  -0.8149
  O  O603  1  0.087700  0.622040  0.344350  1.0  -0.6091
  O  O604  1  0.193340  0.606440  0.318100  1.0  -0.6141
  O  O605  1  0.079700  0.007410  0.088210  1.0  -0.6146
  O  O606  1  0.179050  0.994800  0.127520  1.0  -0.6459
  O  O607  1  0.308040  0.598160  0.940340  1.0  -0.6756
  O  O608  1  0.367970  0.670710  0.954790  1.0  -0.6012
  O  O609  1  0.020850  0.721530  0.076020  1.0  -0.5656
  O  O610  1  0.818270  0.877490  0.374580  1.0  -0.6357
  O  O611  1  0.921970  0.889860  0.403920  1.0  -0.6037
  O  O612  1  0.799980  0.485400  0.187150  1.0  -0.616
  O  O613  1  0.905050  0.502170  0.162120  1.0  -0.6832
  O  O614  1  0.627560  0.551600  0.545040  1.0  -0.6182
  O  O615  1  0.690510  0.481680  0.562440  1.0  -0.677
  O  O616  1  0.975740  0.604970  0.426880  1.0  -0.8155
  O  O617  1  0.087700  0.122040  0.155650  1.0  -0.6098
  O  O618  1  0.193340  0.106440  0.181900  1.0  -0.6143
  O  O619  1  0.079700  0.507410  0.411790  1.0  -0.6154
  O  O620  1  0.179050  0.494800  0.372480  1.0  -0.6432
  O  O621  1  0.308040  0.098160  0.559660  1.0  -0.6768
  O  O622  1  0.367970  0.170710  0.545210  1.0  -0.603
  O  O623  1  0.020850  0.221530  0.423980  1.0  -0.5657
  O  O624  1  0.818270  0.377490  0.125420  1.0  -0.6379
  O  O625  1  0.921970  0.389860  0.096080  1.0  -0.6025
  O  O626  1  0.799980  0.985400  0.312850  1.0  -0.6157
  O  O627  1  0.905050  0.002170  0.337880  1.0  -0.6828
  O  O628  1  0.627560  0.051600  0.954960  1.0  -0.6182
  O  O629  1  0.690510  0.981680  0.937560  1.0  -0.6763
  O  O630  1  0.975740  0.104970  0.073120  1.0  -0.8156
  O  O631  1  0.587700  0.877960  0.344350  1.0  -0.6088
  O  O632  1  0.693340  0.893560  0.318100  1.0  -0.614
  O  O633  1  0.579700  0.492590  0.088210  1.0  -0.6149
  O  O634  1  0.679050  0.505200  0.127520  1.0  -0.6455
  O  O635  1  0.808040  0.901840  0.940340  1.0  -0.6755
  O  O636  1  0.867970  0.829290  0.954790  1.0  -0.6017
  O  O637  1  0.520850  0.778470  0.076020  1.0  -0.5651
  O  O638  1  0.318270  0.622510  0.374580  1.0  -0.6359
  O  O639  1  0.421970  0.610140  0.403920  1.0  -0.6041
  O  O640  1  0.299980  0.014600  0.187150  1.0  -0.6155
  O  O641  1  0.405050  0.997830  0.162120  1.0  -0.683
  O  O642  1  0.127560  0.948400  0.545040  1.0  -0.619
  O  O643  1  0.190510  0.018320  0.562440  1.0  -0.677
  O  O644  1  0.475740  0.895030  0.426880  1.0  -0.8151
  O  O645  1  0.412300  0.622040  0.844350  1.0  -0.6092
  O  O646  1  0.306660  0.606440  0.818100  1.0  -0.6146
  O  O647  1  0.420300  0.007410  0.588210  1.0  -0.6149
  O  O648  1  0.320950  0.994800  0.627520  1.0  -0.6459
  O  O649  1  0.191960  0.598160  0.440340  1.0  -0.6762
  O  O650  1  0.132030  0.670710  0.454790  1.0  -0.6004
  O  O651  1  0.479150  0.721530  0.576020  1.0  -0.5658
  O  O652  1  0.681730  0.877490  0.874580  1.0  -0.6355
  O  O653  1  0.578030  0.889860  0.903920  1.0  -0.6043
  O  O654  1  0.700020  0.485400  0.687150  1.0  -0.6179
  O  O655  1  0.594950  0.502170  0.662120  1.0  -0.6867
  O  O656  1  0.872440  0.551600  0.045040  1.0  -0.6172
  O  O657  1  0.809490  0.481680  0.062440  1.0  -0.678
  O  O658  1  0.524260  0.604970  0.926880  1.0  -0.8166
  O  O659  1  0.912300  0.377960  0.655650  1.0  -0.6098
  O  O660  1  0.806660  0.393560  0.681900  1.0  -0.6137
  O  O661  1  0.920300  0.992590  0.911790  1.0  -0.6155
  O  O662  1  0.820950  0.005200  0.872480  1.0  -0.6433
  O  O663  1  0.691960  0.401840  0.059660  1.0  -0.677
  O  O664  1  0.632030  0.329290  0.045210  1.0  -0.6017
  O  O665  1  0.979150  0.278470  0.923980  1.0  -0.5656
  O  O666  1  0.181730  0.122510  0.625420  1.0  -0.6384
  O  O667  1  0.078030  0.110140  0.596080  1.0  -0.6035
  O  O668  1  0.200020  0.514600  0.812850  1.0  -0.617
  O  O669  1  0.094950  0.497830  0.837880  1.0  -0.6864
  O  O670  1  0.372440  0.448400  0.454960  1.0  -0.6166
  O  O671  1  0.309490  0.518320  0.437560  1.0  -0.676
  O  O672  1  0.024260  0.395030  0.573120  1.0  -0.8163
