# generated using pymatgen
data_Mn3P2H40C48(NO8)2
_symmetry_space_group_name_H-M   'P 1'
_cell_length_a   14.77190000
_cell_length_b   14.77190000
_cell_length_c   23.12840000
_cell_angle_alpha   81.68700000
_cell_angle_beta   78.39190000
_cell_angle_gamma   117.29600000
_symmetry_Int_Tables_number   1
_chemical_formula_structural   Mn3P2H40C48(NO8)2
_chemical_formula_sum   'Mn6 P4 H80 C96 N4 O32'
_cell_volume   4227.37076979
_cell_formula_units_Z   2
loop_
 _symmetry_equiv_pos_site_id
 _symmetry_equiv_pos_as_xyz
  1  'x, y, z'
loop_
 _atom_site_type_symbol
 _atom_site_label
 _atom_site_symmetry_multiplicity
 _atom_site_fract_x
 _atom_site_fract_y
 _atom_site_fract_z
 _atom_site_occupancy
 _atom_site_charge
  Mn  Mn1  1  0.430880  0.926190  0.223570  1.0  1.1411
  Mn  Mn2  1  0.649760  0.654450  0.276430  1.0  1.1393
  Mn  Mn3  1  0.569120  0.073810  0.776430  1.0  1.1403
  Mn  Mn4  1  0.350240  0.345550  0.723570  1.0  1.14
  Mn  Mn5  1  0.419840  0.669840  0.250000  1.0  1.1707
  Mn  Mn6  1  0.580160  0.330160  0.750000  1.0  1.1719
  P  P7  1  0.669500  0.916650  0.844870  1.0  1.1732
  P  P8  1  0.261520  0.514370  0.655130  1.0  1.1702
  P  P9  1  0.330500  0.083350  0.155130  1.0  1.1716
  P  P10  1  0.738480  0.485630  0.344870  1.0  1.1722
  H  H11  1  0.579700  0.732000  0.950100  1.0  0.1017
  H  H12  1  0.508700  0.700400  0.055100  1.0  0.1063
  H  H13  1  0.572600  0.001600  0.029800  1.0  0.1117
  H  H14  1  0.636400  0.031600  0.924400  1.0  0.1023
  H  H15  1  0.824800  0.017600  0.907600  1.0  0.1031
  H  H16  1  0.010900  0.129300  0.874600  1.0  0.1088
  H  H17  1  0.024000  0.077200  0.707800  1.0  0.1096
  H  H18  1  0.838500  0.970400  0.739300  1.0  0.1033
  H  H19  1  0.749300  0.769400  0.841300  1.0  0.1074
  H  H20  1  0.692000  0.609900  0.814900  1.0  0.102
  H  H21  1  0.441700  0.625400  0.779500  1.0  0.0985
  H  H22  1  0.498300  0.785100  0.805600  1.0  0.1023
  H  H23  1  0.182100  0.529800  0.549900  1.0  0.1013
  H  H24  1  0.255500  0.563800  0.444900  1.0  0.1069
  H  H25  1  0.531400  0.602400  0.470200  1.0  0.112
  H  H26  1  0.456000  0.560800  0.575600  1.0  0.1037
  H  H27  1  0.425200  0.732400  0.592400  1.0  0.1049
  H  H28  1  0.503900  0.885500  0.625400  1.0  0.1094
  H  H29  1  0.285000  0.731800  0.792200  1.0  0.1107
  H  H30  1  0.209700  0.577800  0.760700  1.0  0.1028
  H  H31  1  0.110700  0.590600  0.658700  1.0  0.1079
  H  H32  1  0.924800  0.506900  0.685100  1.0  0.102
  H  H33  1  0.904900  0.221200  0.720500  1.0  0.099
  H  H34  1  0.090700  0.303900  0.694400  1.0  0.1021
  H  H35  1  0.420300  0.268000  0.049900  1.0  0.1019
  H  H36  1  0.491300  0.299600  0.944900  1.0  0.1067
  H  H37  1  0.427400  0.998400  0.970200  1.0  0.1118
  H  H38  1  0.363600  0.968400  0.075600  1.0  0.1023
  H  H39  1  0.175200  0.982400  0.092400  1.0  0.1036
  H  H40  1  0.989100  0.870700  0.125400  1.0  0.1093
  H  H41  1  0.976000  0.922800  0.292200  1.0  0.1101
  H  H42  1  0.161500  0.029600  0.260700  1.0  0.1024
  H  H43  1  0.250700  0.230600  0.158700  1.0  0.1078
  H  H44  1  0.308000  0.390100  0.185100  1.0  0.1019
  H  H45  1  0.558300  0.374600  0.220500  1.0  0.0991
  H  H46  1  0.501700  0.214900  0.194400  1.0  0.1023
  H  H47  1  0.817900  0.470200  0.450100  1.0  0.101
  H  H48  1  0.744500  0.436200  0.555100  1.0  0.1071
  H  H49  1  0.468600  0.397600  0.529800  1.0  0.1117
  H  H50  1  0.544000  0.439200  0.424400  1.0  0.1028
  H  H51  1  0.574800  0.267600  0.407600  1.0  0.1049
  H  H52  1  0.496100  0.114500  0.374600  1.0  0.1095
  H  H53  1  0.715000  0.268200  0.207800  1.0  0.11
  H  H54  1  0.790300  0.422200  0.239300  1.0  0.1023
  H  H55  1  0.889300  0.409400  0.341300  1.0  0.1081
  H  H56  1  0.075200  0.493100  0.314900  1.0  0.1016
  H  H57  1  0.095100  0.778800  0.279500  1.0  0.0992
  H  H58  1  0.909300  0.696100  0.305600  1.0  0.1025
  H  H59  1  0.725300  0.754800  0.669900  1.0  0.1815
  H  H60  1  0.779100  0.798700  0.602200  1.0  0.1874
  H  H61  1  0.602200  0.707400  0.620800  1.0  0.0894
  H  H62  1  0.601300  0.606200  0.657300  1.0  0.0931
  H  H63  1  0.658700  0.653200  0.584900  1.0  0.0969
  H  H64  1  0.867800  0.713500  0.644900  1.0  0.1059
  H  H65  1  0.813400  0.653100  0.598500  1.0  0.1093
  H  H66  1  0.755100  0.605500  0.670800  1.0  0.1143
  H  H67  1  0.924700  0.395200  0.830100  1.0  0.1856
  H  H68  1  0.900900  0.381300  0.897800  1.0  0.1871
  H  H69  1  0.828200  0.223000  0.879200  1.0  0.0911
  H  H70  1  0.763500  0.258600  0.842700  1.0  0.091
  H  H71  1  0.738100  0.243600  0.915100  1.0  0.1
  H  H72  1  0.858400  0.512700  0.855100  1.0  0.1073
  H  H73  1  0.751600  0.411900  0.901500  1.0  0.1095
  H  H74  1  0.776300  0.425900  0.829200  1.0  0.1148
  H  H75  1  0.274700  0.245200  0.330100  1.0  0.1837
  H  H76  1  0.220900  0.201300  0.397800  1.0  0.1855
  H  H77  1  0.397800  0.292600  0.379200  1.0  0.0846
  H  H78  1  0.398700  0.393800  0.342700  1.0  0.0933
  H  H79  1  0.341300  0.346800  0.415100  1.0  0.0969
  H  H80  1  0.132200  0.286500  0.355100  1.0  0.1054
  H  H81  1  0.186600  0.346900  0.401500  1.0  0.1088
  H  H82  1  0.244900  0.394500  0.329200  1.0  0.1138
  H  H83  1  0.075300  0.604800  0.169900  1.0  0.184
  H  H84  1  0.099100  0.618700  0.102200  1.0  0.1859
  H  H85  1  0.171800  0.777000  0.120800  1.0  0.0927
  H  H86  1  0.236500  0.741400  0.157300  1.0  0.0919
  H  H87  1  0.261900  0.756400  0.084900  1.0  0.0989
  H  H88  1  0.141600  0.487300  0.144900  1.0  0.1041
  H  H89  1  0.248400  0.588100  0.098500  1.0  0.1078
  H  H90  1  0.223700  0.574100  0.170800  1.0  0.1144
  C  C91  1  0.616260  0.885670  0.927050  1.0  -0.2722
  C  C92  1  0.577550  0.786880  0.966170  1.0  -0.0506
  C  C93  1  0.535970  0.768510  0.028520  1.0  -0.0474
  C  C94  1  0.533430  0.847650  0.052840  1.0  -0.1366
  C  C95  1  0.487030  0.827220  0.121150  1.0  0.699
  C  C96  1  0.572680  0.946100  0.013640  1.0  -0.0451
  C  C97  1  0.612040  0.964370  0.951070  1.0  -0.0439
  C  C98  1  0.812870  0.985720  0.826070  1.0  -0.2323
  C  C99  1  0.864660  0.031180  0.866500  1.0  -0.0337
  C  C100  1  0.975710  0.097140  0.846890  1.0  -0.0503
  C  C101  1  0.034530  0.116010  0.787800  1.0  -0.127
  C  C102  1  0.152680  0.194260  0.765580  1.0  0.6267
  C  C103  1  0.983520  0.066990  0.748110  1.0  -0.0745
  C  C104  1  0.873190  0.002920  0.767050  1.0  -0.0448
  C  C105  1  0.630110  0.793760  0.825050  1.0  -0.2986
  C  C106  1  0.687150  0.740650  0.828280  1.0  -0.0556
  C  C107  1  0.653130  0.645990  0.812560  1.0  -0.0195
  C  C108  1  0.562990  0.603660  0.793390  1.0  -0.1469
  C  C109  1  0.528820  0.502040  0.774460  1.0  0.6832
  C  C110  1  0.504800  0.655260  0.791520  1.0  -0.003
  C  C111  1  0.538290  0.749950  0.807120  1.0  -0.0343
  C  C112  1  0.312720  0.543310  0.572950  1.0  -0.2714
  C  C113  1  0.253050  0.543720  0.533830  1.0  -0.0456
  C  C114  1  0.297030  0.564490  0.471480  1.0  -0.0453
  C  C115  1  0.400490  0.586270  0.447160  1.0  -0.1349
  C  C116  1  0.448370  0.608180  0.378850  1.0  0.6916
  C  C117  1  0.459740  0.586320  0.486360  1.0  -0.0486
  C  C118  1  0.415440  0.563110  0.548930  1.0  -0.0434
  C  C119  1  0.311790  0.638940  0.673930  1.0  -0.2323
  C  C120  1  0.397680  0.731160  0.633500  1.0  -0.0367
  C  C121  1  0.444030  0.822600  0.653110  1.0  -0.0553
  C  C122  1  0.403810  0.822330  0.712200  1.0  -0.1241
  C  C123  1  0.459840  0.918260  0.734420  1.0  0.6313
  C  C124  1  0.315100  0.731630  0.751890  1.0  -0.076
  C  C125  1  0.269970  0.640240  0.732950  1.0  -0.0441
  C  C126  1  0.118810  0.455160  0.674950  1.0  -0.3007
  C  C127  1  0.068930  0.515430  0.671720  1.0  -0.0601
  C  C128  1  0.958550  0.465690  0.687440  1.0  -0.0224
  C  C129  1  0.897050  0.356380  0.706610  1.0  -0.1461
  C  C130  1  0.776500  0.303280  0.725540  1.0  0.6905
  C  C131  1  0.946780  0.296320  0.708480  1.0  -0.0049
  C  C132  1  0.057070  0.345410  0.692880  1.0  -0.0347
  C  C133  1  0.383740  0.114330  0.072950  1.0  -0.2709
  C  C134  1  0.422450  0.213120  0.033830  1.0  -0.0499
  C  C135  1  0.464030  0.231490  0.971480  1.0  -0.0463
  C  C136  1  0.466570  0.152350  0.947160  1.0  -0.1339
  C  C137  1  0.512970  0.172780  0.878850  1.0  0.6961
  C  C138  1  0.427320  0.053900  0.986360  1.0  -0.0455
  C  C139  1  0.387960  0.035630  0.048930  1.0  -0.0446
  C  C140  1  0.187130  0.014280  0.173930  1.0  -0.2343
  C  C141  1  0.135340  0.968820  0.133500  1.0  -0.0318
  C  C142  1  0.024290  0.902860  0.153110  1.0  -0.0473
  C  C143  1  0.965470  0.883990  0.212200  1.0  -0.1272
  C  C144  1  0.847320  0.805740  0.234420  1.0  0.6293
  C  C145  1  0.016480  0.933010  0.251890  1.0  -0.0753
  C  C146  1  0.126810  0.997080  0.232950  1.0  -0.045
  C  C147  1  0.369890  0.206240  0.174950  1.0  -0.2999
  C  C148  1  0.312850  0.259350  0.171720  1.0  -0.0543
  C  C149  1  0.346870  0.354010  0.187440  1.0  -0.0192
  C  C150  1  0.437010  0.396340  0.206610  1.0  -0.1446
  C  C151  1  0.471180  0.497960  0.225540  1.0  0.6893
  C  C152  1  0.495200  0.344740  0.208480  1.0  -0.0016
  C  C153  1  0.461710  0.250050  0.192880  1.0  -0.0361
  C  C154  1  0.687280  0.456690  0.427050  1.0  -0.2739
  C  C155  1  0.746950  0.456280  0.466170  1.0  -0.0456
  C  C156  1  0.702970  0.435510  0.528520  1.0  -0.0442
  C  C157  1  0.599510  0.413730  0.552840  1.0  -0.136
  C  C158  1  0.551630  0.391820  0.621150  1.0  0.6923
  C  C159  1  0.540260  0.413680  0.513640  1.0  -0.0485
  C  C160  1  0.584560  0.436890  0.451070  1.0  -0.0446
  C  C161  1  0.688210  0.361060  0.326070  1.0  -0.2315
  C  C162  1  0.602320  0.268840  0.366500  1.0  -0.0373
  C  C163  1  0.555970  0.177400  0.346890  1.0  -0.0556
  C  C164  1  0.596190  0.177670  0.287800  1.0  -0.1265
  C  C165  1  0.540160  0.081740  0.265580  1.0  0.6307
  C  C166  1  0.684900  0.268370  0.248110  1.0  -0.0759
  C  C167  1  0.730030  0.359760  0.267050  1.0  -0.0466
  C  C168  1  0.881190  0.544840  0.325050  1.0  -0.3004
  C  C169  1  0.931070  0.484570  0.328280  1.0  -0.0593
  C  C170  1  0.041450  0.534310  0.312560  1.0  -0.0229
  C  C171  1  0.102950  0.643620  0.293390  1.0  -0.1457
  C  C172  1  0.223500  0.696720  0.274460  1.0  0.6886
  C  C173  1  0.053220  0.703680  0.291520  1.0  -0.0076
  C  C174  1  0.942930  0.654590  0.307120  1.0  -0.034
  C  C175  1  0.591900  0.841900  0.250000  1.0  0.7272
  C  C176  1  0.689900  0.939900  0.250000  1.0  -0.0556
  C  C177  1  0.408100  0.158100  0.750000  1.0  0.726
  C  C178  1  0.310100  0.060100  0.750000  1.0  -0.0547
  C  C179  1  0.643100  0.671100  0.623400  1.0  -0.1536
  C  C180  1  0.799800  0.670900  0.637300  1.0  -0.2567
  C  C181  1  0.794500  0.266500  0.876600  1.0  -0.1543
  C  C182  1  0.808200  0.437100  0.862700  1.0  -0.2663
  C  C183  1  0.356900  0.328900  0.376600  1.0  -0.1498
  C  C184  1  0.200200  0.329100  0.362700  1.0  -0.259
  C  C185  1  0.205500  0.733500  0.123400  1.0  -0.1526
  C  C186  1  0.191800  0.562900  0.137300  1.0  -0.2621
  N  N187  1  0.738700  0.737400  0.633700  1.0  -0.2359
  N  N188  1  0.871100  0.372400  0.866300  1.0  -0.2381
  N  N189  1  0.261300  0.262600  0.366300  1.0  -0.2321
  N  N190  1  0.128900  0.627600  0.133700  1.0  -0.2351
  O  O191  1  0.457610  0.738560  0.154010  1.0  -0.6175
  O  O192  1  0.481230  0.902280  0.138310  1.0  -0.6294
  O  O193  1  0.194560  0.248070  0.800290  1.0  -0.5662
  O  O194  1  0.205720  0.207440  0.711980  1.0  -0.5482
  O  O195  1  0.592590  0.467960  0.770350  1.0  -0.6151
  O  O196  1  0.440240  0.460960  0.764100  1.0  -0.6438
  O  O197  1  0.631970  0.981420  0.812630  1.0  -0.8525
  O  O198  1  0.503440  0.838530  0.260890  1.0  -0.6489
  O  O199  1  0.392570  0.611620  0.345990  1.0  -0.6124
  O  O200  1  0.540590  0.619540  0.361690  1.0  -0.6265
  O  O201  1  0.548360  0.994850  0.699710  1.0  -0.5634
  O  O202  1  0.419420  0.917700  0.788020  1.0  -0.5457
  O  O203  1  0.738310  0.362940  0.729650  1.0  -0.6149
  O  O204  1  0.725060  0.204340  0.735900  1.0  -0.6379
  O  O205  1  0.294050  0.444600  0.687370  1.0  -0.8548
  O  O206  1  0.599420  0.764330  0.239110  1.0  -0.6474
  O  O207  1  0.542390  0.261440  0.845990  1.0  -0.6164
  O  O208  1  0.518770  0.097720  0.861690  1.0  -0.6308
  O  O209  1  0.805440  0.751930  0.199710  1.0  -0.563
  O  O210  1  0.794280  0.792560  0.288020  1.0  -0.5478
  O  O211  1  0.407410  0.532040  0.229650  1.0  -0.6147
  O  O212  1  0.559760  0.539040  0.235900  1.0  -0.6461
  O  O213  1  0.368030  0.018580  0.187370  1.0  -0.8522
  O  O214  1  0.496560  0.161470  0.739110  1.0  -0.6501
  O  O215  1  0.607430  0.388380  0.654010  1.0  -0.612
  O  O216  1  0.459410  0.380460  0.638310  1.0  -0.6283
  O  O217  1  0.451640  0.005150  0.300290  1.0  -0.5623
  O  O218  1  0.580580  0.082300  0.211980  1.0  -0.5495
  O  O219  1  0.261690  0.637060  0.270350  1.0  -0.6141
  O  O220  1  0.274940  0.795660  0.264100  1.0  -0.6417
  O  O221  1  0.705950  0.555400  0.312630  1.0  -0.8544
  O  O222  1  0.400580  0.235670  0.760890  1.0  -0.6472
