# generated using pymatgen
data_MgH6(CO)4
_symmetry_space_group_name_H-M   'P 1'
_cell_length_a   8.58790000
_cell_length_b   8.58790000
_cell_length_c   20.86370000
_cell_angle_alpha   100.89700000
_cell_angle_beta   100.89700000
_cell_angle_gamma   94.67140000
_symmetry_Int_Tables_number   1
_chemical_formula_structural   MgH6(CO)4
_chemical_formula_sum   'Mg6 H36 C24 O24'
_cell_volume   1472.75283307
_cell_formula_units_Z   6
loop_
 _symmetry_equiv_pos_site_id
 _symmetry_equiv_pos_as_xyz
  1  'x, y, z'
loop_
 _atom_site_type_symbol
 _atom_site_label
 _atom_site_symmetry_multiplicity
 _atom_site_fract_x
 _atom_site_fract_y
 _atom_site_fract_z
 _atom_site_occupancy
 _atom_site_charge
  Mg  Mg1  1  0.583130  0.710350  0.332660  1.0  1.5849
  Mg  Mg2  1  0.289650  0.416870  0.667340  1.0  1.5842
  Mg  Mg3  1  0.372310  0.999530  0.832660  1.0  1.5845
  Mg  Mg4  1  0.000470  0.627690  0.167340  1.0  1.5844
  Mg  Mg5  1  0.702730  0.297270  0.500000  1.0  1.586
  Mg  Mg6  1  0.952730  0.047270  0.000000  1.0  1.586
  H  H7  1  0.033100  0.041300  0.379600  1.0  0.1514
  H  H8  1  0.970200  0.211400  0.397600  1.0  0.1558
  H  H9  1  0.031800  0.119000  0.455600  1.0  0.1449
  H  H10  1  0.989300  0.722100  0.421000  1.0  0.1585
  H  H11  1  0.060800  0.555000  0.416600  1.0  0.1483
  H  H12  1  0.950600  0.593400  0.352000  1.0  0.1544
  H  H13  1  0.551900  0.353300  0.253600  1.0  0.1535
  H  H14  1  0.639300  0.251100  0.201600  1.0  0.1408
  H  H15  1  0.724700  0.303300  0.278800  1.0  0.1509
  H  H16  1  0.958700  0.966900  0.620400  1.0  0.1525
  H  H17  1  0.788600  0.029800  0.602400  1.0  0.156
  H  H18  1  0.881000  0.968200  0.544400  1.0  0.1458
  H  H19  1  0.277900  0.010700  0.579000  1.0  0.1587
  H  H20  1  0.445000  0.939200  0.583400  1.0  0.1472
  H  H21  1  0.406600  0.049400  0.648000  1.0  0.1534
  H  H22  1  0.646700  0.448100  0.746400  1.0  0.1533
  H  H23  1  0.748900  0.360700  0.798400  1.0  0.1402
  H  H24  1  0.696700  0.275300  0.721200  1.0  0.1523
  H  H25  1  0.088300  0.596500  0.879600  1.0  0.1522
  H  H26  1  0.936200  0.677400  0.897600  1.0  0.1607
  H  H27  1  0.086600  0.673800  0.955600  1.0  0.1483
  H  H28  1  0.448900  0.681700  0.921000  1.0  0.1573
  H  H29  1  0.611600  0.605800  0.916600  1.0  0.1473
  H  H30  1  0.508600  0.651400  0.852000  1.0  0.1543
  H  H31  1  0.650300  0.951700  0.753600  1.0  0.1542
  H  H32  1  0.700500  0.812300  0.701600  1.0  0.1412
  H  H33  1  0.725500  0.804100  0.778800  1.0  0.1518
  H  H34  1  0.403500  0.911700  0.120400  1.0  0.1522
  H  H35  1  0.322600  0.063800  0.102400  1.0  0.157
  H  H36  1  0.326200  0.913400  0.044400  1.0  0.1484
  H  H37  1  0.318300  0.551100  0.079000  1.0  0.1545
  H  H38  1  0.394200  0.388400  0.083400  1.0  0.1468
  H  H39  1  0.348600  0.491400  0.148000  1.0  0.1532
  H  H40  1  0.048300  0.349700  0.246400  1.0  0.1587
  H  H41  1  0.187700  0.299500  0.298400  1.0  0.1423
  H  H42  1  0.195900  0.274500  0.221200  1.0  0.1509
  C  C43  1  0.807700  0.023640  0.400320  1.0  0.8621
  C  C44  1  0.975460  0.106080  0.409020  1.0  -0.5327
  C  C45  1  0.821780  0.535060  0.419840  1.0  0.8616
  C  C46  1  0.968560  0.607820  0.400700  1.0  -0.5364
  C  C47  1  0.732580  0.488820  0.229080  1.0  0.8594
  C  C48  1  0.655290  0.335610  0.241920  1.0  -0.5387
  C  C49  1  0.976360  0.192300  0.599680  1.0  0.8622
  C  C50  1  0.893920  0.024540  0.590980  1.0  -0.531
  C  C51  1  0.464940  0.178220  0.580160  1.0  0.8599
  C  C52  1  0.392180  0.031440  0.599300  1.0  -0.538
  C  C53  1  0.511180  0.267420  0.770920  1.0  0.8617
  C  C54  1  0.664390  0.344710  0.758080  1.0  -0.5358
  C  C55  1  0.126680  0.842620  0.900320  1.0  0.8623
  C  C56  1  0.052940  0.683560  0.909020  1.0  -0.533
  C  C57  1  0.634780  0.848060  0.919840  1.0  0.8596
  C  C58  1  0.542880  0.682140  0.900700  1.0  -0.543
  C  C59  1  0.490260  0.746500  0.729080  1.0  0.8611
  C  C60  1  0.656310  0.836630  0.741920  1.0  -0.5375
  C  C61  1  0.157380  0.873320  0.099680  1.0  0.8665
  C  C62  1  0.316440  0.947060  0.090980  1.0  -0.5337
  C  C63  1  0.151940  0.365220  0.080160  1.0  0.8566
  C  C64  1  0.317860  0.457120  0.099300  1.0  -0.5388
  C  C65  1  0.253500  0.509740  0.270920  1.0  0.861
  C  C66  1  0.163370  0.343690  0.258080  1.0  -0.541
  O  O67  1  0.768530  0.892970  0.359200  1.0  -0.7535
  O  O68  1  0.716220  0.088700  0.435340  1.0  -0.8047
  O  O69  1  0.686450  0.569030  0.394100  1.0  -0.8074
  O  O70  1  0.841960  0.444780  0.460680  1.0  -0.7792
  O  O71  1  0.830840  0.477940  0.191720  1.0  -0.7443
  O  O72  1  0.695070  0.620370  0.257640  1.0  -0.8115
  O  O73  1  0.107030  0.231470  0.640800  1.0  -0.76
  O  O74  1  0.911300  0.283780  0.564660  1.0  -0.8054
  O  O75  1  0.430970  0.313550  0.605900  1.0  -0.8084
  O  O76  1  0.555220  0.158040  0.539320  1.0  -0.7796
  O  O77  1  0.522060  0.169160  0.808280  1.0  -0.7633
  O  O78  1  0.379630  0.304930  0.742360  1.0  -0.8108
  O  O79  1  0.216230  0.840670  0.859200  1.0  -0.7626
  O  O80  1  0.096640  0.969120  0.935340  1.0  -0.804
  O  O81  1  0.575070  0.957650  0.894100  1.0  -0.8116
  O  O82  1  0.765900  0.868720  0.960680  1.0  -0.7723
  O  O83  1  0.463780  0.610880  0.691720  1.0  -0.7577
  O  O84  1  0.387270  0.812570  0.757640  1.0  -0.8091
  O  O85  1  0.159330  0.783770  0.140800  1.0  -0.7634
  O  O86  1  0.030880  0.903360  0.064660  1.0  -0.8041
  O  O87  1  0.042350  0.424930  0.105900  1.0  -0.8091
  O  O88  1  0.131280  0.234100  0.039320  1.0  -0.7723
  O  O89  1  0.389120  0.536220  0.308280  1.0  -0.7474
  O  O90  1  0.187430  0.612730  0.242360  1.0  -0.812
