# generated using pymatgen
data_Zn3H18C20(NO2)4
_symmetry_space_group_name_H-M   'P 1'
_cell_length_a   9.00500000
_cell_length_b   11.16600000
_cell_length_c   16.67200000
_cell_angle_alpha   108.44700000
_cell_angle_beta   90.00000000
_cell_angle_gamma   113.78000000
_symmetry_Int_Tables_number   1
_chemical_formula_structural   Zn3H18C20(NO2)4
_chemical_formula_sum   'Zn6 H36 C40 N8 O16'
_cell_volume   1439.41507974
_cell_formula_units_Z   2
loop_
 _symmetry_equiv_pos_site_id
 _symmetry_equiv_pos_as_xyz
  1  'x, y, z'
loop_
 _atom_site_type_symbol
 _atom_site_label
 _atom_site_symmetry_multiplicity
 _atom_site_fract_x
 _atom_site_fract_y
 _atom_site_fract_z
 _atom_site_occupancy
 _atom_site_charge
  Zn  Zn1  1  0.144480  0.678380  0.732490  1.0  0.908
  Zn  Zn2  1  0.466100  0.321620  0.767510  1.0  0.9076
  Zn  Zn3  1  0.855520  0.321620  0.267510  1.0  0.9075
  Zn  Zn4  1  0.533900  0.678380  0.232490  1.0  0.9078
  Zn  Zn5  1  0.248150  0.000000  0.750000  1.0  1.1062
  Zn  Zn6  1  0.751850  0.000000  0.250000  1.0  1.1055
  H  H7  1  0.932900  0.544000  0.467900  1.0  0.1128
  H  H8  1  0.746100  0.862000  0.423600  1.0  0.1225
  H  H9  1  0.893200  0.912400  0.555000  1.0  0.0991
  H  H10  1  0.795600  0.375800  0.112800  1.0  0.3861
  H  H11  1  0.600900  0.449600  0.122700  1.0  0.0851
  H  H12  1  0.405300  0.203000  0.102200  1.0  0.1249
  H  H13  1  0.484000  0.214000  0.191800  1.0  0.1327
  H  H14  1  0.373700  0.295400  0.189800  1.0  0.1087
  H  H15  1  0.332000  0.870000  0.815000  1.0  0.4513
  H  H16  1  0.388900  0.456000  0.032100  1.0  0.1129
  H  H17  1  0.884100  0.138000  0.076400  1.0  0.1217
  H  H18  1  0.980800  0.087600  0.945000  1.0  0.0989
  H  H19  1  0.419800  0.624200  0.387200  1.0  0.3858
  H  H20  1  0.151300  0.550400  0.377300  1.0  0.0861
  H  H21  1  0.202300  0.797000  0.397800  1.0  0.1247
  H  H22  1  0.270000  0.786000  0.308200  1.0  0.1328
  H  H23  1  0.078300  0.704600  0.310200  1.0  0.1092
  H  H24  1  0.462000  0.130000  0.685000  1.0  0.4527
  H  H25  1  0.067100  0.456000  0.532100  1.0  0.1131
  H  H26  1  0.253900  0.138000  0.576400  1.0  0.1223
  H  H27  1  0.106800  0.087600  0.445000  1.0  0.0991
  H  H28  1  0.204400  0.624200  0.887200  1.0  0.3838
  H  H29  1  0.399100  0.550400  0.877300  1.0  0.0854
  H  H30  1  0.594700  0.797000  0.897800  1.0  0.1253
  H  H31  1  0.516000  0.786000  0.808200  1.0  0.1322
  H  H32  1  0.626300  0.704600  0.810200  1.0  0.11
  H  H33  1  0.668000  0.130000  0.185000  1.0  0.4525
  H  H34  1  0.611100  0.544000  0.967900  1.0  0.1129
  H  H35  1  0.115900  0.862000  0.923600  1.0  0.1227
  H  H36  1  0.019200  0.912400  0.055000  1.0  0.0989
  H  H37  1  0.580200  0.375800  0.612800  1.0  0.3865
  H  H38  1  0.848700  0.449600  0.622700  1.0  0.0848
  H  H39  1  0.797700  0.203000  0.602200  1.0  0.1255
  H  H40  1  0.730000  0.214000  0.691800  1.0  0.1318
  H  H41  1  0.921700  0.295400  0.689800  1.0  0.1093
  H  H42  1  0.538000  0.870000  0.315000  1.0  0.4507
  C  C43  1  0.898400  0.609000  0.458400  1.0  -0.1143
  C  C44  1  0.023900  0.770600  0.606800  1.0  0.6944
  C  C45  1  0.929200  0.735600  0.522700  1.0  -0.1634
  C  C46  1  0.785400  0.799200  0.432500  1.0  -0.1674
  C  C47  1  0.816100  0.582400  0.380700  1.0  0.1569
  C  C48  1  0.697400  0.499000  0.249800  1.0  0.3631
  C  C49  1  0.758200  0.674000  0.368100  1.0  0.1667
  C  C50  1  0.872000  0.827800  0.509700  1.0  -0.0297
  C  C51  1  0.619500  0.402200  0.160900  1.0  0.1531
  C  C52  1  0.453700  0.264600  0.161200  1.0  -0.3497
  C  C53  1  0.289400  0.391000  0.041600  1.0  -0.1147
  C  C54  1  0.253300  0.229400  0.893200  1.0  0.6934
  C  C55  1  0.193600  0.264400  0.977300  1.0  -0.1632
  C  C56  1  0.986200  0.200800  0.067500  1.0  -0.1669
  C  C57  1  0.233700  0.417600  0.119300  1.0  0.1558
  C  C58  1  0.198400  0.501000  0.250200  1.0  0.363
  C  C59  1  0.084200  0.326000  0.131900  1.0  0.1647
  C  C60  1  0.044200  0.172200  0.990300  1.0  -0.0296
  C  C61  1  0.217300  0.597800  0.339100  1.0  0.1513
  C  C62  1  0.189100  0.735400  0.338800  1.0  -0.3499
  C  C63  1  0.101600  0.391000  0.541600  1.0  -0.1152
  C  C64  1  0.976100  0.229400  0.393200  1.0  0.6939
  C  C65  1  0.070800  0.264400  0.477300  1.0  -0.1633
  C  C66  1  0.214600  0.200800  0.567500  1.0  -0.1609
  C  C67  1  0.183900  0.417600  0.619300  1.0  0.1563
  C  C68  1  0.302600  0.501000  0.750200  1.0  0.3631
  C  C69  1  0.241800  0.326000  0.631900  1.0  0.165
  C  C70  1  0.128000  0.172200  0.490300  1.0  -0.0301
  C  C71  1  0.380500  0.597800  0.839100  1.0  0.1511
  C  C72  1  0.546300  0.735400  0.838800  1.0  -0.3501
  C  C73  1  0.710600  0.609000  0.958400  1.0  -0.1146
  C  C74  1  0.746700  0.770600  0.106800  1.0  0.6946
  C  C75  1  0.806400  0.735600  0.022700  1.0  -0.1642
  C  C76  1  0.013800  0.799200  0.932500  1.0  -0.1615
  C  C77  1  0.766300  0.582400  0.880700  1.0  0.1574
  C  C78  1  0.801600  0.499000  0.749800  1.0  0.363
  C  C79  1  0.915800  0.674000  0.868100  1.0  0.1668
  C  C80  1  0.955800  0.827800  0.009700  1.0  -0.029
  C  C81  1  0.782700  0.402200  0.660900  1.0  0.1531
  C  C82  1  0.810900  0.264600  0.661200  1.0  -0.3497
  N  N83  1  0.776300  0.469800  0.303900  1.0  -0.4988
  N  N84  1  0.679400  0.618000  0.283500  1.0  -0.5313
  N  N85  1  0.306500  0.530200  0.196100  1.0  -0.4966
  N  N86  1  0.061400  0.382000  0.216500  1.0  -0.531
  N  N87  1  0.223700  0.530200  0.696100  1.0  -0.4951
  N  N88  1  0.320600  0.382000  0.716500  1.0  -0.5304
  N  N89  1  0.693500  0.469800  0.803900  1.0  -0.4972
  N  N90  1  0.938600  0.618000  0.783500  1.0  -0.5314
  O  O91  1  0.055800  0.889400  0.662000  1.0  -0.6287
  O  O92  1  0.300700  0.870600  0.780800  1.0  -0.9706
  O  O93  1  0.070100  0.685200  0.618800  1.0  -0.5987
  O  O94  1  0.711700  0.326200  0.128800  1.0  -0.5672
  O  O95  1  0.166400  0.110600  0.838000  1.0  -0.6279
  O  O96  1  0.430100  0.129400  0.719200  1.0  -0.9744
  O  O97  1  0.384900  0.314800  0.881200  1.0  -0.5982
  O  O98  1  0.385500  0.673800  0.371200  1.0  -0.5674
  O  O99  1  0.944200  0.110600  0.338000  1.0  -0.6278
  O  O100  1  0.699300  0.129400  0.219200  1.0  -0.9742
  O  O101  1  0.929900  0.314800  0.381200  1.0  -0.5981
  O  O102  1  0.288300  0.673800  0.871200  1.0  -0.5657
  O  O103  1  0.833600  0.889400  0.162000  1.0  -0.6293
  O  O104  1  0.569900  0.870600  0.280800  1.0  -0.9731
  O  O105  1  0.615100  0.685200  0.118800  1.0  -0.5986
  O  O106  1  0.614500  0.326200  0.628800  1.0  -0.5655
