# generated using pymatgen
data_SrH8C18N6O
_symmetry_space_group_name_H-M   'P 1'
_cell_length_a   9.78100000
_cell_length_b   11.00700000
_cell_length_c   11.38200000
_cell_angle_alpha   80.46000000
_cell_angle_beta   82.42000000
_cell_angle_gamma   81.98000000
_symmetry_Int_Tables_number   1
_chemical_formula_structural   SrH8C18N6O
_chemical_formula_sum   'Sr2 H16 C36 N12 O2'
_cell_volume   1189.16559505
_cell_formula_units_Z   2
loop_
 _symmetry_equiv_pos_site_id
 _symmetry_equiv_pos_as_xyz
  1  'x, y, z'
loop_
 _atom_site_type_symbol
 _atom_site_label
 _atom_site_symmetry_multiplicity
 _atom_site_fract_x
 _atom_site_fract_y
 _atom_site_fract_z
 _atom_site_occupancy
 _atom_site_charge
  Sr  Sr1  1  0.928630  0.337280  0.997270  1.0  1.6128
  Sr  Sr2  1  0.071370  0.662720  0.002730  1.0  1.6121
  H  H3  1  0.268100  0.374500  0.661600  1.0  0.0839
  H  H4  1  0.289400  0.335900  0.470500  1.0  0.0812
  H  H5  1  0.707100  0.321600  0.453800  1.0  0.0819
  H  H6  1  0.686200  0.357400  0.645100  1.0  0.0834
  H  H7  1  0.991400  0.168900  0.347700  1.0  0.0885
  H  H8  1  0.002100  0.026500  0.698100  1.0  0.0974
  H  H9  1  0.993800  0.549600  0.795900  1.0  0.4541
  H  H10  1  0.865400  0.589300  0.850300  1.0  0.4508
  H  H11  1  0.731900  0.625500  0.338400  1.0  0.0838
  H  H12  1  0.710600  0.664100  0.529500  1.0  0.0811
  H  H13  1  0.292900  0.678400  0.546200  1.0  0.0825
  H  H14  1  0.313800  0.642600  0.354900  1.0  0.0837
  H  H15  1  0.008600  0.831100  0.652300  1.0  0.0882
  H  H16  1  0.997900  0.973500  0.301900  1.0  0.098
  H  H17  1  0.006200  0.450400  0.204100  1.0  0.4562
  H  H18  1  0.134600  0.410700  0.149700  1.0  0.451
  C  C19  1  0.579600  0.393100  0.858200  1.0  0.3707
  C  C20  1  0.461300  0.396500  0.797000  1.0  -0.2288
  C  C21  1  0.329200  0.416100  0.862900  1.0  0.361
  C  C22  1  0.475300  0.372200  0.677300  1.0  -0.0733
  C  C23  1  0.356100  0.363900  0.619600  1.0  -0.096
  C  C24  1  0.368900  0.341000  0.505300  1.0  -0.0672
  C  C25  1  0.500700  0.324500  0.437200  1.0  -0.0941
  C  C26  1  0.619000  0.332100  0.495600  1.0  -0.0948
  C  C27  1  0.606500  0.354100  0.609900  1.0  -0.0745
  C  C28  1  0.516200  0.301200  0.317200  1.0  -0.2536
  C  C29  1  0.400300  0.292400  0.258800  1.0  0.3832
  C  C30  1  0.648300  0.287200  0.249800  1.0  0.3599
  C  C31  1  0.980200  0.346900  0.464300  1.0  0.3838
  C  C32  1  0.988700  0.242800  0.556100  1.0  -0.2353
  C  C33  1  0.987600  0.269000  0.674200  1.0  0.3551
  C  C34  1  0.994600  0.101300  0.408800  1.0  -0.1217
  C  C35  1  0.994600  0.121800  0.528500  1.0  -0.0518
  C  C36  1  0.001000  0.016000  0.618800  1.0  -0.1065
  C  C37  1  0.420400  0.606900  0.141800  1.0  0.3716
  C  C38  1  0.538700  0.603500  0.203000  1.0  -0.2263
  C  C39  1  0.670800  0.583900  0.137100  1.0  0.3613
  C  C40  1  0.524700  0.627800  0.322700  1.0  -0.0743
  C  C41  1  0.643900  0.636100  0.380400  1.0  -0.0957
  C  C42  1  0.631100  0.659000  0.494700  1.0  -0.0687
  C  C43  1  0.499300  0.675500  0.562800  1.0  -0.0914
  C  C44  1  0.381000  0.667900  0.504400  1.0  -0.0938
  C  C45  1  0.393500  0.645900  0.390100  1.0  -0.0736
  C  C46  1  0.483800  0.698800  0.682800  1.0  -0.2532
  C  C47  1  0.599700  0.707600  0.741200  1.0  0.3838
  C  C48  1  0.351700  0.712800  0.750200  1.0  0.3576
  C  C49  1  0.019800  0.653100  0.535700  1.0  0.3835
  C  C50  1  0.011300  0.757200  0.443900  1.0  -0.2361
  C  C51  1  0.012400  0.731000  0.325800  1.0  0.3565
  C  C52  1  0.005400  0.898700  0.591200  1.0  -0.1209
  C  C53  1  0.005400  0.878200  0.471500  1.0  -0.0499
  C  C54  1  0.999000  0.984000  0.381200  1.0  -0.107
  N  N55  1  0.676900  0.391200  0.905100  1.0  -0.499
  N  N56  1  0.220600  0.434100  0.912600  1.0  -0.4175
  N  N57  1  0.304600  0.285900  0.213300  1.0  -0.4673
  N  N58  1  0.755500  0.278100  0.196200  1.0  -0.4602
  N  N59  1  0.986000  0.292300  0.768700  1.0  -0.4797
  N  N60  1  0.972000  0.426400  0.386500  1.0  -0.4787
  N  N61  1  0.323100  0.608800  0.094900  1.0  -0.5003
  N  N62  1  0.779400  0.565900  0.087400  1.0  -0.4197
  N  N63  1  0.695400  0.714100  0.786700  1.0  -0.467
  N  N64  1  0.244500  0.721900  0.803800  1.0  -0.4615
  N  N65  1  0.014000  0.707700  0.231300  1.0  -0.4835
  N  N66  1  0.028000  0.573600  0.613500  1.0  -0.4772
  O  O67  1  0.945590  0.552380  0.862210  1.0  -0.9513
  O  O68  1  0.054410  0.447620  0.137790  1.0  -0.9476
