# generated using pymatgen
data_BaH8C18N6O
_symmetry_space_group_name_H-M   'P 1'
_cell_length_a   9.80900000
_cell_length_b   11.05800000
_cell_length_c   11.69800000
_cell_angle_alpha   81.23000000
_cell_angle_beta   81.57000000
_cell_angle_gamma   81.25000000
_symmetry_Int_Tables_number   1
_chemical_formula_structural   BaH8C18N6O
_chemical_formula_sum   'Ba2 H16 C36 N12 O2'
_cell_volume   1229.49667514
_cell_formula_units_Z   2
loop_
 _symmetry_equiv_pos_site_id
 _symmetry_equiv_pos_as_xyz
  1  'x, y, z'
loop_
 _atom_site_type_symbol
 _atom_site_label
 _atom_site_symmetry_multiplicity
 _atom_site_fract_x
 _atom_site_fract_y
 _atom_site_fract_z
 _atom_site_occupancy
 _atom_site_charge
  Ba  Ba1  1  0.941370  0.324670  0.995490  1.0  1.63
  Ba  Ba2  1  0.058630  0.675330  0.004510  1.0  1.629
  H  H3  1  0.993100  0.162000  0.348100  1.0  0.0857
  H  H4  1  0.994900  0.034200  0.691800  1.0  0.084
  H  H5  1  0.983700  0.551400  0.789600  1.0  0.4589
  H  H6  1  0.855300  0.591200  0.844000  1.0  0.4413
  H  H7  1  0.266800  0.382200  0.661300  1.0  0.0802
  H  H8  1  0.289700  0.342900  0.473400  1.0  0.0791
  H  H9  1  0.706800  0.313200  0.459300  1.0  0.0788
  H  H10  1  0.684000  0.351400  0.646300  1.0  0.0806
  H  H11  1  0.006900  0.838000  0.651900  1.0  0.0859
  H  H12  1  0.005100  0.965800  0.308200  1.0  0.0841
  H  H13  1  0.016300  0.448600  0.210400  1.0  0.4589
  H  H14  1  0.144700  0.408800  0.156000  1.0  0.4421
  H  H15  1  0.733200  0.617800  0.338700  1.0  0.08
  H  H16  1  0.710300  0.657100  0.526600  1.0  0.0788
  H  H17  1  0.293200  0.686800  0.540700  1.0  0.0788
  H  H18  1  0.316000  0.648600  0.353700  1.0  0.0801
  C  C19  1  0.978800  0.346100  0.460000  1.0  0.3714
  C  C20  1  0.985900  0.245200  0.549300  1.0  -0.2692
  C  C21  1  0.980600  0.272000  0.664500  1.0  0.3762
  C  C22  1  0.995900  0.097000  0.408700  1.0  -0.1079
  C  C23  1  0.992600  0.122000  0.525600  1.0  -0.0815
  C  C24  1  0.997000  0.020400  0.615100  1.0  -0.0915
  C  C25  1  0.574500  0.393900  0.854800  1.0  0.3745
  C  C26  1  0.457800  0.397500  0.794200  1.0  -0.265
  C  C27  1  0.324700  0.418900  0.858500  1.0  0.3556
  C  C28  1  0.472300  0.373300  0.676800  1.0  -0.0703
  C  C29  1  0.355300  0.368600  0.620600  1.0  -0.0804
  C  C30  1  0.368900  0.344700  0.507900  1.0  -0.0898
  C  C31  1  0.502100  0.322700  0.442800  1.0  -0.0992
  C  C32  1  0.618100  0.326900  0.499800  1.0  -0.1041
  C  C33  1  0.604600  0.350400  0.611800  1.0  -0.0838
  C  C34  1  0.518500  0.298500  0.325900  1.0  -0.2316
  C  C35  1  0.404100  0.290200  0.268600  1.0  0.3852
  C  C36  1  0.650500  0.280500  0.259700  1.0  0.3863
  C  C37  1  0.021200  0.653900  0.540000  1.0  0.3731
  C  C38  1  0.014100  0.754800  0.450700  1.0  -0.2675
  C  C39  1  0.019400  0.728000  0.335500  1.0  0.3748
  C  C40  1  0.004100  0.903000  0.591300  1.0  -0.1081
  C  C41  1  0.007400  0.878000  0.474400  1.0  -0.0804
  C  C42  1  0.003000  0.979600  0.384900  1.0  -0.0912
  C  C43  1  0.425500  0.606100  0.145200  1.0  0.3769
  C  C44  1  0.542200  0.602500  0.205800  1.0  -0.262
  C  C45  1  0.675300  0.581100  0.141500  1.0  0.355
  C  C46  1  0.527700  0.626700  0.323200  1.0  -0.0692
  C  C47  1  0.644700  0.631400  0.379400  1.0  -0.0796
  C  C48  1  0.631100  0.655300  0.492100  1.0  -0.0908
  C  C49  1  0.497900  0.677300  0.557200  1.0  -0.0975
  C  C50  1  0.381900  0.673100  0.500200  1.0  -0.1039
  C  C51  1  0.395400  0.649600  0.388200  1.0  -0.084
  C  C52  1  0.481500  0.701500  0.674100  1.0  -0.2309
  C  C53  1  0.595900  0.709800  0.731400  1.0  0.3837
  C  C54  1  0.349500  0.719500  0.740300  1.0  0.384
  N  N55  1  0.974800  0.293400  0.757500  1.0  -0.4718
  N  N56  1  0.970800  0.425900  0.385200  1.0  -0.4286
  N  N57  1  0.668000  0.390300  0.902400  1.0  -0.4838
  N  N58  1  0.216000  0.435300  0.908800  1.0  -0.4451
  N  N59  1  0.310300  0.285200  0.222500  1.0  -0.4668
  N  N60  1  0.757000  0.268100  0.205700  1.0  -0.4592
  N  N61  1  0.025200  0.706600  0.242500  1.0  -0.4758
  N  N62  1  0.029200  0.574100  0.614800  1.0  -0.4278
  N  N63  1  0.332000  0.609700  0.097600  1.0  -0.4875
  N  N64  1  0.784000  0.564700  0.091200  1.0  -0.4442
  N  N65  1  0.689700  0.714800  0.777500  1.0  -0.4672
  N  N66  1  0.243000  0.731900  0.794300  1.0  -0.463
  O  O67  1  0.935510  0.554220  0.855950  1.0  -0.9369
  O  O68  1  0.064490  0.445780  0.144050  1.0  -0.9358
