# generated using pymatgen
data_CaH8C18N6O
_symmetry_space_group_name_H-M   'P 1'
_cell_length_a   9.49300000
_cell_length_b   11.24200000
_cell_length_c   11.27000000
_cell_angle_alpha   82.89000000
_cell_angle_beta   83.80000000
_cell_angle_gamma   77.68000000
_symmetry_Int_Tables_number   1
_chemical_formula_structural   CaH8C18N6O
_chemical_formula_sum   'Ca2 H16 C36 N12 O2'
_cell_volume   1161.86787370
_cell_formula_units_Z   2
loop_
 _symmetry_equiv_pos_site_id
 _symmetry_equiv_pos_as_xyz
  1  'x, y, z'
loop_
 _atom_site_type_symbol
 _atom_site_label
 _atom_site_symmetry_multiplicity
 _atom_site_fract_x
 _atom_site_fract_y
 _atom_site_fract_z
 _atom_site_occupancy
 _atom_site_charge
  Ca  Ca1  1  0.974590  0.330060  0.977790  1.0  1.6051
  Ca  Ca2  1  0.025410  0.669940  0.022210  1.0  1.6007
  H  H3  1  0.301100  0.333400  0.644000  1.0  0.1066
  H  H4  1  0.331300  0.306700  0.445900  1.0  0.104
  H  H5  1  0.737400  0.371100  0.428400  1.0  0.1043
  H  H6  1  0.707400  0.395800  0.627700  1.0  0.0999
  H  H7  1  0.011300  0.149600  0.339900  1.0  0.1071
  H  H8  1  0.000800  0.041800  0.696200  1.0  0.1102
  H  H9  1  0.982800  0.542200  0.817900  1.0  0.4277
  H  H10  1  0.848600  0.584200  0.872900  1.0  0.444
  H  H11  1  0.698900  0.666667  0.356000  1.0  0.1059
  H  H12  1  0.668700  0.693300  0.554100  1.0  0.1043
  H  H13  1  0.262600  0.628900  0.571600  1.0  0.1047
  H  H14  1  0.292600  0.604200  0.372300  1.0  0.1001
  H  H15  1  0.988700  0.850400  0.660100  1.0  0.1068
  H  H16  1  0.999200  0.958200  0.303800  1.0  0.1102
  H  H17  1  0.017200  0.457800  0.182100  1.0  0.4275
  H  H18  1  0.151400  0.415800  0.127100  1.0  0.445
  C  C19  1  0.599700  0.394200  0.848500  1.0  0.3114
  C  C20  1  0.481300  0.383500  0.785600  1.0  -0.2496
  C  C21  1  0.347400  0.377100  0.850700  1.0  0.4242
  C  C22  1  0.501200  0.368000  0.660400  1.0  -0.067
  C  C23  1  0.388500  0.340800  0.600700  1.0  -0.061
  C  C24  1  0.406300  0.325400  0.482100  1.0  -0.0739
  C  C25  1  0.537900  0.337400  0.412000  1.0  -0.072
  C  C26  1  0.649900  0.363700  0.471500  1.0  -0.1288
  C  C27  1  0.631900  0.378500  0.591100  1.0  -0.0836
  C  C28  1  0.557300  0.323000  0.287900  1.0  -0.2641
  C  C29  1  0.443600  0.300800  0.226500  1.0  0.3676
  C  C30  1  0.689800  0.326600  0.218600  1.0  0.3714
  C  C31  1  0.022400  0.332900  0.450300  1.0  0.4149
  C  C32  1  0.016200  0.239500  0.544300  1.0  -0.2409
  C  C33  1  0.013300  0.271000  0.662600  1.0  0.3698
  C  C34  1  0.006900  0.089400  0.403900  1.0  -0.0788
  C  C35  1  0.008100  0.118800  0.522900  1.0  -0.0786
  C  C36  1  0.000600  0.024800  0.617600  1.0  -0.072
  C  C37  1  0.400300  0.605800  0.151500  1.0  0.3128
  C  C38  1  0.518700  0.616500  0.214400  1.0  -0.248
  C  C39  1  0.652600  0.622900  0.149300  1.0  0.4263
  C  C40  1  0.498800  0.632000  0.339600  1.0  -0.0681
  C  C41  1  0.611500  0.659200  0.399300  1.0  -0.064
  C  C42  1  0.593700  0.674600  0.517900  1.0  -0.0754
  C  C43  1  0.462100  0.662600  0.588000  1.0  -0.0708
  C  C44  1  0.350100  0.636300  0.528500  1.0  -0.1287
  C  C45  1  0.368100  0.621500  0.408900  1.0  -0.085
  C  C46  1  0.442700  0.677000  0.712100  1.0  -0.2649
  C  C47  1  0.556400  0.699200  0.773500  1.0  0.3673
  C  C48  1  0.310200  0.673400  0.781400  1.0  0.3681
  C  C49  1  0.977600  0.667100  0.549700  1.0  0.4157
  C  C50  1  0.983800  0.760500  0.455700  1.0  -0.2388
  C  C51  1  0.986700  0.729000  0.337400  1.0  0.3702
  C  C52  1  0.993100  0.910600  0.596100  1.0  -0.0822
  C  C53  1  0.991900  0.881200  0.477100  1.0  -0.0754
  C  C54  1  0.999400  0.975200  0.382400  1.0  -0.0728
  N  N55  1  0.699700  0.399200  0.896900  1.0  -0.5107
  N  N56  1  0.235900  0.370700  0.898200  1.0  -0.5049
  N  N57  1  0.349900  0.283900  0.179700  1.0  -0.4498
  N  N58  1  0.798500  0.327300  0.161100  1.0  -0.502
  N  N59  1  0.010000  0.295600  0.759200  1.0  -0.5291
  N  N60  1  0.025800  0.405700  0.369800  1.0  -0.4645
  N  N61  1  0.300300  0.600800  0.103100  1.0  -0.5113
  N  N62  1  0.764100  0.629300  0.101800  1.0  -0.5067
  N  N63  1  0.650100  0.716100  0.820300  1.0  -0.45
  N  N64  1  0.201500  0.672700  0.838900  1.0  -0.5027
  N  N65  1  0.990000  0.704400  0.240800  1.0  -0.5311
  N  N66  1  0.974200  0.594300  0.630200  1.0  -0.463
  O  O67  1  0.933600  0.545100  0.885560  1.0  -0.9314
  O  O68  1  0.066400  0.454900  0.114440  1.0  -0.9319
