# generated using pymatgen
data_ZnH11C9(NO)2
_symmetry_space_group_name_H-M   'P 1'
_cell_length_a   10.19640000
_cell_length_b   17.68600000
_cell_length_c   17.68600000
_cell_angle_alpha   120.00000000
_cell_angle_beta   90.00000000
_cell_angle_gamma   90.00000000
_symmetry_Int_Tables_number   1
_chemical_formula_structural   ZnH11C9(NO)2
_chemical_formula_sum   'Zn6 H66 C54 N12 O12'
_cell_volume   2762.08307925
_cell_formula_units_Z   6
loop_
 _symmetry_equiv_pos_site_id
 _symmetry_equiv_pos_as_xyz
  1  'x, y, z'
loop_
 _atom_site_type_symbol
 _atom_site_label
 _atom_site_symmetry_multiplicity
 _atom_site_fract_x
 _atom_site_fract_y
 _atom_site_fract_z
 _atom_site_occupancy
 _atom_site_charge
  Zn  Zn1  1  0.986210  0.458830  0.533310  1.0  0.2529
  Zn  Zn2  1  0.652880  0.074480  0.541170  1.0  0.2498
  Zn  Zn3  1  0.319540  0.466690  0.925520  1.0  0.2457
  Zn  Zn4  1  0.486210  0.541170  0.466690  1.0  0.2571
  Zn  Zn5  1  0.152880  0.925520  0.458830  1.0  0.2563
  Zn  Zn6  1  0.819540  0.533310  0.074480  1.0  0.2473
  H  H7  1  0.204600  0.328000  0.436000  1.0  0.0633
  H  H8  1  0.258600  0.185300  0.391900  1.0  0.1285
  H  H9  1  0.921700  0.162700  0.490900  1.0  0.1031
  H  H10  1  0.874500  0.306400  0.532400  1.0  0.091
  H  H11  1  0.071700  0.024300  0.372600  1.0  0.1023
  H  H12  1  0.220400  0.051100  0.390100  1.0  0.0825
  H  H13  1  0.254200  0.159300  0.549600  1.0  0.0699
  H  H14  1  0.119100  0.189700  0.664700  1.0  0.1085
  H  H15  1  0.254900  0.168000  0.690900  1.0  0.109
  H  H16  1  0.142900  0.097900  0.655500  1.0  0.0939
  H  H17  1  0.050200  0.074400  0.519600  1.0  0.2536
  H  H18  1  0.871270  0.108000  0.672000  1.0  0.0641
  H  H19  1  0.925270  0.206600  0.814700  1.0  0.1265
  H  H20  1  0.588370  0.328200  0.837300  1.0  0.1027
  H  H21  1  0.541170  0.226000  0.693600  1.0  0.0912
  H  H22  1  0.738370  0.348300  0.975700  1.0  0.1028
  H  H23  1  0.887070  0.339000  0.948900  1.0  0.0818
  H  H24  1  0.920870  0.390300  0.840700  1.0  0.0702
  H  H25  1  0.785770  0.475000  0.810300  1.0  0.1081
  H  H26  1  0.921570  0.522900  0.832000  1.0  0.1081
  H  H27  1  0.809570  0.557600  0.902100  1.0  0.0919
  H  H28  1  0.716870  0.445200  0.925600  1.0  0.2535
  H  H29  1  0.537930  0.564000  0.892000  1.0  0.0647
  H  H30  1  0.591930  0.608100  0.793400  1.0  0.1259
  H  H31  1  0.255030  0.509100  0.671800  1.0  0.1031
  H  H32  1  0.207830  0.467600  0.774000  1.0  0.0914
  H  H33  1  0.405030  0.627400  0.651700  1.0  0.1047
  H  H34  1  0.553730  0.609900  0.661000  1.0  0.0832
  H  H35  1  0.587530  0.450400  0.609700  1.0  0.0682
  H  H36  1  0.452430  0.335300  0.525000  1.0  0.1059
  H  H37  1  0.588230  0.309100  0.477100  1.0  0.1091
  H  H38  1  0.476230  0.344500  0.442400  1.0  0.0928
  H  H39  1  0.383530  0.480400  0.554800  1.0  0.2539
  H  H40  1  0.704600  0.672000  0.564000  1.0  0.0625
  H  H41  1  0.758600  0.814700  0.608100  1.0  0.1281
  H  H42  1  0.421700  0.837300  0.509100  1.0  0.1032
  H  H43  1  0.374500  0.693600  0.467600  1.0  0.0912
  H  H44  1  0.571700  0.975700  0.627400  1.0  0.1026
  H  H45  1  0.720400  0.948900  0.609900  1.0  0.0824
  H  H46  1  0.754200  0.840700  0.450400  1.0  0.0706
  H  H47  1  0.619100  0.810300  0.335300  1.0  0.1082
  H  H48  1  0.754900  0.832000  0.309100  1.0  0.109
  H  H49  1  0.642900  0.902100  0.344500  1.0  0.0934
  H  H50  1  0.550200  0.925600  0.480400  1.0  0.254
  H  H51  1  0.371270  0.892000  0.328000  1.0  0.0632
  H  H52  1  0.425270  0.793400  0.185300  1.0  0.127
  H  H53  1  0.088370  0.671800  0.162700  1.0  0.1027
  H  H54  1  0.041170  0.774000  0.306400  1.0  0.0911
  H  H55  1  0.238370  0.651700  0.024300  1.0  0.1032
  H  H56  1  0.387070  0.661000  0.051100  1.0  0.0824
  H  H57  1  0.420870  0.609700  0.159300  1.0  0.0693
  H  H58  1  0.285770  0.525000  0.189700  1.0  0.1074
  H  H59  1  0.421570  0.477100  0.168000  1.0  0.1093
  H  H60  1  0.309570  0.442400  0.097900  1.0  0.0922
  H  H61  1  0.216870  0.554800  0.074400  1.0  0.2535
  H  H62  1  0.037930  0.436000  0.108000  1.0  0.0633
  H  H63  1  0.091930  0.391900  0.206600  1.0  0.1256
  H  H64  1  0.755030  0.490900  0.328200  1.0  0.1022
  H  H65  1  0.707830  0.532400  0.226000  1.0  0.0915
  H  H66  1  0.905030  0.372600  0.348300  1.0  0.1046
  H  H67  1  0.053730  0.390100  0.339000  1.0  0.0827
  H  H68  1  0.087530  0.549600  0.390300  1.0  0.069
  H  H69  1  0.952430  0.664700  0.475000  1.0  0.1074
  H  H70  1  0.088230  0.690900  0.522900  1.0  0.1083
  H  H71  1  0.976230  0.655500  0.557600  1.0  0.093
  H  H72  1  0.883530  0.519600  0.445200  1.0  0.254
  C  C73  1  0.146700  0.295000  0.448400  1.0  0.1415
  C  C74  1  0.180600  0.208800  0.421800  1.0  -0.2454
  C  C75  1  0.096900  0.158700  0.440400  1.0  0.0818
  C  C76  1  0.982300  0.195400  0.480000  1.0  -0.2056
  C  C77  1  0.953700  0.282200  0.504800  1.0  0.1174
  C  C78  1  0.133300  0.064900  0.415700  1.0  -0.0212
  C  C79  1  0.232400  0.109900  0.557700  1.0  0.0094
  C  C80  1  0.356600  0.054900  0.543600  1.0  0.5961
  C  C81  1  0.182700  0.144600  0.650800  1.0  -0.3148
  C  C82  1  0.813370  0.153400  0.705000  1.0  0.1449
  C  C83  1  0.847270  0.213000  0.791200  1.0  -0.2483
  C  C84  1  0.763570  0.281700  0.841300  1.0  0.0772
  C  C85  1  0.648970  0.284600  0.804600  1.0  -0.2083
  C  C86  1  0.620370  0.222600  0.717800  1.0  0.1213
  C  C87  1  0.799970  0.350800  0.935100  1.0  -0.0238
  C  C88  1  0.899070  0.447800  0.890100  1.0  0.0083
  C  C89  1  0.023270  0.488700  0.945100  1.0  0.5954
  C  C90  1  0.849370  0.506200  0.855400  1.0  -0.3147
  C  C91  1  0.480030  0.551600  0.846600  1.0  0.1437
  C  C92  1  0.513930  0.578200  0.787000  1.0  -0.2481
  C  C93  1  0.430230  0.559600  0.718300  1.0  0.0787
  C  C94  1  0.315630  0.520000  0.715400  1.0  -0.2077
  C  C95  1  0.287030  0.495200  0.777400  1.0  0.1194
  C  C96  1  0.466630  0.584300  0.649200  1.0  -0.0224
  C  C97  1  0.565730  0.442300  0.552200  1.0  0.0039
  C  C98  1  0.689930  0.456400  0.511300  1.0  0.5946
  C  C99  1  0.516030  0.349200  0.493800  1.0  -0.3145
  C  C100  1  0.646700  0.705000  0.551600  1.0  0.1421
  C  C101  1  0.680600  0.791200  0.578200  1.0  -0.2463
  C  C102  1  0.596900  0.841300  0.559600  1.0  0.0826
  C  C103  1  0.482300  0.804600  0.520000  1.0  -0.2071
  C  C104  1  0.453700  0.717800  0.495200  1.0  0.1182
  C  C105  1  0.633300  0.935100  0.584300  1.0  -0.0212
  C  C106  1  0.732400  0.890100  0.442300  1.0  0.0086
  C  C107  1  0.856600  0.945100  0.456400  1.0  0.5957
  C  C108  1  0.682700  0.855400  0.349200  1.0  -0.3152
  C  C109  1  0.313370  0.846600  0.295000  1.0  0.1426
  C  C110  1  0.347270  0.787000  0.208800  1.0  -0.2487
  C  C111  1  0.263570  0.718300  0.158700  1.0  0.0779
  C  C112  1  0.148970  0.715400  0.195400  1.0  -0.2076
  C  C113  1  0.120370  0.777400  0.282200  1.0  0.1204
  C  C114  1  0.299970  0.649200  0.064900  1.0  -0.0249
  C  C115  1  0.399070  0.552200  0.109900  1.0  0.0091
  C  C116  1  0.523270  0.511300  0.054900  1.0  0.5955
  C  C117  1  0.349370  0.493800  0.144600  1.0  -0.3154
  C  C118  1  0.980030  0.448400  0.153400  1.0  0.1428
  C  C119  1  0.013930  0.421800  0.213000  1.0  -0.2474
  C  C120  1  0.930230  0.440400  0.281700  1.0  0.0785
  C  C121  1  0.815630  0.480000  0.284600  1.0  -0.2067
  C  C122  1  0.787030  0.504800  0.222600  1.0  0.1193
  C  C123  1  0.966630  0.415700  0.350800  1.0  -0.0234
  C  C124  1  0.065730  0.557700  0.447800  1.0  0.0073
  C  C125  1  0.189930  0.543600  0.488700  1.0  0.5953
  C  C126  1  0.016030  0.650800  0.506200  1.0  -0.3148
  N  N127  1  0.130000  0.056000  0.493800  1.0  -0.2933
  N  N128  1  0.039300  0.331500  0.489300  1.0  -0.2319
  N  N129  1  0.796670  0.437800  0.944000  1.0  -0.2961
  N  N130  1  0.705970  0.157800  0.668500  1.0  -0.234
  N  N131  1  0.463330  0.506200  0.562200  1.0  -0.2944
  N  N132  1  0.372630  0.510700  0.842200  1.0  -0.2337
  N  N133  1  0.630000  0.944000  0.506200  1.0  -0.293
  N  N134  1  0.539300  0.668500  0.510700  1.0  -0.2371
  N  N135  1  0.296670  0.562200  0.056000  1.0  -0.2964
  N  N136  1  0.205970  0.842200  0.331500  1.0  -0.2338
  N  N137  1  0.963330  0.493800  0.437800  1.0  -0.2961
  N  N138  1  0.872630  0.489300  0.157800  1.0  -0.2323
  O  O139  1  0.350100  0.973700  0.497100  1.0  -0.5311
  O  O140  1  0.456000  0.098300  0.579900  1.0  -0.548
  O  O141  1  0.016770  0.523400  0.026300  1.0  -0.5318
  O  O142  1  0.122670  0.481600  0.901700  1.0  -0.5466
  O  O143  1  0.683430  0.502900  0.476600  1.0  -0.5308
  O  O144  1  0.789330  0.420100  0.518400  1.0  -0.5472
  O  O145  1  0.850100  0.026300  0.502900  1.0  -0.5324
  O  O146  1  0.956000  0.901700  0.420100  1.0  -0.548
  O  O147  1  0.516770  0.476600  0.973700  1.0  -0.5306
  O  O148  1  0.622670  0.518400  0.098300  1.0  -0.5468
  O  O149  1  0.183430  0.497100  0.523400  1.0  -0.5305
  O  O150  1  0.289330  0.579900  0.481600  1.0  -0.5466
