# generated using pymatgen
data_ZnH11C9N2ClO2
_symmetry_space_group_name_H-M   'P 1'
_cell_length_a   10.26520000
_cell_length_b   17.52850000
_cell_length_c   17.52850000
_cell_angle_alpha   120.00000000
_cell_angle_beta   90.00000000
_cell_angle_gamma   90.00000000
_symmetry_Int_Tables_number   1
_chemical_formula_structural   ZnH11C9N2ClO2
_chemical_formula_sum   'Zn6 H66 C54 N12 Cl6 O12'
_cell_volume   2731.41413733
_cell_formula_units_Z   6
loop_
 _symmetry_equiv_pos_site_id
 _symmetry_equiv_pos_as_xyz
  1  'x, y, z'
loop_
 _atom_site_type_symbol
 _atom_site_label
 _atom_site_symmetry_multiplicity
 _atom_site_fract_x
 _atom_site_fract_y
 _atom_site_fract_z
 _atom_site_occupancy
 _atom_site_charge
  Zn  Zn1  1  0.006850  0.464390  0.924590  1.0  0.781
  Zn  Zn2  1  0.673520  0.460200  0.535610  1.0  0.7747
  Zn  Zn3  1  0.340180  0.075410  0.539800  1.0  0.7795
  Zn  Zn4  1  0.506850  0.535610  0.075410  1.0  0.7821
  Zn  Zn5  1  0.173520  0.539800  0.464390  1.0  0.7761
  Zn  Zn6  1  0.840180  0.924590  0.460200  1.0  0.78
  H  H7  1  0.974900  0.426900  0.321900  1.0  0.0789
  H  H8  1  0.930500  0.383600  0.178700  1.0  0.1372
  H  H9  1  0.226400  0.535000  0.181900  1.0  0.126
  H  H10  1  0.272200  0.567000  0.322200  1.0  0.0937
  H  H11  1  0.110900  0.390900  0.030500  1.0  0.1147
  H  H12  1  0.961400  0.399100  0.051300  1.0  0.0907
  H  H13  1  0.925200  0.569700  0.165300  1.0  0.0711
  H  H14  1  0.042700  0.682300  0.162200  1.0  0.1089
  H  H15  1  0.894500  0.699400  0.155000  1.0  0.1346
  H  H16  1  0.982600  0.658200  0.070700  1.0  0.1076
  H  H17  1  0.114200  0.535700  0.072900  1.0  0.2675
  H  H18  1  0.641570  0.895000  0.573100  1.0  0.0804
  H  H19  1  0.597170  0.795100  0.616400  1.0  0.1364
  H  H20  1  0.893070  0.646900  0.465000  1.0  0.1266
  H  H21  1  0.938870  0.755200  0.433000  1.0  0.0934
  H  H22  1  0.777570  0.639600  0.609100  1.0  0.1151
  H  H23  1  0.628070  0.652200  0.600900  1.0  0.0895
  H  H24  1  0.591870  0.595600  0.430300  1.0  0.0733
  H  H25  1  0.709370  0.479900  0.317700  1.0  0.1063
  H  H26  1  0.561170  0.455600  0.300600  1.0  0.1349
  H  H27  1  0.649270  0.412500  0.341800  1.0  0.1074
  H  H28  1  0.780870  0.537200  0.464300  1.0  0.2671
  H  H29  1  0.308230  0.678100  0.105000  1.0  0.0779
  H  H30  1  0.263830  0.821300  0.204900  1.0  0.1388
  H  H31  1  0.559730  0.818100  0.353100  1.0  0.126
  H  H32  1  0.605530  0.677800  0.244800  1.0  0.0938
  H  H33  1  0.444230  0.969500  0.360400  1.0  0.1153
  H  H34  1  0.294730  0.948700  0.347800  1.0  0.089
  H  H35  1  0.258530  0.834700  0.404400  1.0  0.0694
  H  H36  1  0.376030  0.837800  0.520100  1.0  0.1075
  H  H37  1  0.227830  0.845000  0.544400  1.0  0.1371
  H  H38  1  0.315930  0.929300  0.587500  1.0  0.1079
  H  H39  1  0.447530  0.927100  0.462800  1.0  0.2678
  H  H40  1  0.474900  0.573100  0.678100  1.0  0.079
  H  H41  1  0.430500  0.616400  0.821300  1.0  0.1382
  H  H42  1  0.726400  0.465000  0.818100  1.0  0.1263
  H  H43  1  0.772200  0.433000  0.677800  1.0  0.0942
  H  H44  1  0.610900  0.609100  0.969500  1.0  0.1146
  H  H45  1  0.461400  0.600900  0.948700  1.0  0.0899
  H  H46  1  0.425200  0.430300  0.834700  1.0  0.0718
  H  H47  1  0.542700  0.317700  0.837800  1.0  0.1086
  H  H48  1  0.394500  0.300600  0.845000  1.0  0.1355
  H  H49  1  0.482600  0.341800  0.929300  1.0  0.1075
  H  H50  1  0.614200  0.464300  0.927100  1.0  0.2676
  H  H51  1  0.141570  0.105000  0.426900  1.0  0.0801
  H  H52  1  0.097170  0.204900  0.383600  1.0  0.1363
  H  H53  1  0.393070  0.353100  0.535000  1.0  0.1263
  H  H54  1  0.438870  0.244800  0.567000  1.0  0.0938
  H  H55  1  0.277570  0.360400  0.390900  1.0  0.1149
  H  H56  1  0.128070  0.347800  0.399100  1.0  0.0891
  H  H57  1  0.091870  0.404400  0.569700  1.0  0.0724
  H  H58  1  0.209370  0.520100  0.682300  1.0  0.1053
  H  H59  1  0.061170  0.544400  0.699400  1.0  0.135
  H  H60  1  0.149270  0.587500  0.658200  1.0  0.1078
  H  H61  1  0.280870  0.462800  0.535700  1.0  0.2671
  H  H62  1  0.808230  0.321900  0.895000  1.0  0.078
  H  H63  1  0.763830  0.178700  0.795100  1.0  0.1382
  H  H64  1  0.059730  0.181900  0.646900  1.0  0.126
  H  H65  1  0.105530  0.322200  0.755200  1.0  0.0939
  H  H66  1  0.944230  0.030500  0.639600  1.0  0.1154
  H  H67  1  0.794730  0.051300  0.652200  1.0  0.0893
  H  H68  1  0.758530  0.165300  0.595600  1.0  0.071
  H  H69  1  0.876030  0.162200  0.479900  1.0  0.1088
  H  H70  1  0.727830  0.155000  0.455600  1.0  0.1353
  H  H71  1  0.815930  0.070700  0.412500  1.0  0.1076
  H  H72  1  0.947530  0.072900  0.537200  1.0  0.2677
  C  C73  1  0.027400  0.447400  0.292700  1.0  0.1656
  C  C74  1  0.999100  0.422200  0.207300  1.0  -0.2225
  C  C75  1  0.073400  0.454300  0.163000  1.0  0.1224
  C  C76  1  0.175800  0.510900  0.208700  1.0  -0.1978
  C  C77  1  0.201400  0.530900  0.293200  1.0  0.1808
  C  C78  1  0.043800  0.430400  0.068800  1.0  -0.0239
  C  C79  1  0.934100  0.568500  0.109000  1.0  0.0255
  C  C80  1  0.805100  0.538500  0.057600  1.0  0.63
  C  C81  1  0.966400  0.660700  0.125800  1.0  -0.3323
  C  C82  1  0.694070  0.845300  0.552600  1.0  0.1632
  C  C83  1  0.665770  0.785100  0.577800  1.0  -0.2237
  C  C84  1  0.740070  0.708700  0.545700  1.0  0.1213
  C  C85  1  0.842470  0.697800  0.489100  1.0  -0.1964
  C  C86  1  0.868070  0.762300  0.469100  1.0  0.1812
  C  C87  1  0.710470  0.638400  0.569600  1.0  -0.0285
  C  C88  1  0.600770  0.540500  0.431500  1.0  0.0261
  C  C89  1  0.471770  0.519100  0.461500  1.0  0.6313
  C  C90  1  0.633070  0.465100  0.339300  1.0  -0.3309
  C  C91  1  0.360730  0.707300  0.154700  1.0  0.1629
  C  C92  1  0.332430  0.792700  0.214900  1.0  -0.2209
  C  C93  1  0.406730  0.837000  0.291300  1.0  0.1212
  C  C94  1  0.509130  0.791300  0.302200  1.0  -0.1976
  C  C95  1  0.534730  0.706800  0.237700  1.0  0.1807
  C  C96  1  0.377130  0.931200  0.361600  1.0  -0.0261
  C  C97  1  0.267430  0.891000  0.459500  1.0  0.0266
  C  C98  1  0.138430  0.942400  0.480900  1.0  0.6299
  C  C99  1  0.299730  0.874200  0.534900  1.0  -0.3314
  C  C100  1  0.527400  0.552600  0.707300  1.0  0.1653
  C  C101  1  0.499100  0.577800  0.792700  1.0  -0.2228
  C  C102  1  0.573400  0.545700  0.837000  1.0  0.1218
  C  C103  1  0.675800  0.489100  0.791300  1.0  -0.1968
  C  C104  1  0.701400  0.469100  0.706800  1.0  0.1808
  C  C105  1  0.543800  0.569600  0.931200  1.0  -0.0253
  C  C106  1  0.434100  0.431500  0.891000  1.0  0.0247
  C  C107  1  0.305100  0.461500  0.942400  1.0  0.6301
  C  C108  1  0.466400  0.339300  0.874200  1.0  -0.3321
  C  C109  1  0.194070  0.154700  0.447400  1.0  0.1644
  C  C110  1  0.165770  0.214900  0.422200  1.0  -0.2228
  C  C111  1  0.240070  0.291300  0.454300  1.0  0.1205
  C  C112  1  0.342470  0.302200  0.510900  1.0  -0.1977
  C  C113  1  0.368070  0.237700  0.530900  1.0  0.1809
  C  C114  1  0.210470  0.361600  0.430400  1.0  -0.0294
  C  C115  1  0.100770  0.459500  0.568500  1.0  0.0269
  C  C116  1  0.971770  0.480900  0.538500  1.0  0.6303
  C  C117  1  0.133070  0.534900  0.660700  1.0  -0.3322
  C  C118  1  0.860730  0.292700  0.845300  1.0  0.1633
  C  C119  1  0.832430  0.207300  0.785100  1.0  -0.2218
  C  C120  1  0.906730  0.163000  0.708700  1.0  0.1234
  C  C121  1  0.009130  0.208700  0.697800  1.0  -0.1973
  C  C122  1  0.034730  0.293200  0.762300  1.0  0.1807
  C  C123  1  0.877130  0.068800  0.638400  1.0  -0.0249
  C  C124  1  0.767430  0.109000  0.540500  1.0  0.0273
  C  C125  1  0.638430  0.057600  0.519100  1.0  0.6303
  C  C126  1  0.799730  0.125800  0.465100  1.0  -0.332
  N  N127  1  0.036500  0.506900  0.056600  1.0  -0.3932
  N  N128  1  0.127600  0.500300  0.336400  1.0  -0.3208
  N  N129  1  0.703170  0.549700  0.493100  1.0  -0.3951
  N  N130  1  0.794270  0.836100  0.499700  1.0  -0.321
  N  N131  1  0.369830  0.943400  0.450300  1.0  -0.3908
  N  N132  1  0.460930  0.663600  0.163900  1.0  -0.3186
  N  N133  1  0.536500  0.493100  0.943400  1.0  -0.3938
  N  N134  1  0.627600  0.499700  0.663600  1.0  -0.3209
  N  N135  1  0.203170  0.450300  0.506900  1.0  -0.3951
  N  N136  1  0.294270  0.163900  0.500300  1.0  -0.321
  N  N137  1  0.869830  0.056600  0.549700  1.0  -0.3911
  N  N138  1  0.960930  0.336400  0.836100  1.0  -0.3184
  Cl  Cl139  1  0.997000  0.555650  0.870540  1.0  -0.5812
  Cl  Cl140  1  0.663670  0.314890  0.444350  1.0  -0.5793
  Cl  Cl141  1  0.330330  0.129460  0.685110  1.0  -0.5781
  Cl  Cl142  1  0.497000  0.444350  0.129460  1.0  -0.5803
  Cl  Cl143  1  0.163670  0.685110  0.555650  1.0  -0.5792
  Cl  Cl144  1  0.830330  0.870540  0.314890  1.0  -0.5794
  O  O145  1  0.704000  0.569900  0.103900  1.0  -0.5969
  O  O146  1  0.809400  0.487400  0.977100  1.0  -0.5658
  O  O147  1  0.370670  0.534000  0.430100  1.0  -0.5964
  O  O148  1  0.476070  0.489700  0.512600  1.0  -0.5649
  O  O149  1  0.037330  0.896100  0.466000  1.0  -0.5979
  O  O150  1  0.142730  0.022900  0.510300  1.0  -0.5653
  O  O151  1  0.204000  0.430100  0.896100  1.0  -0.5966
  O  O152  1  0.309400  0.512600  0.022900  1.0  -0.5654
  O  O153  1  0.870670  0.466000  0.569900  1.0  -0.5972
  O  O154  1  0.976070  0.510300  0.487400  1.0  -0.5648
  O  O155  1  0.537330  0.103900  0.534000  1.0  -0.5972
  O  O156  1  0.642730  0.977100  0.489700  1.0  -0.5647
