# generated using pymatgen
data_ZnH11C9(NO)2
_symmetry_space_group_name_H-M   'P 1'
_cell_length_a   10.17160000
_cell_length_b   17.59110000
_cell_length_c   17.59110000
_cell_angle_alpha   120.00000000
_cell_angle_beta   90.00000000
_cell_angle_gamma   90.00000000
_symmetry_Int_Tables_number   1
_chemical_formula_structural   ZnH11C9(NO)2
_chemical_formula_sum   'Zn6 H66 C54 N12 O12'
_cell_volume   2725.87476859
_cell_formula_units_Z   6
loop_
 _symmetry_equiv_pos_site_id
 _symmetry_equiv_pos_as_xyz
  1  'x, y, z'
loop_
 _atom_site_type_symbol
 _atom_site_label
 _atom_site_symmetry_multiplicity
 _atom_site_fract_x
 _atom_site_fract_y
 _atom_site_fract_z
 _atom_site_occupancy
 _atom_site_charge
  Zn  Zn1  1  0.869090  0.543330  0.467970  1.0  0.3277
  Zn  Zn2  1  0.535760  0.924640  0.456670  1.0  0.3205
  Zn  Zn3  1  0.202420  0.532030  0.075360  1.0  0.3222
  Zn  Zn4  1  0.369090  0.456670  0.532030  1.0  0.3227
  Zn  Zn5  1  0.035760  0.075360  0.543330  1.0  0.3192
  Zn  Zn6  1  0.702420  0.467970  0.924640  1.0  0.3221
  H  H7  1  0.585200  0.477200  0.778900  1.0  0.085
  H  H8  1  0.631700  0.522900  0.678200  1.0  0.0989
  H  H9  1  0.979900  0.610100  0.794800  1.0  0.1209
  H  H10  1  0.927700  0.562500  0.890100  1.0  0.0679
  H  H11  1  0.791400  0.633800  0.653000  1.0  0.1003
  H  H12  1  0.939500  0.614800  0.662900  1.0  0.0792
  H  H13  1  0.965400  0.451900  0.613400  1.0  0.0685
  H  H14  1  0.802800  0.349200  0.508000  1.0  0.1132
  H  H15  1  0.942100  0.311800  0.509300  1.0  0.1131
  H  H16  1  0.907300  0.335300  0.436700  1.0  0.0993
  H  H17  1  0.765500  0.485500  0.558400  1.0  0.2501
  H  H18  1  0.251870  0.301700  0.522800  1.0  0.0835
  H  H19  1  0.298370  0.155300  0.477100  1.0  0.0988
  H  H20  1  0.646570  0.184700  0.389900  1.0  0.1217
  H  H21  1  0.594370  0.327600  0.437500  1.0  0.0682
  H  H22  1  0.458070  0.019200  0.366200  1.0  0.0995
  H  H23  1  0.606170  0.048100  0.385200  1.0  0.0798
  H  H24  1  0.632070  0.161500  0.548100  1.0  0.0706
  H  H25  1  0.469470  0.158800  0.650800  1.0  0.113
  H  H26  1  0.608770  0.197500  0.688200  1.0  0.111
  H  H27  1  0.573970  0.101400  0.664700  1.0  0.1011
  H  H28  1  0.432170  0.072900  0.514500  1.0  0.2493
  H  H29  1  0.918530  0.221100  0.698300  1.0  0.084
  H  H30  1  0.965030  0.321800  0.844700  1.0  0.099
  H  H31  1  0.313230  0.205200  0.815300  1.0  0.1212
  H  H32  1  0.261030  0.109900  0.672400  1.0  0.068
  H  H33  1  0.124730  0.347000  0.980800  1.0  0.0993
  H  H34  1  0.272830  0.337100  0.951900  1.0  0.0787
  H  H35  1  0.298730  0.386600  0.838500  1.0  0.0713
  H  H36  1  0.136130  0.492000  0.841200  1.0  0.1125
  H  H37  1  0.275430  0.490700  0.802500  1.0  0.112
  H  H38  1  0.240630  0.563300  0.898600  1.0  0.0983
  H  H39  1  0.098830  0.441600  0.927100  1.0  0.2504
  H  H40  1  0.085200  0.522800  0.221100  1.0  0.0849
  H  H41  1  0.131700  0.477100  0.321800  1.0  0.0983
  H  H42  1  0.479900  0.389900  0.205200  1.0  0.1204
  H  H43  1  0.427700  0.437500  0.109900  1.0  0.0679
  H  H44  1  0.291400  0.366200  0.347000  1.0  0.0993
  H  H45  1  0.439500  0.385200  0.337100  1.0  0.0795
  H  H46  1  0.465400  0.548100  0.386600  1.0  0.0696
  H  H47  1  0.302800  0.650800  0.492000  1.0  0.1131
  H  H48  1  0.442100  0.688200  0.490700  1.0  0.113
  H  H49  1  0.407300  0.664700  0.563300  1.0  0.1005
  H  H50  1  0.265500  0.514500  0.441600  1.0  0.2502
  H  H51  1  0.751870  0.698300  0.477200  1.0  0.0839
  H  H52  1  0.798370  0.844700  0.522900  1.0  0.0993
  H  H53  1  0.146570  0.815300  0.610100  1.0  0.1215
  H  H54  1  0.094370  0.672400  0.562500  1.0  0.0678
  H  H55  1  0.958070  0.980800  0.633800  1.0  0.1008
  H  H56  1  0.106170  0.951900  0.614800  1.0  0.0794
  H  H57  1  0.132070  0.838500  0.451900  1.0  0.0711
  H  H58  1  0.969470  0.841200  0.349200  1.0  0.114
  H  H59  1  0.108770  0.802500  0.311800  1.0  0.1085
  H  H60  1  0.073970  0.898600  0.335300  1.0  0.0991
  H  H61  1  0.932170  0.927100  0.485500  1.0  0.25
  H  H62  1  0.418530  0.778900  0.301700  1.0  0.084
  H  H63  1  0.465030  0.678200  0.155300  1.0  0.099
  H  H64  1  0.813230  0.794800  0.184700  1.0  0.1222
  H  H65  1  0.761030  0.890100  0.327600  1.0  0.0684
  H  H66  1  0.624730  0.653000  0.019200  1.0  0.0994
  H  H67  1  0.772830  0.662900  0.048100  1.0  0.0792
  H  H68  1  0.798730  0.613400  0.161500  1.0  0.071
  H  H69  1  0.636130  0.508000  0.158800  1.0  0.1127
  H  H70  1  0.775430  0.509300  0.197500  1.0  0.1155
  H  H71  1  0.740630  0.436700  0.101400  1.0  0.0956
  H  H72  1  0.598830  0.558400  0.072900  1.0  0.2504
  C  C73  1  0.665600  0.503700  0.781800  1.0  0.1355
  C  C74  1  0.693900  0.530900  0.720300  1.0  -0.2208
  C  C75  1  0.813800  0.569600  0.722500  1.0  0.0614
  C  C76  1  0.899800  0.582300  0.789200  1.0  -0.2264
  C  C77  1  0.867300  0.554300  0.846900  1.0  0.118
  C  C78  1  0.851500  0.590400  0.651900  1.0  -0.0187
  C  C79  1  0.944800  0.443700  0.555400  1.0  0.0164
  C  C80  1  0.069400  0.460000  0.515900  1.0  0.5826
  C  C81  1  0.894700  0.351700  0.497100  1.0  -0.3181
  C  C82  1  0.332270  0.278100  0.496300  1.0  0.1347
  C  C83  1  0.360570  0.189400  0.469100  1.0  -0.22
  C  C84  1  0.480470  0.152900  0.430400  1.0  0.0615
  C  C85  1  0.566470  0.206900  0.417700  1.0  -0.223
  C  C86  1  0.533970  0.292600  0.445700  1.0  0.1168
  C  C87  1  0.518170  0.061500  0.409600  1.0  -0.0192
  C  C88  1  0.611470  0.111700  0.556300  1.0  0.0207
  C  C89  1  0.736070  0.055900  0.540000  1.0  0.5841
  C  C90  1  0.561370  0.145400  0.648300  1.0  -0.3178
  C  C91  1  0.998930  0.218200  0.721900  1.0  0.1364
  C  C92  1  0.027230  0.279700  0.810600  1.0  -0.2221
  C  C93  1  0.147130  0.277500  0.847100  1.0  0.0596
  C  C94  1  0.233130  0.210800  0.793100  1.0  -0.2255
  C  C95  1  0.200630  0.153100  0.707400  1.0  0.1177
  C  C96  1  0.184830  0.348100  0.938500  1.0  -0.0199
  C  C97  1  0.278130  0.444600  0.888300  1.0  0.0193
  C  C98  1  0.402730  0.484100  0.944100  1.0  0.5845
  C  C99  1  0.228030  0.502900  0.854600  1.0  -0.3186
  C  C100  1  0.165600  0.496300  0.218200  1.0  0.1352
  C  C101  1  0.193900  0.469100  0.279700  1.0  -0.2202
  C  C102  1  0.313800  0.430400  0.277500  1.0  0.0615
  C  C103  1  0.399800  0.417700  0.210800  1.0  -0.2258
  C  C104  1  0.367300  0.445700  0.153100  1.0  0.1182
  C  C105  1  0.351500  0.409600  0.348100  1.0  -0.0193
  C  C106  1  0.444800  0.556300  0.444600  1.0  0.0186
  C  C107  1  0.569400  0.540000  0.484100  1.0  0.5835
  C  C108  1  0.394700  0.648300  0.502900  1.0  -0.3187
  C  C109  1  0.832270  0.721900  0.503700  1.0  0.1353
  C  C110  1  0.860570  0.810600  0.530900  1.0  -0.2205
  C  C111  1  0.980470  0.847100  0.569600  1.0  0.0623
  C  C112  1  0.066470  0.793100  0.582300  1.0  -0.2241
  C  C113  1  0.033970  0.707400  0.554300  1.0  0.1164
  C  C114  1  0.018170  0.938500  0.590400  1.0  -0.0191
  C  C115  1  0.111470  0.888300  0.443700  1.0  0.0193
  C  C116  1  0.236070  0.944100  0.460000  1.0  0.5838
  C  C117  1  0.061370  0.854600  0.351700  1.0  -0.3179
  C  C118  1  0.498930  0.781800  0.278100  1.0  0.1366
  C  C119  1  0.527230  0.720300  0.189400  1.0  -0.2206
  C  C120  1  0.647130  0.722500  0.152900  1.0  0.0608
  C  C121  1  0.733130  0.789200  0.206900  1.0  -0.2262
  C  C122  1  0.700630  0.846900  0.292600  1.0  0.1177
  C  C123  1  0.684830  0.651900  0.061500  1.0  -0.0197
  C  C124  1  0.778130  0.555400  0.111700  1.0  0.02
  C  C125  1  0.902730  0.515900  0.055900  1.0  0.5838
  C  C126  1  0.728030  0.497100  0.145400  1.0  -0.3191
  N  N127  1  0.846700  0.509800  0.564800  1.0  -0.3145
  N  N128  1  0.751700  0.515200  0.843700  1.0  -0.2686
  N  N129  1  0.513370  0.055000  0.490200  1.0  -0.3131
  N  N130  1  0.418370  0.328500  0.484800  1.0  -0.2662
  N  N131  1  0.180030  0.435200  0.945000  1.0  -0.3159
  N  N132  1  0.085030  0.156300  0.671500  1.0  -0.2689
  N  N133  1  0.346700  0.490200  0.435200  1.0  -0.3148
  N  N134  1  0.251700  0.484800  0.156300  1.0  -0.2676
  N  N135  1  0.013370  0.945000  0.509800  1.0  -0.3131
  N  N136  1  0.918370  0.671500  0.515200  1.0  -0.268
  N  N137  1  0.680030  0.564800  0.055000  1.0  -0.3163
  N  N138  1  0.585030  0.843700  0.328500  1.0  -0.2674
  O  O139  1  0.172700  0.423400  0.525400  1.0  -0.5677
  O  O140  1  0.063300  0.503200  0.477800  1.0  -0.5016
  O  O141  1  0.839370  0.102000  0.576600  1.0  -0.5696
  O  O142  1  0.729970  0.974600  0.496800  1.0  -0.5021
  O  O143  1  0.506030  0.474600  0.898000  1.0  -0.5674
  O  O144  1  0.396630  0.522200  0.025400  1.0  -0.5019
  O  O145  1  0.672700  0.576600  0.474600  1.0  -0.5677
  O  O146  1  0.563300  0.496800  0.522200  1.0  -0.5003
  O  O147  1  0.339370  0.898000  0.423400  1.0  -0.5683
  O  O148  1  0.229970  0.025400  0.503200  1.0  -0.5022
  O  O149  1  0.006030  0.525400  0.102000  1.0  -0.5672
  O  O150  1  0.896630  0.477800  0.974600  1.0  -0.5018
