# generated using pymatgen
data_ZnH11C9Br(NO)2
_symmetry_space_group_name_H-M   'P 1'
_cell_length_a   10.17160000
_cell_length_b   17.74400000
_cell_length_c   17.74400000
_cell_angle_alpha   120.00000000
_cell_angle_beta   90.00000000
_cell_angle_gamma   90.00000000
_symmetry_Int_Tables_number   1
_chemical_formula_structural   ZnH11C9Br(NO)2
_chemical_formula_sum   'Zn6 H66 C54 Br6 N12 O12'
_cell_volume   2773.46674218
_cell_formula_units_Z   6
loop_
 _symmetry_equiv_pos_site_id
 _symmetry_equiv_pos_as_xyz
  1  'x, y, z'
loop_
 _atom_site_type_symbol
 _atom_site_label
 _atom_site_symmetry_multiplicity
 _atom_site_fract_x
 _atom_site_fract_y
 _atom_site_fract_z
 _atom_site_occupancy
 _atom_site_charge
  Zn  Zn1  1  0.868110  0.531630  0.456100  1.0  0.737
  Zn  Zn2  1  0.534780  0.924470  0.468370  1.0  0.7427
  Zn  Zn3  1  0.201440  0.543900  0.075530  1.0  0.7456
  Zn  Zn4  1  0.368110  0.468370  0.543900  1.0  0.7395
  Zn  Zn5  1  0.034780  0.075530  0.531630  1.0  0.7412
  Zn  Zn6  1  0.701440  0.456100  0.924470  1.0  0.7457
  H  H7  1  0.969400  0.449500  0.522300  1.0  0.2629
  H  H8  1  0.944100  0.350700  0.379000  1.0  0.1091
  H  H9  1  0.795600  0.343700  0.398300  1.0  0.0884
  H  H10  1  0.771400  0.404400  0.564400  1.0  0.0771
  H  H11  1  0.813700  0.110500  0.439800  1.0  0.0759
  H  H12  1  0.092000  0.333200  0.495800  1.0  0.1193
  H  H13  1  0.753000  0.210300  0.399000  1.0  0.1393
  H  H14  1  0.144200  0.230100  0.534900  1.0  0.0886
  H  H15  1  0.921900  0.505600  0.666667  1.0  0.108
  H  H16  1  0.777300  0.535300  0.697900  1.0  0.1294
  H  H17  1  0.858000  0.580100  0.655800  1.0  0.1084
  H  H18  1  0.636070  0.072800  0.550500  1.0  0.263
  H  H19  1  0.610770  0.028300  0.649300  1.0  0.1105
  H  H20  1  0.462270  0.054600  0.656300  1.0  0.0882
  H  H21  1  0.438070  0.160000  0.595600  1.0  0.0768
  H  H22  1  0.480370  0.329300  0.889500  1.0  0.0754
  H  H23  1  0.758670  0.162600  0.666800  1.0  0.1193
  H  H24  1  0.419670  0.188700  0.789700  1.0  0.1391
  H  H25  1  0.810870  0.304800  0.769900  1.0  0.0893
  H  H26  1  0.588570  0.161000  0.494400  1.0  0.1108
  H  H27  1  0.443970  0.162600  0.464700  1.0  0.1301
  H  H28  1  0.524670  0.075700  0.419900  1.0  0.1099
  H  H29  1  0.302730  0.477700  0.927200  1.0  0.2635
  H  H30  1  0.277430  0.621000  0.971700  1.0  0.1075
  H  H31  1  0.128930  0.601700  0.945400  1.0  0.0885
  H  H32  1  0.104730  0.435600  0.840000  1.0  0.0761
  H  H33  1  0.147030  0.560200  0.670700  1.0  0.0753
  H  H34  1  0.425330  0.504200  0.837400  1.0  0.1183
  H  H35  1  0.086330  0.601000  0.811300  1.0  0.1373
  H  H36  1  0.477530  0.465100  0.695200  1.0  0.0895
  H  H37  1  0.255230  0.333400  0.839000  1.0  0.1093
  H  H38  1  0.110630  0.302100  0.837400  1.0  0.1302
  H  H39  1  0.191330  0.344200  0.924300  1.0  0.1099
  H  H40  1  0.469400  0.550500  0.477700  1.0  0.2631
  H  H41  1  0.444100  0.649300  0.621000  1.0  0.1093
  H  H42  1  0.295600  0.656300  0.601700  1.0  0.0877
  H  H43  1  0.271400  0.595600  0.435600  1.0  0.0778
  H  H44  1  0.313700  0.889500  0.560200  1.0  0.0764
  H  H45  1  0.592000  0.666800  0.504200  1.0  0.1188
  H  H46  1  0.253000  0.789700  0.601000  1.0  0.139
  H  H47  1  0.644200  0.769900  0.465100  1.0  0.0891
  H  H48  1  0.421900  0.494400  0.333400  1.0  0.1092
  H  H49  1  0.277300  0.464700  0.302100  1.0  0.1294
  H  H50  1  0.358000  0.419900  0.344200  1.0  0.1079
  H  H51  1  0.136070  0.927200  0.449500  1.0  0.2626
  H  H52  1  0.110770  0.971700  0.350700  1.0  0.1096
  H  H53  1  0.962270  0.945400  0.343700  1.0  0.0881
  H  H54  1  0.938070  0.840000  0.404400  1.0  0.0766
  H  H55  1  0.980370  0.670700  0.110500  1.0  0.0752
  H  H56  1  0.258670  0.837400  0.333200  1.0  0.1187
  H  H57  1  0.919670  0.811300  0.210300  1.0  0.1393
  H  H58  1  0.310870  0.695200  0.230100  1.0  0.089
  H  H59  1  0.088570  0.839000  0.505600  1.0  0.1101
  H  H60  1  0.943970  0.837400  0.535300  1.0  0.1314
  H  H61  1  0.024670  0.924300  0.580100  1.0  0.1098
  H  H62  1  0.802730  0.522300  0.072800  1.0  0.2633
  H  H63  1  0.777430  0.379000  0.028300  1.0  0.1073
  H  H64  1  0.628930  0.398300  0.054600  1.0  0.0897
  H  H65  1  0.604730  0.564400  0.160000  1.0  0.0757
  H  H66  1  0.647030  0.439800  0.329300  1.0  0.0756
  H  H67  1  0.925330  0.495800  0.162600  1.0  0.1192
  H  H68  1  0.586330  0.399000  0.188700  1.0  0.1367
  H  H69  1  0.977530  0.534900  0.304800  1.0  0.0895
  H  H70  1  0.755230  0.666667  0.161000  1.0  0.1092
  H  H71  1  0.610630  0.697900  0.162600  1.0  0.1298
  H  H72  1  0.691330  0.655800  0.075700  1.0  0.1097
  C  C73  1  0.917400  0.285000  0.445000  1.0  0.1119
  C  C74  1  0.664100  0.492300  0.544600  1.0  0.6309
  C  C75  1  0.883400  0.354500  0.423000  1.0  -0.0227
  C  C76  1  0.790400  0.458700  0.564800  1.0  0.0247
  C  C77  1  0.870100  0.156400  0.451900  1.0  0.1569
  C  C78  1  0.032800  0.288800  0.484300  1.0  -0.2002
  C  C79  1  0.832800  0.216100  0.427000  1.0  -0.2205
  C  C80  1  0.064300  0.226400  0.507700  1.0  0.1779
  C  C81  1  0.841700  0.526200  0.654600  1.0  -0.3273
  C  C82  1  0.584070  0.160000  0.715000  1.0  0.1165
  C  C83  1  0.330770  0.052300  0.507700  1.0  0.6309
  C  C84  1  0.550070  0.068500  0.645500  1.0  -0.0221
  C  C85  1  0.457070  0.106100  0.541300  1.0  0.0248
  C  C86  1  0.536770  0.295500  0.843600  1.0  0.1556
  C  C87  1  0.699470  0.195500  0.711200  1.0  -0.1988
  C  C88  1  0.499470  0.210900  0.783900  1.0  -0.2213
  C  C89  1  0.730970  0.281300  0.773600  1.0  0.1751
  C  C90  1  0.508370  0.128400  0.473800  1.0  -0.3281
  C  C91  1  0.250730  0.555000  0.840000  1.0  0.116
  C  C92  1  0.997430  0.455400  0.947700  1.0  0.6303
  C  C93  1  0.216730  0.577000  0.931500  1.0  -0.0213
  C  C94  1  0.123730  0.435200  0.893900  1.0  0.0231
  C  C95  1  0.203430  0.548100  0.704500  1.0  0.1565
  C  C96  1  0.366130  0.515700  0.804500  1.0  -0.1994
  C  C97  1  0.166130  0.573000  0.789100  1.0  -0.223
  C  C98  1  0.397630  0.492300  0.718700  1.0  0.1759
  C  C99  1  0.175030  0.345400  0.871600  1.0  -0.3264
  C  C100  1  0.417400  0.715000  0.555000  1.0  0.1135
  C  C101  1  0.164100  0.507700  0.455400  1.0  0.6313
  C  C102  1  0.383400  0.645500  0.577000  1.0  -0.0223
  C  C103  1  0.290400  0.541300  0.435200  1.0  0.024
  C  C104  1  0.370100  0.843600  0.548100  1.0  0.157
  C  C105  1  0.532800  0.711200  0.515700  1.0  -0.1998
  C  C106  1  0.332800  0.783900  0.573000  1.0  -0.2239
  C  C107  1  0.564300  0.773600  0.492300  1.0  0.1774
  C  C108  1  0.341700  0.473800  0.345400  1.0  -0.3275
  C  C109  1  0.084070  0.840000  0.285000  1.0  0.1161
  C  C110  1  0.830770  0.947700  0.492300  1.0  0.6314
  C  C111  1  0.050070  0.931500  0.354500  1.0  -0.0206
  C  C112  1  0.957070  0.893900  0.458700  1.0  0.0252
  C  C113  1  0.036770  0.704500  0.156400  1.0  0.1554
  C  C114  1  0.199470  0.804500  0.288800  1.0  -0.1978
  C  C115  1  0.999470  0.789100  0.216100  1.0  -0.2204
  C  C116  1  0.230970  0.718700  0.226400  1.0  0.1754
  C  C117  1  0.008370  0.871600  0.526200  1.0  -0.3276
  C  C118  1  0.750730  0.445000  0.160000  1.0  0.1138
  C  C119  1  0.497430  0.544600  0.052300  1.0  0.6296
  C  C120  1  0.716730  0.423000  0.068500  1.0  -0.0185
  C  C121  1  0.623730  0.564800  0.106100  1.0  0.0208
  C  C122  1  0.703430  0.451900  0.295500  1.0  0.1564
  C  C123  1  0.866130  0.484300  0.195500  1.0  -0.2005
  C  C124  1  0.666130  0.427000  0.210900  1.0  -0.2205
  C  C125  1  0.897630  0.507700  0.281300  1.0  0.1759
  C  C126  1  0.675030  0.654600  0.128400  1.0  -0.3268
  Br  Br127  1  0.898470  0.681410  0.551410  1.0  -0.5441
  Br  Br128  1  0.565140  0.870000  0.318590  1.0  -0.5438
  Br  Br129  1  0.231800  0.448590  0.130000  1.0  -0.5468
  Br  Br130  1  0.398470  0.318590  0.448590  1.0  -0.5441
  Br  Br131  1  0.065140  0.130000  0.681410  1.0  -0.5443
  Br  Br132  1  0.731800  0.551410  0.870000  1.0  -0.5464
  N  N133  1  0.888400  0.441900  0.497700  1.0  -0.3843
  N  N134  1  0.982000  0.162000  0.491900  1.0  -0.2993
  N  N135  1  0.555070  0.055800  0.558100  1.0  -0.3808
  N  N136  1  0.648670  0.329900  0.838000  1.0  -0.2966
  N  N137  1  0.221730  0.502300  0.944200  1.0  -0.385
  N  N138  1  0.315330  0.508100  0.670100  1.0  -0.2994
  N  N139  1  0.388400  0.558100  0.502300  1.0  -0.3854
  N  N140  1  0.482000  0.838000  0.508100  1.0  -0.2991
  N  N141  1  0.055070  0.944200  0.441900  1.0  -0.381
  N  N142  1  0.148670  0.670100  0.162000  1.0  -0.2971
  N  N143  1  0.721730  0.497700  0.055800  1.0  -0.3838
  N  N144  1  0.815330  0.491900  0.329900  1.0  -0.3001
  O  O145  1  0.668200  0.516900  0.489570  1.0  -0.5656
  O  O146  1  0.564300  0.494500  0.587800  1.0  -0.5896
  O  O147  1  0.334870  0.972670  0.483100  1.0  -0.5664
  O  O148  1  0.230970  0.093300  0.505500  1.0  -0.5888
  O  O149  1  0.001530  0.510430  0.027330  1.0  -0.566
  O  O150  1  0.897630  0.412200  0.906700  1.0  -0.5883
  O  O151  1  0.168200  0.483100  0.510430  1.0  -0.5651
  O  O152  1  0.064300  0.505500  0.412200  1.0  -0.5914
  O  O153  1  0.834870  0.027330  0.516900  1.0  -0.5664
  O  O154  1  0.730970  0.906700  0.494500  1.0  -0.5885
  O  O155  1  0.501530  0.489570  0.972670  1.0  -0.5658
  O  O156  1  0.397630  0.587800  0.093300  1.0  -0.5893
