# generated using pymatgen
data_ZnH10C9(NO)2
_symmetry_space_group_name_H-M   'P 1'
_cell_length_a   10.17160000
_cell_length_b   17.59110000
_cell_length_c   17.59110000
_cell_angle_alpha   120.00000000
_cell_angle_beta   90.00000000
_cell_angle_gamma   90.00000000
_symmetry_Int_Tables_number   1
_chemical_formula_structural   ZnH10C9(NO)2
_chemical_formula_sum   'Zn6 H60 C54 N12 O12'
_cell_volume   2725.87476859
_cell_formula_units_Z   6
loop_
 _symmetry_equiv_pos_site_id
 _symmetry_equiv_pos_as_xyz
  1  'x, y, z'
loop_
 _atom_site_type_symbol
 _atom_site_label
 _atom_site_symmetry_multiplicity
 _atom_site_fract_x
 _atom_site_fract_y
 _atom_site_fract_z
 _atom_site_occupancy
 _atom_site_charge
  Zn  Zn1  1  0.866460  0.456630  0.531940  1.0  0.8665
  Zn  Zn2  1  0.533130  0.075310  0.543370  1.0  0.8666
  Zn  Zn3  1  0.199790  0.468060  0.924690  1.0  0.8656
  Zn  Zn4  1  0.366460  0.543370  0.468060  1.0  0.8627
  Zn  Zn5  1  0.033130  0.924690  0.456630  1.0  0.8665
  Zn  Zn6  1  0.699790  0.531940  0.075310  1.0  0.864
  H  H7  1  0.583200  0.525300  0.223500  1.0  0.0893
  H  H8  1  0.926700  0.438200  0.110700  1.0  0.0813
  H  H9  1  0.788300  0.365700  0.346300  1.0  0.0965
  H  H10  1  0.936600  0.384400  0.336500  1.0  0.0321
  H  H11  1  0.962500  0.548500  0.387200  1.0  0.0615
  H  H12  1  0.976200  0.389700  0.205600  1.0  0.1127
  H  H13  1  0.628400  0.472300  0.319200  1.0  0.1105
  H  H14  1  0.800300  0.650400  0.490600  1.0  0.1065
  H  H15  1  0.940400  0.688100  0.491800  1.0  0.1028
  H  H16  1  0.901800  0.663900  0.563300  1.0  0.1034
  H  H17  1  0.249870  0.698200  0.474700  1.0  0.0889
  H  H18  1  0.593370  0.672500  0.561800  1.0  0.0811
  H  H19  1  0.454970  0.980600  0.634300  1.0  0.0992
  H  H20  1  0.603270  0.952100  0.615600  1.0  0.0324
  H  H21  1  0.629170  0.838700  0.451500  1.0  0.064
  H  H22  1  0.642870  0.815900  0.610300  1.0  0.1161
  H  H23  1  0.295070  0.846900  0.527700  1.0  0.111
  H  H24  1  0.466970  0.840200  0.349600  1.0  0.1054
  H  H25  1  0.607070  0.803700  0.311900  1.0  0.0983
  H  H26  1  0.568470  0.899400  0.336100  1.0  0.0998
  H  H27  1  0.916530  0.776500  0.301800  1.0  0.0891
  H  H28  1  0.260030  0.889300  0.327500  1.0  0.0811
  H  H29  1  0.121630  0.653700  0.019400  1.0  0.0976
  H  H30  1  0.269930  0.663500  0.047900  1.0  0.0317
  H  H31  1  0.295830  0.612800  0.161300  1.0  0.0631
  H  H32  1  0.309530  0.794400  0.184100  1.0  0.1179
  H  H33  1  0.961730  0.680800  0.153100  1.0  0.111
  H  H34  1  0.133630  0.509400  0.159800  1.0  0.1056
  H  H35  1  0.273730  0.508200  0.196300  1.0  0.1068
  H  H36  1  0.235130  0.436700  0.100600  1.0  0.0934
  H  H37  1  0.083200  0.474700  0.776500  1.0  0.0894
  H  H38  1  0.426700  0.561800  0.889300  1.0  0.0817
  H  H39  1  0.288300  0.634300  0.653700  1.0  0.0969
  H  H40  1  0.436600  0.615600  0.663500  1.0  0.0327
  H  H41  1  0.462500  0.451500  0.612800  1.0  0.0616
  H  H42  1  0.476200  0.610300  0.794400  1.0  0.1133
  H  H43  1  0.128400  0.527700  0.680800  1.0  0.111
  H  H44  1  0.300300  0.349600  0.509400  1.0  0.1057
  H  H45  1  0.440400  0.311900  0.508200  1.0  0.1035
  H  H46  1  0.401800  0.336100  0.436700  1.0  0.0986
  H  H47  1  0.749870  0.301800  0.525300  1.0  0.0887
  H  H48  1  0.093370  0.327500  0.438200  1.0  0.0812
  H  H49  1  0.954970  0.019400  0.365700  1.0  0.0979
  H  H50  1  0.103270  0.047900  0.384400  1.0  0.0335
  H  H51  1  0.129170  0.161300  0.548500  1.0  0.0636
  H  H52  1  0.142870  0.184100  0.389700  1.0  0.1167
  H  H53  1  0.795070  0.153100  0.472300  1.0  0.1104
  H  H54  1  0.966970  0.159800  0.650400  1.0  0.1056
  H  H55  1  0.107070  0.196300  0.688100  1.0  0.0998
  H  H56  1  0.068470  0.100600  0.663900  1.0  0.1021
  H  H57  1  0.416530  0.223500  0.698200  1.0  0.0887
  H  H58  1  0.760030  0.110700  0.672500  1.0  0.0811
  H  H59  1  0.621630  0.346300  0.980600  1.0  0.0979
  H  H60  1  0.769930  0.336500  0.952100  1.0  0.0337
  H  H61  1  0.795830  0.387200  0.838700  1.0  0.0634
  H  H62  1  0.809530  0.205600  0.815900  1.0  0.1165
  H  H63  1  0.461730  0.319200  0.846900  1.0  0.1111
  H  H64  1  0.633630  0.490600  0.840200  1.0  0.1055
  H  H65  1  0.773730  0.491800  0.803700  1.0  0.1022
  H  H66  1  0.735130  0.563300  0.899400  1.0  0.098
  C  C67  1  0.662600  0.497000  0.218800  1.0  0.1366
  C  C68  1  0.865500  0.446000  0.153300  1.0  0.154
  C  C69  1  0.848700  0.409000  0.347500  1.0  0.0401
  C  C70  1  0.942100  0.556700  0.445300  1.0  0.064
  C  C71  1  0.896400  0.417900  0.211200  1.0  -0.2356
  C  C72  1  0.067000  0.540100  0.484000  1.0  0.6467
  C  C73  1  0.691600  0.467000  0.278600  1.0  -0.1921
  C  C74  1  0.811400  0.430600  0.277300  1.0  0.1503
  C  C75  1  0.891600  0.647900  0.502900  1.0  -0.3159
  C  C76  1  0.329270  0.721800  0.503000  1.0  0.1368
  C  C77  1  0.532170  0.707300  0.554000  1.0  0.1532
  C  C78  1  0.515370  0.938500  0.591000  1.0  0.0347
  C  C79  1  0.608770  0.888600  0.443300  1.0  0.067
  C  C80  1  0.563070  0.793300  0.582100  1.0  -0.2331
  C  C81  1  0.733670  0.943900  0.459900  1.0  0.6461
  C  C82  1  0.358270  0.811600  0.533000  1.0  -0.1919
  C  C83  1  0.478070  0.846700  0.569400  1.0  0.1501
  C  C84  1  0.558270  0.855000  0.352100  1.0  -0.3148
  C  C85  1  0.995930  0.781200  0.278200  1.0  0.1385
  C  C86  1  0.198830  0.846700  0.292700  1.0  0.1534
  C  C87  1  0.182030  0.652500  0.061500  1.0  0.0422
  C  C88  1  0.275430  0.554700  0.111400  1.0  0.0679
  C  C89  1  0.229730  0.788800  0.206700  1.0  -0.2338
  C  C90  1  0.400330  0.516000  0.056100  1.0  0.6463
  C  C91  1  0.024930  0.721400  0.188400  1.0  -0.1922
  C  C92  1  0.144730  0.722700  0.153300  1.0  0.1487
  C  C93  1  0.224930  0.497100  0.145000  1.0  -0.3159
  C  C94  1  0.162600  0.503000  0.781200  1.0  0.1365
  C  C95  1  0.365500  0.554000  0.846700  1.0  0.1547
  C  C96  1  0.348700  0.591000  0.652500  1.0  0.0391
  C  C97  1  0.442100  0.443300  0.554700  1.0  0.0624
  C  C98  1  0.396400  0.582100  0.788800  1.0  -0.2304
  C  C99  1  0.567000  0.459900  0.516000  1.0  0.6465
  C  C100  1  0.191600  0.533000  0.721400  1.0  -0.1925
  C  C101  1  0.311400  0.569400  0.722700  1.0  0.1497
  C  C102  1  0.391600  0.352100  0.497100  1.0  -0.3165
  C  C103  1  0.829270  0.278200  0.497000  1.0  0.1365
  C  C104  1  0.032170  0.292700  0.446000  1.0  0.1526
  C  C105  1  0.015370  0.061500  0.409000  1.0  0.0371
  C  C106  1  0.108770  0.111400  0.556700  1.0  0.0672
  C  C107  1  0.063070  0.206700  0.417900  1.0  -0.2329
  C  C108  1  0.233670  0.056100  0.540100  1.0  0.6457
  C  C109  1  0.858270  0.188400  0.467000  1.0  -0.1921
  C  C110  1  0.978070  0.153300  0.430600  1.0  0.1491
  C  C111  1  0.058270  0.145000  0.647900  1.0  -0.3157
  C  C112  1  0.495930  0.218800  0.721800  1.0  0.1379
  C  C113  1  0.698830  0.153300  0.707300  1.0  0.1535
  C  C114  1  0.682030  0.347500  0.938500  1.0  0.0399
  C  C115  1  0.775430  0.445300  0.888600  1.0  0.0665
  C  C116  1  0.729730  0.211200  0.793300  1.0  -0.2357
  C  C117  1  0.900330  0.484000  0.943900  1.0  0.6469
  C  C118  1  0.524930  0.278600  0.811600  1.0  -0.1932
  C  C119  1  0.644730  0.277300  0.846700  1.0  0.1476
  C  C120  1  0.724930  0.502900  0.855000  1.0  -0.3162
  N  N121  1  0.844000  0.490200  0.435600  1.0  -0.6809
  N  N122  1  0.748100  0.485000  0.156100  1.0  -0.3469
  N  N123  1  0.510670  0.945400  0.509800  1.0  -0.6789
  N  N124  1  0.414770  0.671100  0.515000  1.0  -0.3471
  N  N125  1  0.177330  0.564400  0.054600  1.0  -0.6799
  N  N126  1  0.081430  0.843900  0.328900  1.0  -0.3481
  N  N127  1  0.344000  0.509800  0.564400  1.0  -0.6801
  N  N128  1  0.248100  0.515000  0.843900  1.0  -0.348
  N  N129  1  0.010670  0.054600  0.490200  1.0  -0.6797
  N  N130  1  0.914770  0.328900  0.485000  1.0  -0.3453
  N  N131  1  0.677330  0.435600  0.945400  1.0  -0.6784
  N  N132  1  0.581430  0.156100  0.671100  1.0  -0.3476
  O  O133  1  0.060800  0.496900  0.522400  1.0  -0.5543
  O  O134  1  0.170200  0.576500  0.474600  1.0  -0.6289
  O  O135  1  0.727470  0.025500  0.503100  1.0  -0.5555
  O  O136  1  0.836870  0.898100  0.423500  1.0  -0.6292
  O  O137  1  0.394130  0.477600  0.974500  1.0  -0.5565
  O  O138  1  0.503530  0.525400  0.101900  1.0  -0.6291
  O  O139  1  0.560800  0.503100  0.477600  1.0  -0.5556
  O  O140  1  0.670200  0.423500  0.525400  1.0  -0.629
  O  O141  1  0.227470  0.974500  0.496900  1.0  -0.5564
  O  O142  1  0.336870  0.101900  0.576500  1.0  -0.6293
  O  O143  1  0.894130  0.522400  0.025500  1.0  -0.5554
  O  O144  1  0.003530  0.474600  0.898100  1.0  -0.6292
