# generated using pymatgen
data_ZnH10C9(NO)2
_symmetry_space_group_name_H-M   'P 1'
_cell_length_a   10.14860000
_cell_length_b   17.58060000
_cell_length_c   17.58060000
_cell_angle_alpha   120.00000000
_cell_angle_beta   90.00000000
_cell_angle_gamma   90.00000000
_symmetry_Int_Tables_number   1
_chemical_formula_structural   ZnH10C9(NO)2
_chemical_formula_sum   'Zn6 H60 C54 N12 O12'
_cell_volume   2716.46524385
_cell_formula_units_Z   6
loop_
 _symmetry_equiv_pos_site_id
 _symmetry_equiv_pos_as_xyz
  1  'x, y, z'
loop_
 _atom_site_type_symbol
 _atom_site_label
 _atom_site_symmetry_multiplicity
 _atom_site_fract_x
 _atom_site_fract_y
 _atom_site_fract_z
 _atom_site_occupancy
 _atom_site_charge
  Zn  Zn1  1  0.960180  0.466850  0.926330  1.0  0.8622
  Zn  Zn2  1  0.626850  0.459480  0.533150  1.0  0.8691
  Zn  Zn3  1  0.293510  0.073670  0.540520  1.0  0.8712
  Zn  Zn4  1  0.460180  0.533150  0.073670  1.0  0.8703
  Zn  Zn5  1  0.126850  0.540520  0.466850  1.0  0.8694
  Zn  Zn6  1  0.793510  0.926330  0.459480  1.0  0.87
  H  H7  1  0.016700  0.891900  0.326500  1.0  0.081
  H  H8  1  0.673000  0.780000  0.304500  1.0  0.0833
  H  H9  1  0.066700  0.796600  0.186200  1.0  0.1188
  H  H10  1  0.722800  0.675800  0.160700  1.0  0.1144
  H  H11  1  0.952000  0.537400  0.206100  1.0  0.1098
  H  H12  1  0.060600  0.468200  0.150800  1.0  0.1035
  H  H13  1  0.920900  0.462300  0.110200  1.0  0.1117
  H  H14  1  0.870900  0.655500  0.021000  1.0  0.0881
  H  H15  1  0.021100  0.666900  0.046300  1.0  0.033
  H  H16  1  0.054700  0.619700  0.161100  1.0  0.061
  H  H17  1  0.683370  0.434600  0.108100  1.0  0.0818
  H  H18  1  0.339670  0.524500  0.220000  1.0  0.083
  H  H19  1  0.733370  0.389600  0.203400  1.0  0.1196
  H  H20  1  0.389470  0.484900  0.324200  1.0  0.1136
  H  H21  1  0.618670  0.668700  0.462600  1.0  0.1084
  H  H22  1  0.727270  0.682600  0.531800  1.0  0.1018
  H  H23  1  0.587570  0.647900  0.537700  1.0  0.1101
  H  H24  1  0.537570  0.365500  0.344500  1.0  0.0872
  H  H25  1  0.687770  0.379400  0.333100  1.0  0.0325
  H  H26  1  0.721370  0.541400  0.380300  1.0  0.0603
  H  H27  1  0.350030  0.673500  0.565400  1.0  0.0817
  H  H28  1  0.006330  0.695500  0.475500  1.0  0.0835
  H  H29  1  0.400030  0.813800  0.610400  1.0  0.119
  H  H30  1  0.056130  0.839300  0.515100  1.0  0.1155
  H  H31  1  0.285330  0.793900  0.331300  1.0  0.1093
  H  H32  1  0.393930  0.849200  0.317400  1.0  0.1013
  H  H33  1  0.254230  0.889800  0.352100  1.0  0.1113
  H  H34  1  0.204230  0.979000  0.634500  1.0  0.0944
  H  H35  1  0.354430  0.953700  0.620600  1.0  0.0334
  H  H36  1  0.388030  0.838900  0.458600  1.0  0.062
  H  H37  1  0.516700  0.108100  0.673500  1.0  0.0818
  H  H38  1  0.173000  0.220000  0.695500  1.0  0.0833
  H  H39  1  0.566700  0.203400  0.813800  1.0  0.1182
  H  H40  1  0.222800  0.324200  0.839300  1.0  0.1131
  H  H41  1  0.452000  0.462600  0.793900  1.0  0.1118
  H  H42  1  0.560600  0.531800  0.849200  1.0  0.1031
  H  H43  1  0.420900  0.537700  0.889800  1.0  0.1114
  H  H44  1  0.370900  0.344500  0.979000  1.0  0.103
  H  H45  1  0.521100  0.333100  0.953700  1.0  0.0328
  H  H46  1  0.554700  0.380300  0.838900  1.0  0.0615
  H  H47  1  0.183370  0.565400  0.891900  1.0  0.0818
  H  H48  1  0.839670  0.475500  0.780000  1.0  0.0834
  H  H49  1  0.233370  0.610400  0.796600  1.0  0.1195
  H  H50  1  0.889470  0.515100  0.675800  1.0  0.1147
  H  H51  1  0.118670  0.331300  0.537400  1.0  0.1085
  H  H52  1  0.227270  0.317400  0.468200  1.0  0.1031
  H  H53  1  0.087570  0.352100  0.462300  1.0  0.1087
  H  H54  1  0.037570  0.634500  0.655500  1.0  0.0877
  H  H55  1  0.187770  0.620600  0.666900  1.0  0.0336
  H  H56  1  0.221370  0.458600  0.619700  1.0  0.0606
  H  H57  1  0.850030  0.326500  0.434600  1.0  0.0817
  H  H58  1  0.506330  0.304500  0.524500  1.0  0.083
  H  H59  1  0.900030  0.186200  0.389600  1.0  0.1197
  H  H60  1  0.556130  0.160700  0.484900  1.0  0.1145
  H  H61  1  0.785330  0.206100  0.668700  1.0  0.1092
  H  H62  1  0.893930  0.150800  0.682600  1.0  0.1021
  H  H63  1  0.754230  0.110200  0.647900  1.0  0.1112
  H  H64  1  0.704230  0.021000  0.365500  1.0  0.0929
  H  H65  1  0.854430  0.046300  0.379400  1.0  0.0335
  H  H66  1  0.888030  0.161100  0.541400  1.0  0.0615
  C  C67  1  0.956300  0.848100  0.292800  1.0  0.1638
  C  C68  1  0.754000  0.782500  0.281200  1.0  0.1541
  C  C69  1  0.986500  0.791300  0.208700  1.0  -0.2407
  C  C70  1  0.900300  0.724900  0.154800  1.0  0.1446
  C  C71  1  0.782800  0.720400  0.193400  1.0  -0.1984
  C  C72  1  0.987700  0.501600  0.148200  1.0  -0.3193
  C  C73  1  0.159800  0.520900  0.058600  1.0  0.6493
  C  C74  1  0.934900  0.655000  0.061800  1.0  0.041
  C  C75  1  0.035300  0.560900  0.112200  1.0  0.0618
  C  C76  1  0.622970  0.444700  0.151900  1.0  0.1665
  C  C77  1  0.420670  0.498700  0.217500  1.0  0.1502
  C  C78  1  0.653170  0.417400  0.208700  1.0  -0.2405
  C  C79  1  0.566970  0.429900  0.275100  1.0  0.146
  C  C80  1  0.449470  0.473000  0.279600  1.0  -0.1962
  C  C81  1  0.654370  0.646600  0.498400  1.0  -0.3199
  C  C82  1  0.826470  0.537700  0.479100  1.0  0.6502
  C  C83  1  0.601570  0.406800  0.345000  1.0  0.038
  C  C84  1  0.701970  0.551300  0.439100  1.0  0.0569
  C  C85  1  0.289630  0.707200  0.555300  1.0  0.1631
  C  C86  1  0.087330  0.718800  0.501300  1.0  0.151
  C  C87  1  0.319830  0.791300  0.582600  1.0  -0.2403
  C  C88  1  0.233630  0.845200  0.570100  1.0  0.1474
  C  C89  1  0.116130  0.806600  0.527000  1.0  -0.1968
  C  C90  1  0.321030  0.851800  0.353400  1.0  -0.3186
  C  C91  1  0.493130  0.941400  0.462300  1.0  0.648
  C  C92  1  0.268230  0.938200  0.593200  1.0  0.0359
  C  C93  1  0.368630  0.887800  0.448700  1.0  0.0589
  C  C94  1  0.456300  0.151900  0.707200  1.0  0.1655
  C  C95  1  0.254000  0.217500  0.718800  1.0  0.1519
  C  C96  1  0.486500  0.208700  0.791300  1.0  -0.2328
  C  C97  1  0.400300  0.275100  0.845200  1.0  0.1427
  C  C98  1  0.282800  0.279600  0.806600  1.0  -0.1982
  C  C99  1  0.487700  0.498400  0.851800  1.0  -0.3207
  C  C100  1  0.659800  0.479100  0.941400  1.0  0.6497
  C  C101  1  0.434900  0.345000  0.938200  1.0  0.0376
  C  C102  1  0.535300  0.439100  0.887800  1.0  0.059
  C  C103  1  0.122970  0.555300  0.848100  1.0  0.1661
  C  C104  1  0.920670  0.501300  0.782500  1.0  0.1525
  C  C105  1  0.153170  0.582600  0.791300  1.0  -0.2411
  C  C106  1  0.066970  0.570100  0.724900  1.0  0.1456
  C  C107  1  0.949470  0.527000  0.720400  1.0  -0.1961
  C  C108  1  0.154370  0.353400  0.501600  1.0  -0.3193
  C  C109  1  0.326470  0.462300  0.520900  1.0  0.6497
  C  C110  1  0.101570  0.593200  0.655000  1.0  0.0333
  C  C111  1  0.201970  0.448700  0.560900  1.0  0.0554
  C  C112  1  0.789630  0.292800  0.444700  1.0  0.1629
  C  C113  1  0.587330  0.281200  0.498700  1.0  0.1519
  C  C114  1  0.819830  0.208700  0.417400  1.0  -0.2409
  C  C115  1  0.733630  0.154800  0.429900  1.0  0.1456
  C  C116  1  0.616130  0.193400  0.473000  1.0  -0.1977
  C  C117  1  0.821030  0.148200  0.646600  1.0  -0.3195
  C  C118  1  0.993130  0.058600  0.537700  1.0  0.6479
  C  C119  1  0.768230  0.061800  0.406800  1.0  0.0326
  C  C120  1  0.868630  0.112200  0.551300  1.0  0.06
  N  N121  1  0.935000  0.566800  0.055800  1.0  -0.672
  N  N122  1  0.840000  0.844800  0.331900  1.0  -0.3591
  N  N123  1  0.601670  0.489000  0.433200  1.0  -0.673
  N  N124  1  0.506670  0.487100  0.155200  1.0  -0.3584
  N  N125  1  0.268330  0.944200  0.511000  1.0  -0.6713
  N  N126  1  0.173330  0.668100  0.512900  1.0  -0.3581
  N  N127  1  0.435000  0.433200  0.944200  1.0  -0.6722
  N  N128  1  0.340000  0.155200  0.668100  1.0  -0.3596
  N  N129  1  0.101670  0.511000  0.566800  1.0  -0.6731
  N  N130  1  0.006670  0.512900  0.844800  1.0  -0.3597
  N  N131  1  0.768330  0.055800  0.489000  1.0  -0.6715
  N  N132  1  0.673330  0.331900  0.487100  1.0  -0.3563
  O  O133  1  0.154600  0.479900  0.976700  1.0  -0.5616
  O  O134  1  0.263600  0.531800  0.104300  1.0  -0.6356
  O  O135  1  0.821270  0.496800  0.520100  1.0  -0.5596
  O  O136  1  0.930270  0.572500  0.468200  1.0  -0.6349
  O  O137  1  0.487930  0.023300  0.503200  1.0  -0.5607
  O  O138  1  0.596930  0.895700  0.427500  1.0  -0.6347
  O  O139  1  0.654600  0.520100  0.023300  1.0  -0.5608
  O  O140  1  0.763600  0.468200  0.895700  1.0  -0.6347
  O  O141  1  0.321270  0.503200  0.479900  1.0  -0.5601
  O  O142  1  0.430270  0.427500  0.531800  1.0  -0.6347
  O  O143  1  0.987930  0.976700  0.496800  1.0  -0.5598
  O  O144  1  0.096930  0.104300  0.572500  1.0  -0.6356
