# generated using pymatgen
data_ZnH32C22(NO)4
_symmetry_space_group_name_H-M   'P 1'
_cell_length_a   25.11700000
_cell_length_b   5.78020000
_cell_length_c   21.99300000
_cell_angle_alpha   90.00000000
_cell_angle_beta   120.74400000
_cell_angle_gamma   90.00000000
_symmetry_Int_Tables_number   1
_chemical_formula_structural   ZnH32C22(NO)4
_chemical_formula_sum   'Zn4 H128 C88 N16 O16'
_cell_volume   2744.23152378
_cell_formula_units_Z   4
loop_
 _symmetry_equiv_pos_site_id
 _symmetry_equiv_pos_as_xyz
  1  'x, y, z'
loop_
 _atom_site_type_symbol
 _atom_site_label
 _atom_site_symmetry_multiplicity
 _atom_site_fract_x
 _atom_site_fract_y
 _atom_site_fract_z
 _atom_site_occupancy
 _atom_site_charge
  Zn  Zn1  1  0.500000  0.169000  0.000000  1.0  0.8448
  Zn  Zn2  1  0.000000  0.669000  0.000000  1.0  0.8448
  Zn  Zn3  1  0.500000  0.450900  0.500000  1.0  0.8473
  Zn  Zn4  1  0.000000  0.950900  0.500000  1.0  0.8473
  H  H5  1  0.546300  0.516500  0.399700  1.0  0.0792
  H  H6  1  0.546200  0.329000  0.308900  1.0  0.0962
  H  H7  1  0.438400  0.838100  0.316900  1.0  0.0849
  H  H8  1  0.444900  0.016700  0.412100  1.0  0.0533
  H  H9  1  0.494800  0.793000  0.242900  1.0  0.0775
  H  H10  1  0.514800  0.029700  0.225600  1.0  0.0716
  H  H11  1  0.433000  0.727900  0.116600  1.0  0.0672
  H  H12  1  0.325400  0.785500  0.069800  1.0  0.0519
  H  H13  1  0.338500  0.804700  0.952000  1.0  0.088
  H  H14  1  0.296900  0.637700  0.966400  1.0  0.0812
  H  H15  1  0.368600  0.596400  0.004400  1.0  0.0939
  H  H16  1  0.330600  0.180100  0.998200  1.0  0.0884
  H  H17  1  0.317100  0.185500  0.060300  1.0  0.0844
  H  H18  1  0.269500  0.069900  0.988000  1.0  0.0706
  H  H19  1  0.117000  0.977500  0.079400  1.0  0.052
  H  H20  1  0.214300  0.978800  0.178500  1.0  0.1029
  H  H21  1  0.180400  0.349100  0.223100  1.0  0.0927
  H  H22  1  0.083900  0.367000  0.126000  1.0  0.0656
  H  H23  1  0.293900  0.801100  0.277500  1.0  0.0562
  H  H24  1  0.295300  0.529400  0.277400  1.0  0.0652
  H  H25  1  0.335300  0.897500  0.395300  1.0  0.0513
  H  H26  1  0.270700  0.870500  0.444300  1.0  0.0578
  H  H27  1  0.339200  0.020700  0.547700  1.0  0.0894
  H  H28  1  0.370400  0.063800  0.502600  1.0  0.0861
  H  H29  1  0.393000  0.859200  0.557000  1.0  0.0757
  H  H30  1  0.336000  0.468600  0.514100  1.0  0.0813
  H  H31  1  0.264700  0.484200  0.459500  1.0  0.0837
  H  H32  1  0.292600  0.602700  0.533800  1.0  0.0814
  H  H33  1  0.392400  0.919100  0.179400  1.0  0.2039
  H  H34  1  0.411000  0.138300  0.163300  1.0  0.1647
  H  H35  1  0.259000  0.513600  0.350300  1.0  0.1877
  H  H36  1  0.233700  0.746800  0.334400  1.0  0.1937
  H  H37  1  0.046300  0.016500  0.399700  1.0  0.0792
  H  H38  1  0.046200  0.829000  0.308900  1.0  0.0962
  H  H39  1  0.938400  0.338100  0.316900  1.0  0.0849
  H  H40  1  0.944900  0.516700  0.412100  1.0  0.0533
  H  H41  1  0.994800  0.293000  0.242900  1.0  0.0775
  H  H42  1  0.014800  0.529700  0.225600  1.0  0.0716
  H  H43  1  0.933000  0.227900  0.116600  1.0  0.0672
  H  H44  1  0.825400  0.285500  0.069800  1.0  0.0519
  H  H45  1  0.838500  0.304700  0.952000  1.0  0.088
  H  H46  1  0.796900  0.137700  0.966400  1.0  0.0812
  H  H47  1  0.868600  0.096400  0.004400  1.0  0.0939
  H  H48  1  0.830600  0.680100  0.998200  1.0  0.0884
  H  H49  1  0.817100  0.685500  0.060300  1.0  0.0844
  H  H50  1  0.769500  0.569900  0.988000  1.0  0.0706
  H  H51  1  0.617000  0.477500  0.079400  1.0  0.052
  H  H52  1  0.714300  0.478800  0.178500  1.0  0.1029
  H  H53  1  0.680400  0.849100  0.223100  1.0  0.0927
  H  H54  1  0.583900  0.867000  0.126000  1.0  0.0656
  H  H55  1  0.793900  0.301100  0.277500  1.0  0.0562
  H  H56  1  0.795300  0.029400  0.277400  1.0  0.0652
  H  H57  1  0.835300  0.397500  0.395300  1.0  0.0513
  H  H58  1  0.770700  0.370500  0.444300  1.0  0.0578
  H  H59  1  0.839200  0.520700  0.547700  1.0  0.0894
  H  H60  1  0.870400  0.563800  0.502600  1.0  0.0861
  H  H61  1  0.893000  0.359200  0.557000  1.0  0.0757
  H  H62  1  0.836000  0.968600  0.514100  1.0  0.0813
  H  H63  1  0.764700  0.984200  0.459500  1.0  0.0837
  H  H64  1  0.792600  0.102700  0.533800  1.0  0.0814
  H  H65  1  0.892400  0.419100  0.179400  1.0  0.2039
  H  H66  1  0.911000  0.638300  0.163300  1.0  0.1647
  H  H67  1  0.759000  0.013600  0.350300  1.0  0.1877
  H  H68  1  0.733700  0.246800  0.334400  1.0  0.1937
  H  H69  1  0.453700  0.516500  0.600300  1.0  0.0796
  H  H70  1  0.453800  0.329000  0.691100  1.0  0.0957
  H  H71  1  0.561600  0.838100  0.683100  1.0  0.0849
  H  H72  1  0.555100  0.016700  0.587900  1.0  0.0537
  H  H73  1  0.505200  0.793000  0.757100  1.0  0.0773
  H  H74  1  0.485200  0.029700  0.774400  1.0  0.0715
  H  H75  1  0.567000  0.727900  0.883400  1.0  0.0654
  H  H76  1  0.674600  0.785500  0.930200  1.0  0.0513
  H  H77  1  0.661500  0.804700  0.048000  1.0  0.087
  H  H78  1  0.703100  0.637700  0.033600  1.0  0.082
  H  H79  1  0.631400  0.596400  0.995600  1.0  0.0933
  H  H80  1  0.669400  0.180100  0.001800  1.0  0.088
  H  H81  1  0.682900  0.185500  0.939700  1.0  0.0851
  H  H82  1  0.730500  0.069900  0.012000  1.0  0.07
  H  H83  1  0.883000  0.977500  0.920600  1.0  0.0518
  H  H84  1  0.785700  0.978800  0.821500  1.0  0.1031
  H  H85  1  0.819600  0.349100  0.776900  1.0  0.0926
  H  H86  1  0.916100  0.367000  0.874000  1.0  0.0656
  H  H87  1  0.706100  0.801100  0.722500  1.0  0.0553
  H  H88  1  0.704700  0.529400  0.722600  1.0  0.0661
  H  H89  1  0.664700  0.897500  0.604700  1.0  0.0507
  H  H90  1  0.729300  0.870500  0.555700  1.0  0.0591
  H  H91  1  0.660800  0.020700  0.452300  1.0  0.0878
  H  H92  1  0.629600  0.063800  0.497400  1.0  0.0857
  H  H93  1  0.607000  0.859200  0.443000  1.0  0.0737
  H  H94  1  0.664000  0.468600  0.485900  1.0  0.0817
  H  H95  1  0.735300  0.484200  0.540500  1.0  0.0844
  H  H96  1  0.707400  0.602700  0.466200  1.0  0.0811
  H  H97  1  0.607600  0.919100  0.820600  1.0  0.2012
  H  H98  1  0.589000  0.138300  0.836700  1.0  0.1651
  H  H99  1  0.741000  0.513600  0.649700  1.0  0.1877
  H  H100  1  0.766300  0.746800  0.665600  1.0  0.1939
  H  H101  1  0.953700  0.016500  0.600300  1.0  0.0796
  H  H102  1  0.953800  0.829000  0.691100  1.0  0.0957
  H  H103  1  0.061600  0.338100  0.683100  1.0  0.0849
  H  H104  1  0.055100  0.516700  0.587900  1.0  0.0537
  H  H105  1  0.005200  0.293000  0.757100  1.0  0.0773
  H  H106  1  0.985200  0.529700  0.774400  1.0  0.0715
  H  H107  1  0.067000  0.227900  0.883400  1.0  0.0654
  H  H108  1  0.174600  0.285500  0.930200  1.0  0.0513
  H  H109  1  0.161500  0.304700  0.048000  1.0  0.087
  H  H110  1  0.203100  0.137700  0.033600  1.0  0.082
  H  H111  1  0.131400  0.096400  0.995600  1.0  0.0933
  H  H112  1  0.169400  0.680100  0.001800  1.0  0.088
  H  H113  1  0.182900  0.685500  0.939700  1.0  0.0851
  H  H114  1  0.230500  0.569900  0.012000  1.0  0.07
  H  H115  1  0.383000  0.477500  0.920600  1.0  0.0518
  H  H116  1  0.285700  0.478800  0.821500  1.0  0.1031
  H  H117  1  0.319600  0.849100  0.776900  1.0  0.0926
  H  H118  1  0.416100  0.867000  0.874000  1.0  0.0656
  H  H119  1  0.206100  0.301100  0.722500  1.0  0.0553
  H  H120  1  0.204700  0.029400  0.722600  1.0  0.0661
  H  H121  1  0.164700  0.397500  0.604700  1.0  0.0507
  H  H122  1  0.229300  0.370500  0.555700  1.0  0.0591
  H  H123  1  0.160800  0.520700  0.452300  1.0  0.0878
  H  H124  1  0.129600  0.563800  0.497400  1.0  0.0857
  H  H125  1  0.107000  0.359200  0.443000  1.0  0.0737
  H  H126  1  0.164000  0.968600  0.485900  1.0  0.0817
  H  H127  1  0.235300  0.984200  0.540500  1.0  0.0844
  H  H128  1  0.207400  0.102700  0.466200  1.0  0.0811
  H  H129  1  0.107600  0.419100  0.820600  1.0  0.2012
  H  H130  1  0.089000  0.638300  0.836700  1.0  0.1651
  H  H131  1  0.241000  0.013600  0.649700  1.0  0.1877
  H  H132  1  0.266300  0.246800  0.665600  1.0  0.1939
  C  C133  1  0.525900  0.376000  0.384100  1.0  0.0958
  C  C134  1  0.524000  0.268000  0.328500  1.0  -0.1536
  C  C135  1  0.488700  0.062800  0.299300  1.0  0.1054
  C  C136  1  0.460900  0.975000  0.333333  1.0  -0.2113
  C  C137  1  0.465300  0.082000  0.391000  1.0  0.1639
  C  C138  1  0.484800  0.956000  0.234700  1.0  -0.0415
  C  C139  1  0.414600  0.882800  0.105600  1.0  -0.0094
  C  C140  1  0.448500  0.033600  0.078900  1.0  0.6272
  C  C141  1  0.345900  0.865000  0.047900  1.0  0.034
  C  C142  1  0.336600  0.712000  0.987100  1.0  -0.3663
  C  C143  1  0.312700  0.097000  0.021100  1.0  -0.3625
  C  C144  1  0.129200  0.850000  0.109500  1.0  0.158
  C  C145  1  0.188700  0.851000  0.168700  1.0  -0.2703
  C  C146  1  0.209700  0.660000  0.212800  1.0  0.079
  C  C147  1  0.168500  0.481000  0.195000  1.0  -0.2417
  C  C148  1  0.110100  0.493000  0.136500  1.0  0.1553
  C  C149  1  0.271800  0.663000  0.277200  1.0  -0.0042
  C  C150  1  0.323900  0.748900  0.407000  1.0  0.0179
  C  C151  1  0.377100  0.578500  0.428200  1.0  0.6013
  C  C152  1  0.310300  0.787100  0.466000  1.0  0.0447
  C  C153  1  0.357600  0.948000  0.523700  1.0  -0.3634
  C  C154  1  0.299900  0.565000  0.496200  1.0  -0.3707
  C  C155  1  0.025900  0.876000  0.384100  1.0  0.0958
  C  C156  1  0.024000  0.768000  0.328500  1.0  -0.1536
  C  C157  1  0.988700  0.562800  0.299300  1.0  0.1054
  C  C158  1  0.960900  0.475000  0.333333  1.0  -0.2113
  C  C159  1  0.965300  0.582000  0.391000  1.0  0.1639
  C  C160  1  0.984800  0.456000  0.234700  1.0  -0.0415
  C  C161  1  0.914600  0.382800  0.105600  1.0  -0.0094
  C  C162  1  0.948500  0.533600  0.078900  1.0  0.6272
  C  C163  1  0.845900  0.365000  0.047900  1.0  0.034
  C  C164  1  0.836600  0.212000  0.987100  1.0  -0.3663
  C  C165  1  0.812700  0.597000  0.021100  1.0  -0.3625
  C  C166  1  0.629200  0.350000  0.109500  1.0  0.158
  C  C167  1  0.688700  0.351000  0.168700  1.0  -0.2703
  C  C168  1  0.709700  0.160000  0.212800  1.0  0.079
  C  C169  1  0.668500  0.981000  0.195000  1.0  -0.2417
  C  C170  1  0.610100  0.993000  0.136500  1.0  0.1553
  C  C171  1  0.771800  0.163000  0.277200  1.0  -0.0042
  C  C172  1  0.823900  0.248900  0.407000  1.0  0.0179
  C  C173  1  0.877100  0.078500  0.428200  1.0  0.6013
  C  C174  1  0.810300  0.287100  0.466000  1.0  0.0447
  C  C175  1  0.857600  0.448000  0.523700  1.0  -0.3634
  C  C176  1  0.799900  0.065000  0.496200  1.0  -0.3707
  C  C177  1  0.474100  0.376000  0.615900  1.0  0.0957
  C  C178  1  0.476000  0.268000  0.671500  1.0  -0.1532
  C  C179  1  0.511300  0.062800  0.700700  1.0  0.1058
  C  C180  1  0.539100  0.975000  0.666667  1.0  -0.2123
  C  C181  1  0.534700  0.082000  0.609000  1.0  0.1628
  C  C182  1  0.515200  0.956000  0.765300  1.0  -0.0422
  C  C183  1  0.585400  0.882800  0.894400  1.0  -0.0126
  C  C184  1  0.551500  0.033600  0.921100  1.0  0.6241
  C  C185  1  0.654100  0.865000  0.952100  1.0  0.0341
  C  C186  1  0.663400  0.712000  0.012900  1.0  -0.3666
  C  C187  1  0.687300  0.097000  0.978900  1.0  -0.3642
  C  C188  1  0.870800  0.850000  0.890500  1.0  0.1566
  C  C189  1  0.811300  0.851000  0.831300  1.0  -0.2703
  C  C190  1  0.790300  0.660000  0.787200  1.0  0.0782
  C  C191  1  0.831500  0.481000  0.805000  1.0  -0.2436
  C  C192  1  0.889900  0.493000  0.863500  1.0  0.1546
  C  C193  1  0.728200  0.663000  0.722800  1.0  -0.0052
  C  C194  1  0.676100  0.748900  0.593000  1.0  0.017
  C  C195  1  0.622900  0.578500  0.571800  1.0  0.5999
  C  C196  1  0.689700  0.787100  0.534000  1.0  0.0447
  C  C197  1  0.642400  0.948000  0.476300  1.0  -0.3629
  C  C198  1  0.700100  0.565000  0.503800  1.0  -0.3712
  C  C199  1  0.974100  0.876000  0.615900  1.0  0.0957
  C  C200  1  0.976000  0.768000  0.671500  1.0  -0.1532
  C  C201  1  0.011300  0.562800  0.700700  1.0  0.1058
  C  C202  1  0.039100  0.475000  0.666667  1.0  -0.2123
  C  C203  1  0.034700  0.582000  0.609000  1.0  0.1628
  C  C204  1  0.015200  0.456000  0.765300  1.0  -0.0422
  C  C205  1  0.085400  0.382800  0.894400  1.0  -0.0126
  C  C206  1  0.051500  0.533600  0.921100  1.0  0.6241
  C  C207  1  0.154100  0.365000  0.952100  1.0  0.0341
  C  C208  1  0.163400  0.212000  0.012900  1.0  -0.3666
  C  C209  1  0.187300  0.597000  0.978900  1.0  -0.3642
  C  C210  1  0.370800  0.350000  0.890500  1.0  0.1566
  C  C211  1  0.311300  0.351000  0.831300  1.0  -0.2703
  C  C212  1  0.290300  0.160000  0.787200  1.0  0.0782
  C  C213  1  0.331500  0.981000  0.805000  1.0  -0.2436
  C  C214  1  0.389900  0.993000  0.863500  1.0  0.1546
  C  C215  1  0.228200  0.163000  0.722800  1.0  -0.0052
  C  C216  1  0.176100  0.248900  0.593000  1.0  0.017
  C  C217  1  0.122900  0.078500  0.571800  1.0  0.5999
  C  C218  1  0.189700  0.287100  0.534000  1.0  0.0447
  C  C219  1  0.142400  0.448000  0.476300  1.0  -0.3629
  C  C220  1  0.200100  0.065000  0.503800  1.0  -0.3712
  N  N221  1  0.497400  0.277800  0.418600  1.0  -0.3744
  N  N222  1  0.420000  0.986500  0.170700  1.0  -0.159
  N  N223  1  0.088800  0.680000  0.093500  1.0  -0.3665
  N  N224  1  0.266300  0.659500  0.342200  1.0  -0.1472
  N  N225  1  0.997400  0.777800  0.418600  1.0  -0.3744
  N  N226  1  0.920000  0.486500  0.170700  1.0  -0.159
  N  N227  1  0.588800  0.180000  0.093500  1.0  -0.3665
  N  N228  1  0.766300  0.159500  0.342200  1.0  -0.1472
  N  N229  1  0.502600  0.277800  0.581400  1.0  -0.3754
  N  N230  1  0.580000  0.986500  0.829300  1.0  -0.1599
  N  N231  1  0.911200  0.680000  0.906500  1.0  -0.3657
  N  N232  1  0.733700  0.659500  0.657800  1.0  -0.1437
  N  N233  1  0.002600  0.777800  0.581400  1.0  -0.3754
  N  N234  1  0.080000  0.486500  0.829300  1.0  -0.1599
  N  N235  1  0.411200  0.180000  0.906500  1.0  -0.3657
  N  N236  1  0.233700  0.159500  0.657800  1.0  -0.1437
  O  O237  1  0.430700  0.674800  0.468400  1.0  -0.6249
  O  O238  1  0.366900  0.377000  0.410000  1.0  -0.5488
  O  O239  1  0.466000  0.925400  0.041700  1.0  -0.5968
  O  O240  1  0.457100  0.244100  0.093600  1.0  -0.5831
  O  O241  1  0.930700  0.174800  0.468400  1.0  -0.6249
  O  O242  1  0.866900  0.877000  0.410000  1.0  -0.5488
  O  O243  1  0.966000  0.425400  0.041700  1.0  -0.5967
  O  O244  1  0.957100  0.744100  0.093600  1.0  -0.5831
  O  O245  1  0.569300  0.674800  0.531600  1.0  -0.624
  O  O246  1  0.633100  0.377000  0.590000  1.0  -0.5482
  O  O247  1  0.534000  0.925400  0.958300  1.0  -0.5995
  O  O248  1  0.542900  0.244100  0.906400  1.0  -0.5831
  O  O249  1  0.069300  0.174800  0.531600  1.0  -0.624
  O  O250  1  0.133100  0.877000  0.590000  1.0  -0.5482
  O  O251  1  0.034000  0.425400  0.958300  1.0  -0.5994
  O  O252  1  0.042900  0.744100  0.906400  1.0  -0.5831
