# generated using pymatgen
data_ZnH14C11(NO)2
_symmetry_space_group_name_H-M   'P 1'
_cell_length_a   10.34330000
_cell_length_b   17.73360000
_cell_length_c   17.73360000
_cell_angle_alpha   120.00000000
_cell_angle_beta   90.00000000
_cell_angle_gamma   90.00000000
_symmetry_Int_Tables_number   1
_chemical_formula_structural   ZnH14C11(NO)2
_chemical_formula_sum   'Zn6 H84 C66 N12 O12'
_cell_volume   2816.97874108
_cell_formula_units_Z   6
loop_
 _symmetry_equiv_pos_site_id
 _symmetry_equiv_pos_as_xyz
  1  'x, y, z'
loop_
 _atom_site_type_symbol
 _atom_site_label
 _atom_site_symmetry_multiplicity
 _atom_site_fract_x
 _atom_site_fract_y
 _atom_site_fract_z
 _atom_site_occupancy
 _atom_site_charge
  Zn  Zn1  1  0.844200  0.455530  0.928740  1.0  0.8866
  Zn  Zn2  1  0.510870  0.473210  0.544470  1.0  0.8817
  Zn  Zn3  1  0.177530  0.071260  0.526790  1.0  0.8917
  Zn  Zn4  1  0.344200  0.544470  0.071260  1.0  0.8884
  Zn  Zn5  1  0.010870  0.526790  0.455530  1.0  0.8776
  Zn  Zn6  1  0.677530  0.928740  0.473210  1.0  0.8905
  H  H7  1  0.303500  0.571400  0.676600  1.0  0.0722
  H  H8  1  0.631800  0.476000  0.696600  1.0  0.0891
  H  H9  1  0.251600  0.618000  0.819300  1.0  0.1269
  H  H10  1  0.234300  0.473300  0.845800  1.0  0.0722
  H  H11  1  0.210800  0.326300  0.806100  1.0  0.038
  H  H12  1  0.446200  0.627400  0.979900  1.0  0.0965
  H  H13  1  0.298800  0.623600  0.957100  1.0  0.0443
  H  H14  1  0.593400  0.521200  0.841100  1.0  0.1195
  H  H15  1  0.400800  0.359900  0.931200  1.0  0.1019
  H  H16  1  0.369500  0.264900  0.856900  1.0  0.0977
  H  H17  1  0.263200  0.320300  0.925400  1.0  0.0994
  H  H18  1  0.352700  0.350900  0.721500  1.0  0.1
  H  H19  1  0.410000  0.276000  0.734000  1.0  0.0942
  H  H20  1  0.465600  0.370700  0.787900  1.0  0.1006
  H  H21  1  0.970170  0.105200  0.428600  1.0  0.0727
  H  H22  1  0.298470  0.220600  0.524000  1.0  0.0879
  H  H23  1  0.918270  0.201300  0.382000  1.0  0.1287
  H  H24  1  0.900970  0.372500  0.526700  1.0  0.0721
  H  H25  1  0.877470  0.479800  0.673700  1.0  0.039
  H  H26  1  0.112870  0.352500  0.372600  1.0  0.0942
  H  H27  1  0.965470  0.333500  0.376400  1.0  0.0442
  H  H28  1  0.260070  0.319900  0.478800  1.0  0.1198
  H  H29  1  0.067470  0.571300  0.640100  1.0  0.1026
  H  H30  1  0.036170  0.592000  0.735100  1.0  0.0975
  H  H31  1  0.929870  0.605100  0.679700  1.0  0.1026
  H  H32  1  0.019370  0.370600  0.649100  1.0  0.0994
  H  H33  1  0.076670  0.458000  0.724000  1.0  0.0961
  H  H34  1  0.132270  0.417200  0.629300  1.0  0.0995
  H  H35  1  0.636830  0.323400  0.894800  1.0  0.0726
  H  H36  1  0.965130  0.303400  0.779400  1.0  0.0889
  H  H37  1  0.584930  0.180700  0.798700  1.0  0.1287
  H  H38  1  0.567630  0.154200  0.627500  1.0  0.0709
  H  H39  1  0.544130  0.193900  0.520200  1.0  0.0375
  H  H40  1  0.779530  0.020100  0.647500  1.0  0.0956
  H  H41  1  0.632130  0.042900  0.666500  1.0  0.0449
  H  H42  1  0.926730  0.158900  0.680100  1.0  0.1201
  H  H43  1  0.734130  0.068800  0.428700  1.0  0.1044
  H  H44  1  0.702830  0.143100  0.408000  1.0  0.0994
  H  H45  1  0.596530  0.074600  0.394900  1.0  0.1009
  H  H46  1  0.686030  0.278500  0.629400  1.0  0.0994
  H  H47  1  0.743330  0.266000  0.542000  1.0  0.0972
  H  H48  1  0.798930  0.212100  0.582800  1.0  0.0998
  H  H49  1  0.803500  0.428600  0.323400  1.0  0.0724
  H  H50  1  0.131800  0.524000  0.303400  1.0  0.0893
  H  H51  1  0.751600  0.382000  0.180700  1.0  0.1268
  H  H52  1  0.734300  0.526700  0.154200  1.0  0.0714
  H  H53  1  0.710800  0.673700  0.193900  1.0  0.0383
  H  H54  1  0.946200  0.372600  0.020100  1.0  0.096
  H  H55  1  0.798800  0.376400  0.042900  1.0  0.0458
  H  H56  1  0.093400  0.478800  0.158900  1.0  0.1199
  H  H57  1  0.900800  0.640100  0.068800  1.0  0.1033
  H  H58  1  0.869500  0.735100  0.143100  1.0  0.0988
  H  H59  1  0.763200  0.679700  0.074600  1.0  0.1002
  H  H60  1  0.852700  0.649100  0.278500  1.0  0.0998
  H  H61  1  0.910000  0.724000  0.266000  1.0  0.0937
  H  H62  1  0.965600  0.629300  0.212100  1.0  0.0998
  H  H63  1  0.470170  0.894800  0.571400  1.0  0.073
  H  H64  1  0.798470  0.779400  0.476000  1.0  0.088
  H  H65  1  0.418270  0.798700  0.618000  1.0  0.1283
  H  H66  1  0.400970  0.627500  0.473300  1.0  0.0718
  H  H67  1  0.377470  0.520200  0.326300  1.0  0.0389
  H  H68  1  0.612870  0.647500  0.627400  1.0  0.0942
  H  H69  1  0.465470  0.666500  0.623600  1.0  0.0436
  H  H70  1  0.760070  0.680100  0.521200  1.0  0.1195
  H  H71  1  0.567470  0.428700  0.359900  1.0  0.1025
  H  H72  1  0.536170  0.408000  0.264900  1.0  0.0971
  H  H73  1  0.429870  0.394900  0.320300  1.0  0.1002
  H  H74  1  0.519370  0.629400  0.350900  1.0  0.1011
  H  H75  1  0.576670  0.542000  0.276000  1.0  0.0965
  H  H76  1  0.632270  0.582800  0.370700  1.0  0.0995
  H  H77  1  0.136830  0.676600  0.105200  1.0  0.0706
  H  H78  1  0.465130  0.696600  0.220600  1.0  0.0885
  H  H79  1  0.084930  0.819300  0.201300  1.0  0.1288
  H  H80  1  0.067630  0.845800  0.372500  1.0  0.0722
  H  H81  1  0.044130  0.806100  0.479800  1.0  0.0398
  H  H82  1  0.279530  0.979900  0.352500  1.0  0.0966
  H  H83  1  0.132130  0.957100  0.333500  1.0  0.0435
  H  H84  1  0.426730  0.841100  0.319900  1.0  0.1204
  H  H85  1  0.234130  0.931200  0.571300  1.0  0.101
  H  H86  1  0.202830  0.856900  0.592000  1.0  0.1013
  H  H87  1  0.096530  0.925400  0.605100  1.0  0.1008
  H  H88  1  0.186030  0.721500  0.370600  1.0  0.1001
  H  H89  1  0.243330  0.734000  0.458000  1.0  0.0968
  H  H90  1  0.298930  0.787900  0.417200  1.0  0.0998
  C  C91  1  0.138900  0.467300  0.944700  1.0  0.6589
  C  C92  1  0.362300  0.561700  0.710500  1.0  0.19
  C  C93  1  0.555900  0.505800  0.722500  1.0  0.1418
  C  C94  1  0.329400  0.589300  0.796500  1.0  -0.2489
  C  C95  1  0.257100  0.453700  0.886900  1.0  -0.0337
  C  C96  1  0.290500  0.357300  0.834600  1.0  0.1119
  C  C97  1  0.379500  0.591500  0.939100  1.0  0.0223
  C  C98  1  0.414500  0.573500  0.848300  1.0  0.1379
  C  C99  1  0.532100  0.531500  0.809000  1.0  -0.1872
  C  C100  1  0.335000  0.322400  0.892200  1.0  -0.3546
  C  C101  1  0.388800  0.336800  0.762800  1.0  -0.3568
  C  C102  1  0.805570  0.477400  0.532700  1.0  0.6592
  C  C103  1  0.028970  0.148800  0.438300  1.0  0.1889
  C  C104  1  0.222570  0.216700  0.494200  1.0  0.1411
  C  C105  1  0.996070  0.207200  0.410700  1.0  -0.2476
  C  C106  1  0.923770  0.433200  0.546300  1.0  -0.0327
  C  C107  1  0.957170  0.477300  0.642700  1.0  0.1134
  C  C108  1  0.046170  0.347600  0.408500  1.0  0.0256
  C  C109  1  0.081170  0.274800  0.426500  1.0  0.1371
  C  C110  1  0.198770  0.277500  0.468500  1.0  -0.187
  C  C111  1  0.001670  0.569800  0.677600  1.0  -0.3546
  C  C112  1  0.055470  0.426000  0.663200  1.0  -0.3571
  C  C113  1  0.472230  0.055300  0.522600  1.0  0.658
  C  C114  1  0.695630  0.289500  0.851200  1.0  0.1884
  C  C115  1  0.889230  0.277500  0.783300  1.0  0.1401
  C  C116  1  0.662730  0.203500  0.792800  1.0  -0.2502
  C  C117  1  0.590430  0.113100  0.566800  1.0  -0.0319
  C  C118  1  0.623830  0.165400  0.522700  1.0  0.1125
  C  C119  1  0.712830  0.060900  0.652400  1.0  0.0117
  C  C120  1  0.747830  0.151700  0.725200  1.0  0.1398
  C  C121  1  0.865430  0.191000  0.722500  1.0  -0.1877
  C  C122  1  0.668330  0.107800  0.430200  1.0  -0.3543
  C  C123  1  0.722130  0.237200  0.574000  1.0  -0.3555
  C  C124  1  0.638900  0.532700  0.055300  1.0  0.6582
  C  C125  1  0.862300  0.438300  0.289500  1.0  0.1898
  C  C126  1  0.055900  0.494200  0.277500  1.0  0.1414
  C  C127  1  0.829400  0.410700  0.203500  1.0  -0.2491
  C  C128  1  0.757100  0.546300  0.113100  1.0  -0.0358
  C  C129  1  0.790500  0.642700  0.165400  1.0  0.1111
  C  C130  1  0.879500  0.408500  0.060900  1.0  0.0239
  C  C131  1  0.914500  0.426500  0.151700  1.0  0.1378
  C  C132  1  0.032100  0.468500  0.191000  1.0  -0.1864
  C  C133  1  0.835000  0.677600  0.107800  1.0  -0.3542
  C  C134  1  0.888800  0.663200  0.237200  1.0  -0.3568
  C  C135  1  0.305570  0.522600  0.467300  1.0  0.6601
  C  C136  1  0.528970  0.851200  0.561700  1.0  0.1875
  C  C137  1  0.722570  0.783300  0.505800  1.0  0.1414
  C  C138  1  0.496070  0.792800  0.589300  1.0  -0.2485
  C  C139  1  0.423770  0.566800  0.453700  1.0  -0.0329
  C  C140  1  0.457170  0.522700  0.357300  1.0  0.1133
  C  C141  1  0.546170  0.652400  0.591500  1.0  0.0149
  C  C142  1  0.581170  0.725200  0.573500  1.0  0.1397
  C  C143  1  0.698770  0.722500  0.531500  1.0  -0.1868
  C  C144  1  0.501670  0.430200  0.322400  1.0  -0.354
  C  C145  1  0.555470  0.574000  0.336800  1.0  -0.3558
  C  C146  1  0.972230  0.944700  0.477400  1.0  0.658
  C  C147  1  0.195630  0.710500  0.148800  1.0  0.1884
  C  C148  1  0.389230  0.722500  0.216700  1.0  0.1402
  C  C149  1  0.162730  0.796500  0.207200  1.0  -0.2459
  C  C150  1  0.090430  0.886900  0.433200  1.0  -0.0301
  C  C151  1  0.123830  0.834600  0.477300  1.0  0.1127
  C  C152  1  0.212830  0.939100  0.347600  1.0  0.0215
  C  C153  1  0.247830  0.848300  0.274800  1.0  0.1388
  C  C154  1  0.365430  0.809000  0.277500  1.0  -0.1876
  C  C155  1  0.168330  0.892200  0.569800  1.0  -0.3538
  C  C156  1  0.222130  0.762800  0.426000  1.0  -0.3555
  N  N157  1  0.470700  0.523000  0.674600  1.0  -0.36
  N  N158  1  0.365900  0.508600  0.942000  1.0  -0.6691
  N  N159  1  0.137370  0.151600  0.477000  1.0  -0.356
  N  N160  1  0.032570  0.433400  0.491400  1.0  -0.6691
  N  N161  1  0.804030  0.325400  0.848400  1.0  -0.3562
  N  N162  1  0.699230  0.058000  0.566600  1.0  -0.669
  N  N163  1  0.970700  0.477000  0.325400  1.0  -0.3583
  N  N164  1  0.865900  0.491400  0.058000  1.0  -0.6681
  N  N165  1  0.637370  0.848400  0.523000  1.0  -0.3584
  N  N166  1  0.532570  0.566600  0.508600  1.0  -0.6692
  N  N167  1  0.304030  0.674600  0.151600  1.0  -0.3546
  N  N168  1  0.199230  0.942000  0.433400  1.0  -0.6686
  O  O169  1  0.038100  0.428800  0.902600  1.0  -0.6265
  O  O170  1  0.147900  0.514700  0.025300  1.0  -0.5705
  O  O171  1  0.704770  0.473800  0.571200  1.0  -0.6265
  O  O172  1  0.814570  0.510600  0.485300  1.0  -0.5711
  O  O173  1  0.371430  0.097400  0.526200  1.0  -0.626
  O  O174  1  0.481230  0.974700  0.489400  1.0  -0.5713
  O  O175  1  0.538100  0.571200  0.097400  1.0  -0.6262
  O  O176  1  0.647900  0.485300  0.974700  1.0  -0.5712
  O  O177  1  0.204770  0.526200  0.428800  1.0  -0.6262
  O  O178  1  0.314570  0.489400  0.514700  1.0  -0.5701
  O  O179  1  0.871430  0.902600  0.473800  1.0  -0.6259
  O  O180  1  0.981230  0.025300  0.510600  1.0  -0.5707
