# generated using pymatgen
data_ZnH15C11(NO)2
_symmetry_space_group_name_H-M   'P 1'
_cell_length_a   10.39530000
_cell_length_b   17.45420000
_cell_length_c   17.45420000
_cell_angle_alpha   120.00000000
_cell_angle_beta   90.00000000
_cell_angle_gamma   90.00000000
_symmetry_Int_Tables_number   1
_chemical_formula_structural   ZnH15C11(NO)2
_chemical_formula_sum   'Zn6 H90 C66 N12 O12'
_cell_volume   2742.63210195
_cell_formula_units_Z   6
loop_
 _symmetry_equiv_pos_site_id
 _symmetry_equiv_pos_as_xyz
  1  'x, y, z'
loop_
 _atom_site_type_symbol
 _atom_site_label
 _atom_site_symmetry_multiplicity
 _atom_site_fract_x
 _atom_site_fract_y
 _atom_site_fract_z
 _atom_site_occupancy
 _atom_site_charge
  Zn  Zn1  1  0.884590  0.466620  0.928660  1.0  0.3336
  Zn  Zn2  1  0.551260  0.462040  0.533380  1.0  0.3396
  Zn  Zn3  1  0.217920  0.071340  0.537960  1.0  0.3359
  Zn  Zn4  1  0.384590  0.533380  0.071340  1.0  0.3296
  Zn  Zn5  1  0.051260  0.537960  0.466620  1.0  0.3516
  Zn  Zn6  1  0.717920  0.928660  0.462040  1.0  0.3492
  H  H7  1  0.789000  0.553400  0.081000  1.0  0.2543
  H  H8  1  0.970700  0.798800  0.179300  1.0  0.1254
  H  H9  1  0.992500  0.628600  0.157700  1.0  0.0838
  H  H10  1  0.923200  0.896400  0.326200  1.0  0.0692
  H  H11  1  0.778900  0.644500  0.021400  1.0  0.0975
  H  H12  1  0.925600  0.665000  0.043500  1.0  0.0832
  H  H13  1  0.635500  0.677800  0.159500  1.0  0.0978
  H  H14  1  0.597300  0.776800  0.306300  1.0  0.0813
  H  H15  1  0.836300  0.423400  0.070700  1.0  0.0842
  H  H16  1  0.866500  0.404300  0.147600  1.0  0.1085
  H  H17  1  0.974000  0.391900  0.079400  1.0  0.1019
  H  H18  1  0.022300  0.520700  0.198400  1.0  0.0538
  H  H19  1  0.877400  0.633300  0.281500  1.0  0.1113
  H  H20  1  0.835200  0.545800  0.278900  1.0  0.1079
  H  H21  1  0.764500  0.576500  0.219600  1.0  0.0987
  H  H22  1  0.455670  0.527600  0.446600  1.0  0.2558
  H  H23  1  0.637370  0.380500  0.201200  1.0  0.1244
  H  H24  1  0.659170  0.529100  0.371400  1.0  0.0851
  H  H25  1  0.589870  0.429800  0.103600  1.0  0.0692
  H  H26  1  0.445570  0.376900  0.355500  1.0  0.0984
  H  H27  1  0.592270  0.378500  0.335000  1.0  0.0831
  H  H28  1  0.302170  0.481700  0.322200  1.0  0.0984
  H  H29  1  0.263970  0.529500  0.223200  1.0  0.0822
  H  H30  1  0.502970  0.647300  0.576600  1.0  0.081
  H  H31  1  0.533170  0.743300  0.595700  1.0  0.1086
  H  H32  1  0.640670  0.687500  0.608100  1.0  0.1018
  H  H33  1  0.688970  0.677700  0.479300  1.0  0.0529
  H  H34  1  0.544070  0.648200  0.366700  1.0  0.1111
  H  H35  1  0.501870  0.733100  0.454200  1.0  0.1074
  H  H36  1  0.431170  0.643100  0.423500  1.0  0.0976
  H  H37  1  0.122330  0.919000  0.472400  1.0  0.255
  H  H38  1  0.304030  0.820700  0.619500  1.0  0.124
  H  H39  1  0.325830  0.842300  0.470900  1.0  0.0845
  H  H40  1  0.256530  0.673800  0.570200  1.0  0.0682
  H  H41  1  0.112230  0.978600  0.623100  1.0  0.0976
  H  H42  1  0.258930  0.956500  0.621500  1.0  0.0824
  H  H43  1  0.968830  0.840500  0.518300  1.0  0.0986
  H  H44  1  0.930630  0.693700  0.470500  1.0  0.0818
  H  H45  1  0.169630  0.929300  0.352700  1.0  0.0807
  H  H46  1  0.199830  0.852400  0.256700  1.0  0.1076
  H  H47  1  0.307330  0.920600  0.312500  1.0  0.1031
  H  H48  1  0.355630  0.801600  0.322300  1.0  0.0542
  H  H49  1  0.210730  0.718500  0.351800  1.0  0.1113
  H  H50  1  0.168530  0.721100  0.266900  1.0  0.1077
  H  H51  1  0.097830  0.780400  0.356900  1.0  0.0975
  H  H52  1  0.289000  0.446600  0.919000  1.0  0.2552
  H  H53  1  0.470700  0.201200  0.820700  1.0  0.1247
  H  H54  1  0.492500  0.371400  0.842300  1.0  0.0838
  H  H55  1  0.423200  0.103600  0.673800  1.0  0.0686
  H  H56  1  0.278900  0.355500  0.978600  1.0  0.0984
  H  H57  1  0.425600  0.335000  0.956500  1.0  0.0824
  H  H58  1  0.135500  0.322200  0.840500  1.0  0.0981
  H  H59  1  0.097300  0.223200  0.693700  1.0  0.0812
  H  H60  1  0.336300  0.576600  0.929300  1.0  0.0818
  H  H61  1  0.366500  0.595700  0.852400  1.0  0.1091
  H  H62  1  0.474000  0.608100  0.920600  1.0  0.1015
  H  H63  1  0.522300  0.479300  0.801600  1.0  0.0536
  H  H64  1  0.377400  0.366700  0.718500  1.0  0.1119
  H  H65  1  0.335200  0.454200  0.721100  1.0  0.1082
  H  H66  1  0.264500  0.423500  0.780400  1.0  0.098
  H  H67  1  0.955670  0.472400  0.553400  1.0  0.2555
  H  H68  1  0.137370  0.619500  0.798800  1.0  0.1246
  H  H69  1  0.159170  0.470900  0.628600  1.0  0.0853
  H  H70  1  0.089870  0.570200  0.896400  1.0  0.0694
  H  H71  1  0.945570  0.623100  0.644500  1.0  0.0973
  H  H72  1  0.092270  0.621500  0.665000  1.0  0.0844
  H  H73  1  0.802170  0.518300  0.677800  1.0  0.0982
  H  H74  1  0.763970  0.470500  0.776800  1.0  0.0821
  H  H75  1  0.002970  0.352700  0.423400  1.0  0.0807
  H  H76  1  0.033170  0.256700  0.404300  1.0  0.107
  H  H77  1  0.140670  0.312500  0.391900  1.0  0.1034
  H  H78  1  0.188970  0.322300  0.520700  1.0  0.0528
  H  H79  1  0.044070  0.351800  0.633300  1.0  0.112
  H  H80  1  0.001870  0.266900  0.545800  1.0  0.1088
  H  H81  1  0.931170  0.356900  0.576500  1.0  0.0982
  H  H82  1  0.622330  0.081000  0.527600  1.0  0.2546
  H  H83  1  0.804030  0.179300  0.380500  1.0  0.1242
  H  H84  1  0.825830  0.157700  0.529100  1.0  0.085
  H  H85  1  0.756530  0.326200  0.429800  1.0  0.0685
  H  H86  1  0.612230  0.021400  0.376900  1.0  0.0975
  H  H87  1  0.758930  0.043500  0.378500  1.0  0.0813
  H  H88  1  0.468830  0.159500  0.481700  1.0  0.0986
  H  H89  1  0.430630  0.306300  0.529500  1.0  0.0812
  H  H90  1  0.669630  0.070700  0.647300  1.0  0.0807
  H  H91  1  0.699830  0.147600  0.743300  1.0  0.1083
  H  H92  1  0.807330  0.079400  0.687500  1.0  0.1039
  H  H93  1  0.855630  0.198400  0.677700  1.0  0.0544
  H  H94  1  0.710730  0.281500  0.648200  1.0  0.111
  H  H95  1  0.668530  0.278900  0.733100  1.0  0.1079
  H  H96  1  0.597830  0.219600  0.643100  1.0  0.0974
  C  C97  1  0.090700  0.524900  0.057600  1.0  0.6021
  C  C98  1  0.895600  0.792000  0.204200  1.0  -0.2281
  C  C99  1  0.972300  0.566500  0.116100  1.0  -0.0968
  C  C100  1  0.865800  0.851100  0.292400  1.0  0.1138
  C  C101  1  0.812000  0.723200  0.154300  1.0  0.0618
  C  C102  1  0.846300  0.650000  0.062300  1.0  -0.0214
  C  C103  1  0.696900  0.720300  0.192800  1.0  -0.2062
  C  C104  1  0.673600  0.780700  0.280600  1.0  0.1361
  C  C105  1  0.900900  0.426700  0.111600  1.0  -0.3504
  C  C106  1  0.941700  0.522100  0.170000  1.0  0.0929
  C  C107  1  0.845800  0.574200  0.244300  1.0  -0.3621
  C  C108  1  0.757370  0.532700  0.475100  1.0  0.6017
  C  C109  1  0.562270  0.412200  0.208000  1.0  -0.2276
  C  C110  1  0.638970  0.549600  0.433500  1.0  -0.0976
  C  C111  1  0.532470  0.441300  0.148900  1.0  0.1139
  C  C112  1  0.478670  0.431100  0.276800  1.0  0.0652
  C  C113  1  0.512970  0.412300  0.350000  1.0  -0.0208
  C  C114  1  0.363570  0.472500  0.279700  1.0  -0.208
  C  C115  1  0.340270  0.499900  0.219300  1.0  0.1367
  C  C116  1  0.567570  0.684900  0.573300  1.0  -0.3502
  C  C117  1  0.608370  0.647900  0.477900  1.0  0.0919
  C  C118  1  0.512470  0.670100  0.425800  1.0  -0.3641
  C  C119  1  0.424030  0.942400  0.467300  1.0  0.602
  C  C120  1  0.228930  0.795800  0.587800  1.0  -0.2268
  C  C121  1  0.305630  0.883900  0.450400  1.0  -0.0942
  C  C122  1  0.199130  0.707600  0.558700  1.0  0.1134
  C  C123  1  0.145330  0.845700  0.568900  1.0  0.0629
  C  C124  1  0.179630  0.937700  0.587700  1.0  -0.0227
  C  C125  1  0.030230  0.807200  0.527500  1.0  -0.2058
  C  C126  1  0.006930  0.719400  0.500100  1.0  0.1362
  C  C127  1  0.234230  0.888400  0.315100  1.0  -0.3497
  C  C128  1  0.275030  0.830000  0.352100  1.0  0.0912
  C  C129  1  0.179130  0.755700  0.329900  1.0  -0.3607
  C  C130  1  0.590700  0.475100  0.942400  1.0  0.6021
  C  C131  1  0.395600  0.208000  0.795800  1.0  -0.2292
  C  C132  1  0.472300  0.433500  0.883900  1.0  -0.097
  C  C133  1  0.365800  0.148900  0.707600  1.0  0.1124
  C  C134  1  0.312000  0.276800  0.845700  1.0  0.0638
  C  C135  1  0.346300  0.350000  0.937700  1.0  -0.02
  C  C136  1  0.196900  0.279700  0.807200  1.0  -0.2065
  C  C137  1  0.173600  0.219300  0.719400  1.0  0.1356
  C  C138  1  0.400900  0.573300  0.888400  1.0  -0.3513
  C  C139  1  0.441700  0.477900  0.830000  1.0  0.0918
  C  C140  1  0.345800  0.425800  0.755700  1.0  -0.3617
  C  C141  1  0.257370  0.467300  0.524900  1.0  0.6015
  C  C142  1  0.062270  0.587800  0.792000  1.0  -0.2275
  C  C143  1  0.138970  0.450400  0.566500  1.0  -0.1012
  C  C144  1  0.032470  0.558700  0.851100  1.0  0.114
  C  C145  1  0.978670  0.568900  0.723200  1.0  0.064
  C  C146  1  0.012970  0.587700  0.650000  1.0  -0.0213
  C  C147  1  0.863570  0.527500  0.720300  1.0  -0.2063
  C  C148  1  0.840270  0.500100  0.780700  1.0  0.1371
  C  C149  1  0.067570  0.315100  0.426700  1.0  -0.3502
  C  C150  1  0.108370  0.352100  0.522100  1.0  0.0909
  C  C151  1  0.012470  0.329900  0.574200  1.0  -0.3631
  C  C152  1  0.924030  0.057600  0.532700  1.0  0.6025
  C  C153  1  0.728930  0.204200  0.412200  1.0  -0.2244
  C  C154  1  0.805630  0.116100  0.549600  1.0  -0.0957
  C  C155  1  0.699130  0.292400  0.441300  1.0  0.1136
  C  C156  1  0.645330  0.154300  0.431100  1.0  0.0619
  C  C157  1  0.679630  0.062300  0.412300  1.0  -0.0219
  C  C158  1  0.530230  0.192800  0.472500  1.0  -0.2074
  C  C159  1  0.506930  0.280600  0.499900  1.0  0.1362
  C  C160  1  0.734230  0.111600  0.684900  1.0  -0.3495
  C  C161  1  0.775030  0.170000  0.647900  1.0  0.092
  C  C162  1  0.679130  0.244300  0.670100  1.0  -0.3599
  N  N163  1  0.757800  0.844400  0.329700  1.0  -0.268
  N  N164  1  0.862300  0.564700  0.060000  1.0  -0.2971
  N  N165  1  0.424470  0.485300  0.155600  1.0  -0.2696
  N  N166  1  0.528970  0.495300  0.435300  1.0  -0.2963
  N  N167  1  0.091130  0.670300  0.514700  1.0  -0.2677
  N  N168  1  0.195630  0.940000  0.504700  1.0  -0.2951
  N  N169  1  0.257800  0.155600  0.670300  1.0  -0.2689
  N  N170  1  0.362300  0.435300  0.940000  1.0  -0.2962
  N  N171  1  0.924470  0.514700  0.844400  1.0  -0.2709
  N  N172  1  0.028970  0.504700  0.564700  1.0  -0.2959
  N  N173  1  0.591130  0.329700  0.485300  1.0  -0.2677
  N  N174  1  0.695630  0.060000  0.495300  1.0  -0.2957
  O  O175  1  0.192700  0.533900  0.099300  1.0  -0.5504
  O  O176  1  0.081000  0.486000  0.974500  1.0  -0.5234
  O  O177  1  0.859370  0.565400  0.466100  1.0  -0.5505
  O  O178  1  0.747670  0.488500  0.514000  1.0  -0.5235
  O  O179  1  0.526030  0.900700  0.434600  1.0  -0.5509
  O  O180  1  0.414330  0.025500  0.511500  1.0  -0.5242
  O  O181  1  0.692700  0.466100  0.900700  1.0  -0.5501
  O  O182  1  0.581000  0.514000  0.025500  1.0  -0.5233
  O  O183  1  0.359370  0.434600  0.533900  1.0  -0.5512
  O  O184  1  0.247670  0.511500  0.486000  1.0  -0.5236
  O  O185  1  0.026030  0.099300  0.565400  1.0  -0.5501
  O  O186  1  0.914330  0.974500  0.488500  1.0  -0.5241
