# generated using pymatgen
data_ZnH11C9N2ClO2
_symmetry_space_group_name_H-M   'P 1'
_cell_length_a   10.24480000
_cell_length_b   17.45870000
_cell_length_c   17.45870000
_cell_angle_alpha   120.00000000
_cell_angle_beta   90.00000000
_cell_angle_gamma   90.00000000
_symmetry_Int_Tables_number   1
_chemical_formula_structural   ZnH11C9N2ClO2
_chemical_formula_sum   'Zn6 H66 C54 N12 Cl6 O12'
_cell_volume   2704.31900936
_cell_formula_units_Z   6
loop_
 _symmetry_equiv_pos_site_id
 _symmetry_equiv_pos_as_xyz
  1  'x, y, z'
loop_
 _atom_site_type_symbol
 _atom_site_label
 _atom_site_symmetry_multiplicity
 _atom_site_fract_x
 _atom_site_fract_y
 _atom_site_fract_z
 _atom_site_occupancy
 _atom_site_charge
  Zn  Zn1  1  0.845690  0.458100  0.533130  1.0  0.7752
  Zn  Zn2  1  0.512360  0.075030  0.541900  1.0  0.7793
  Zn  Zn3  1  0.179020  0.466870  0.924970  1.0  0.7796
  Zn  Zn4  1  0.345690  0.541900  0.466870  1.0  0.7745
  Zn  Zn5  1  0.012360  0.924970  0.458100  1.0  0.7798
  Zn  Zn6  1  0.679020  0.533130  0.075030  1.0  0.7809
  H  H7  1  0.954200  0.535500  0.461400  1.0  0.2702
  H  H8  1  0.879700  0.478600  0.315200  1.0  0.1077
  H  H9  1  0.730100  0.457800  0.298800  1.0  0.135
  H  H10  1  0.815300  0.411300  0.338400  1.0  0.1109
  H  H11  1  0.766000  0.595900  0.429300  1.0  0.0712
  H  H12  1  0.776100  0.795700  0.619000  1.0  0.1354
  H  H13  1  0.819200  0.896900  0.575300  1.0  0.0828
  H  H14  1  0.068000  0.645200  0.460600  1.0  0.1288
  H  H15  1  0.106500  0.752900  0.424900  1.0  0.0893
  H  H16  1  0.957100  0.637600  0.607000  1.0  0.1164
  H  H17  1  0.806900  0.652000  0.602300  1.0  0.0897
  H  H18  1  0.620870  0.925900  0.464500  1.0  0.2707
  H  H19  1  0.546370  0.836600  0.521400  1.0  0.1103
  H  H20  1  0.396770  0.841000  0.542200  1.0  0.1366
  H  H21  1  0.481970  0.927100  0.588700  1.0  0.1111
  H  H22  1  0.432670  0.833400  0.404100  1.0  0.0672
  H  H23  1  0.442770  0.823300  0.204300  1.0  0.1386
  H  H24  1  0.485870  0.678400  0.103100  1.0  0.0816
  H  H25  1  0.734670  0.815400  0.354800  1.0  0.1283
  H  H26  1  0.773170  0.672000  0.247100  1.0  0.0892
  H  H27  1  0.623770  0.969400  0.362400  1.0  0.1164
  H  H28  1  0.473570  0.950300  0.348000  1.0  0.0903
  H  H29  1  0.287530  0.538600  0.074100  1.0  0.2699
  H  H30  1  0.213030  0.684800  0.163400  1.0  0.1089
  H  H31  1  0.063430  0.701200  0.159000  1.0  0.1344
  H  H32  1  0.148630  0.661600  0.072900  1.0  0.1106
  H  H33  1  0.099330  0.570700  0.166600  1.0  0.0688
  H  H34  1  0.109430  0.381000  0.176700  1.0  0.1377
  H  H35  1  0.152530  0.424700  0.321600  1.0  0.0814
  H  H36  1  0.401330  0.539400  0.184600  1.0  0.1288
  H  H37  1  0.439830  0.575100  0.328000  1.0  0.0901
  H  H38  1  0.290430  0.393000  0.030600  1.0  0.1156
  H  H39  1  0.140230  0.397700  0.049700  1.0  0.091
  H  H40  1  0.454200  0.464500  0.538600  1.0  0.2698
  H  H41  1  0.379700  0.521400  0.684800  1.0  0.1079
  H  H42  1  0.230100  0.542200  0.701200  1.0  0.1349
  H  H43  1  0.315300  0.588700  0.661600  1.0  0.1118
  H  H44  1  0.266000  0.404100  0.570700  1.0  0.0707
  H  H45  1  0.276100  0.204300  0.381000  1.0  0.1349
  H  H46  1  0.319200  0.103100  0.424700  1.0  0.0824
  H  H47  1  0.568000  0.354800  0.539400  1.0  0.1285
  H  H48  1  0.606500  0.247100  0.575100  1.0  0.0895
  H  H49  1  0.457100  0.362400  0.393000  1.0  0.1159
  H  H50  1  0.306900  0.348000  0.397700  1.0  0.0894
  H  H51  1  0.120870  0.074100  0.535500  1.0  0.2711
  H  H52  1  0.046370  0.163400  0.478600  1.0  0.1111
  H  H53  1  0.896770  0.159000  0.457800  1.0  0.1356
  H  H54  1  0.981970  0.072900  0.411300  1.0  0.1094
  H  H55  1  0.932670  0.166600  0.595900  1.0  0.0685
  H  H56  1  0.942770  0.176700  0.795700  1.0  0.1383
  H  H57  1  0.985870  0.321600  0.896900  1.0  0.0823
  H  H58  1  0.234670  0.184600  0.645200  1.0  0.1289
  H  H59  1  0.273170  0.328000  0.752900  1.0  0.0894
  H  H60  1  0.123770  0.030600  0.637600  1.0  0.1164
  H  H61  1  0.973570  0.049700  0.652000  1.0  0.0901
  H  H62  1  0.787530  0.461400  0.925900  1.0  0.2704
  H  H63  1  0.713030  0.315200  0.836600  1.0  0.1087
  H  H64  1  0.563430  0.298800  0.841000  1.0  0.1354
  H  H65  1  0.648630  0.338400  0.927100  1.0  0.1102
  H  H66  1  0.599330  0.429300  0.833400  1.0  0.0693
  H  H67  1  0.609430  0.619000  0.823300  1.0  0.1388
  H  H68  1  0.652530  0.575300  0.678400  1.0  0.0813
  H  H69  1  0.901330  0.460600  0.815400  1.0  0.1285
  H  H70  1  0.939830  0.424900  0.672000  1.0  0.09
  H  H71  1  0.790430  0.607000  0.969400  1.0  0.1156
  H  H72  1  0.640230  0.602300  0.950300  1.0  0.091
  C  C73  1  0.802200  0.465100  0.337100  1.0  -0.3279
  C  C74  1  0.773000  0.540500  0.430400  1.0  0.0289
  C  C75  1  0.843000  0.785300  0.579000  1.0  -0.2227
  C  C76  1  0.870200  0.846200  0.553100  1.0  0.1543
  C  C77  1  0.644200  0.523000  0.462900  1.0  0.6303
  C  C78  1  0.916300  0.708000  0.544800  1.0  0.1201
  C  C79  1  0.017100  0.696100  0.485200  1.0  -0.1959
  C  C80  1  0.039100  0.760900  0.463900  1.0  0.1803
  C  C81  1  0.887800  0.637600  0.569100  1.0  -0.0287
  C  C82  1  0.468870  0.872000  0.534900  1.0  -0.3284
  C  C83  1  0.439670  0.889900  0.459500  1.0  0.0293
  C  C84  1  0.509670  0.793700  0.214700  1.0  -0.2179
  C  C85  1  0.536870  0.706900  0.153800  1.0  0.1548
  C  C86  1  0.310870  0.939900  0.477000  1.0  0.6295
  C  C87  1  0.582970  0.836800  0.292000  1.0  0.12
  C  C88  1  0.683770  0.789100  0.303900  1.0  -0.1955
  C  C89  1  0.705770  0.703000  0.239100  1.0  0.1807
  C  C90  1  0.554470  0.931500  0.362400  1.0  -0.0255
  C  C91  1  0.135530  0.662900  0.128000  1.0  -0.3294
  C  C92  1  0.106330  0.569600  0.110100  1.0  0.0284
  C  C93  1  0.176330  0.421000  0.206300  1.0  -0.2217
  C  C94  1  0.203530  0.446900  0.293100  1.0  0.1574
  C  C95  1  0.977530  0.537100  0.060100  1.0  0.6295
  C  C96  1  0.249630  0.455200  0.163200  1.0  0.1204
  C  C97  1  0.350430  0.514800  0.210900  1.0  -0.1954
  C  C98  1  0.372430  0.536100  0.297000  1.0  0.1807
  C  C99  1  0.221130  0.430900  0.068500  1.0  -0.0234
  C  C100  1  0.302200  0.534900  0.662900  1.0  -0.3298
  C  C101  1  0.273000  0.459500  0.569600  1.0  0.0295
  C  C102  1  0.343000  0.214700  0.421000  1.0  -0.2202
  C  C103  1  0.370200  0.153800  0.446900  1.0  0.1554
  C  C104  1  0.144200  0.477000  0.537100  1.0  0.6287
  C  C105  1  0.416300  0.292000  0.455200  1.0  0.1188
  C  C106  1  0.517100  0.303900  0.514800  1.0  -0.1961
  C  C107  1  0.539100  0.239100  0.536100  1.0  0.1802
  C  C108  1  0.387800  0.362400  0.430900  1.0  -0.029
  C  C109  1  0.968870  0.128000  0.465100  1.0  -0.3289
  C  C110  1  0.939670  0.110100  0.540500  1.0  0.0294
  C  C111  1  0.009670  0.206300  0.785300  1.0  -0.2199
  C  C112  1  0.036870  0.293100  0.846200  1.0  0.1545
  C  C113  1  0.810870  0.060100  0.523000  1.0  0.6299
  C  C114  1  0.082970  0.163200  0.708000  1.0  0.1217
  C  C115  1  0.183770  0.210900  0.696100  1.0  -0.1954
  C  C116  1  0.205770  0.297000  0.760900  1.0  0.1805
  C  C117  1  0.054470  0.068500  0.637600  1.0  -0.0238
  C  C118  1  0.635530  0.337100  0.872000  1.0  -0.3282
  C  C119  1  0.606330  0.430400  0.889900  1.0  0.0276
  C  C120  1  0.676330  0.579000  0.793700  1.0  -0.2234
  C  C121  1  0.703530  0.553100  0.706900  1.0  0.1568
  C  C122  1  0.477530  0.462900  0.939900  1.0  0.6296
  C  C123  1  0.749630  0.544800  0.836800  1.0  0.1211
  C  C124  1  0.850430  0.485200  0.789100  1.0  -0.1954
  C  C125  1  0.872430  0.463900  0.703000  1.0  0.1806
  C  C126  1  0.721130  0.569100  0.931500  1.0  -0.0246
  N  N127  1  0.877100  0.548800  0.491170  1.0  -0.3982
  N  N128  1  0.967800  0.835310  0.496900  1.0  -0.3184
  N  N129  1  0.543770  0.942370  0.451200  1.0  -0.3932
  N  N130  1  0.634470  0.661590  0.164690  1.0  -0.3164
  N  N131  1  0.210430  0.508830  0.057630  1.0  -0.3944
  N  N132  1  0.301130  0.503100  0.338410  1.0  -0.318
  N  N133  1  0.377100  0.451200  0.508830  1.0  -0.3986
  N  N134  1  0.467800  0.164690  0.503100  1.0  -0.3179
  N  N135  1  0.043770  0.057630  0.548800  1.0  -0.3936
  N  N136  1  0.134470  0.338410  0.835310  1.0  -0.3161
  N  N137  1  0.710430  0.491170  0.942370  1.0  -0.3939
  N  N138  1  0.801130  0.496900  0.661590  1.0  -0.3183
  Cl  Cl139  1  0.829730  0.312490  0.438380  1.0  -0.5839
  Cl  Cl140  1  0.496400  0.125890  0.687510  1.0  -0.5824
  Cl  Cl141  1  0.163060  0.561620  0.874110  1.0  -0.5777
  Cl  Cl142  1  0.329730  0.687510  0.561620  1.0  -0.5832
  Cl  Cl143  1  0.996400  0.874110  0.312490  1.0  -0.5829
  Cl  Cl144  1  0.663060  0.438380  0.125890  1.0  -0.5781
  O  O145  1  0.648800  0.491140  0.513540  1.0  -0.5755
  O  O146  1  0.542000  0.539200  0.433710  1.0  -0.5899
  O  O147  1  0.315470  0.022400  0.508860  1.0  -0.5764
  O  O148  1  0.208670  0.894510  0.460800  1.0  -0.5904
  O  O149  1  0.982130  0.486460  0.977600  1.0  -0.5759
  O  O150  1  0.875330  0.566290  0.105490  1.0  -0.591
  O  O151  1  0.148800  0.508860  0.486460  1.0  -0.5755
  O  O152  1  0.042000  0.460800  0.566290  1.0  -0.5901
  O  O153  1  0.815470  0.977600  0.491140  1.0  -0.5757
  O  O154  1  0.708670  0.105490  0.539200  1.0  -0.5902
  O  O155  1  0.482130  0.513540  0.022400  1.0  -0.5759
  O  O156  1  0.375330  0.433710  0.894510  1.0  -0.5906
