# generated using pymatgen
data_Ni3H42C72N6O13
_symmetry_space_group_name_H-M   'P 1'
_cell_length_a   18.71450000
_cell_length_b   18.71450000
_cell_length_c   18.71450000
_cell_angle_alpha   99.40970000
_cell_angle_beta   99.40970000
_cell_angle_gamma   99.40970000
_symmetry_Int_Tables_number   1
_chemical_formula_structural   Ni3H42C72N6O13
_chemical_formula_sum   'Ni6 H84 C144 N12 O26'
_cell_volume   6256.19841401
_cell_formula_units_Z   2
loop_
 _symmetry_equiv_pos_site_id
 _symmetry_equiv_pos_as_xyz
  1  'x, y, z'
loop_
 _atom_site_type_symbol
 _atom_site_label
 _atom_site_symmetry_multiplicity
 _atom_site_fract_x
 _atom_site_fract_y
 _atom_site_fract_z
 _atom_site_occupancy
 _atom_site_charge
  Ni  Ni1  1  0.250000  0.180190  0.319810  1.0  1.0601
  Ni  Ni2  1  0.319810  0.250000  0.180190  1.0  1.0604
  Ni  Ni3  1  0.180190  0.319810  0.250000  1.0  1.0596
  Ni  Ni4  1  0.750000  0.819810  0.680190  1.0  1.0603
  Ni  Ni5  1  0.680190  0.750000  0.819810  1.0  1.0597
  Ni  Ni6  1  0.819810  0.680190  0.750000  1.0  1.0598
  H  H7  1  0.447200  0.723300  0.696900  1.0  0.1052
  H  H8  1  0.334700  0.760200  0.663000  1.0  0.1159
  H  H9  1  0.450100  0.951500  0.634700  1.0  0.1059
  H  H10  1  0.559400  0.911200  0.660800  1.0  0.0975
  H  H11  1  0.356400  0.945700  0.549400  1.0  0.1166
  H  H12  1  0.184500  0.074300  0.534500  1.0  0.1312
  H  H13  1  0.185000  0.150600  0.452600  1.0  0.0724
  H  H14  1  0.696900  0.447200  0.723300  1.0  0.1048
  H  H15  1  0.663000  0.334700  0.760200  1.0  0.1163
  H  H16  1  0.634700  0.450100  0.951500  1.0  0.1053
  H  H17  1  0.660800  0.559400  0.911200  1.0  0.0992
  H  H18  1  0.549400  0.356400  0.945700  1.0  0.1168
  H  H19  1  0.534500  0.184500  0.074300  1.0  0.1307
  H  H20  1  0.452600  0.185000  0.150600  1.0  0.0727
  H  H21  1  0.723300  0.696900  0.447200  1.0  0.1057
  H  H22  1  0.760200  0.663000  0.334700  1.0  0.1176
  H  H23  1  0.951500  0.634700  0.450100  1.0  0.1044
  H  H24  1  0.911200  0.660800  0.559400  1.0  0.0982
  H  H25  1  0.945700  0.549400  0.356400  1.0  0.1178
  H  H26  1  0.074300  0.534500  0.184500  1.0  0.1306
  H  H27  1  0.150600  0.452600  0.185000  1.0  0.0709
  H  H28  1  0.776700  0.052800  0.803100  1.0  0.1044
  H  H29  1  0.739800  0.165300  0.837000  1.0  0.1172
  H  H30  1  0.548500  0.049900  0.865300  1.0  0.105
  H  H31  1  0.588800  0.940600  0.839200  1.0  0.0985
  H  H32  1  0.554300  0.143600  0.950600  1.0  0.1165
  H  H33  1  0.425700  0.315500  0.965500  1.0  0.1311
  H  H34  1  0.349400  0.315000  0.047400  1.0  0.0724
  H  H35  1  0.052800  0.803100  0.776700  1.0  0.1034
  H  H36  1  0.165300  0.837000  0.739800  1.0  0.1162
  H  H37  1  0.049900  0.865300  0.548500  1.0  0.1049
  H  H38  1  0.940600  0.839200  0.588800  1.0  0.099
  H  H39  1  0.143600  0.950600  0.554300  1.0  0.1173
  H  H40  1  0.315500  0.965500  0.425700  1.0  0.1307
  H  H41  1  0.315000  0.047400  0.349400  1.0  0.0725
  H  H42  1  0.803100  0.776700  0.052800  1.0  0.1078
  H  H43  1  0.837000  0.739800  0.165300  1.0  0.1177
  H  H44  1  0.865300  0.548500  0.049900  1.0  0.1059
  H  H45  1  0.839200  0.588800  0.940600  1.0  0.0978
  H  H46  1  0.950600  0.554300  0.143600  1.0  0.118
  H  H47  1  0.965500  0.425700  0.315500  1.0  0.1319
  H  H48  1  0.047400  0.349400  0.315000  1.0  0.0729
  H  H49  1  0.552800  0.276700  0.303100  1.0  0.1061
  H  H50  1  0.665300  0.239800  0.337000  1.0  0.1171
  H  H51  1  0.549900  0.048500  0.365300  1.0  0.1068
  H  H52  1  0.440600  0.088800  0.339200  1.0  0.0977
  H  H53  1  0.643600  0.054300  0.450600  1.0  0.1165
  H  H54  1  0.815500  0.925700  0.465500  1.0  0.131
  H  H55  1  0.815000  0.849400  0.547400  1.0  0.073
  H  H56  1  0.303100  0.552800  0.276700  1.0  0.1047
  H  H57  1  0.337000  0.665300  0.239800  1.0  0.1165
  H  H58  1  0.365300  0.549900  0.048500  1.0  0.105
  H  H59  1  0.339200  0.440600  0.088800  1.0  0.0986
  H  H60  1  0.450600  0.643600  0.054300  1.0  0.1161
  H  H61  1  0.465500  0.815500  0.925700  1.0  0.1314
  H  H62  1  0.547400  0.815000  0.849400  1.0  0.0736
  H  H63  1  0.276700  0.303100  0.552800  1.0  0.1049
  H  H64  1  0.239800  0.337000  0.665300  1.0  0.1178
  H  H65  1  0.048500  0.365300  0.549900  1.0  0.1047
  H  H66  1  0.088800  0.339200  0.440600  1.0  0.0986
  H  H67  1  0.054300  0.450600  0.643600  1.0  0.1178
  H  H68  1  0.925700  0.465500  0.815500  1.0  0.1318
  H  H69  1  0.849400  0.547400  0.815000  1.0  0.0723
  H  H70  1  0.223300  0.947200  0.196900  1.0  0.1054
  H  H71  1  0.260200  0.834700  0.163000  1.0  0.1154
  H  H72  1  0.451500  0.950100  0.134700  1.0  0.1052
  H  H73  1  0.411200  0.059400  0.160800  1.0  0.0983
  H  H74  1  0.445700  0.856400  0.049400  1.0  0.1165
  H  H75  1  0.574300  0.684500  0.034500  1.0  0.131
  H  H76  1  0.650600  0.685000  0.952600  1.0  0.072
  H  H77  1  0.947200  0.196900  0.223300  1.0  0.1037
  H  H78  1  0.834700  0.163000  0.260200  1.0  0.1166
  H  H79  1  0.950100  0.134700  0.451500  1.0  0.1051
  H  H80  1  0.059400  0.160800  0.411200  1.0  0.0993
  H  H81  1  0.856400  0.049400  0.445700  1.0  0.1168
  H  H82  1  0.684500  0.034500  0.574300  1.0  0.1306
  H  H83  1  0.685000  0.952600  0.650600  1.0  0.0725
  H  H84  1  0.196900  0.223300  0.947200  1.0  0.1067
  H  H85  1  0.163000  0.260200  0.834700  1.0  0.1176
  H  H86  1  0.134700  0.451500  0.950100  1.0  0.1052
  H  H87  1  0.160800  0.411200  0.059400  1.0  0.0983
  H  H88  1  0.049400  0.445700  0.856400  1.0  0.118
  H  H89  1  0.034500  0.574300  0.684500  1.0  0.132
  H  H90  1  0.952600  0.650600  0.685000  1.0  0.0723
  C  C91  1  0.585600  0.784900  0.693400  1.0  0.6815
  C  C92  1  0.514500  0.810900  0.677900  1.0  -0.1098
  C  C93  1  0.447600  0.769000  0.681100  1.0  -0.054
  C  C94  1  0.379900  0.791300  0.662000  1.0  -0.1101
  C  C95  1  0.380200  0.859000  0.642000  1.0  0.0002
  C  C96  1  0.448600  0.903200  0.644600  1.0  -0.1413
  C  C97  1  0.514100  0.879800  0.661000  1.0  -0.0506
  C  C98  1  0.310900  0.883900  0.615600  1.0  0.2833
  C  C99  1  0.312100  0.931200  0.566500  1.0  -0.231
  C  C100  1  0.211600  0.067000  0.496100  1.0  -0.2184
  C  C101  1  0.212700  0.112300  0.447600  1.0  0.1902
  C  C102  1  0.693400  0.585600  0.784900  1.0  0.6848
  C  C103  1  0.677900  0.514500  0.810900  1.0  -0.1108
  C  C104  1  0.681100  0.447600  0.769000  1.0  -0.0548
  C  C105  1  0.662000  0.379900  0.791300  1.0  -0.111
  C  C106  1  0.642000  0.380200  0.859000  1.0  0.0012
  C  C107  1  0.644600  0.448600  0.903200  1.0  -0.1396
  C  C108  1  0.661000  0.514100  0.879800  1.0  -0.0517
  C  C109  1  0.615600  0.310900  0.883900  1.0  0.2838
  C  C110  1  0.566500  0.312100  0.931200  1.0  -0.2326
  C  C111  1  0.496100  0.211600  0.067000  1.0  -0.2163
  C  C112  1  0.447600  0.212700  0.112300  1.0  0.1895
  C  C113  1  0.784900  0.693400  0.585600  1.0  0.6804
  C  C114  1  0.810900  0.677900  0.514500  1.0  -0.1127
  C  C115  1  0.769000  0.681100  0.447600  1.0  -0.0498
  C  C116  1  0.791300  0.662000  0.379900  1.0  -0.1108
  C  C117  1  0.859000  0.642000  0.380200  1.0  0.0027
  C  C118  1  0.903200  0.644600  0.448600  1.0  -0.1389
  C  C119  1  0.879800  0.661000  0.514100  1.0  -0.0498
  C  C120  1  0.883900  0.615600  0.310900  1.0  0.281
  C  C121  1  0.931200  0.566500  0.312100  1.0  -0.2293
  C  C122  1  0.067000  0.496100  0.211600  1.0  -0.2184
  C  C123  1  0.112300  0.447600  0.212700  1.0  0.187
  C  C124  1  0.715100  0.914400  0.806600  1.0  0.6825
  C  C125  1  0.689100  0.985500  0.822100  1.0  -0.111
  C  C126  1  0.731000  0.052400  0.818900  1.0  -0.0501
  C  C127  1  0.708700  0.120100  0.838000  1.0  -0.1081
  C  C128  1  0.641000  0.119800  0.858000  1.0  0.0017
  C  C129  1  0.596800  0.051400  0.855400  1.0  -0.1382
  C  C130  1  0.620200  0.985900  0.839000  1.0  -0.0519
  C  C131  1  0.616100  0.189100  0.884400  1.0  0.2833
  C  C132  1  0.568800  0.187900  0.933500  1.0  -0.2284
  C  C133  1  0.433000  0.288400  0.003900  1.0  -0.2154
  C  C134  1  0.387700  0.287300  0.052400  1.0  0.1897
  C  C135  1  0.914400  0.806600  0.715100  1.0  0.6834
  C  C136  1  0.985500  0.822100  0.689100  1.0  -0.1104
  C  C137  1  0.052400  0.818900  0.731000  1.0  -0.055
  C  C138  1  0.120100  0.838000  0.708700  1.0  -0.1081
  C  C139  1  0.119800  0.858000  0.641000  1.0  -0.0004
  C  C140  1  0.051400  0.855400  0.596800  1.0  -0.1384
  C  C141  1  0.985900  0.839000  0.620200  1.0  -0.0504
  C  C142  1  0.189100  0.884400  0.616100  1.0  0.2839
  C  C143  1  0.187900  0.933500  0.568800  1.0  -0.2311
  C  C144  1  0.288400  0.003900  0.433000  1.0  -0.2173
  C  C145  1  0.287300  0.052400  0.387700  1.0  0.1908
  C  C146  1  0.806600  0.715100  0.914400  1.0  0.6829
  C  C147  1  0.822100  0.689100  0.985500  1.0  -0.1129
  C  C148  1  0.818900  0.731000  0.052400  1.0  -0.0534
  C  C149  1  0.838000  0.708700  0.120100  1.0  -0.1097
  C  C150  1  0.858000  0.641000  0.119800  1.0  0.0037
  C  C151  1  0.855400  0.596800  0.051400  1.0  -0.143
  C  C152  1  0.839000  0.620200  0.985900  1.0  -0.0504
  C  C153  1  0.884400  0.616100  0.189100  1.0  0.2827
  C  C154  1  0.933500  0.568800  0.187900  1.0  -0.2313
  C  C155  1  0.003900  0.433000  0.288400  1.0  -0.2174
  C  C156  1  0.052400  0.387700  0.287300  1.0  0.1875
  C  C157  1  0.414400  0.215100  0.306600  1.0  0.6805
  C  C158  1  0.485500  0.189100  0.322100  1.0  -0.1103
  C  C159  1  0.552400  0.231000  0.318900  1.0  -0.0541
  C  C160  1  0.620100  0.208700  0.338000  1.0  -0.1099
  C  C161  1  0.619800  0.141000  0.358000  1.0  0.0
  C  C162  1  0.551400  0.096800  0.355400  1.0  -0.1412
  C  C163  1  0.485900  0.120200  0.339000  1.0  -0.051
  C  C164  1  0.689100  0.116100  0.384400  1.0  0.2837
  C  C165  1  0.687900  0.068800  0.433500  1.0  -0.2322
  C  C166  1  0.788400  0.933000  0.503900  1.0  -0.2182
  C  C167  1  0.787300  0.887700  0.552400  1.0  0.1892
  C  C168  1  0.306600  0.414400  0.215100  1.0  0.6868
  C  C169  1  0.322100  0.485500  0.189100  1.0  -0.112
  C  C170  1  0.318900  0.552400  0.231000  1.0  -0.0556
  C  C171  1  0.338000  0.620100  0.208700  1.0  -0.1102
  C  C172  1  0.358000  0.619800  0.141000  1.0  0.0021
  C  C173  1  0.355400  0.551400  0.096800  1.0  -0.1388
  C  C174  1  0.339000  0.485900  0.120200  1.0  -0.052
  C  C175  1  0.384400  0.689100  0.116100  1.0  0.2829
  C  C176  1  0.433500  0.687900  0.068800  1.0  -0.2299
  C  C177  1  0.503900  0.788400  0.933000  1.0  -0.2173
  C  C178  1  0.552400  0.787300  0.887700  1.0  0.19
  C  C179  1  0.215100  0.306600  0.414400  1.0  0.6808
  C  C180  1  0.189100  0.322100  0.485500  1.0  -0.1136
  C  C181  1  0.231000  0.318900  0.552400  1.0  -0.0497
  C  C182  1  0.208700  0.338000  0.620100  1.0  -0.1092
  C  C183  1  0.141000  0.358000  0.619800  1.0  0.002
  C  C184  1  0.096800  0.355400  0.551400  1.0  -0.1395
  C  C185  1  0.120200  0.339000  0.485900  1.0  -0.0495
  C  C186  1  0.116100  0.384400  0.689100  1.0  0.2812
  C  C187  1  0.068800  0.433500  0.687900  1.0  -0.2311
  C  C188  1  0.933000  0.503900  0.788400  1.0  -0.2174
  C  C189  1  0.887700  0.552400  0.787300  1.0  0.1878
  C  C190  1  0.284900  0.085600  0.193400  1.0  0.6814
  C  C191  1  0.310900  0.014500  0.177900  1.0  -0.1095
  C  C192  1  0.269000  0.947600  0.181100  1.0  -0.0506
  C  C193  1  0.291300  0.879900  0.162000  1.0  -0.1103
  C  C194  1  0.359000  0.880200  0.142000  1.0  0.0005
  C  C195  1  0.403200  0.948600  0.144600  1.0  -0.1381
  C  C196  1  0.379800  0.014100  0.161000  1.0  -0.052
  C  C197  1  0.383900  0.810900  0.115600  1.0  0.2831
  C  C198  1  0.431200  0.812100  0.066500  1.0  -0.2289
  C  C199  1  0.567000  0.711600  0.996100  1.0  -0.2144
  C  C200  1  0.612300  0.712700  0.947600  1.0  0.188
  C  C201  1  0.085600  0.193400  0.284900  1.0  0.6843
  C  C202  1  0.014500  0.177900  0.310900  1.0  -0.1102
  C  C203  1  0.947600  0.181100  0.269000  1.0  -0.0519
  C  C204  1  0.879900  0.162000  0.291300  1.0  -0.1111
  C  C205  1  0.880200  0.142000  0.359000  1.0  0.0006
  C  C206  1  0.948600  0.144600  0.403200  1.0  -0.1379
  C  C207  1  0.014100  0.161000  0.379800  1.0  -0.0523
  C  C208  1  0.810900  0.115600  0.383900  1.0  0.2839
  C  C209  1  0.812100  0.066500  0.431200  1.0  -0.2312
  C  C210  1  0.711600  0.996100  0.567000  1.0  -0.2179
  C  C211  1  0.712700  0.947600  0.612300  1.0  0.191
  C  C212  1  0.193400  0.284900  0.085600  1.0  0.6826
  C  C213  1  0.177900  0.310900  0.014500  1.0  -0.1119
  C  C214  1  0.181100  0.269000  0.947600  1.0  -0.0537
  C  C215  1  0.162000  0.291300  0.879900  1.0  -0.1107
  C  C216  1  0.142000  0.359000  0.880200  1.0  0.0043
  C  C217  1  0.144600  0.403200  0.948600  1.0  -0.1427
  C  C218  1  0.161000  0.379800  0.014100  1.0  -0.0504
  C  C219  1  0.115600  0.383900  0.810900  1.0  0.2823
  C  C220  1  0.066500  0.431200  0.812100  1.0  -0.2306
  C  C221  1  0.996100  0.567000  0.711600  1.0  -0.2178
  C  C222  1  0.947600  0.612300  0.712700  1.0  0.1873
  C  C223  1  0.250000  0.958050  0.541950  1.0  0.1015
  C  C224  1  0.250000  0.009350  0.490650  1.0  0.1174
  C  C225  1  0.541950  0.250000  0.958050  1.0  0.1013
  C  C226  1  0.490650  0.250000  0.009350  1.0  0.1167
  C  C227  1  0.958050  0.541950  0.250000  1.0  0.1016
  C  C228  1  0.009350  0.490650  0.250000  1.0  0.1168
  C  C229  1  0.750000  0.041950  0.458050  1.0  0.1015
  C  C230  1  0.750000  0.990650  0.509350  1.0  0.1171
  C  C231  1  0.458050  0.750000  0.041950  1.0  0.1014
  C  C232  1  0.509350  0.750000  0.990650  1.0  0.1171
  C  C233  1  0.041950  0.458050  0.750000  1.0  0.1011
  C  C234  1  0.990650  0.509350  0.750000  1.0  0.1163
  N  N235  1  0.250000  0.107150  0.392850  1.0  -0.2949
  N  N236  1  0.250000  0.859950  0.640050  1.0  -0.4288
  N  N237  1  0.392850  0.250000  0.107150  1.0  -0.2905
  N  N238  1  0.640050  0.250000  0.859950  1.0  -0.4299
  N  N239  1  0.107150  0.392850  0.250000  1.0  -0.2891
  N  N240  1  0.859950  0.640050  0.250000  1.0  -0.4282
  N  N241  1  0.750000  0.892850  0.607150  1.0  -0.2941
  N  N242  1  0.750000  0.140050  0.359950  1.0  -0.4308
  N  N243  1  0.607150  0.750000  0.892850  1.0  -0.2912
  N  N244  1  0.359950  0.750000  0.140050  1.0  -0.4283
  N  N245  1  0.892850  0.607150  0.750000  1.0  -0.2891
  N  N246  1  0.140050  0.359950  0.750000  1.0  -0.4293
  O  O247  1  0.590400  0.737070  0.733250  1.0  -0.5741
  O  O248  1  0.636830  0.815060  0.666040  1.0  -0.5733
  O  O249  1  0.733250  0.590400  0.737070  1.0  -0.577
  O  O250  1  0.666040  0.636830  0.815060  1.0  -0.5749
  O  O251  1  0.737070  0.733250  0.590400  1.0  -0.5728
  O  O252  1  0.815060  0.666040  0.636830  1.0  -0.5747
  O  O253  1  0.762930  0.909600  0.766750  1.0  -0.5744
  O  O254  1  0.684940  0.863170  0.833960  1.0  -0.5739
  O  O255  1  0.909600  0.766750  0.762930  1.0  -0.5759
  O  O256  1  0.863170  0.833960  0.684940  1.0  -0.5721
  O  O257  1  0.766750  0.762930  0.909600  1.0  -0.5749
  O  O258  1  0.833960  0.684940  0.863170  1.0  -0.5714
  O  O259  1  0.409600  0.262930  0.266750  1.0  -0.5764
  O  O260  1  0.363170  0.184940  0.333960  1.0  -0.5728
  O  O261  1  0.266750  0.409600  0.262930  1.0  -0.5765
  O  O262  1  0.333960  0.363170  0.184940  1.0  -0.5728
  O  O263  1  0.262930  0.266750  0.409600  1.0  -0.5736
  O  O264  1  0.184940  0.333960  0.363170  1.0  -0.5743
  O  O265  1  0.237070  0.090400  0.233250  1.0  -0.5737
  O  O266  1  0.315060  0.136830  0.166040  1.0  -0.574
  O  O267  1  0.090400  0.233250  0.237070  1.0  -0.5762
  O  O268  1  0.136830  0.166040  0.315060  1.0  -0.5726
  O  O269  1  0.233250  0.237070  0.090400  1.0  -0.5734
  O  O270  1  0.166040  0.315060  0.136830  1.0  -0.575
  O  O271  1  0.250000  0.250000  0.250000  1.0  -0.7227
  O  O272  1  0.750000  0.750000  0.750000  1.0  -0.7227
