# generated using pymatgen
data_Co3H33C57N3O13
_symmetry_space_group_name_H-M   'P 1'
_cell_length_a   18.90000000
_cell_length_b   18.90000000
_cell_length_c   18.90000000
_cell_angle_alpha   61.86820000
_cell_angle_beta   61.86820000
_cell_angle_gamma   61.86820000
_symmetry_Int_Tables_number   1
_chemical_formula_structural   Co3H33C57N3O13
_chemical_formula_sum   'Co6 H66 C114 N6 O26'
_cell_volume   4973.54401498
_cell_formula_units_Z   2
loop_
 _symmetry_equiv_pos_site_id
 _symmetry_equiv_pos_as_xyz
  1  'x, y, z'
loop_
 _atom_site_type_symbol
 _atom_site_label
 _atom_site_symmetry_multiplicity
 _atom_site_fract_x
 _atom_site_fract_y
 _atom_site_fract_z
 _atom_site_occupancy
 _atom_site_charge
  Co  Co1  1  0.354380  0.145620  0.250000  1.0  1.0402
  Co  Co2  1  0.250000  0.354380  0.145620  1.0  1.0416
  Co  Co3  1  0.145620  0.250000  0.354380  1.0  1.0408
  Co  Co4  1  0.645620  0.854380  0.750000  1.0  1.0413
  Co  Co5  1  0.750000  0.645620  0.854380  1.0  1.0406
  Co  Co6  1  0.854380  0.750000  0.645620  1.0  1.0407
  H  H7  1  0.445100  0.104500  0.430000  1.0  0.0943
  H  H8  1  0.499100  0.075200  0.531000  1.0  0.1114
  H  H9  1  0.266000  0.151600  0.682600  1.0  0.1034
  H  H10  1  0.211700  0.183900  0.581300  1.0  0.1014
  H  H11  1  0.513200  0.967600  0.657500  1.0  0.0715
  H  H12  1  0.430000  0.445100  0.104500  1.0  0.0952
  H  H13  1  0.531000  0.499100  0.075200  1.0  0.1134
  H  H14  1  0.682600  0.266000  0.151600  1.0  0.1033
  H  H15  1  0.581300  0.211700  0.183900  1.0  0.1002
  H  H16  1  0.657500  0.513200  0.967600  1.0  0.0711
  H  H17  1  0.104500  0.430000  0.445100  1.0  0.096
  H  H18  1  0.075200  0.531000  0.499100  1.0  0.1125
  H  H19  1  0.151600  0.682600  0.266000  1.0  0.1035
  H  H20  1  0.183900  0.581300  0.211700  1.0  0.1007
  H  H21  1  0.967600  0.657500  0.513200  1.0  0.071
  H  H22  1  0.395500  0.054900  0.070000  1.0  0.0963
  H  H23  1  0.424800  0.000900  0.969000  1.0  0.1124
  H  H24  1  0.348400  0.234000  0.817400  1.0  0.1042
  H  H25  1  0.316100  0.288300  0.918700  1.0  0.1013
  H  H26  1  0.532400  0.986800  0.842500  1.0  0.0719
  H  H27  1  0.054900  0.070000  0.395500  1.0  0.0964
  H  H28  1  0.000900  0.969000  0.424800  1.0  0.1152
  H  H29  1  0.234000  0.817400  0.348400  1.0  0.103
  H  H30  1  0.288300  0.918700  0.316100  1.0  0.1001
  H  H31  1  0.986800  0.842500  0.532400  1.0  0.07
  H  H32  1  0.070000  0.395500  0.054900  1.0  0.0949
  H  H33  1  0.969000  0.424800  0.000900  1.0  0.1123
  H  H34  1  0.817400  0.348400  0.234000  1.0  0.1033
  H  H35  1  0.918700  0.316100  0.288300  1.0  0.1011
  H  H36  1  0.842500  0.532400  0.986800  1.0  0.0712
  H  H37  1  0.554900  0.895500  0.570000  1.0  0.0953
  H  H38  1  0.500900  0.924800  0.469000  1.0  0.1118
  H  H39  1  0.734000  0.848400  0.317400  1.0  0.1034
  H  H40  1  0.788300  0.816100  0.418700  1.0  0.1011
  H  H41  1  0.486800  0.032400  0.342500  1.0  0.0711
  H  H42  1  0.570000  0.554900  0.895500  1.0  0.0948
  H  H43  1  0.469000  0.500900  0.924800  1.0  0.1131
  H  H44  1  0.317400  0.734000  0.848400  1.0  0.1035
  H  H45  1  0.418700  0.788300  0.816100  1.0  0.0999
  H  H46  1  0.342500  0.486800  0.032400  1.0  0.0715
  H  H47  1  0.895500  0.570000  0.554900  1.0  0.0962
  H  H48  1  0.924800  0.469000  0.500900  1.0  0.1128
  H  H49  1  0.848400  0.317400  0.734000  1.0  0.1033
  H  H50  1  0.816100  0.418700  0.788300  1.0  0.1008
  H  H51  1  0.032400  0.342500  0.486800  1.0  0.0711
  H  H52  1  0.604500  0.945100  0.930000  1.0  0.0957
  H  H53  1  0.575200  0.999100  0.031000  1.0  0.113
  H  H54  1  0.651600  0.766000  0.182600  1.0  0.104
  H  H55  1  0.683900  0.711700  0.081300  1.0  0.1012
  H  H56  1  0.467600  0.013200  0.157500  1.0  0.071
  H  H57  1  0.945100  0.930000  0.604500  1.0  0.096
  H  H58  1  0.999100  0.031000  0.575200  1.0  0.1135
  H  H59  1  0.766000  0.182600  0.651600  1.0  0.103
  H  H60  1  0.711700  0.081300  0.683900  1.0  0.1009
  H  H61  1  0.013200  0.157500  0.467600  1.0  0.0711
  H  H62  1  0.930000  0.604500  0.945100  1.0  0.0949
  H  H63  1  0.031000  0.575200  0.999100  1.0  0.112
  H  H64  1  0.182600  0.651600  0.766000  1.0  0.103
  H  H65  1  0.081300  0.683900  0.711700  1.0  0.1008
  H  H66  1  0.157500  0.467600  0.013200  1.0  0.0712
  H  H67  1  0.343450  0.156550  0.750000  1.0  0.112
  H  H68  1  0.750000  0.343450  0.156550  1.0  0.1123
  H  H69  1  0.156550  0.750000  0.343450  1.0  0.113
  H  H70  1  0.656550  0.843450  0.250000  1.0  0.1123
  H  H71  1  0.250000  0.656550  0.843450  1.0  0.112
  H  H72  1  0.843450  0.250000  0.656550  1.0  0.1125
  C  C73  1  0.287820  0.162010  0.428880  1.0  0.7008
  C  C74  1  0.320870  0.144770  0.496230  1.0  -0.1236
  C  C75  1  0.408320  0.112620  0.481820  1.0  -0.0393
  C  C76  1  0.440790  0.093090  0.542890  1.0  -0.1519
  C  C77  1  0.385890  0.100090  0.623190  1.0  0.0644
  C  C78  1  0.302570  0.138650  0.632910  1.0  -0.1419
  C  C79  1  0.269800  0.159480  0.571140  1.0  -0.0355
  C  C80  1  0.422150  0.068730  0.691190  1.0  -0.0366
  C  C81  1  0.493230  0.996270  0.695240  1.0  0.1355
  C  C82  1  0.428880  0.287820  0.162010  1.0  0.7007
  C  C83  1  0.496230  0.320870  0.144770  1.0  -0.1244
  C  C84  1  0.481820  0.408320  0.112620  1.0  -0.0375
  C  C85  1  0.542890  0.440790  0.093090  1.0  -0.1511
  C  C86  1  0.623190  0.385890  0.100090  1.0  0.0656
  C  C87  1  0.632910  0.302570  0.138650  1.0  -0.1429
  C  C88  1  0.571140  0.269800  0.159480  1.0  -0.037
  C  C89  1  0.691190  0.422150  0.068730  1.0  -0.0345
  C  C90  1  0.695240  0.493230  0.996270  1.0  0.1343
  C  C91  1  0.162010  0.428880  0.287820  1.0  0.7036
  C  C92  1  0.144770  0.496230  0.320870  1.0  -0.1246
  C  C93  1  0.112620  0.481820  0.408320  1.0  -0.0387
  C  C94  1  0.093090  0.542890  0.440790  1.0  -0.1495
  C  C95  1  0.100090  0.623190  0.385890  1.0  0.0634
  C  C96  1  0.138650  0.632910  0.302570  1.0  -0.1403
  C  C97  1  0.159480  0.571140  0.269800  1.0  -0.0375
  C  C98  1  0.068730  0.691190  0.422150  1.0  -0.036
  C  C99  1  0.996270  0.695240  0.493230  1.0  0.1334
  C  C100  1  0.337990  0.212180  0.071120  1.0  0.7001
  C  C101  1  0.355230  0.179130  0.003770  1.0  -0.123
  C  C102  1  0.387380  0.091680  0.018180  1.0  -0.0397
  C  C103  1  0.406910  0.059210  0.957110  1.0  -0.1485
  C  C104  1  0.399910  0.114110  0.876810  1.0  0.0639
  C  C105  1  0.361350  0.197430  0.867090  1.0  -0.1431
  C  C106  1  0.340520  0.230200  0.928860  1.0  -0.0369
  C  C107  1  0.431270  0.077850  0.808810  1.0  -0.037
  C  C108  1  0.503730  0.006770  0.804760  1.0  0.1341
  C  C109  1  0.212180  0.071120  0.337990  1.0  0.7011
  C  C110  1  0.179130  0.003770  0.355230  1.0  -0.1246
  C  C111  1  0.091680  0.018180  0.387380  1.0  -0.0382
  C  C112  1  0.059210  0.957110  0.406910  1.0  -0.1536
  C  C113  1  0.114110  0.876810  0.399910  1.0  0.0646
  C  C114  1  0.197430  0.867090  0.361350  1.0  -0.1412
  C  C115  1  0.230200  0.928860  0.340520  1.0  -0.0367
  C  C116  1  0.077850  0.808810  0.431270  1.0  -0.0359
  C  C117  1  0.006770  0.804760  0.503730  1.0  0.1321
  C  C118  1  0.071120  0.337990  0.212180  1.0  0.7018
  C  C119  1  0.003770  0.355230  0.179130  1.0  -0.1237
  C  C120  1  0.018180  0.387380  0.091680  1.0  -0.0384
  C  C121  1  0.957110  0.406910  0.059210  1.0  -0.1531
  C  C122  1  0.876810  0.399910  0.114110  1.0  0.0631
  C  C123  1  0.867090  0.361350  0.197430  1.0  -0.1409
  C  C124  1  0.928860  0.340520  0.230200  1.0  -0.0362
  C  C125  1  0.808810  0.431270  0.077850  1.0  -0.0363
  C  C126  1  0.804760  0.503730  0.006770  1.0  0.1353
  C  C127  1  0.712180  0.837990  0.571120  1.0  0.7011
  C  C128  1  0.679130  0.855230  0.503770  1.0  -0.1243
  C  C129  1  0.591680  0.887380  0.518180  1.0  -0.0393
  C  C130  1  0.559210  0.906910  0.457110  1.0  -0.1534
  C  C131  1  0.614110  0.899910  0.376810  1.0  0.0644
  C  C132  1  0.697430  0.861350  0.367090  1.0  -0.1396
  C  C133  1  0.730200  0.840520  0.428860  1.0  -0.0355
  C  C134  1  0.577850  0.931270  0.308810  1.0  -0.0365
  C  C135  1  0.506770  0.003730  0.304760  1.0  0.1342
  C  C136  1  0.571120  0.712180  0.837990  1.0  0.7002
  C  C137  1  0.503770  0.679130  0.855230  1.0  -0.1229
  C  C138  1  0.518180  0.591680  0.887380  1.0  -0.0387
  C  C139  1  0.457110  0.559210  0.906910  1.0  -0.1503
  C  C140  1  0.376810  0.614110  0.899910  1.0  0.0666
  C  C141  1  0.367090  0.697430  0.861350  1.0  -0.1431
  C  C142  1  0.428860  0.730200  0.840520  1.0  -0.0366
  C  C143  1  0.308810  0.577850  0.931270  1.0  -0.0349
  C  C144  1  0.304760  0.506770  0.003730  1.0  0.1344
  C  C145  1  0.837990  0.571120  0.712180  1.0  0.7025
  C  C146  1  0.855230  0.503770  0.679130  1.0  -0.1249
  C  C147  1  0.887380  0.518180  0.591680  1.0  -0.0403
  C  C148  1  0.906910  0.457110  0.559210  1.0  -0.1517
  C  C149  1  0.899910  0.376810  0.614110  1.0  0.063
  C  C150  1  0.861350  0.367090  0.697430  1.0  -0.1396
  C  C151  1  0.840520  0.428860  0.730200  1.0  -0.0374
  C  C152  1  0.931270  0.308810  0.577850  1.0  -0.0362
  C  C153  1  0.003730  0.304760  0.506770  1.0  0.1329
  C  C154  1  0.662010  0.787820  0.928880  1.0  0.6988
  C  C155  1  0.644770  0.820870  0.996230  1.0  -0.1236
  C  C156  1  0.612620  0.908320  0.981820  1.0  -0.0394
  C  C157  1  0.593090  0.940790  0.042890  1.0  -0.1495
  C  C158  1  0.600090  0.885890  0.123190  1.0  0.0643
  C  C159  1  0.638650  0.802570  0.132910  1.0  -0.1427
  C  C160  1  0.659480  0.769800  0.071140  1.0  -0.0353
  C  C161  1  0.568730  0.922150  0.191190  1.0  -0.0366
  C  C162  1  0.496270  0.993230  0.195240  1.0  0.1334
  C  C163  1  0.787820  0.928880  0.662010  1.0  0.7016
  C  C164  1  0.820870  0.996230  0.644770  1.0  -0.1237
  C  C165  1  0.908320  0.981820  0.612620  1.0  -0.0374
  C  C166  1  0.940790  0.042890  0.593090  1.0  -0.1509
  C  C167  1  0.885890  0.123190  0.600090  1.0  0.0645
  C  C168  1  0.802570  0.132910  0.638650  1.0  -0.1423
  C  C169  1  0.769800  0.071140  0.659480  1.0  -0.0355
  C  C170  1  0.922150  0.191190  0.568730  1.0  -0.0363
  C  C171  1  0.993230  0.195240  0.496270  1.0  0.1332
  C  C172  1  0.928880  0.662010  0.787820  1.0  0.703
  C  C173  1  0.996230  0.644770  0.820870  1.0  -0.1237
  C  C174  1  0.981820  0.612620  0.908320  1.0  -0.0406
  C  C175  1  0.042890  0.593090  0.940790  1.0  -0.1519
  C  C176  1  0.123190  0.600090  0.885890  1.0  0.0646
  C  C177  1  0.132910  0.638650  0.802570  1.0  -0.14
  C  C178  1  0.071140  0.659480  0.769800  1.0  -0.0373
  C  C179  1  0.191190  0.568730  0.922150  1.0  -0.0351
  C  C180  1  0.195240  0.496270  0.993230  1.0  0.1347
  C  C181  1  0.391250  0.108750  0.750000  1.0  -0.0766
  C  C182  1  0.750000  0.391250  0.108750  1.0  -0.0757
  C  C183  1  0.108750  0.750000  0.391250  1.0  -0.0771
  C  C184  1  0.608750  0.891250  0.250000  1.0  -0.0753
  C  C185  1  0.250000  0.608750  0.891250  1.0  -0.0769
  C  C186  1  0.891250  0.250000  0.608750  1.0  -0.077
  N  N187  1  0.534140  0.965860  0.750000  1.0  -0.2787
  N  N188  1  0.750000  0.534140  0.965860  1.0  -0.2836
  N  N189  1  0.965860  0.750000  0.534140  1.0  -0.2798
  N  N190  1  0.465860  0.034140  0.250000  1.0  -0.2791
  N  N191  1  0.250000  0.465860  0.034140  1.0  -0.2829
  N  N192  1  0.034140  0.250000  0.465860  1.0  -0.2786
  O  O193  1  0.338910  0.126990  0.373750  1.0  -0.5711
  O  O194  1  0.213730  0.210650  0.433780  1.0  -0.5601
  O  O195  1  0.373750  0.338910  0.126990  1.0  -0.5733
  O  O196  1  0.433780  0.213730  0.210650  1.0  -0.5635
  O  O197  1  0.126990  0.373750  0.338910  1.0  -0.5728
  O  O198  1  0.210650  0.433780  0.213730  1.0  -0.5594
  O  O199  1  0.373010  0.161090  0.126250  1.0  -0.5725
  O  O200  1  0.289350  0.286270  0.066220  1.0  -0.561
  O  O201  1  0.161090  0.126250  0.373010  1.0  -0.5725
  O  O202  1  0.286270  0.066220  0.289350  1.0  -0.5617
  O  O203  1  0.126250  0.373010  0.161090  1.0  -0.5717
  O  O204  1  0.066220  0.289350  0.286270  1.0  -0.5616
  O  O205  1  0.661090  0.873010  0.626250  1.0  -0.5726
  O  O206  1  0.786270  0.789350  0.566220  1.0  -0.5606
  O  O207  1  0.626250  0.661090  0.873010  1.0  -0.5726
  O  O208  1  0.566220  0.786270  0.789350  1.0  -0.5632
  O  O209  1  0.873010  0.626250  0.661090  1.0  -0.572
  O  O210  1  0.789350  0.566220  0.786270  1.0  -0.5595
  O  O211  1  0.626990  0.838910  0.873750  1.0  -0.5724
  O  O212  1  0.710650  0.713730  0.933780  1.0  -0.5609
  O  O213  1  0.838910  0.873750  0.626990  1.0  -0.572
  O  O214  1  0.713730  0.933780  0.710650  1.0  -0.5608
  O  O215  1  0.873750  0.626990  0.838910  1.0  -0.5722
  O  O216  1  0.933780  0.710650  0.713730  1.0  -0.5612
  O  O217  1  0.250000  0.250000  0.250000  1.0  -0.7193
  O  O218  1  0.750000  0.750000  0.750000  1.0  -0.7193
