# generated using pymatgen
data_Cu3H21(C5N2)4
_symmetry_space_group_name_H-M   'P 1'
_cell_length_a   11.45070000
_cell_length_b   11.60260000
_cell_length_c   13.20250000
_cell_angle_alpha   65.36000000
_cell_angle_beta   71.36800000
_cell_angle_gamma   71.46100000
_symmetry_Int_Tables_number   1
_chemical_formula_structural   Cu3H21(C5N2)4
_chemical_formula_sum   'Cu6 H42 C40 N16'
_cell_volume   1475.61702967
_cell_formula_units_Z   2
loop_
 _symmetry_equiv_pos_site_id
 _symmetry_equiv_pos_as_xyz
  1  'x, y, z'
loop_
 _atom_site_type_symbol
 _atom_site_label
 _atom_site_symmetry_multiplicity
 _atom_site_fract_x
 _atom_site_fract_y
 _atom_site_fract_z
 _atom_site_occupancy
 _atom_site_charge
  Cu  Cu1  1  0.382030  0.755980  0.911220  1.0  0.2886
  Cu  Cu2  1  0.536190  0.863680  0.494350  1.0  0.3035
  Cu  Cu3  1  0.309810  0.951670  0.197600  1.0  0.2993
  Cu  Cu4  1  0.617970  0.244020  0.088780  1.0  0.2899
  Cu  Cu5  1  0.463810  0.136320  0.505650  1.0  0.2934
  Cu  Cu6  1  0.690190  0.048330  0.802400  1.0  0.3052
  H  H7  1  0.849300  0.952200  0.057100  1.0  0.1281
  H  H8  1  0.980400  0.872200  0.087000  1.0  0.1228
  H  H9  1  0.873700  0.800400  0.112000  1.0  0.1273
  H  H10  1  0.675200  0.857300  0.264700  1.0  0.2675
  H  H11  1  0.412000  0.568500  0.798400  1.0  0.2927
  H  H12  1  0.799600  0.854600  0.561400  1.0  0.138
  H  H13  1  0.906600  0.930700  0.484600  1.0  0.121
  H  H14  1  0.765100  0.005100  0.498700  1.0  0.1377
  H  H15  1  0.084500  0.892700  0.205100  1.0  0.1234
  H  H16  1  0.065600  0.901400  0.324500  1.0  0.1238
  H  H17  1  0.854500  0.159900  0.191000  1.0  0.1096
  H  H18  1  0.881200  0.370300  0.103900  1.0  0.0922
  H  H19  1  0.078600  0.412000  0.062600  1.0  0.1091
  H  H20  1  0.312400  0.227800  0.181400  1.0  0.1342
  H  H21  1  0.358100  0.174200  0.081300  1.0  0.1231
  H  H22  1  0.476400  0.342100  0.777700  1.0  0.1357
  H  H23  1  0.406500  0.237300  0.877100  1.0  0.1351
  H  H24  1  0.331500  0.356600  0.793000  1.0  0.1338
  H  H25  1  0.186500  0.500900  0.188000  1.0  0.1345
  H  H26  1  0.320100  0.427600  0.214900  1.0  0.1331
  H  H27  1  0.291500  0.578600  0.152900  1.0  0.1336
  H  H28  1  0.150700  0.047800  0.942900  1.0  0.1293
  H  H29  1  0.019600  0.127800  0.913000  1.0  0.1232
  H  H30  1  0.126300  0.199600  0.888000  1.0  0.1258
  H  H31  1  0.324800  0.142700  0.735300  1.0  0.2673
  H  H32  1  0.588000  0.431500  0.201600  1.0  0.2928
  H  H33  1  0.200400  0.145400  0.438600  1.0  0.1377
  H  H34  1  0.093400  0.069300  0.515400  1.0  0.1215
  H  H35  1  0.234900  0.994900  0.501300  1.0  0.1375
  H  H36  1  0.915500  0.107300  0.794900  1.0  0.124
  H  H37  1  0.934400  0.098600  0.675500  1.0  0.1243
  H  H38  1  0.145500  0.840100  0.809000  1.0  0.109
  H  H39  1  0.118800  0.629700  0.896100  1.0  0.0925
  H  H40  1  0.921400  0.588000  0.937400  1.0  0.1091
  H  H41  1  0.687600  0.772200  0.818600  1.0  0.1339
  H  H42  1  0.641900  0.825800  0.918700  1.0  0.1243
  H  H43  1  0.523600  0.657900  0.222300  1.0  0.1368
  H  H44  1  0.593500  0.762700  0.122900  1.0  0.1347
  H  H45  1  0.668500  0.643400  0.207000  1.0  0.1317
  H  H46  1  0.813500  0.499100  0.812000  1.0  0.137
  H  H47  1  0.679900  0.572400  0.785100  1.0  0.1328
  H  H48  1  0.708500  0.421400  0.847100  1.0  0.1332
  C  C49  1  0.891100  0.877000  0.110300  1.0  -0.3745
  C  C50  1  0.844100  0.886400  0.226300  1.0  0.1692
  C  C51  1  0.901100  0.909000  0.291300  1.0  -0.2136
  C  C52  1  0.812200  0.904900  0.393900  1.0  0.2399
  C  C53  1  0.821700  0.925600  0.493300  1.0  -0.3925
  C  C54  1  0.030700  0.937400  0.257000  1.0  -0.2046
  C  C55  1  0.036000  0.077500  0.201200  1.0  0.2588
  C  C56  1  0.933800  0.177500  0.174100  1.0  -0.2024
  C  C57  1  0.949600  0.302300  0.122400  1.0  0.0137
  C  C58  1  0.066800  0.327200  0.097900  1.0  -0.216
  C  C59  1  0.166800  0.224900  0.126400  1.0  0.2897
  C  C60  1  0.298300  0.241400  0.108300  1.0  -0.2043
  C  C61  1  0.398700  0.328100  0.832400  1.0  -0.3745
  C  C62  1  0.370100  0.403700  0.909200  1.0  0.1743
  C  C63  1  0.325800  0.371300  0.025400  1.0  -0.2035
  C  C64  1  0.318700  0.480800  0.048700  1.0  0.2333
  C  C65  1  0.275400  0.498500  0.161100  1.0  -0.3809
  C  C66  1  0.480800  0.820300  0.652200  1.0  -0.0989
  C  C67  1  0.399400  0.903300  0.309800  1.0  -0.1316
  C  C68  1  0.348700  0.842600  0.010900  1.0  -0.1334
  C  C69  1  0.108900  0.123000  0.889700  1.0  -0.3755
  C  C70  1  0.155900  0.113600  0.773700  1.0  0.1711
  C  C71  1  0.098900  0.091000  0.708700  1.0  -0.2133
  C  C72  1  0.187800  0.095100  0.606100  1.0  0.2395
  C  C73  1  0.178300  0.074400  0.506700  1.0  -0.3917
  C  C74  1  0.969300  0.062600  0.743000  1.0  -0.2038
  C  C75  1  0.964000  0.922500  0.798800  1.0  0.2616
  C  C76  1  0.066200  0.822500  0.825900  1.0  -0.2014
  C  C77  1  0.050400  0.697700  0.877600  1.0  0.0135
  C  C78  1  0.933200  0.672800  0.902100  1.0  -0.2154
  C  C79  1  0.833200  0.775100  0.873600  1.0  0.2889
  C  C80  1  0.701700  0.758600  0.891700  1.0  -0.2049
  C  C81  1  0.601300  0.671900  0.167600  1.0  -0.3734
  C  C82  1  0.629900  0.596300  0.090800  1.0  0.1738
  C  C83  1  0.674200  0.628700  0.974600  1.0  -0.2034
  C  C84  1  0.681300  0.519200  0.951300  1.0  0.2336
  C  C85  1  0.724600  0.501500  0.838900  1.0  -0.3812
  C  C86  1  0.519200  0.179700  0.347800  1.0  -0.094
  C  C87  1  0.600600  0.096700  0.690200  1.0  -0.1326
  C  C88  1  0.651300  0.157400  0.989100  1.0  -0.1328
  N  N89  1  0.706200  0.883300  0.391100  1.0  -0.2416
  N  N90  1  0.729300  0.872100  0.287800  1.0  -0.1282
  N  N91  1  0.151700  0.102700  0.177400  1.0  -0.3602
  N  N92  1  0.385500  0.526100  0.869300  1.0  -0.1198
  N  N93  1  0.354200  0.575700  0.953900  1.0  -0.2743
  N  N94  1  0.445100  0.792700  0.749000  1.0  -0.3176
  N  N95  1  0.453800  0.877300  0.378600  1.0  -0.3206
  N  N96  1  0.331900  0.890000  0.076900  1.0  -0.3385
  N  N97  1  0.293800  0.116700  0.608900  1.0  -0.2415
  N  N98  1  0.270700  0.127900  0.712200  1.0  -0.1281
  N  N99  1  0.848300  0.897300  0.822600  1.0  -0.3621
  N  N100  1  0.614500  0.473900  0.130700  1.0  -0.118
  N  N101  1  0.645800  0.424300  0.046100  1.0  -0.2737
  N  N102  1  0.554900  0.207300  0.251000  1.0  -0.3184
  N  N103  1  0.546200  0.122700  0.621400  1.0  -0.321
  N  N104  1  0.668100  0.110000  0.923100  1.0  -0.338
