# generated using pymatgen
data_Cu3H21(C5N2)4
_symmetry_space_group_name_H-M   'P 1'
_cell_length_a   11.45690000
_cell_length_b   11.47230000
_cell_length_c   13.11990000
_cell_angle_alpha   90.17600000
_cell_angle_beta   115.70500000
_cell_angle_gamma   110.14700000
_symmetry_Int_Tables_number   1
_chemical_formula_structural   Cu3H21(C5N2)4
_chemical_formula_sum   'Cu6 H42 C40 N16'
_cell_volume   1434.82585433
_cell_formula_units_Z   2
loop_
 _symmetry_equiv_pos_site_id
 _symmetry_equiv_pos_as_xyz
  1  'x, y, z'
loop_
 _atom_site_type_symbol
 _atom_site_label
 _atom_site_symmetry_multiplicity
 _atom_site_fract_x
 _atom_site_fract_y
 _atom_site_fract_z
 _atom_site_occupancy
 _atom_site_charge
  Cu  Cu1  1  0.829170  0.879720  0.591080  1.0  0.2879
  Cu  Cu2  1  0.138970  0.049550  0.004740  1.0  0.2526
  Cu  Cu3  1  0.354960  0.816070  0.295810  1.0  0.2928
  Cu  Cu4  1  0.170830  0.120280  0.408920  1.0  0.2875
  Cu  Cu5  1  0.861030  0.950450  0.995260  1.0  0.2532
  Cu  Cu6  1  0.645040  0.183930  0.704190  1.0  0.2879
  H  H7  1  0.555100  0.339300  0.401000  1.0  0.127
  H  H8  1  0.584600  0.478500  0.379600  1.0  0.1307
  H  H9  1  0.489700  0.420100  0.438400  1.0  0.1196
  H  H10  1  0.384900  0.190100  0.228100  1.0  0.2744
  H  H11  1  0.129000  0.894900  0.702700  1.0  0.2945
  H  H12  1  0.994400  0.285900  0.004000  1.0  0.1391
  H  H13  1  0.090000  0.419300  0.998900  1.0  0.1227
  H  H14  1  0.072200  0.297800  0.929100  1.0  0.1343
  H  H15  1  0.399200  0.593300  0.286000  1.0  0.125
  H  H16  1  0.275700  0.576000  0.163900  1.0  0.1261
  H  H17  1  0.129200  0.356300  0.291300  1.0  0.1126
  H  H18  1  0.996600  0.377900  0.377200  1.0  0.0812
  H  H19  1  0.000100  0.574600  0.419200  1.0  0.1123
  H  H20  1  0.087700  0.819800  0.311600  1.0  0.1334
  H  H21  1  0.241300  0.858500  0.409800  1.0  0.1299
  H  H22  1  0.339800  0.834200  0.725500  1.0  0.1252
  H  H23  1  0.364900  0.842100  0.616900  1.0  0.123
  H  H24  1  0.388700  0.965000  0.688900  1.0  0.1315
  H  H25  1  0.768200  0.806800  0.351100  1.0  0.1305
  H  H26  1  0.857000  0.832400  0.284300  1.0  0.1342
  H  H27  1  0.799200  0.697200  0.310600  1.0  0.1287
  H  H28  1  0.444900  0.660700  0.599000  1.0  0.1275
  H  H29  1  0.415400  0.521500  0.620400  1.0  0.1305
  H  H30  1  0.510300  0.579900  0.561600  1.0  0.1202
  H  H31  1  0.615100  0.809900  0.771900  1.0  0.2736
  H  H32  1  0.871000  0.105100  0.297300  1.0  0.2955
  H  H33  1  0.005600  0.714100  0.996000  1.0  0.1395
  H  H34  1  0.910000  0.580700  0.001100  1.0  0.1213
  H  H35  1  0.927800  0.702200  0.070900  1.0  0.1351
  H  H36  1  0.600800  0.406700  0.714000  1.0  0.1255
  H  H37  1  0.724300  0.424000  0.836100  1.0  0.1244
  H  H38  1  0.870800  0.643700  0.708700  1.0  0.1121
  H  H39  1  0.003400  0.622100  0.622800  1.0  0.0813
  H  H40  1  0.999900  0.425400  0.580800  1.0  0.1124
  H  H41  1  0.912300  0.180200  0.688400  1.0  0.1323
  H  H42  1  0.758700  0.141500  0.590200  1.0  0.1277
  H  H43  1  0.660200  0.165800  0.274500  1.0  0.1263
  H  H44  1  0.635100  0.157900  0.383100  1.0  0.1223
  H  H45  1  0.611300  0.035000  0.311100  1.0  0.1296
  H  H46  1  0.231800  0.193200  0.648900  1.0  0.1323
  H  H47  1  0.143000  0.167600  0.715700  1.0  0.1339
  H  H48  1  0.200800  0.302800  0.689400  1.0  0.1315
  C  C49  1  0.516000  0.402700  0.381600  1.0  -0.3695
  C  C50  1  0.389400  0.356500  0.266270  1.0  0.1645
  C  C51  1  0.300650  0.412220  0.201380  1.0  -0.194
  C  C52  1  0.202460  0.323300  0.100290  1.0  0.23
  C  C53  1  0.078600  0.332400  0.998900  1.0  -0.3827
  C  C54  1  0.303300  0.539200  0.232840  1.0  -0.196
  C  C55  1  0.210590  0.540150  0.286510  1.0  0.2763
  C  C56  1  0.130500  0.435200  0.309600  1.0  -0.2121
  C  C57  1  0.051300  0.448200  0.360400  1.0  0.0116
  C  C58  1  0.053900  0.565000  0.385900  1.0  -0.2164
  C  C59  1  0.136900  0.668210  0.361680  1.0  0.2806
  C  C60  1  0.145200  0.800500  0.383850  1.0  -0.2218
  C  C61  1  0.332400  0.876500  0.661300  1.0  -0.3721
  C  C62  1  0.180520  0.858200  0.586540  1.0  0.1694
  C  C63  1  0.099540  0.824490  0.470590  1.0  -0.1928
  C  C64  1  0.966710  0.819700  0.449910  1.0  0.2278
  C  C65  1  0.836200  0.786100  0.339170  1.0  -0.3717
  C  C66  1  0.016620  0.985500  0.848770  1.0  -0.0983
  C  C67  1  0.296180  0.909970  0.181210  1.0  -0.092
  C  C68  1  0.643550  0.848500  0.487970  1.0  -0.1457
  C  C69  1  0.484000  0.597300  0.618400  1.0  -0.3692
  C  C70  1  0.610600  0.643500  0.733730  1.0  0.1646
  C  C71  1  0.699350  0.587780  0.798620  1.0  -0.1935
  C  C72  1  0.797540  0.676700  0.899710  1.0  0.2285
  C  C73  1  0.921400  0.667600  0.001100  1.0  -0.3816
  C  C74  1  0.696700  0.460800  0.767160  1.0  -0.1908
  C  C75  1  0.789410  0.459850  0.713490  1.0  0.2769
  C  C76  1  0.869500  0.564800  0.690400  1.0  -0.2135
  C  C77  1  0.948700  0.551800  0.639600  1.0  0.0119
  C  C78  1  0.946100  0.435000  0.614100  1.0  -0.2173
  C  C79  1  0.863100  0.331790  0.638320  1.0  0.2808
  C  C80  1  0.854800  0.199500  0.616150  1.0  -0.2185
  C  C81  1  0.667600  0.123500  0.338700  1.0  -0.3714
  C  C82  1  0.819480  0.141800  0.413460  1.0  0.1691
  C  C83  1  0.900460  0.175510  0.529410  1.0  -0.1928
  C  C84  1  0.033290  0.180300  0.550090  1.0  0.2264
  C  C85  1  0.163800  0.213900  0.660830  1.0  -0.3728
  C  C86  1  0.983380  0.014500  0.151230  1.0  -0.1005
  C  C87  1  0.703820  0.090030  0.818790  1.0  -0.1167
  C  C88  1  0.356450  0.151500  0.512030  1.0  -0.146
  N  N89  1  0.230100  0.219590  0.103100  1.0  -0.2514
  N  N90  1  0.344820  0.242740  0.205030  1.0  -0.114
  N  N91  1  0.214850  0.655880  0.312730  1.0  -0.3602
  N  N92  1  0.099970  0.872890  0.630480  1.0  -0.1113
  N  N93  1  0.967750  0.849230  0.548740  1.0  -0.2717
  N  N94  1  0.947580  0.944300  0.753450  1.0  -0.3149
  N  N95  1  0.255060  0.967650  0.114080  1.0  -0.3057
  N  N96  1  0.532900  0.833580  0.419460  1.0  -0.3238
  N  N97  1  0.769900  0.780410  0.896900  1.0  -0.2419
  N  N98  1  0.655180  0.757260  0.794970  1.0  -0.1128
  N  N99  1  0.785150  0.344120  0.687270  1.0  -0.3591
  N  N100  1  0.900030  0.127110  0.369520  1.0  -0.1119
  N  N101  1  0.032250  0.150770  0.451260  1.0  -0.2738
  N  N102  1  0.052420  0.055700  0.246550  1.0  -0.3163
  N  N103  1  0.744940  0.032350  0.885920  1.0  -0.3094
  N  N104  1  0.467100  0.166420  0.580540  1.0  -0.3231
