# generated using pymatgen
data_Cu3H21(C5N2)4
_symmetry_space_group_name_H-M   'P 1'
_cell_length_a   11.35710000
_cell_length_b   11.49640000
_cell_length_c   12.93520000
_cell_angle_alpha   88.86700000
_cell_angle_beta   64.61400000
_cell_angle_gamma   69.30500000
_symmetry_Int_Tables_number   1
_chemical_formula_structural   Cu3H21(C5N2)4
_chemical_formula_sum   'Cu6 H42 C40 N16'
_cell_volume   1409.91592991
_cell_formula_units_Z   2
loop_
 _symmetry_equiv_pos_site_id
 _symmetry_equiv_pos_as_xyz
  1  'x, y, z'
loop_
 _atom_site_type_symbol
 _atom_site_label
 _atom_site_symmetry_multiplicity
 _atom_site_fract_x
 _atom_site_fract_y
 _atom_site_fract_z
 _atom_site_occupancy
 _atom_site_charge
  Cu  Cu1  1  0.863190  0.058790  0.006150  1.0  0.264
  Cu  Cu2  1  0.170280  0.877940  0.594230  1.0  0.2833
  Cu  Cu3  1  0.642660  0.819230  0.293110  1.0  0.3043
  Cu  Cu4  1  0.136810  0.941210  0.993850  1.0  0.2644
  Cu  Cu5  1  0.829720  0.122060  0.405770  1.0  0.2848
  Cu  Cu6  1  0.357340  0.180770  0.706890  1.0  0.305
  H  H7  1  0.867100  0.888100  0.705100  1.0  0.3003
  H  H8  1  0.612000  0.198000  0.225400  1.0  0.273
  H  H9  1  0.917600  0.821000  0.305200  1.0  0.137
  H  H10  1  0.762700  0.857800  0.401800  1.0  0.1276
  H  H11  1  0.221800  0.702000  0.325300  1.0  0.1343
  H  H12  1  0.142200  0.812400  0.277100  1.0  0.1309
  H  H13  1  0.218800  0.837200  0.345300  1.0  0.1428
  H  H14  1  0.723500  0.583000  0.157700  1.0  0.1334
  H  H15  1  0.601300  0.598000  0.281100  1.0  0.1286
  H  H16  1  0.880100  0.358500  0.282100  1.0  0.1137
  H  H17  1  0.011300  0.572500  0.410900  1.0  0.1193
  H  H18  1  0.890200  0.409100  0.958500  1.0  0.1293
  H  H19  1  0.985100  0.349900  0.020200  1.0  0.1311
  H  H20  1  0.968900  0.262700  0.939700  1.0  0.1344
  H  H21  1  0.612000  0.952600  0.698000  1.0  0.133
  H  H22  1  0.629900  0.850600  0.607800  1.0  0.1278
  H  H23  1  0.662100  0.810200  0.712300  1.0  0.1295
  H  H24  1  0.452300  0.341400  0.406900  1.0  0.1322
  H  H25  1  0.501300  0.444500  0.432000  1.0  0.1267
  H  H26  1  0.403600  0.474300  0.370600  1.0  0.1342
  H  H27  1  0.016300  0.377700  0.366000  1.0  0.08
  H  H28  1  0.132900  0.111900  0.294900  1.0  0.3025
  H  H29  1  0.388000  0.802000  0.774600  1.0  0.2729
  H  H30  1  0.082400  0.179000  0.694800  1.0  0.1362
  H  H31  1  0.237300  0.142200  0.598200  1.0  0.1253
  H  H32  1  0.778200  0.298000  0.674700  1.0  0.1334
  H  H33  1  0.857800  0.187600  0.722900  1.0  0.1309
  H  H34  1  0.781200  0.162800  0.654700  1.0  0.1373
  H  H35  1  0.276500  0.417000  0.842300  1.0  0.1321
  H  H36  1  0.398700  0.402000  0.718900  1.0  0.1278
  H  H37  1  0.119900  0.641500  0.717900  1.0  0.1134
  H  H38  1  0.988700  0.427500  0.589100  1.0  0.1193
  H  H39  1  0.109800  0.590900  0.041500  1.0  0.1297
  H  H40  1  0.014900  0.650100  0.979800  1.0  0.1311
  H  H41  1  0.031100  0.737300  0.060300  1.0  0.1341
  H  H42  1  0.388000  0.047400  0.302000  1.0  0.1311
  H  H43  1  0.370100  0.149400  0.392200  1.0  0.1266
  H  H44  1  0.337900  0.189800  0.287700  1.0  0.129
  H  H45  1  0.547700  0.658600  0.593100  1.0  0.1324
  H  H46  1  0.498700  0.555500  0.568000  1.0  0.127
  H  H47  1  0.596400  0.525700  0.629400  1.0  0.1336
  H  H48  1  0.983700  0.622300  0.634000  1.0  0.0801
  C  C49  1  0.034160  0.821020  0.450360  1.0  0.2179
  C  C50  1  0.987770  0.988150  0.852270  1.0  -0.1229
  C  C51  1  0.797420  0.330140  0.095800  1.0  0.2313
  C  C52  1  0.697900  0.916740  0.177610  1.0  -0.1237
  C  C53  1  0.903660  0.822070  0.467230  1.0  -0.1963
  C  C54  1  0.606700  0.364280  0.263230  1.0  0.1591
  C  C55  1  0.819520  0.852700  0.584810  1.0  0.1688
  C  C56  1  0.859360  0.800190  0.377400  1.0  -0.2061
  C  C57  1  0.699270  0.418620  0.196560  1.0  -0.2127
  C  C58  1  0.868880  0.668960  0.354660  1.0  0.2884
  C  C59  1  0.166000  0.790400  0.339650  1.0  -0.3786
  C  C60  1  0.792230  0.544340  0.280820  1.0  0.2905
  C  C61  1  0.697200  0.544790  0.227440  1.0  -0.1974
  C  C62  1  0.877600  0.437140  0.301300  1.0  -0.2142
  C  C63  1  0.955900  0.564420  0.377700  1.0  -0.2173
  C  C64  1  0.921400  0.338700  0.994500  1.0  -0.3764
  C  C65  1  0.666800  0.867900  0.657400  1.0  -0.3613
  C  C66  1  0.479600  0.410200  0.378500  1.0  -0.3638
  C  C67  1  0.958700  0.449000  0.350700  1.0  0.0115
  C  C68  1  0.356300  0.848090  0.489510  1.0  -0.152
  C  C69  1  0.965840  0.178980  0.549640  1.0  0.2175
  C  C70  1  0.012230  0.011850  0.147730  1.0  -0.1219
  C  C71  1  0.202580  0.669860  0.904200  1.0  0.2312
  C  C72  1  0.302100  0.083260  0.822390  1.0  -0.1308
  C  C73  1  0.096340  0.177930  0.532770  1.0  -0.1968
  C  C74  1  0.393300  0.635720  0.736770  1.0  0.1587
  C  C75  1  0.180480  0.147300  0.415190  1.0  0.168
  C  C76  1  0.140640  0.199810  0.622600  1.0  -0.2047
  C  C77  1  0.300730  0.581380  0.803440  1.0  -0.2112
  C  C78  1  0.131120  0.331040  0.645340  1.0  0.288
  C  C79  1  0.834000  0.209600  0.660350  1.0  -0.3782
  C  C80  1  0.207770  0.455660  0.719180  1.0  0.29
  C  C81  1  0.302800  0.455210  0.772560  1.0  -0.1962
  C  C82  1  0.122400  0.562860  0.698700  1.0  -0.2109
  C  C83  1  0.044100  0.435580  0.622300  1.0  -0.2172
  C  C84  1  0.078600  0.661300  0.005500  1.0  -0.3759
  C  C85  1  0.333200  0.132100  0.342600  1.0  -0.3611
  C  C86  1  0.520400  0.589800  0.621500  1.0  -0.3645
  C  C87  1  0.041300  0.551000  0.649300  1.0  0.0105
  C  C88  1  0.643700  0.151910  0.510490  1.0  -0.1518
  N  N89  1  0.766770  0.228660  0.100600  1.0  -0.2373
  N  N90  1  0.787820  0.657790  0.307730  1.0  -0.3421
  N  N91  1  0.897720  0.867860  0.631940  1.0  -0.1265
  N  N92  1  0.031150  0.847880  0.551870  1.0  -0.284
  N  N93  1  0.737070  0.976920  0.111230  1.0  -0.3398
  N  N94  1  0.652270  0.250850  0.201930  1.0  -0.1108
  N  N95  1  0.056150  0.943030  0.757390  1.0  -0.3227
  N  N96  1  0.467100  0.835390  0.420020  1.0  -0.321
  N  N97  1  0.233230  0.771340  0.899400  1.0  -0.234
  N  N98  1  0.212180  0.342210  0.692270  1.0  -0.3405
  N  N99  1  0.102280  0.132140  0.368060  1.0  -0.1279
  N  N100  1  0.968850  0.152120  0.448130  1.0  -0.2837
  N  N101  1  0.262930  0.023080  0.888770  1.0  -0.352
  N  N102  1  0.347730  0.749150  0.798070  1.0  -0.1109
  N  N103  1  0.943850  0.056970  0.242610  1.0  -0.3225
  N  N104  1  0.532900  0.164610  0.579980  1.0  -0.3222
