# generated using pymatgen
data_Cu3H21(C5N2)4
_symmetry_space_group_name_H-M   'P 1'
_cell_length_a   11.31200000
_cell_length_b   11.51520000
_cell_length_c   12.69530000
_cell_angle_alpha   88.50300000
_cell_angle_beta   65.82900000
_cell_angle_gamma   68.34700000
_symmetry_Int_Tables_number   1
_chemical_formula_structural   Cu3H21(C5N2)4
_chemical_formula_sum   'Cu6 H42 C40 N16'
_cell_volume   1386.93498282
_cell_formula_units_Z   2
loop_
 _symmetry_equiv_pos_site_id
 _symmetry_equiv_pos_as_xyz
  1  'x, y, z'
loop_
 _atom_site_type_symbol
 _atom_site_label
 _atom_site_symmetry_multiplicity
 _atom_site_fract_x
 _atom_site_fract_y
 _atom_site_fract_z
 _atom_site_occupancy
 _atom_site_charge
  Cu  Cu1  1  0.171400  0.880510  0.593970  1.0  0.2917
  Cu  Cu2  1  0.865360  0.058190  0.008690  1.0  0.27
  Cu  Cu3  1  0.639760  0.818060  0.289210  1.0  0.3682
  Cu  Cu4  1  0.828600  0.119490  0.406030  1.0  0.2924
  Cu  Cu5  1  0.134640  0.941810  0.991310  1.0  0.2725
  Cu  Cu6  1  0.360240  0.181940  0.710790  1.0  0.3432
  H  H7  1  0.476100  0.346500  0.431100  1.0  0.1399
  H  H8  1  0.453300  0.489700  0.412200  1.0  0.1287
  H  H9  1  0.384000  0.418600  0.363700  1.0  0.1275
  H  H10  1  0.600300  0.196500  0.222900  1.0  0.2677
  H  H11  1  0.867200  0.892200  0.704500  1.0  0.2839
  H  H12  1  0.962500  0.264400  0.946400  1.0  0.134
  H  H13  1  0.884000  0.415100  0.968900  1.0  0.1303
  H  H14  1  0.977900  0.346700  0.036000  1.0  0.1344
  H  H15  1  0.701800  0.588000  0.166000  1.0  0.1331
  H  H16  1  0.586400  0.596100  0.294500  1.0  0.132
  H  H17  1  0.873700  0.354100  0.289900  1.0  0.1109
  H  H18  1  0.017100  0.370800  0.373200  1.0  0.0861
  H  H19  1  0.019800  0.569900  0.405900  1.0  0.112
  H  H20  1  0.766400  0.858500  0.390100  1.0  0.1286
  H  H21  1  0.925400  0.815400  0.293800  1.0  0.133
  H  H22  1  0.618000  0.947200  0.704600  1.0  0.137
  H  H23  1  0.627100  0.869100  0.597200  1.0  0.1347
  H  H24  1  0.669200  0.796800  0.693900  1.0  0.1246
  H  H25  1  0.207900  0.700000  0.305100  1.0  0.133
  H  H26  1  0.146600  0.841200  0.279100  1.0  0.1318
  H  H27  1  0.238000  0.808600  0.352400  1.0  0.1332
  H  H28  1  0.523900  0.653500  0.568900  1.0  0.1382
  H  H29  1  0.546700  0.510300  0.587800  1.0  0.1284
  H  H30  1  0.616000  0.581400  0.636300  1.0  0.1288
  H  H31  1  0.399700  0.803500  0.777100  1.0  0.267
  H  H32  1  0.132800  0.107800  0.295500  1.0  0.2833
  H  H33  1  0.037500  0.735600  0.053600  1.0  0.1339
  H  H34  1  0.116000  0.584900  0.031100  1.0  0.1309
  H  H35  1  0.022100  0.653300  0.964000  1.0  0.1346
  H  H36  1  0.298200  0.412000  0.834000  1.0  0.1322
  H  H37  1  0.413600  0.403900  0.705500  1.0  0.1319
  H  H38  1  0.126300  0.645900  0.710100  1.0  0.111
  H  H39  1  0.982900  0.629200  0.626800  1.0  0.0871
  H  H40  1  0.980200  0.430100  0.594100  1.0  0.1109
  H  H41  1  0.233600  0.141500  0.609900  1.0  0.1267
  H  H42  1  0.074600  0.184600  0.706200  1.0  0.133
  H  H43  1  0.382000  0.052800  0.295400  1.0  0.1382
  H  H44  1  0.372900  0.130900  0.402800  1.0  0.1336
  H  H45  1  0.330800  0.203200  0.306100  1.0  0.1256
  H  H46  1  0.792100  0.300000  0.694900  1.0  0.135
  H  H47  1  0.853400  0.158800  0.720900  1.0  0.1317
  H  H48  1  0.762000  0.191400  0.647600  1.0  0.1334
  C  C49  1  0.466100  0.408400  0.377600  1.0  -0.371
  C  C50  1  0.594500  0.363700  0.265500  1.0  0.169
  C  C51  1  0.688000  0.418180  0.202200  1.0  -0.2012
  C  C52  1  0.788400  0.331200  0.101600  1.0  0.2422
  C  C53  1  0.913900  0.340100  0.005000  1.0  -0.3835
  C  C54  1  0.683200  0.544700  0.235800  1.0  -0.2317
  C  C55  1  0.785200  0.541870  0.284900  1.0  0.2743
  C  C56  1  0.872900  0.434200  0.307300  1.0  -0.1642
  C  C57  1  0.958800  0.443600  0.354600  1.0  -0.0161
  C  C58  1  0.959200  0.561500  0.375100  1.0  -0.1955
  C  C59  1  0.871300  0.665300  0.350300  1.0  0.2837
  C  C60  1  0.864200  0.797800  0.368700  1.0  -0.2021
  C  C61  1  0.670600  0.868000  0.650100  1.0  -0.3617
  C  C62  1  0.822100  0.853810  0.579700  1.0  0.1705
  C  C63  1  0.907600  0.821500  0.460800  1.0  -0.2054
  C  C64  1  0.037700  0.819080  0.446750  1.0  0.2333
  C  C65  1  0.168800  0.789700  0.336400  1.0  -0.382
  C  C66  1  0.993000  0.988980  0.853760  1.0  -0.1163
  C  C67  1  0.697900  0.913480  0.172540  1.0  -0.1517
  C  C68  1  0.356400  0.850180  0.488430  1.0  -0.1305
  C  C69  1  0.533900  0.591600  0.622400  1.0  -0.3719
  C  C70  1  0.405500  0.636300  0.734500  1.0  0.1693
  C  C71  1  0.312000  0.581820  0.797800  1.0  -0.1995
  C  C72  1  0.211600  0.668800  0.898400  1.0  0.2462
  C  C73  1  0.086100  0.659900  0.995000  1.0  -0.3823
  C  C74  1  0.316800  0.455300  0.764200  1.0  -0.2195
  C  C75  1  0.214800  0.458130  0.715100  1.0  0.2734
  C  C76  1  0.127100  0.565800  0.692700  1.0  -0.164
  C  C77  1  0.041200  0.556400  0.645400  1.0  -0.0291
  C  C78  1  0.040800  0.438500  0.624900  1.0  -0.1955
  C  C79  1  0.128700  0.334700  0.649700  1.0  0.2851
  C  C80  1  0.135800  0.202200  0.631300  1.0  -0.2012
  C  C81  1  0.329400  0.132000  0.349900  1.0  -0.3633
  C  C82  1  0.177900  0.146190  0.420300  1.0  0.1704
  C  C83  1  0.092400  0.178500  0.539200  1.0  -0.2058
  C  C84  1  0.962300  0.180920  0.553250  1.0  0.2335
  C  C85  1  0.831200  0.210300  0.663600  1.0  -0.3809
  C  C86  1  0.007000  0.011020  0.146240  1.0  -0.1158
  C  C87  1  0.302100  0.086520  0.827460  1.0  -0.1562
  C  C88  1  0.643600  0.149820  0.511570  1.0  -0.1307
  N  N89  1  0.760220  0.228510  0.102130  1.0  -0.3116
  N  N90  1  0.641670  0.250160  0.201960  1.0  -0.1371
  N  N91  1  0.784690  0.655720  0.307000  1.0  -0.3562
  N  N92  1  0.898990  0.870360  0.629060  1.0  -0.1206
  N  N93  1  0.033120  0.849610  0.549470  1.0  -0.2807
  N  N94  1  0.059600  0.945870  0.756920  1.0  -0.3062
  N  N95  1  0.740630  0.973980  0.105630  1.0  -0.3277
  N  N96  1  0.466100  0.836110  0.418130  1.0  -0.3141
  N  N97  1  0.239780  0.771490  0.897870  1.0  -0.3075
  N  N98  1  0.358330  0.749840  0.798040  1.0  -0.138
  N  N99  1  0.215310  0.344280  0.693000  1.0  -0.3552
  N  N100  1  0.101010  0.129640  0.370940  1.0  -0.1221
  N  N101  1  0.966880  0.150390  0.450530  1.0  -0.2813
  N  N102  1  0.940400  0.054130  0.243080  1.0  -0.307
  N  N103  1  0.259370  0.026020  0.894370  1.0  -0.3321
  N  N104  1  0.533900  0.163890  0.581870  1.0  -0.3143
