# generated using pymatgen
data_Cu3H21(C5N2)4
_symmetry_space_group_name_H-M   'P 1'
_cell_length_a   11.37000000
_cell_length_b   11.42740000
_cell_length_c   12.19120000
_cell_angle_alpha   67.95200000
_cell_angle_beta   87.74300000
_cell_angle_gamma   69.80300000
_symmetry_Int_Tables_number   1
_chemical_formula_structural   Cu3H21(C5N2)4
_chemical_formula_sum   'Cu6 H42 C40 N16'
_cell_volume   1370.45258302
_cell_formula_units_Z   2
loop_
 _symmetry_equiv_pos_site_id
 _symmetry_equiv_pos_as_xyz
  1  'x, y, z'
loop_
 _atom_site_type_symbol
 _atom_site_label
 _atom_site_symmetry_multiplicity
 _atom_site_fract_x
 _atom_site_fract_y
 _atom_site_fract_z
 _atom_site_occupancy
 _atom_site_charge
  Cu  Cu1  1  0.315110  0.632470  0.275020  1.0  0.3113
  Cu  Cu2  1  0.371010  0.183900  0.580520  1.0  0.2787
  Cu  Cu3  1  0.548200  0.876510  0.989940  1.0  0.2866
  Cu  Cu4  1  0.684890  0.367530  0.724980  1.0  0.3119
  Cu  Cu5  1  0.628990  0.816100  0.419480  1.0  0.277
  Cu  Cu6  1  0.451800  0.123490  0.010060  1.0  0.2869
  H  H7  1  0.914200  0.414500  0.331700  1.0  0.1381
  H  H8  1  0.966200  0.493000  0.391000  1.0  0.1303
  H  H9  1  0.823100  0.500400  0.399600  1.0  0.138
  H  H10  1  0.683000  0.621900  0.195300  1.0  0.2788
  H  H11  1  0.390800  0.890600  0.716100  1.0  0.284
  H  H12  1  0.769000  0.960500  0.911800  1.0  0.1306
  H  H13  1  0.851400  0.980000  0.002500  1.0  0.1264
  H  H14  1  0.918400  0.883500  0.933900  1.0  0.1227
  H  H15  1  0.090600  0.606000  0.252500  1.0  0.1246
  H  H16  1  0.081100  0.726800  0.128500  1.0  0.1285
  H  H17  1  0.853500  0.888100  0.260700  1.0  0.1122
  H  H18  1  0.879100  0.022100  0.356200  1.0  0.0877
  H  H19  1  0.079100  0.996000  0.419000  1.0  0.1078
  H  H20  1  0.348800  0.856800  0.323100  1.0  0.1337
  H  H21  1  0.353700  0.723100  0.433300  1.0  0.1282
  H  H22  1  0.290800  0.679300  0.715800  1.0  0.1256
  H  H23  1  0.395100  0.618200  0.640500  1.0  0.1294
  H  H24  1  0.436200  0.650400  0.746900  1.0  0.14
  H  H25  1  0.306500  0.205000  0.342000  1.0  0.1289
  H  H26  1  0.337700  0.100400  0.277600  1.0  0.1227
  H  H27  1  0.198100  0.159200  0.311300  1.0  0.1207
  H  H28  1  0.085800  0.585500  0.668300  1.0  0.1387
  H  H29  1  0.033800  0.507000  0.609000  1.0  0.1291
  H  H30  1  0.176900  0.499600  0.600400  1.0  0.1375
  H  H31  1  0.317000  0.378100  0.804700  1.0  0.277
  H  H32  1  0.609200  0.109400  0.283900  1.0  0.2883
  H  H33  1  0.231000  0.039500  0.088200  1.0  0.1308
  H  H34  1  0.148600  0.020000  0.997500  1.0  0.1253
  H  H35  1  0.081600  0.116500  0.066100  1.0  0.123
  H  H36  1  0.909400  0.394000  0.747500  1.0  0.1239
  H  H37  1  0.918900  0.273200  0.871500  1.0  0.1292
  H  H38  1  0.146500  0.111900  0.739300  1.0  0.1123
  H  H39  1  0.120900  0.977900  0.643800  1.0  0.0892
  H  H40  1  0.920900  0.004000  0.581000  1.0  0.1077
  H  H41  1  0.651200  0.143200  0.676900  1.0  0.1326
  H  H42  1  0.646300  0.276900  0.566700  1.0  0.1256
  H  H43  1  0.709200  0.320700  0.284200  1.0  0.1251
  H  H44  1  0.604900  0.381800  0.359500  1.0  0.1296
  H  H45  1  0.563800  0.349600  0.253100  1.0  0.139
  H  H46  1  0.693500  0.795000  0.658000  1.0  0.1291
  H  H47  1  0.662300  0.899600  0.722400  1.0  0.1224
  H  H48  1  0.801900  0.840800  0.688700  1.0  0.1225
  C  C49  1  0.892600  0.496000  0.349300  1.0  -0.3799
  C  C50  1  0.853200  0.618400  0.235300  1.0  0.1465
  C  C51  1  0.913400  0.705700  0.169300  1.0  -0.2041
  C  C52  1  0.826500  0.800600  0.068800  1.0  0.2395
  C  C53  1  0.842700  0.915700  0.971100  1.0  -0.3841
  C  C54  1  0.039700  0.700800  0.202200  1.0  -0.219
  C  C55  1  0.042700  0.787800  0.266500  1.0  0.2839
  C  C56  1  0.935100  0.879600  0.285900  1.0  -0.1852
  C  C57  1  0.950700  0.957400  0.342600  1.0  -0.044
  C  C58  1  0.068300  0.942300  0.379400  1.0  -0.2
  C  C59  1  0.172100  0.848400  0.358800  1.0  0.2846
  C  C60  1  0.308600  0.822000  0.395700  1.0  -0.2258
  C  C61  1  0.370600  0.679900  0.682500  1.0  -0.3818
  C  C62  1  0.354600  0.821300  0.596400  1.0  0.1837
  C  C63  1  0.325700  0.883600  0.479300  1.0  -0.136
  C  C64  1  0.320600  0.016400  0.453100  1.0  0.2344
  C  C65  1  0.288000  0.129700  0.336200  1.0  -0.3965
  C  C66  1  0.477300  0.014400  0.841500  1.0  -0.0336
  C  C67  1  0.411000  0.694800  0.154400  1.0  -0.1487
  C  C68  1  0.340400  0.358400  0.467100  1.0  -0.1333
  C  C69  1  0.107400  0.504000  0.650700  1.0  -0.3796
  C  C70  1  0.146800  0.381600  0.764700  1.0  0.1463
  C  C71  1  0.086600  0.294300  0.830700  1.0  -0.2028
  C  C72  1  0.173500  0.199400  0.931200  1.0  0.241
  C  C73  1  0.157300  0.084300  0.028900  1.0  -0.3846
  C  C74  1  0.960300  0.299200  0.797800  1.0  -0.2154
  C  C75  1  0.957300  0.212200  0.733500  1.0  0.2843
  C  C76  1  0.064900  0.120400  0.714100  1.0  -0.1929
  C  C77  1  0.049300  0.042600  0.657400  1.0  -0.0357
  C  C78  1  0.931700  0.057700  0.620600  1.0  -0.1985
  C  C79  1  0.827900  0.151600  0.641200  1.0  0.2851
  C  C80  1  0.691400  0.178000  0.604300  1.0  -0.2238
  C  C81  1  0.629400  0.320100  0.317500  1.0  -0.3802
  C  C82  1  0.645400  0.178700  0.403600  1.0  0.1844
  C  C83  1  0.674300  0.116400  0.520700  1.0  -0.1358
  C  C84  1  0.679400  0.983600  0.546900  1.0  0.2339
  C  C85  1  0.712000  0.870300  0.663800  1.0  -0.3988
  C  C86  1  0.522700  0.985600  0.158500  1.0  -0.0566
  C  C87  1  0.589000  0.305200  0.845600  1.0  -0.155
  C  C88  1  0.659600  0.641600  0.532900  1.0  -0.131
  N  N89  1  0.722200  0.773500  0.072500  1.0  -0.2723
  N  N90  1  0.738800  0.661500  0.173100  1.0  -0.1343
  N  N91  1  0.159200  0.772700  0.303600  1.0  -0.3381
  N  N92  1  0.369600  0.909900  0.641000  1.0  -0.1387
  N  N93  1  0.346300  0.031800  0.550600  1.0  -0.2534
  N  N94  1  0.435000  0.087000  0.747200  1.0  -0.3204
  N  N95  1  0.468700  0.745300  0.084300  1.0  -0.3302
  N  N96  1  0.326500  0.462000  0.393700  1.0  -0.3164
  N  N97  1  0.277800  0.226500  0.927500  1.0  -0.2719
  N  N98  1  0.261200  0.338500  0.826900  1.0  -0.1336
  N  N99  1  0.840800  0.227300  0.696400  1.0  -0.3395
  N  N100  1  0.630400  0.090100  0.359000  1.0  -0.1432
  N  N101  1  0.653700  0.968200  0.449400  1.0  -0.2528
  N  N102  1  0.565000  0.913000  0.252800  1.0  -0.3206
  N  N103  1  0.531300  0.254700  0.915700  1.0  -0.3331
  N  N104  1  0.673500  0.538000  0.606300  1.0  -0.3151
