# generated using pymatgen
data_Li8Cu4H12C16O29
_symmetry_space_group_name_H-M   'P 1'
_cell_length_a   12.74300000
_cell_length_b   13.96440000
_cell_length_c   14.79710000
_cell_angle_alpha   84.98420000
_cell_angle_beta   83.45080000
_cell_angle_gamma   64.44170000
_symmetry_Int_Tables_number   1
_chemical_formula_structural   Li8Cu4H12C16O29
_chemical_formula_sum   'Li16 Cu8 H24 C32 O58'
_cell_volume   2357.81152775
_cell_formula_units_Z   2
loop_
 _symmetry_equiv_pos_site_id
 _symmetry_equiv_pos_as_xyz
  1  'x, y, z'
loop_
 _atom_site_type_symbol
 _atom_site_label
 _atom_site_symmetry_multiplicity
 _atom_site_fract_x
 _atom_site_fract_y
 _atom_site_fract_z
 _atom_site_occupancy
 _atom_site_charge
  Li  Li1  1  0.530700  0.427500  0.292800  1.0  0.8534
  Li  Li2  1  0.468500  0.681300  0.172200  1.0  0.8908
  Li  Li3  1  0.030500  0.422700  0.292100  1.0  0.8575
  Li  Li4  1  0.793500  0.336800  0.650800  1.0  0.8587
  Li  Li5  1  0.969000  0.676900  0.172300  1.0  0.8929
  Li  Li6  1  0.010900  0.033000  0.080300  1.0  0.7196
  Li  Li7  1  0.286500  0.343400  0.651800  1.0  0.8623
  Li  Li8  1  0.505900  0.966000  0.919700  1.0  0.8758
  Li  Li9  1  0.469300  0.572500  0.707200  1.0  0.8532
  Li  Li10  1  0.531500  0.318700  0.827800  1.0  0.8916
  Li  Li11  1  0.969500  0.577300  0.707900  1.0  0.8573
  Li  Li12  1  0.206500  0.663200  0.349200  1.0  0.8453
  Li  Li13  1  0.031000  0.323100  0.827700  1.0  0.8931
  Li  Li14  1  0.989100  0.967000  0.919700  1.0  0.7111
  Li  Li15  1  0.713500  0.656600  0.348200  1.0  0.8536
  Li  Li16  1  0.494100  0.034000  0.080300  1.0  0.8827
  Cu  Cu17  1  0.885510  0.467590  0.992590  1.0  0.8855
  Cu  Cu18  1  0.614290  0.533520  0.008900  1.0  0.8885
  Cu  Cu19  1  0.383800  0.487710  0.492560  1.0  0.8337
  Cu  Cu20  1  0.109850  0.526030  0.507060  1.0  0.792
  Cu  Cu21  1  0.114490  0.532410  0.007410  1.0  0.8867
  Cu  Cu22  1  0.385710  0.466480  0.991100  1.0  0.8856
  Cu  Cu23  1  0.616200  0.512290  0.507440  1.0  0.8344
  Cu  Cu24  1  0.890150  0.473970  0.492940  1.0  0.7906
  H  H25  1  0.902300  0.220100  0.933500  1.0  0.1114
  H  H26  1  0.749700  0.258600  0.051700  1.0  0.1038
  H  H27  1  0.750600  0.742800  0.949300  1.0  0.1012
  H  H28  1  0.597200  0.780900  0.067600  1.0  0.1062
  H  H29  1  0.613400  0.252200  0.417400  1.0  0.1073
  H  H30  1  0.742000  0.230400  0.529900  1.0  0.1061
  H  H31  1  0.132500  0.244700  0.419400  1.0  0.1055
  H  H32  1  0.253000  0.244300  0.530600  1.0  0.1071
  H  H33  1  0.454000  0.599000  0.326700  1.0  0.4364
  H  H34  1  0.560700  0.577000  0.291000  1.0  0.4009
  H  H35  1  0.957000  0.593000  0.329100  1.0  0.4278
  H  H36  1  0.062300  0.570000  0.289000  1.0  0.4089
  H  H37  1  0.097700  0.779900  0.066500  1.0  0.1115
  H  H38  1  0.250300  0.741400  0.948300  1.0  0.1043
  H  H39  1  0.249400  0.257200  0.050700  1.0  0.1012
  H  H40  1  0.402800  0.219100  0.932400  1.0  0.1076
  H  H41  1  0.386600  0.747800  0.582600  1.0  0.1076
  H  H42  1  0.258000  0.769600  0.470100  1.0  0.1077
  H  H43  1  0.867500  0.755300  0.580600  1.0  0.1064
  H  H44  1  0.747000  0.755700  0.469400  1.0  0.1049
  H  H45  1  0.546000  0.401000  0.673300  1.0  0.4376
  H  H46  1  0.439300  0.423000  0.709000  1.0  0.3993
  H  H47  1  0.043000  0.407000  0.670900  1.0  0.4287
  H  H48  1  0.937700  0.430000  0.711000  1.0  0.4048
  C  C49  1  0.956800  0.261300  0.045500  1.0  0.6761
  C  C50  1  0.878600  0.284200  0.967740  1.0  0.0877
  C  C51  1  0.752800  0.317900  0.012650  1.0  0.0557
  C  C52  1  0.829800  0.658400  0.062700  1.0  0.7023
  C  C53  1  0.747600  0.683500  0.988370  1.0  0.0505
  C  C54  1  0.669700  0.343400  0.938800  1.0  0.7081
  C  C55  1  0.621600  0.716700  0.033400  1.0  0.0992
  C  C56  1  0.544900  0.739300  0.954800  1.0  0.6843
  C  C57  1  0.512100  0.279500  0.540600  1.0  0.6729
  C  C58  1  0.587400  0.306000  0.463290  1.0  0.0587
  C  C59  1  0.695400  0.302200  0.505400  1.0  0.0667
  C  C60  1  0.766200  0.333100  0.427200  1.0  0.6821
  C  C61  1  0.031700  0.267800  0.542300  1.0  0.6869
  C  C62  1  0.099400  0.300700  0.463670  1.0  0.0642
  C  C63  1  0.200000  0.312800  0.504360  1.0  0.0547
  C  C64  1  0.264700  0.348600  0.426430  1.0  0.6841
  C  C65  1  0.043200  0.738700  0.954500  1.0  0.672
  C  C66  1  0.121400  0.715800  0.032260  1.0  0.0878
  C  C67  1  0.247200  0.682100  0.987350  1.0  0.0545
  C  C68  1  0.170200  0.341600  0.937300  1.0  0.7029
  C  C69  1  0.252400  0.316500  0.011630  1.0  0.0524
  C  C70  1  0.330300  0.656600  0.061200  1.0  0.7076
  C  C71  1  0.378400  0.283300  0.966600  1.0  0.0998
  C  C72  1  0.455100  0.260700  0.045200  1.0  0.6867
  C  C73  1  0.487900  0.720500  0.459400  1.0  0.67
  C  C74  1  0.412600  0.694000  0.536710  1.0  0.0562
  C  C75  1  0.304600  0.697800  0.494600  1.0  0.064
  C  C76  1  0.233800  0.666900  0.572800  1.0  0.6855
  C  C77  1  0.968300  0.732200  0.457700  1.0  0.6853
  C  C78  1  0.900600  0.699300  0.536330  1.0  0.0616
  C  C79  1  0.800000  0.687200  0.495640  1.0  0.0518
  C  C80  1  0.735300  0.651400  0.573570  1.0  0.6873
  O  O81  1  0.976730  0.338540  0.065240  1.0  -0.5781
  O  O82  1  0.886300  0.366820  0.909750  1.0  -0.6844
  O  O83  1  0.720690  0.406080  0.066390  1.0  -0.6409
  O  O84  1  0.901870  0.561620  0.074610  1.0  -0.6424
  O  O85  1  0.779560  0.595120  0.934900  1.0  -0.6409
  O  O86  1  0.992500  0.174250  0.088190  1.0  -0.6743
  O  O87  1  0.598210  0.439530  0.926690  1.0  -0.6366
  O  O88  1  0.613450  0.634130  0.091210  1.0  -0.6776
  O  O89  1  0.523710  0.662660  0.935680  1.0  -0.5807
  O  O90  1  0.825590  0.731350  0.108560  1.0  -0.5782
  O  O91  1  0.673520  0.270500  0.892550  1.0  -0.5842
  O  O92  1  0.509900  0.826200  0.911670  1.0  -0.6388
  O  O93  1  0.412790  0.354740  0.563850  1.0  -0.6962
  O  O94  1  0.549150  0.190020  0.578870  1.0  -0.5315
  O  O95  1  0.525590  0.406640  0.422130  1.0  -0.7257
  O  O96  1  0.660300  0.376390  0.574500  1.0  -0.6714
  O  O97  1  0.750440  0.429730  0.422730  1.0  -0.6669
  O  O98  1  0.830820  0.266690  0.370690  1.0  -0.5352
  O  O99  1  0.928340  0.337530  0.565450  1.0  -0.6861
  O  O100  1  0.077690  0.180060  0.582880  1.0  -0.5293
  O  O101  1  0.029550  0.396270  0.420280  1.0  -0.7386
  O  O102  1  0.154950  0.389230  0.572070  1.0  -0.6464
  O  O103  1  0.240560  0.447460  0.419820  1.0  -0.6558
  O  O104  1  0.333850  0.283390  0.370100  1.0  -0.5342
  O  O105  1  0.496890  0.580080  0.279580  1.0  -0.868
  O  O106  1  0.997320  0.575280  0.279880  1.0  -0.8697
  O  O107  1  0.338500  0.050500  0.929000  1.0  -0.606
  O  O108  1  0.403900  0.014400  0.992900  1.0  -0.6103
  O  O109  1  0.996800  0.999700  0.044300  1.0  -0.619
  O  O110  1  0.023270  0.661460  0.934760  1.0  -0.5801
  O  O111  1  0.113700  0.633180  0.090250  1.0  -0.6852
  O  O112  1  0.279310  0.593920  0.933610  1.0  -0.6394
  O  O113  1  0.098130  0.438380  0.925390  1.0  -0.6417
  O  O114  1  0.220440  0.404880  0.065100  1.0  -0.6412
  O  O115  1  0.007500  0.825750  0.911810  1.0  -0.6764
  O  O116  1  0.401790  0.560470  0.073310  1.0  -0.6363
  O  O117  1  0.386550  0.365870  0.908790  1.0  -0.6756
  O  O118  1  0.476290  0.337340  0.064320  1.0  -0.5803
  O  O119  1  0.174410  0.268650  0.891440  1.0  -0.5766
  O  O120  1  0.326480  0.729500  0.107450  1.0  -0.5862
  O  O121  1  0.490100  0.173800  0.088330  1.0  -0.6396
  O  O122  1  0.587210  0.645260  0.436150  1.0  -0.6968
  O  O123  1  0.450850  0.809980  0.421130  1.0  -0.5328
  O  O124  1  0.474410  0.593360  0.577870  1.0  -0.7267
  O  O125  1  0.339700  0.623610  0.425500  1.0  -0.6723
  O  O126  1  0.249560  0.570270  0.577270  1.0  -0.6685
  O  O127  1  0.169180  0.733310  0.629310  1.0  -0.534
  O  O128  1  0.071660  0.662470  0.434550  1.0  -0.6865
  O  O129  1  0.922310  0.819940  0.417120  1.0  -0.5336
  O  O130  1  0.970450  0.603730  0.579720  1.0  -0.7376
  O  O131  1  0.845050  0.610770  0.427930  1.0  -0.6453
  O  O132  1  0.759440  0.552540  0.580180  1.0  -0.6575
  O  O133  1  0.666150  0.716610  0.629900  1.0  -0.5327
  O  O134  1  0.503110  0.419920  0.720420  1.0  -0.8665
  O  O135  1  0.002680  0.424720  0.720120  1.0  -0.8683
  O  O136  1  0.661500  0.949500  0.071000  1.0  -0.6031
  O  O137  1  0.596100  0.985600  0.007100  1.0  -0.6111
  O  O138  1  0.003200  0.000300  0.955700  1.0  -0.6207
