# generated using pymatgen
data_Zn3H8C14(NO)8
_symmetry_space_group_name_H-M   'P 1'
_cell_length_a   7.97700000
_cell_length_b   9.28210000
_cell_length_c   15.85190000
_cell_angle_alpha   85.38680000
_cell_angle_beta   79.21200000
_cell_angle_gamma   64.55160000
_symmetry_Int_Tables_number   1
_chemical_formula_structural   Zn3H8C14(NO)8
_chemical_formula_sum   'Zn6 H16 C28 N16 O16'
_cell_volume   1041.11234300
_cell_formula_units_Z   2
loop_
 _symmetry_equiv_pos_site_id
 _symmetry_equiv_pos_as_xyz
  1  'x, y, z'
loop_
 _atom_site_type_symbol
 _atom_site_label
 _atom_site_symmetry_multiplicity
 _atom_site_fract_x
 _atom_site_fract_y
 _atom_site_fract_z
 _atom_site_occupancy
 _atom_site_charge
  Zn  Zn1  1  0.250560  0.351240  0.504310  1.0  0.8932
  Zn  Zn2  1  0.398200  0.351240  0.995690  1.0  0.8931
  Zn  Zn3  1  0.749440  0.648760  0.495690  1.0  0.8927
  Zn  Zn4  1  0.601800  0.648760  0.004310  1.0  0.8927
  Zn  Zn5  1  0.935530  0.128940  0.250000  1.0  0.9433
  Zn  Zn6  1  0.064470  0.871060  0.750000  1.0  0.9432
  H  H7  1  0.830200  0.208800  0.594500  1.0  0.1135
  H  H8  1  0.394000  0.096400  0.365200  1.0  0.3669
  H  H9  1  0.316900  0.045000  0.300600  1.0  0.3635
  H  H10  1  0.718700  0.440800  0.358000  1.0  0.0954
  H  H11  1  0.961000  0.208800  0.905500  1.0  0.1139
  H  H12  1  0.509600  0.096400  0.134800  1.0  0.366
  H  H13  1  0.638100  0.045000  0.199400  1.0  0.3633
  H  H14  1  0.840500  0.440800  0.142000  1.0  0.0966
  H  H15  1  0.169800  0.791200  0.405500  1.0  0.1142
  H  H16  1  0.606000  0.903600  0.634800  1.0  0.367
  H  H17  1  0.683100  0.955000  0.699400  1.0  0.3631
  H  H18  1  0.281300  0.559200  0.642000  1.0  0.0965
  H  H19  1  0.039000  0.791200  0.094500  1.0  0.114
  H  H20  1  0.490400  0.903600  0.865200  1.0  0.366
  H  H21  1  0.361900  0.955000  0.800600  1.0  0.3634
  H  H22  1  0.159500  0.559200  0.858000  1.0  0.0949
  C  C23  1  0.600800  0.190000  0.501400  1.0  0.6365
  C  C24  1  0.899300  0.124400  0.556200  1.0  -0.0412
  C  C25  1  0.911400  0.963200  0.441900  1.0  -0.1248
  C  C26  1  0.807600  0.090800  0.498800  1.0  -0.1089
  C  C27  1  0.130900  0.233800  0.363300  1.0  0.649
  C  C28  1  0.841600  0.392800  0.368800  1.0  0.2898
  C  C29  1  0.831300  0.915400  0.375800  1.0  0.7156
  C  C30  1  0.209200  0.190000  0.998600  1.0  0.6374
  C  C31  1  0.976300  0.124400  0.943800  1.0  -0.0414
  C  C32  1  0.125400  0.963200  0.058100  1.0  -0.1258
  C  C33  1  0.101600  0.090800  0.001200  1.0  -0.107
  C  C34  1  0.635300  0.233800  0.136700  1.0  0.6498
  C  C35  1  0.765600  0.392800  0.131200  1.0  0.2897
  C  C36  1  0.253300  0.915400  0.124200  1.0  0.717
  C  C37  1  0.399200  0.810000  0.498600  1.0  0.6379
  C  C38  1  0.100700  0.875600  0.443800  1.0  -0.04
  C  C39  1  0.088600  0.036800  0.558100  1.0  -0.1257
  C  C40  1  0.192400  0.909200  0.501200  1.0  -0.1056
  C  C41  1  0.869100  0.766200  0.636700  1.0  0.6492
  C  C42  1  0.158400  0.607200  0.631200  1.0  0.2888
  C  C43  1  0.168700  0.084600  0.624200  1.0  0.7167
  C  C44  1  0.790800  0.810000  0.001400  1.0  0.6379
  C  C45  1  0.023700  0.875600  0.056200  1.0  -0.0407
  C  C46  1  0.874600  0.036800  0.941900  1.0  -0.1237
  C  C47  1  0.898400  0.909200  0.998800  1.0  -0.109
  C  C48  1  0.364700  0.766200  0.863300  1.0  0.6471
  C  C49  1  0.234400  0.607200  0.868800  1.0  0.2888
  C  C50  1  0.746700  0.084600  0.875800  1.0  0.7164
  N  N51  1  0.090400  0.341800  0.423700  1.0  -0.4048
  N  N52  1  0.301400  0.110000  0.340200  1.0  -0.7361
  N  N53  1  0.977200  0.261600  0.327700  1.0  -0.5799
  N  N54  1  0.902000  0.445400  0.425900  1.0  -0.2538
  N  N55  1  0.567800  0.341800  0.076300  1.0  -0.4033
  N  N56  1  0.588600  0.110000  0.159800  1.0  -0.7354
  N  N57  1  0.761200  0.261600  0.172300  1.0  -0.5785
  N  N58  1  0.652600  0.445400  0.074100  1.0  -0.2544
  N  N59  1  0.909600  0.658200  0.576300  1.0  -0.4046
  N  N60  1  0.698600  0.890000  0.659800  1.0  -0.7346
  N  N61  1  0.022800  0.738400  0.672300  1.0  -0.5774
  N  N62  1  0.098000  0.554600  0.574100  1.0  -0.2553
  N  N63  1  0.432200  0.658200  0.923700  1.0  -0.4042
  N  N64  1  0.411400  0.890000  0.840200  1.0  -0.7353
  N  N65  1  0.238800  0.738400  0.827700  1.0  -0.5804
  N  N66  1  0.347400  0.554600  0.925900  1.0  -0.255
  O  O67  1  0.515900  0.155800  0.452800  1.0  -0.5815
  O  O68  1  0.514700  0.305600  0.551800  1.0  -0.5726
  O  O69  1  0.790000  0.798600  0.390800  1.0  -0.5903
  O  O70  1  0.825300  0.983600  0.303300  1.0  -0.6046
  O  O71  1  0.328300  0.155800  0.047200  1.0  -0.5805
  O  O72  1  0.179700  0.305600  0.948200  1.0  -0.5719
  O  O73  1  0.411400  0.798600  0.109200  1.0  -0.591
  O  O74  1  0.191100  0.983600  0.196700  1.0  -0.6049
  O  O75  1  0.484100  0.844200  0.547200  1.0  -0.5792
  O  O76  1  0.485300  0.694400  0.448200  1.0  -0.5734
  O  O77  1  0.210000  0.201400  0.609200  1.0  -0.5913
  O  O78  1  0.174700  0.016400  0.696700  1.0  -0.6051
  O  O79  1  0.671700  0.844200  0.952800  1.0  -0.581
  O  O80  1  0.820300  0.694400  0.051800  1.0  -0.5744
  O  O81  1  0.588600  0.201400  0.890800  1.0  -0.591
  O  O82  1  0.808900  0.016400  0.803300  1.0  -0.6043
