# generated using pymatgen
data_ZnH5C6(N2O)2
_symmetry_space_group_name_H-M   'P 1'
_cell_length_a   12.70000000
_cell_length_b   12.70000000
_cell_length_c   25.36400000
_cell_angle_alpha   90.00000000
_cell_angle_beta   90.00000000
_cell_angle_gamma   90.00000000
_symmetry_Int_Tables_number   1
_chemical_formula_structural   ZnH5C6(N2O)2
_chemical_formula_sum   'Zn16 H80 C96 N64 O32'
_cell_volume   4090.95956000
_cell_formula_units_Z   16
loop_
 _symmetry_equiv_pos_site_id
 _symmetry_equiv_pos_as_xyz
  1  'x, y, z'
loop_
 _atom_site_type_symbol
 _atom_site_label
 _atom_site_symmetry_multiplicity
 _atom_site_fract_x
 _atom_site_fract_y
 _atom_site_fract_z
 _atom_site_occupancy
 _atom_site_charge
  Zn  Zn1  1  0.038550  0.930740  0.437530  1.0  0.8275
  Zn  Zn2  1  0.461450  0.569260  0.437530  1.0  0.8277
  Zn  Zn3  1  0.569260  0.038550  0.437530  1.0  0.8273
  Zn  Zn4  1  0.930740  0.461450  0.437530  1.0  0.8272
  Zn  Zn5  1  0.461450  0.930740  0.062470  1.0  0.8274
  Zn  Zn6  1  0.038550  0.569260  0.062470  1.0  0.8276
  Zn  Zn7  1  0.930740  0.038550  0.062470  1.0  0.8268
  Zn  Zn8  1  0.569260  0.461450  0.062470  1.0  0.8273
  Zn  Zn9  1  0.961450  0.069260  0.562470  1.0  0.8276
  Zn  Zn10  1  0.538550  0.430740  0.562470  1.0  0.8274
  Zn  Zn11  1  0.430740  0.961450  0.562470  1.0  0.827
  Zn  Zn12  1  0.069260  0.538550  0.562470  1.0  0.8271
  Zn  Zn13  1  0.538550  0.069260  0.937530  1.0  0.8277
  Zn  Zn14  1  0.961450  0.430740  0.937530  1.0  0.8275
  Zn  Zn15  1  0.069260  0.961450  0.937530  1.0  0.8275
  Zn  Zn16  1  0.430740  0.538550  0.937530  1.0  0.8269
  H  H17  1  0.276700  0.939700  0.468700  1.0  0.1122
  H  H18  1  0.071300  0.927000  0.237400  1.0  0.0885
  H  H19  1  0.183600  0.931700  0.165600  1.0  0.0962
  H  H20  1  0.256000  0.032300  0.645700  1.0  0.3566
  H  H21  1  0.139500  0.044900  0.647400  1.0  0.3606
  H  H22  1  0.223300  0.560300  0.468700  1.0  0.1124
  H  H23  1  0.428700  0.573000  0.237400  1.0  0.0884
  H  H24  1  0.316400  0.568300  0.165600  1.0  0.0959
  H  H25  1  0.244000  0.467700  0.645700  1.0  0.356
  H  H26  1  0.360500  0.455100  0.647400  1.0  0.3616
  H  H27  1  0.560300  0.276700  0.468700  1.0  0.1112
  H  H28  1  0.573000  0.071300  0.237400  1.0  0.0881
  H  H29  1  0.568300  0.183600  0.165600  1.0  0.0966
  H  H30  1  0.467700  0.256000  0.645700  1.0  0.3555
  H  H31  1  0.455100  0.139500  0.647400  1.0  0.3611
  H  H32  1  0.939700  0.223300  0.468700  1.0  0.1118
  H  H33  1  0.927000  0.428700  0.237400  1.0  0.0886
  H  H34  1  0.931700  0.316400  0.165600  1.0  0.0966
  H  H35  1  0.032300  0.244000  0.645700  1.0  0.3554
  H  H36  1  0.044900  0.360500  0.647400  1.0  0.3614
  H  H37  1  0.223300  0.939700  0.031300  1.0  0.1125
  H  H38  1  0.428700  0.927000  0.262600  1.0  0.0883
  H  H39  1  0.316400  0.931700  0.334400  1.0  0.0962
  H  H40  1  0.244000  0.032300  0.854300  1.0  0.3562
  H  H41  1  0.360500  0.044900  0.852600  1.0  0.361
  H  H42  1  0.276700  0.560300  0.031300  1.0  0.1123
  H  H43  1  0.071300  0.573000  0.262600  1.0  0.0883
  H  H44  1  0.183600  0.568300  0.334400  1.0  0.0967
  H  H45  1  0.256000  0.467700  0.854300  1.0  0.3562
  H  H46  1  0.139500  0.455100  0.852600  1.0  0.3608
  H  H47  1  0.939700  0.276700  0.031300  1.0  0.1118
  H  H48  1  0.927000  0.071300  0.262600  1.0  0.0882
  H  H49  1  0.931700  0.183600  0.334400  1.0  0.097
  H  H50  1  0.032300  0.256000  0.854300  1.0  0.3558
  H  H51  1  0.044900  0.139500  0.852600  1.0  0.3612
  H  H52  1  0.560300  0.223300  0.031300  1.0  0.1117
  H  H53  1  0.573000  0.428700  0.262600  1.0  0.0881
  H  H54  1  0.568300  0.316400  0.334400  1.0  0.0967
  H  H55  1  0.467700  0.244000  0.854300  1.0  0.3552
  H  H56  1  0.455100  0.360500  0.852600  1.0  0.3612
  H  H57  1  0.723300  0.060300  0.531300  1.0  0.1128
  H  H58  1  0.928700  0.073000  0.762600  1.0  0.0882
  H  H59  1  0.816400  0.068300  0.834400  1.0  0.0964
  H  H60  1  0.744000  0.967700  0.354300  1.0  0.3557
  H  H61  1  0.860500  0.955100  0.352600  1.0  0.3603
  H  H62  1  0.776700  0.439700  0.531300  1.0  0.1121
  H  H63  1  0.571300  0.427000  0.762600  1.0  0.0884
  H  H64  1  0.683600  0.431700  0.834400  1.0  0.0966
  H  H65  1  0.756000  0.532300  0.354300  1.0  0.3565
  H  H66  1  0.639500  0.544900  0.352600  1.0  0.3605
  H  H67  1  0.439700  0.723300  0.531300  1.0  0.1122
  H  H68  1  0.427000  0.928700  0.762600  1.0  0.0885
  H  H69  1  0.431700  0.816400  0.834400  1.0  0.0968
  H  H70  1  0.532300  0.744000  0.354300  1.0  0.3553
  H  H71  1  0.544900  0.860500  0.352600  1.0  0.3605
  H  H72  1  0.060300  0.776700  0.531300  1.0  0.1114
  H  H73  1  0.073000  0.571300  0.762600  1.0  0.0879
  H  H74  1  0.068300  0.683600  0.834400  1.0  0.0971
  H  H75  1  0.967700  0.756000  0.354300  1.0  0.3558
  H  H76  1  0.955100  0.639500  0.352600  1.0  0.3598
  H  H77  1  0.776700  0.060300  0.968700  1.0  0.1123
  H  H78  1  0.571300  0.073000  0.737400  1.0  0.0885
  H  H79  1  0.683600  0.068300  0.665600  1.0  0.096
  H  H80  1  0.756000  0.967700  0.145700  1.0  0.3569
  H  H81  1  0.639500  0.955100  0.147400  1.0  0.3604
  H  H82  1  0.723300  0.439700  0.968700  1.0  0.1123
  H  H83  1  0.928700  0.427000  0.737400  1.0  0.0885
  H  H84  1  0.816400  0.431700  0.665600  1.0  0.0959
  H  H85  1  0.744000  0.532300  0.145700  1.0  0.356
  H  H86  1  0.860500  0.544900  0.147400  1.0  0.3606
  H  H87  1  0.060300  0.723300  0.968700  1.0  0.1113
  H  H88  1  0.073000  0.928700  0.737400  1.0  0.0884
  H  H89  1  0.068300  0.816400  0.665600  1.0  0.0964
  H  H90  1  0.967700  0.744000  0.145700  1.0  0.3556
  H  H91  1  0.955100  0.860500  0.147400  1.0  0.3605
  H  H92  1  0.439700  0.776700  0.968700  1.0  0.1117
  H  H93  1  0.427000  0.571300  0.737400  1.0  0.0882
  H  H94  1  0.431700  0.683600  0.665600  1.0  0.0967
  H  H95  1  0.532300  0.756000  0.145700  1.0  0.3552
  H  H96  1  0.544900  0.639500  0.147400  1.0  0.3609
  C  C97  1  0.190400  0.004600  0.582450  1.0  0.6389
  C  C98  1  0.237000  0.958600  0.498010  1.0  0.2251
  C  C99  1  0.182000  0.930600  0.292700  1.0  -0.1216
  C  C100  1  0.143700  0.929100  0.242800  1.0  -0.055
  C  C101  1  0.211000  0.930700  0.199600  1.0  -0.0537
  C  C102  1  0.107500  0.931100  0.338800  1.0  0.6771
  C  C103  1  0.309600  0.495400  0.582450  1.0  0.639
  C  C104  1  0.263000  0.541400  0.498010  1.0  0.2249
  C  C105  1  0.318000  0.569400  0.292700  1.0  -0.1217
  C  C106  1  0.356300  0.570900  0.242800  1.0  -0.054
  C  C107  1  0.289000  0.569300  0.199600  1.0  -0.053
  C  C108  1  0.392500  0.568900  0.338800  1.0  0.6776
  C  C109  1  0.495400  0.190400  0.582450  1.0  0.6379
  C  C110  1  0.541400  0.237000  0.498010  1.0  0.224
  C  C111  1  0.569400  0.182000  0.292700  1.0  -0.122
  C  C112  1  0.570900  0.143700  0.242800  1.0  -0.055
  C  C113  1  0.569300  0.211000  0.199600  1.0  -0.0536
  C  C114  1  0.568900  0.107500  0.338800  1.0  0.6785
  C  C115  1  0.004600  0.309600  0.582450  1.0  0.6378
  C  C116  1  0.958600  0.263000  0.498010  1.0  0.2253
  C  C117  1  0.930600  0.318000  0.292700  1.0  -0.1225
  C  C118  1  0.929100  0.356300  0.242800  1.0  -0.0549
  C  C119  1  0.930700  0.289000  0.199600  1.0  -0.054
  C  C120  1  0.931100  0.392500  0.338800  1.0  0.6791
  C  C121  1  0.309600  0.004600  0.917550  1.0  0.6377
  C  C122  1  0.263000  0.958600  0.001990  1.0  0.2261
  C  C123  1  0.318000  0.930600  0.207300  1.0  -0.1211
  C  C124  1  0.356300  0.929100  0.257200  1.0  -0.0526
  C  C125  1  0.289000  0.930700  0.300400  1.0  -0.0541
  C  C126  1  0.392500  0.931100  0.161200  1.0  0.6775
  C  C127  1  0.190400  0.495400  0.917550  1.0  0.6384
  C  C128  1  0.237000  0.541400  0.001990  1.0  0.2267
  C  C129  1  0.182000  0.569400  0.207300  1.0  -0.1216
  C  C130  1  0.143700  0.570900  0.257200  1.0  -0.0538
  C  C131  1  0.211000  0.569300  0.300400  1.0  -0.0533
  C  C132  1  0.107500  0.568900  0.161200  1.0  0.6772
  C  C133  1  0.004600  0.190400  0.917550  1.0  0.637
  C  C134  1  0.958600  0.237000  0.001990  1.0  0.2271
  C  C135  1  0.930600  0.182000  0.207300  1.0  -0.1215
  C  C136  1  0.929100  0.143700  0.257200  1.0  -0.0539
  C  C137  1  0.930700  0.211000  0.300400  1.0  -0.0541
  C  C138  1  0.931100  0.107500  0.161200  1.0  0.6792
  C  C139  1  0.495400  0.309600  0.917550  1.0  0.6369
  C  C140  1  0.541400  0.263000  0.001990  1.0  0.2258
  C  C141  1  0.569400  0.318000  0.207300  1.0  -0.1218
  C  C142  1  0.570900  0.356300  0.257200  1.0  -0.0533
  C  C143  1  0.569300  0.289000  0.300400  1.0  -0.0543
  C  C144  1  0.568900  0.392500  0.161200  1.0  0.6784
  C  C145  1  0.809600  0.995400  0.417550  1.0  0.6381
  C  C146  1  0.763000  0.041400  0.501990  1.0  0.2264
  C  C147  1  0.818000  0.069400  0.707300  1.0  -0.1213
  C  C148  1  0.856300  0.070900  0.757200  1.0  -0.0539
  C  C149  1  0.789000  0.069300  0.800400  1.0  -0.0529
  C  C150  1  0.892500  0.068900  0.661200  1.0  0.6773
  C  C151  1  0.690400  0.504600  0.417550  1.0  0.638
  C  C152  1  0.737000  0.458600  0.501990  1.0  0.2265
  C  C153  1  0.682000  0.430600  0.707300  1.0  -0.1212
  C  C154  1  0.643700  0.429100  0.757200  1.0  -0.0548
  C  C155  1  0.711000  0.430700  0.800400  1.0  -0.0545
  C  C156  1  0.607500  0.431100  0.661200  1.0  0.6772
  C  C157  1  0.504600  0.809600  0.417550  1.0  0.637
  C  C158  1  0.458600  0.763000  0.501990  1.0  0.2271
  C  C159  1  0.430600  0.818000  0.707300  1.0  -0.121
  C  C160  1  0.429100  0.856300  0.757200  1.0  -0.0547
  C  C161  1  0.430700  0.789000  0.800400  1.0  -0.0545
  C  C162  1  0.431100  0.892500  0.661200  1.0  0.679
  C  C163  1  0.995400  0.690400  0.417550  1.0  0.6369
  C  C164  1  0.041400  0.737000  0.501990  1.0  0.226
  C  C165  1  0.069400  0.682000  0.707300  1.0  -0.1224
  C  C166  1  0.070900  0.643700  0.757200  1.0  -0.0549
  C  C167  1  0.069300  0.711000  0.800400  1.0  -0.054
  C  C168  1  0.068900  0.607500  0.661200  1.0  0.6787
  C  C169  1  0.690400  0.995400  0.082450  1.0  0.6392
  C  C170  1  0.737000  0.041400  0.998010  1.0  0.225
  C  C171  1  0.682000  0.069400  0.792700  1.0  -0.1219
  C  C172  1  0.643700  0.070900  0.742800  1.0  -0.054
  C  C173  1  0.711000  0.069300  0.699600  1.0  -0.0533
  C  C174  1  0.607500  0.068900  0.838800  1.0  0.6773
  C  C175  1  0.809600  0.504600  0.082450  1.0  0.6386
  C  C176  1  0.763000  0.458600  0.998010  1.0  0.2249
  C  C177  1  0.818000  0.430600  0.792700  1.0  -0.1214
  C  C178  1  0.856300  0.429100  0.742800  1.0  -0.0527
  C  C179  1  0.789000  0.430700  0.699600  1.0  -0.0534
  C  C180  1  0.892500  0.431100  0.838800  1.0  0.6776
  C  C181  1  0.995400  0.809600  0.082450  1.0  0.6379
  C  C182  1  0.041400  0.763000  0.998010  1.0  0.2238
  C  C183  1  0.069400  0.818000  0.792700  1.0  -0.1225
  C  C184  1  0.070900  0.856300  0.742800  1.0  -0.0535
  C  C185  1  0.069300  0.789000  0.699600  1.0  -0.0541
  C  C186  1  0.068900  0.892500  0.838800  1.0  0.6785
  C  C187  1  0.504600  0.690400  0.082450  1.0  0.6379
  C  C188  1  0.458600  0.737000  0.998010  1.0  0.2252
  C  C189  1  0.430600  0.682000  0.792700  1.0  -0.1219
  C  C190  1  0.429100  0.643700  0.742800  1.0  -0.054
  C  C191  1  0.430700  0.711000  0.699600  1.0  -0.0535
  C  C192  1  0.431100  0.607500  0.838800  1.0  0.679
  N  N193  1  0.097400  0.001600  0.551400  1.0  -0.4275
  N  N194  1  0.126200  0.973200  0.499210  1.0  -0.2628
  N  N195  1  0.276700  0.978000  0.549450  1.0  -0.56
  N  N196  1  0.195900  0.029900  0.630200  1.0  -0.6807
  N  N197  1  0.402600  0.498400  0.551400  1.0  -0.4279
  N  N198  1  0.373800  0.526800  0.499210  1.0  -0.2638
  N  N199  1  0.223300  0.522000  0.549450  1.0  -0.5622
  N  N200  1  0.304100  0.470100  0.630200  1.0  -0.6811
  N  N201  1  0.498400  0.097400  0.551400  1.0  -0.4277
  N  N202  1  0.526800  0.126200  0.499210  1.0  -0.2655
  N  N203  1  0.522000  0.276700  0.549450  1.0  -0.562
  N  N204  1  0.470100  0.195900  0.630200  1.0  -0.6801
  N  N205  1  0.001600  0.402600  0.551400  1.0  -0.4274
  N  N206  1  0.973200  0.373800  0.499210  1.0  -0.2643
  N  N207  1  0.978000  0.223300  0.549450  1.0  -0.562
  N  N208  1  0.029900  0.304100  0.630200  1.0  -0.6806
  N  N209  1  0.402600  0.001600  0.948600  1.0  -0.4276
  N  N210  1  0.373800  0.973200  0.000790  1.0  -0.2636
  N  N211  1  0.223300  0.978000  0.950550  1.0  -0.5628
  N  N212  1  0.304100  0.029900  0.869800  1.0  -0.6813
  N  N213  1  0.097400  0.498400  0.948600  1.0  -0.4275
  N  N214  1  0.126200  0.526800  0.000790  1.0  -0.2627
  N  N215  1  0.276700  0.522000  0.950550  1.0  -0.5607
  N  N216  1  0.195900  0.470100  0.869800  1.0  -0.681
  N  N217  1  0.001600  0.097400  0.948600  1.0  -0.4269
  N  N218  1  0.973200  0.126200  0.000790  1.0  -0.2642
  N  N219  1  0.978000  0.276700  0.950550  1.0  -0.5627
  N  N220  1  0.029900  0.195900  0.869800  1.0  -0.6807
  N  N221  1  0.498400  0.402600  0.948600  1.0  -0.4279
  N  N222  1  0.526800  0.373800  0.000790  1.0  -0.2648
  N  N223  1  0.522000  0.223300  0.950550  1.0  -0.5631
  N  N224  1  0.470100  0.304100  0.869800  1.0  -0.6799
  N  N225  1  0.902600  0.998400  0.448600  1.0  -0.4277
  N  N226  1  0.873800  0.026800  0.500790  1.0  -0.2633
  N  N227  1  0.723300  0.022000  0.450550  1.0  -0.5629
  N  N228  1  0.804100  0.970100  0.369800  1.0  -0.6811
  N  N229  1  0.597400  0.501600  0.448600  1.0  -0.4273
  N  N230  1  0.626200  0.473200  0.500790  1.0  -0.2628
  N  N231  1  0.776700  0.478000  0.450550  1.0  -0.5609
  N  N232  1  0.695900  0.529900  0.369800  1.0  -0.6811
  N  N233  1  0.501600  0.902600  0.448600  1.0  -0.4273
  N  N234  1  0.473200  0.873800  0.500790  1.0  -0.2641
  N  N235  1  0.478000  0.723300  0.450550  1.0  -0.5627
  N  N236  1  0.529900  0.804100  0.369800  1.0  -0.6809
  N  N237  1  0.998400  0.597400  0.448600  1.0  -0.4275
  N  N238  1  0.026800  0.626200  0.500790  1.0  -0.2649
  N  N239  1  0.022000  0.776700  0.450550  1.0  -0.563
  N  N240  1  0.970100  0.695900  0.369800  1.0  -0.6798
  N  N241  1  0.597400  0.998400  0.051400  1.0  -0.4278
  N  N242  1  0.626200  0.026800  0.999210  1.0  -0.2632
  N  N243  1  0.776700  0.022000  0.049450  1.0  -0.5598
  N  N244  1  0.695900  0.970100  0.130200  1.0  -0.6807
  N  N245  1  0.902600  0.501600  0.051400  1.0  -0.4278
  N  N246  1  0.873800  0.473200  0.999210  1.0  -0.2637
  N  N247  1  0.723300  0.478000  0.049450  1.0  -0.5622
  N  N248  1  0.804100  0.529900  0.130200  1.0  -0.6811
  N  N249  1  0.998400  0.902600  0.051400  1.0  -0.428
  N  N250  1  0.026800  0.873800  0.999210  1.0  -0.2652
  N  N251  1  0.022000  0.723300  0.049450  1.0  -0.5624
  N  N252  1  0.970100  0.804100  0.130200  1.0  -0.6803
  N  N253  1  0.501600  0.597400  0.051400  1.0  -0.4271
  N  N254  1  0.473200  0.626200  0.999210  1.0  -0.2646
  N  N255  1  0.478000  0.776700  0.049450  1.0  -0.5617
  N  N256  1  0.529900  0.695900  0.130200  1.0  -0.6805
  O  O257  1  0.146400  0.949500  0.383800  1.0  -0.5889
  O  O258  1  0.012500  0.911900  0.332900  1.0  -0.6293
  O  O259  1  0.353600  0.550500  0.383800  1.0  -0.5897
  O  O260  1  0.487500  0.588100  0.332900  1.0  -0.6294
  O  O261  1  0.550500  0.146400  0.383800  1.0  -0.5898
  O  O262  1  0.588100  0.012500  0.332900  1.0  -0.6287
  O  O263  1  0.949500  0.353600  0.383800  1.0  -0.5892
  O  O264  1  0.911900  0.487500  0.332900  1.0  -0.6286
  O  O265  1  0.353600  0.949500  0.116200  1.0  -0.5898
  O  O266  1  0.487500  0.911900  0.167100  1.0  -0.6294
  O  O267  1  0.146400  0.550500  0.116200  1.0  -0.5902
  O  O268  1  0.012500  0.588100  0.167100  1.0  -0.6291
  O  O269  1  0.949500  0.146400  0.116200  1.0  -0.5898
  O  O270  1  0.911900  0.012500  0.167100  1.0  -0.6279
  O  O271  1  0.550500  0.353600  0.116200  1.0  -0.5911
  O  O272  1  0.588100  0.487500  0.167100  1.0  -0.6291
  O  O273  1  0.853600  0.050500  0.616200  1.0  -0.5906
  O  O274  1  0.987500  0.088100  0.667100  1.0  -0.6295
  O  O275  1  0.646400  0.449500  0.616200  1.0  -0.5892
  O  O276  1  0.512500  0.411900  0.667100  1.0  -0.6291
  O  O277  1  0.449500  0.853600  0.616200  1.0  -0.5901
  O  O278  1  0.411900  0.987500  0.667100  1.0  -0.6288
  O  O279  1  0.050500  0.646400  0.616200  1.0  -0.59
  O  O280  1  0.088100  0.512500  0.667100  1.0  -0.6283
  O  O281  1  0.646400  0.050500  0.883800  1.0  -0.5892
  O  O282  1  0.512500  0.088100  0.832900  1.0  -0.629
  O  O283  1  0.853600  0.449500  0.883800  1.0  -0.5896
  O  O284  1  0.987500  0.411900  0.832900  1.0  -0.6296
  O  O285  1  0.050500  0.853600  0.883800  1.0  -0.59
  O  O286  1  0.088100  0.987500  0.832900  1.0  -0.6289
  O  O287  1  0.449500  0.646400  0.883800  1.0  -0.5898
  O  O288  1  0.411900  0.512500  0.832900  1.0  -0.6285
