# generated using pymatgen
data_EuH8C16NO6
_symmetry_space_group_name_H-M   'P 1'
_cell_length_a   12.69900000
_cell_length_b   14.26020000
_cell_length_c   15.94620000
_cell_angle_alpha   96.89680000
_cell_angle_beta   113.46500000
_cell_angle_gamma   90.00000000
_symmetry_Int_Tables_number   1
_chemical_formula_structural   EuH8C16NO6
_chemical_formula_sum   'Eu4 H32 C64 N4 O24'
_cell_volume   2626.10426893
_cell_formula_units_Z   4
loop_
 _symmetry_equiv_pos_site_id
 _symmetry_equiv_pos_as_xyz
  1  'x, y, z'
loop_
 _atom_site_type_symbol
 _atom_site_label
 _atom_site_symmetry_multiplicity
 _atom_site_fract_x
 _atom_site_fract_y
 _atom_site_fract_z
 _atom_site_occupancy
 _atom_site_charge
  Eu  Eu1  1  0.384880  0.457560  0.371040  1.0  2.1187
  Eu  Eu2  1  0.013840  0.042440  0.628960  1.0  2.1182
  Eu  Eu3  1  0.615120  0.542440  0.628960  1.0  2.1191
  Eu  Eu4  1  0.986160  0.957560  0.371040  1.0  2.1161
  H  H5  1  0.151300  0.593300  0.083600  1.0  0.1221
  H  H6  1  0.110700  0.642300  0.942400  1.0  0.11
  H  H7  1  0.432300  0.598500  0.970600  1.0  0.1041
  H  H8  1  0.470300  0.542900  0.108800  1.0  0.1126
  H  H9  1  0.157000  0.664000  0.824000  1.0  0.0863
  H  H10  1  0.367700  0.572600  0.686200  1.0  0.1092
  H  H11  1  0.160900  0.774800  0.718000  1.0  0.1164
  H  H12  1  0.168700  0.698900  0.469200  1.0  0.1201
  H  H13  1  0.067700  0.906700  0.916400  1.0  0.1223
  H  H14  1  0.168300  0.857700  0.057600  1.0  0.1102
  H  H15  1  0.461700  0.901500  0.029400  1.0  0.1041
  H  H16  1  0.361500  0.957100  0.891200  1.0  0.1139
  H  H17  1  0.333000  0.836000  0.176000  1.0  0.0869
  H  H18  1  0.681500  0.927400  0.313800  1.0  0.1086
  H  H19  1  0.442900  0.725200  0.282000  1.0  0.116
  H  H20  1  0.699500  0.801100  0.530800  1.0  0.1197
  H  H21  1  0.848700  0.406700  0.916400  1.0  0.122
  H  H22  1  0.889300  0.357700  0.057600  1.0  0.1099
  H  H23  1  0.567700  0.401500  0.029400  1.0  0.104
  H  H24  1  0.529700  0.457100  0.891200  1.0  0.113
  H  H25  1  0.843000  0.336000  0.176000  1.0  0.0858
  H  H26  1  0.632300  0.427400  0.313800  1.0  0.1097
  H  H27  1  0.839100  0.225200  0.282000  1.0  0.1169
  H  H28  1  0.831300  0.301100  0.530800  1.0  0.1194
  H  H29  1  0.932300  0.093300  0.083600  1.0  0.1214
  H  H30  1  0.831700  0.142300  0.942400  1.0  0.1102
  H  H31  1  0.538300  0.098500  0.970600  1.0  0.104
  H  H32  1  0.638500  0.042900  0.108800  1.0  0.1142
  H  H33  1  0.667000  0.164000  0.824000  1.0  0.0857
  H  H34  1  0.318500  0.072600  0.686200  1.0  0.108
  H  H35  1  0.557100  0.274800  0.718000  1.0  0.116
  H  H36  1  0.300500  0.198900  0.469200  1.0  0.1202
  C  C37  1  0.344300  0.523900  0.200200  1.0  0.6949
  C  C38  1  0.317000  0.564800  0.111000  1.0  -0.1433
  C  C39  1  0.207900  0.593900  0.060600  1.0  -0.0809
  C  C40  1  0.184100  0.623500  0.976200  1.0  -0.1285
  C  C41  1  0.265700  0.626100  0.940800  1.0  -0.028
  C  C42  1  0.374900  0.596600  0.992800  1.0  -0.0512
  C  C43  1  0.398200  0.564700  0.076200  1.0  -0.0788
  C  C44  1  0.236200  0.654000  0.847200  1.0  0.1551
  C  C45  1  0.315900  0.564900  0.507800  1.0  0.6879
  C  C46  1  0.274400  0.625100  0.568400  1.0  -0.1288
  C  C47  1  0.312200  0.615500  0.661200  1.0  -0.0903
  C  C48  1  0.268500  0.668900  0.717200  1.0  0.2339
  C  C49  1  0.191000  0.738300  0.681400  1.0  -0.0654
  C  C50  1  0.159400  0.751500  0.588400  1.0  -0.1221
  C  C51  1  0.195900  0.693200  0.531600  1.0  0.018
  C  C52  1  0.079900  0.827900  0.548800  1.0  0.7662
  C  C53  1  0.144100  0.976100  0.799800  1.0  0.6966
  C  C54  1  0.206000  0.935200  0.889000  1.0  -0.1417
  C  C55  1  0.147300  0.906100  0.939400  1.0  -0.0782
  C  C56  1  0.207900  0.876500  0.023800  1.0  -0.1342
  C  C57  1  0.324900  0.873900  0.059200  1.0  -0.0233
  C  C58  1  0.382100  0.903400  0.007200  1.0  -0.0495
  C  C59  1  0.322000  0.935300  0.923800  1.0  -0.0781
  C  C60  1  0.389000  0.846000  0.152800  1.0  0.1535
  C  C61  1  0.808100  0.935100  0.492200  1.0  0.6861
  C  C62  1  0.706000  0.874900  0.431600  1.0  -0.1274
  C  C63  1  0.651000  0.884500  0.338800  1.0  -0.0903
  C  C64  1  0.551300  0.831100  0.282800  1.0  0.2366
  C  C65  1  0.509600  0.761700  0.318600  1.0  -0.0658
  C  C66  1  0.571000  0.748500  0.411600  1.0  -0.1199
  C  C67  1  0.664300  0.806800  0.468400  1.0  0.0146
  C  C68  1  0.531100  0.672100  0.451200  1.0  0.7678
  C  C69  1  0.655700  0.476100  0.799800  1.0  0.6962
  C  C70  1  0.683000  0.435200  0.889000  1.0  -0.1395
  C  C71  1  0.792100  0.406100  0.939400  1.0  -0.0793
  C  C72  1  0.815900  0.376500  0.023800  1.0  -0.1267
  C  C73  1  0.734300  0.373900  0.059200  1.0  -0.0279
  C  C74  1  0.625100  0.403400  0.007200  1.0  -0.0516
  C  C75  1  0.601800  0.435300  0.923800  1.0  -0.0801
  C  C76  1  0.763800  0.346000  0.152800  1.0  0.1537
  C  C77  1  0.684100  0.435100  0.492200  1.0  0.6896
  C  C78  1  0.725600  0.374900  0.431600  1.0  -0.1287
  C  C79  1  0.687800  0.384500  0.338800  1.0  -0.091
  C  C80  1  0.731500  0.331100  0.282800  1.0  0.2337
  C  C81  1  0.809000  0.261700  0.318600  1.0  -0.0654
  C  C82  1  0.840600  0.248500  0.411600  1.0  -0.1216
  C  C83  1  0.804100  0.306800  0.468400  1.0  0.0172
  C  C84  1  0.920100  0.172100  0.451200  1.0  0.7662
  C  C85  1  0.855900  0.023900  0.200200  1.0  0.6965
  C  C86  1  0.794000  0.064800  0.111000  1.0  -0.1426
  C  C87  1  0.852700  0.093900  0.060600  1.0  -0.0775
  C  C88  1  0.792100  0.123500  0.976200  1.0  -0.1303
  C  C89  1  0.675100  0.126100  0.940800  1.0  -0.0262
  C  C90  1  0.617900  0.096600  0.992800  1.0  -0.0491
  C  C91  1  0.678000  0.064700  0.076200  1.0  -0.0789
  C  C92  1  0.611000  0.154000  0.847200  1.0  0.1544
  C  C93  1  0.191900  0.064900  0.507800  1.0  0.6881
  C  C94  1  0.294000  0.125100  0.568400  1.0  -0.1278
  C  C95  1  0.349000  0.115500  0.661200  1.0  -0.0905
  C  C96  1  0.448700  0.168900  0.717200  1.0  0.2362
  C  C97  1  0.490400  0.238300  0.681400  1.0  -0.0652
  C  C98  1  0.429000  0.251500  0.588400  1.0  -0.1201
  C  C99  1  0.335700  0.193200  0.531600  1.0  0.0151
  C  C100  1  0.468900  0.327900  0.548800  1.0  0.7676
  N  N101  1  0.303700  0.650100  0.809400  1.0  -0.3764
  N  N102  1  0.494300  0.849900  0.190600  1.0  -0.3753
  N  N103  1  0.696300  0.349900  0.190600  1.0  -0.3742
  N  N104  1  0.505700  0.150100  0.809400  1.0  -0.3741
  O  O105  1  0.262800  0.520000  0.228400  1.0  -0.664
  O  O106  1  0.441400  0.500400  0.246600  1.0  -0.6718
  O  O107  1  0.414200  0.529000  0.540400  1.0  -0.8387
  O  O108  1  0.253300  0.544900  0.424000  1.0  -0.6118
  O  O109  1  0.056100  0.837900  0.467200  1.0  -0.766
  O  O110  1  0.044100  0.876900  0.602800  1.0  -0.7078
  O  O111  1  0.034400  0.980000  0.771600  1.0  -0.6603
  O  O112  1  0.194800  0.999600  0.753400  1.0  -0.6715
  O  O113  1  0.873800  0.971000  0.459600  1.0  -0.8426
  O  O114  1  0.829300  0.955100  0.576000  1.0  -0.6187
  O  O115  1  0.588900  0.662100  0.532800  1.0  -0.7737
  O  O116  1  0.441300  0.623100  0.397200  1.0  -0.7084
  O  O117  1  0.737200  0.480000  0.771600  1.0  -0.6662
  O  O118  1  0.558600  0.499600  0.753400  1.0  -0.6725
  O  O119  1  0.585800  0.471000  0.459600  1.0  -0.8379
  O  O120  1  0.746700  0.455100  0.576000  1.0  -0.6152
  O  O121  1  0.943900  0.162100  0.532800  1.0  -0.7692
  O  O122  1  0.955900  0.123100  0.397200  1.0  -0.7062
  O  O123  1  0.965600  0.020000  0.228400  1.0  -0.6636
  O  O124  1  0.805200  0.000400  0.246600  1.0  -0.6725
  O  O125  1  0.126200  0.029000  0.540400  1.0  -0.8414
  O  O126  1  0.170700  0.044900  0.424000  1.0  -0.6146
  O  O127  1  0.411100  0.337900  0.467200  1.0  -0.7714
  O  O128  1  0.558700  0.376900  0.602800  1.0  -0.7089
