# generated using pymatgen
data_HoH7C16NO6
_symmetry_space_group_name_H-M   'P 1'
_cell_length_a   13.34670000
_cell_length_b   14.35400000
_cell_length_c   16.03360000
_cell_angle_alpha   116.59100000
_cell_angle_beta   98.62100000
_cell_angle_gamma   90.00000000
_symmetry_Int_Tables_number   1
_chemical_formula_structural   HoH7C16NO6
_chemical_formula_sum   'Ho4 H28 C64 N4 O24'
_cell_volume   2707.91735497
_cell_formula_units_Z   4
loop_
 _symmetry_equiv_pos_site_id
 _symmetry_equiv_pos_as_xyz
  1  'x, y, z'
loop_
 _atom_site_type_symbol
 _atom_site_label
 _atom_site_symmetry_multiplicity
 _atom_site_fract_x
 _atom_site_fract_y
 _atom_site_fract_z
 _atom_site_occupancy
 _atom_site_charge
  Ho  Ho1  1  0.960270  0.895920  0.366820  1.0  2.146
  Ho  Ho2  1  0.539730  0.529100  0.633180  1.0  2.1451
  Ho  Ho3  1  0.039730  0.104080  0.633180  1.0  2.1486
  Ho  Ho4  1  0.460270  0.470900  0.366820  1.0  2.1448
  H  H5  1  0.450000  0.866800  0.884200  1.0  0.103
  H  H6  1  0.393800  0.972800  0.029600  1.0  0.1101
  H  H7  1  0.380800  0.727900  0.080800  1.0  0.1093
  H  H8  1  0.403300  0.617400  0.925600  1.0  0.1127
  H  H9  1  0.296700  0.226500  0.540200  1.0  0.1145
  H  H10  1  0.227000  0.972400  0.287800  1.0  0.1055
  H  H11  1  0.421800  0.202100  0.317600  1.0  0.1223
  H  H12  1  0.050000  0.982600  0.115800  1.0  0.1029
  H  H13  1  0.106200  0.943200  0.970400  1.0  0.11
  H  H14  1  0.119200  0.647100  0.919200  1.0  0.1102
  H  H15  1  0.096700  0.691800  0.074400  1.0  0.1134
  H  H16  1  0.203300  0.686300  0.459800  1.0  0.1138
  H  H17  1  0.273000  0.684600  0.712200  1.0  0.1048
  H  H18  1  0.078200  0.884500  0.682400  1.0  0.122
  H  H19  1  0.550000  0.133200  0.115800  1.0  0.1034
  H  H20  1  0.606200  0.027200  0.970400  1.0  0.1101
  H  H21  1  0.619200  0.272100  0.919200  1.0  0.1088
  H  H22  1  0.596700  0.382600  0.074400  1.0  0.1129
  H  H23  1  0.703300  0.773500  0.459800  1.0  0.1144
  H  H24  1  0.773000  0.027600  0.712200  1.0  0.1055
  H  H25  1  0.578200  0.797900  0.682400  1.0  0.1215
  H  H26  1  0.950000  0.017400  0.884200  1.0  0.1033
  H  H27  1  0.893800  0.056800  0.029600  1.0  0.1099
  H  H28  1  0.880800  0.352900  0.080800  1.0  0.1107
  H  H29  1  0.903300  0.308200  0.925600  1.0  0.1136
  H  H30  1  0.796700  0.313700  0.540200  1.0  0.114
  H  H31  1  0.727000  0.315400  0.287800  1.0  0.1052
  H  H32  1  0.921800  0.115500  0.317600  1.0  0.1222
  C  C33  1  0.480000  0.666100  0.805000  1.0  0.6719
  C  C34  1  0.443000  0.734500  0.894400  1.0  -0.0962
  C  C35  1  0.434100  0.837300  0.922200  1.0  -0.0368
  C  C36  1  0.400000  0.901800  0.010200  1.0  -0.1034
  C  C37  1  0.376900  0.855700  0.065000  1.0  0.0355
  C  C38  1  0.388000  0.755500  0.039000  1.0  -0.0959
  C  C39  1  0.410000  0.689600  0.949000  1.0  -0.0593
  C  C40  1  0.351100  0.922100  0.161200  1.0  0.0778
  C  C41  1  0.426400  0.334500  0.498000  1.0  0.7689
  C  C42  1  0.370100  0.230500  0.439600  1.0  -0.1442
  C  C43  1  0.304400  0.189500  0.477200  1.0  0.0147
  C  C44  1  0.250200  0.093000  0.419800  1.0  -0.1485
  C  C45  1  0.263800  0.036200  0.326000  1.0  -0.0837
  C  C46  1  0.331900  0.074500  0.289800  1.0  0.1804
  C  C47  1  0.381400  0.173600  0.344200  1.0  -0.0913
  C  C48  1  0.172700  0.051000  0.457600  1.0  0.7924
  C  C49  1  0.020000  0.861100  0.195000  1.0  0.6719
  C  C50  1  0.057000  0.840100  0.105600  1.0  -0.0986
  C  C51  1  0.065900  0.915100  0.077800  1.0  -0.0406
  C  C52  1  0.100000  0.891600  0.989800  1.0  -0.0985
  C  C53  1  0.123100  0.790700  0.935000  1.0  0.0389
  C  C54  1  0.112000  0.716500  0.961000  1.0  -0.1024
  C  C55  1  0.090000  0.740600  0.051000  1.0  -0.0618
  C  C56  1  0.148900  0.760900  0.838800  1.0  0.0767
  C  C57  1  0.073600  0.836500  0.502000  1.0  0.7683
  C  C58  1  0.129900  0.790900  0.560400  1.0  -0.1465
  C  C59  1  0.195600  0.712300  0.522800  1.0  0.014
  C  C60  1  0.249800  0.673200  0.580200  1.0  -0.1477
  C  C61  1  0.236200  0.710200  0.674000  1.0  -0.083
  C  C62  1  0.168100  0.784700  0.710200  1.0  0.1789
  C  C63  1  0.118600  0.829400  0.655800  1.0  -0.0903
  C  C64  1  0.327300  0.593400  0.542400  1.0  0.7917
  C  C65  1  0.520000  0.333900  0.195000  1.0  0.6734
  C  C66  1  0.557000  0.265500  0.105600  1.0  -0.0929
  C  C67  1  0.565900  0.162700  0.077800  1.0  -0.0393
  C  C68  1  0.600000  0.098200  0.989800  1.0  -0.1008
  C  C69  1  0.623100  0.144300  0.935000  1.0  0.0412
  C  C70  1  0.612000  0.244500  0.961000  1.0  -0.1035
  C  C71  1  0.590000  0.310400  0.051000  1.0  -0.0621
  C  C72  1  0.648900  0.077900  0.838800  1.0  0.077
  C  C73  1  0.573600  0.665500  0.502000  1.0  0.769
  C  C74  1  0.629900  0.769500  0.560400  1.0  -0.1454
  C  C75  1  0.695600  0.810500  0.522800  1.0  0.0128
  C  C76  1  0.749800  0.907000  0.580200  1.0  -0.1486
  C  C77  1  0.736200  0.963800  0.674000  1.0  -0.0826
  C  C78  1  0.668100  0.925500  0.710200  1.0  0.1801
  C  C79  1  0.618600  0.826400  0.655800  1.0  -0.0909
  C  C80  1  0.827300  0.949000  0.542400  1.0  0.7913
  C  C81  1  0.980000  0.138900  0.805000  1.0  0.6721
  C  C82  1  0.943000  0.159900  0.894400  1.0  -0.0977
  C  C83  1  0.934100  0.084900  0.922200  1.0  -0.0384
  C  C84  1  0.900000  0.108400  0.010200  1.0  -0.0988
  C  C85  1  0.876900  0.209300  0.065000  1.0  0.0359
  C  C86  1  0.888000  0.283500  0.039000  1.0  -0.0998
  C  C87  1  0.910000  0.259400  0.949000  1.0  -0.0622
  C  C88  1  0.851100  0.239100  0.161200  1.0  0.078
  C  C89  1  0.926400  0.163500  0.498000  1.0  0.7682
  C  C90  1  0.870100  0.209100  0.439600  1.0  -0.1478
  C  C91  1  0.804400  0.287700  0.477200  1.0  0.016
  C  C92  1  0.750200  0.326800  0.419800  1.0  -0.1458
  C  C93  1  0.763800  0.289800  0.326000  1.0  -0.0839
  C  C94  1  0.831900  0.215300  0.289800  1.0  0.1804
  C  C95  1  0.881400  0.170600  0.344200  1.0  -0.0901
  C  C96  1  0.672700  0.406600  0.457600  1.0  0.7904
  N  N97  1  0.350200  0.018800  0.195400  1.0  -0.2159
  N  N98  1  0.149800  0.823400  0.804600  1.0  -0.2166
  N  N99  1  0.649800  0.981200  0.804600  1.0  -0.2183
  N  N100  1  0.850200  0.176600  0.195400  1.0  -0.2154
  O  O101  1  0.481600  0.572500  0.778400  1.0  -0.6754
  O  O102  1  0.506000  0.708000  0.754400  1.0  -0.7203
  O  O103  1  0.445600  0.368000  0.587400  1.0  -0.6725
  O  O104  1  0.455300  0.387300  0.460000  1.0  -0.8507
  O  O105  1  0.127900  0.963000  0.401400  1.0  -0.6684
  O  O106  1  0.160900  0.107300  0.542400  1.0  -0.7943
  O  O107  1  0.018400  0.794100  0.221600  1.0  -0.6779
  O  O108  1  0.994000  0.953600  0.245600  1.0  -0.7211
  O  O109  1  0.054400  0.780600  0.412600  1.0  -0.673
  O  O110  1  0.044700  0.927300  0.540000  1.0  -0.8536
  O  O111  1  0.372100  0.561600  0.598600  1.0  -0.6673
  O  O112  1  0.339100  0.564900  0.457600  1.0  -0.794
  O  O113  1  0.518400  0.427500  0.221600  1.0  -0.6735
  O  O114  1  0.494000  0.292000  0.245600  1.0  -0.7201
  O  O115  1  0.554400  0.632000  0.412600  1.0  -0.6717
  O  O116  1  0.544700  0.612700  0.540000  1.0  -0.8512
  O  O117  1  0.872100  0.037000  0.598600  1.0  -0.6698
  O  O118  1  0.839100  0.892700  0.457600  1.0  -0.7949
  O  O119  1  0.981600  0.205900  0.778400  1.0  -0.6752
  O  O120  1  0.006000  0.046400  0.754400  1.0  -0.7207
  O  O121  1  0.945600  0.219400  0.587400  1.0  -0.6763
  O  O122  1  0.955300  0.072700  0.460000  1.0  -0.8519
  O  O123  1  0.627900  0.438400  0.401400  1.0  -0.6686
  O  O124  1  0.660900  0.435100  0.542400  1.0  -0.7944
