# generated using pymatgen
data_DyH7C16NO6
_symmetry_space_group_name_H-M   'P 1'
_cell_length_a   13.60930000
_cell_length_b   13.90770000
_cell_length_c   15.98650000
_cell_angle_alpha   115.78400000
_cell_angle_beta   98.16410000
_cell_angle_gamma   90.00000000
_symmetry_Int_Tables_number   1
_chemical_formula_structural   DyH7C16NO6
_chemical_formula_sum   'Dy4 H28 C64 N4 O24'
_cell_volume   2690.48203822
_cell_formula_units_Z   4
loop_
 _symmetry_equiv_pos_site_id
 _symmetry_equiv_pos_as_xyz
  1  'x, y, z'
loop_
 _atom_site_type_symbol
 _atom_site_label
 _atom_site_symmetry_multiplicity
 _atom_site_fract_x
 _atom_site_fract_y
 _atom_site_fract_z
 _atom_site_occupancy
 _atom_site_charge
  Dy  Dy1  1  0.458910  0.893170  0.367840  1.0  2.2541
  Dy  Dy2  1  0.041090  0.525330  0.632160  1.0  2.253
  Dy  Dy3  1  0.541090  0.106830  0.632160  1.0  2.2561
  Dy  Dy4  1  0.958910  0.474670  0.367840  1.0  2.2516
  H  H5  1  0.535400  0.973300  0.107800  1.0  0.1061
  H  H6  1  0.605900  0.939700  0.969600  1.0  0.1192
  H  H7  1  0.647600  0.641800  0.929200  1.0  0.1201
  H  H8  1  0.604100  0.685500  0.083600  1.0  0.1168
  H  H9  1  0.702700  0.682300  0.462200  1.0  0.114
  H  H10  1  0.774300  0.680700  0.713800  1.0  0.1
  H  H11  1  0.574800  0.878600  0.685000  1.0  0.1318
  H  H12  1  0.964600  0.865500  0.892200  1.0  0.1071
  H  H13  1  0.894100  0.970100  0.030400  1.0  0.1193
  H  H14  1  0.852400  0.712600  0.070800  1.0  0.1193
  H  H15  1  0.895900  0.601900  0.916400  1.0  0.1153
  H  H16  1  0.797300  0.220100  0.537800  1.0  0.115
  H  H17  1  0.725700  0.966900  0.286200  1.0  0.0997
  H  H18  1  0.925200  0.193600  0.315000  1.0  0.1311
  H  H19  1  0.464600  0.026700  0.892200  1.0  0.1062
  H  H20  1  0.394100  0.060300  0.030400  1.0  0.1191
  H  H21  1  0.352400  0.358200  0.070800  1.0  0.1205
  H  H22  1  0.395900  0.314500  0.916400  1.0  0.1167
  H  H23  1  0.297300  0.317700  0.537800  1.0  0.1144
  H  H24  1  0.225700  0.319300  0.286200  1.0  0.1005
  H  H25  1  0.425200  0.121400  0.315000  1.0  0.1318
  H  H26  1  0.035400  0.134500  0.107800  1.0  0.1077
  H  H27  1  0.105900  0.029900  0.969600  1.0  0.1192
  H  H28  1  0.147600  0.287400  0.929200  1.0  0.1198
  H  H29  1  0.104100  0.398100  0.083600  1.0  0.1155
  H  H30  1  0.202700  0.779900  0.462200  1.0  0.1146
  H  H31  1  0.274300  0.033100  0.713800  1.0  0.0998
  H  H32  1  0.074800  0.806400  0.685000  1.0  0.1309
  C  C33  1  0.523500  0.849400  0.193000  1.0  0.5836
  C  C34  1  0.559500  0.831000  0.105800  1.0  -0.0893
  C  C35  1  0.560000  0.907200  0.074200  1.0  -0.0458
  C  C36  1  0.598500  0.886000  0.988600  1.0  -0.1131
  C  C37  1  0.623900  0.784100  0.936600  1.0  0.0824
  C  C38  1  0.627000  0.709100  0.965800  1.0  -0.1198
  C  C39  1  0.597000  0.734500  0.058200  1.0  -0.0386
  C  C40  1  0.650200  0.752100  0.842200  1.0  0.0345
  C  C41  1  0.567800  0.830000  0.503200  1.0  0.7788
  C  C42  1  0.627500  0.785900  0.561600  1.0  -0.1548
  C  C43  1  0.695000  0.708100  0.525000  1.0  0.0193
  C  C44  1  0.750100  0.669600  0.581800  1.0  -0.1465
  C  C45  1  0.736600  0.706500  0.675800  1.0  -0.0799
  C  C46  1  0.670400  0.778100  0.711600  1.0  0.1979
  C  C47  1  0.616500  0.824400  0.658200  1.0  -0.1033
  C  C48  1  0.829000  0.589500  0.544000  1.0  0.7976
  C  C49  1  0.976500  0.656400  0.807000  1.0  0.5768
  C  C50  1  0.940500  0.725200  0.894200  1.0  -0.0892
  C  C51  1  0.940000  0.833000  0.925800  1.0  -0.0457
  C  C52  1  0.901500  0.897400  0.011400  1.0  -0.117
  C  C53  1  0.876100  0.847500  0.063400  1.0  0.0803
  C  C54  1  0.873000  0.743300  0.034200  1.0  -0.1235
  C  C55  1  0.903000  0.676300  0.941800  1.0  -0.0359
  C  C56  1  0.849800  0.909900  0.157800  1.0  0.0348
  C  C57  1  0.932200  0.326800  0.496800  1.0  0.779
  C  C58  1  0.872500  0.224300  0.438400  1.0  -0.1537
  C  C59  1  0.805000  0.183100  0.475000  1.0  0.0172
  C  C60  1  0.749900  0.087800  0.418200  1.0  -0.1478
  C  C61  1  0.763400  0.030700  0.324200  1.0  -0.0791
  C  C62  1  0.829600  0.066500  0.288400  1.0  0.1975
  C  C63  1  0.883500  0.166200  0.341800  1.0  -0.1043
  C  C64  1  0.671000  0.045500  0.456000  1.0  0.7998
  C  C65  1  0.476500  0.150600  0.807000  1.0  0.5806
  C  C66  1  0.440500  0.169000  0.894200  1.0  -0.0913
  C  C67  1  0.440000  0.092800  0.925800  1.0  -0.0458
  C  C68  1  0.401500  0.114000  0.011400  1.0  -0.1139
  C  C69  1  0.376100  0.215900  0.063400  1.0  0.0805
  C  C70  1  0.373000  0.290900  0.034200  1.0  -0.1182
  C  C71  1  0.403000  0.265500  0.941800  1.0  -0.038
  C  C72  1  0.349800  0.247900  0.157800  1.0  0.0337
  C  C73  1  0.432200  0.170000  0.496800  1.0  0.7786
  C  C74  1  0.372500  0.214100  0.438400  1.0  -0.1543
  C  C75  1  0.305000  0.291900  0.475000  1.0  0.0172
  C  C76  1  0.249900  0.330400  0.418200  1.0  -0.1457
  C  C77  1  0.263400  0.293500  0.324200  1.0  -0.0808
  C  C78  1  0.329600  0.221900  0.288400  1.0  0.1972
  C  C79  1  0.383500  0.175600  0.341800  1.0  -0.1033
  C  C80  1  0.171000  0.410500  0.456000  1.0  0.7987
  C  C81  1  0.023500  0.343600  0.193000  1.0  0.5832
  C  C82  1  0.059500  0.274800  0.105800  1.0  -0.0862
  C  C83  1  0.060000  0.167000  0.074200  1.0  -0.0461
  C  C84  1  0.098500  0.102600  0.988600  1.0  -0.1154
  C  C85  1  0.123900  0.152500  0.936600  1.0  0.0835
  C  C86  1  0.127000  0.256700  0.965800  1.0  -0.1222
  C  C87  1  0.097000  0.323700  0.058200  1.0  -0.0383
  C  C88  1  0.150200  0.090100  0.842200  1.0  0.0346
  C  C89  1  0.067800  0.673200  0.503200  1.0  0.7793
  C  C90  1  0.127500  0.775700  0.561600  1.0  -0.1538
  C  C91  1  0.195000  0.816900  0.525000  1.0  0.0184
  C  C92  1  0.250100  0.912200  0.581800  1.0  -0.1476
  C  C93  1  0.236600  0.969300  0.675800  1.0  -0.0801
  C  C94  1  0.170400  0.933500  0.711600  1.0  0.1978
  C  C95  1  0.116500  0.833800  0.658200  1.0  -0.1052
  C  C96  1  0.329000  0.954500  0.544000  1.0  0.7991
  N  N97  1  0.649200  0.815000  0.804400  1.0  -0.2468
  N  N98  1  0.850800  0.010600  0.195600  1.0  -0.2493
  N  N99  1  0.350800  0.185000  0.195600  1.0  -0.2482
  N  N100  1  0.149200  0.989400  0.804400  1.0  -0.2504
  O  O101  1  0.520600  0.786600  0.224400  1.0  -0.6643
  O  O102  1  0.493300  0.947700  0.245000  1.0  -0.7665
  O  O103  1  0.552000  0.773900  0.415800  1.0  -0.652
  O  O104  1  0.540500  0.924700  0.540200  1.0  -0.8718
  O  O105  1  0.838400  0.564500  0.460600  1.0  -0.7788
  O  O106  1  0.875400  0.557400  0.600600  1.0  -0.6748
  O  O107  1  0.979400  0.562200  0.775600  1.0  -0.6622
  O  O108  1  0.006700  0.702700  0.755000  1.0  -0.7703
  O  O109  1  0.948000  0.358100  0.584200  1.0  -0.6519
  O  O110  1  0.959500  0.384500  0.459800  1.0  -0.8697
  O  O111  1  0.661600  0.103900  0.539400  1.0  -0.7789
  O  O112  1  0.624600  0.956800  0.399400  1.0  -0.6763
  O  O113  1  0.479400  0.213400  0.775600  1.0  -0.6633
  O  O114  1  0.506700  0.052300  0.755000  1.0  -0.7684
  O  O115  1  0.448000  0.226100  0.584200  1.0  -0.6551
  O  O116  1  0.459500  0.075300  0.459800  1.0  -0.8708
  O  O117  1  0.161600  0.435500  0.539400  1.0  -0.7803
  O  O118  1  0.124600  0.442600  0.399400  1.0  -0.6762
  O  O119  1  0.020600  0.437800  0.224400  1.0  -0.6628
  O  O120  1  0.993300  0.297300  0.245000  1.0  -0.769
  O  O121  1  0.052000  0.641900  0.415800  1.0  -0.6495
  O  O122  1  0.040500  0.615500  0.540200  1.0  -0.8692
  O  O123  1  0.338400  0.896100  0.460600  1.0  -0.7804
  O  O124  1  0.375400  0.043200  0.600600  1.0  -0.6774
