# generated using pymatgen
data_TbH8C16NO6
_symmetry_space_group_name_H-M   'P 1'
_cell_length_a   13.09030000
_cell_length_b   13.95330000
_cell_length_c   15.98040000
_cell_angle_alpha   96.90800000
_cell_angle_beta   114.17800000
_cell_angle_gamma   90.00000000
_symmetry_Int_Tables_number   1
_chemical_formula_structural   TbH8C16NO6
_chemical_formula_sum   'Tb4 H32 C64 N4 O24'
_cell_volume   2639.57174415
_cell_formula_units_Z   4
loop_
 _symmetry_equiv_pos_site_id
 _symmetry_equiv_pos_as_xyz
  1  'x, y, z'
loop_
 _atom_site_type_symbol
 _atom_site_label
 _atom_site_symmetry_multiplicity
 _atom_site_fract_x
 _atom_site_fract_y
 _atom_site_fract_z
 _atom_site_occupancy
 _atom_site_charge
  Tb  Tb1  1  0.483250  0.458950  0.371080  1.0  2.208
  Tb  Tb2  1  0.112170  0.041050  0.628920  1.0  2.2036
  Tb  Tb3  1  0.516750  0.541050  0.628920  1.0  2.2067
  Tb  Tb4  1  0.887830  0.958950  0.371080  1.0  2.203
  H  H5  1  0.139100  0.542400  0.110000  1.0  0.0945
  H  H6  1  0.037900  0.594800  0.969400  1.0  0.0888
  H  H7  1  0.319200  0.648500  0.942000  1.0  0.1179
  H  H8  1  0.421400  0.603000  0.089000  1.0  0.0941
  H  H9  1  0.817000  0.571300  0.687600  1.0  0.0953
  H  H10  1  0.048100  0.774500  0.717800  1.0  0.0938
  H  H11  1  0.795700  0.697300  0.468200  1.0  0.1033
  H  H12  1  0.163000  0.691000  0.834000  1.0  0.0879
  H  H13  1  0.029100  0.957600  0.890000  1.0  0.093
  H  H14  1  0.068500  0.905200  0.030600  1.0  0.0882
  H  H15  1  0.377200  0.851500  0.058000  1.0  0.1176
  H  H16  1  0.332400  0.897000  0.911000  1.0  0.0934
  H  H17  1  0.129400  0.928700  0.312400  1.0  0.0968
  H  H18  1  0.330300  0.725500  0.282200  1.0  0.094
  H  H19  1  0.327500  0.802700  0.531800  1.0  0.1045
  H  H20  1  0.329000  0.809000  0.166000  1.0  0.0868
  H  H21  1  0.860900  0.457600  0.890000  1.0  0.0942
  H  H22  1  0.962100  0.405200  0.030600  1.0  0.0885
  H  H23  1  0.680800  0.351500  0.058000  1.0  0.118
  H  H24  1  0.578600  0.397000  0.911000  1.0  0.0947
  H  H25  1  0.183000  0.428700  0.312400  1.0  0.0962
  H  H26  1  0.951900  0.225500  0.282200  1.0  0.094
  H  H27  1  0.204300  0.302700  0.531800  1.0  0.1049
  H  H28  1  0.837000  0.309000  0.166000  1.0  0.0876
  H  H29  1  0.970900  0.042400  0.110000  1.0  0.0924
  H  H30  1  0.931500  0.094800  0.969400  1.0  0.0881
  H  H31  1  0.622800  0.148500  0.942000  1.0  0.117
  H  H32  1  0.667600  0.103000  0.089000  1.0  0.0941
  H  H33  1  0.870600  0.071300  0.687600  1.0  0.0966
  H  H34  1  0.669700  0.274500  0.717800  1.0  0.0939
  H  H35  1  0.672500  0.197300  0.468200  1.0  0.1032
  H  H36  1  0.671000  0.191000  0.834000  1.0  0.0867
  C  C37  1  0.354900  0.526800  0.202400  1.0  0.6845
  C  C38  1  0.290000  0.564400  0.111200  1.0  -0.1509
  C  C39  1  0.176300  0.563800  0.076600  1.0  -0.051
  C  C40  1  0.115700  0.594700  0.992000  1.0  -0.0428
  C  C41  1  0.167700  0.624900  0.941800  1.0  -0.0088
  C  C42  1  0.282300  0.627700  0.976000  1.0  -0.173
  C  C43  1  0.343400  0.598600  0.063600  1.0  -0.033
  C  C44  1  0.106200  0.652600  0.846800  1.0  0.1403
  C  C45  1  0.686200  0.565000  0.507400  1.0  0.7146
  C  C46  1  0.789400  0.625100  0.568600  1.0  -0.1483
  C  C47  1  0.846100  0.614800  0.662200  1.0  -0.0374
  C  C48  1  0.943200  0.667400  0.716800  1.0  0.1975
  C  C49  1  0.983200  0.736800  0.680200  1.0  -0.0522
  C  C50  1  0.925800  0.749800  0.587200  1.0  -0.1604
  C  C51  1  0.831300  0.691800  0.531000  1.0  -0.0036
  C  C52  1  0.965300  0.827600  0.548600  1.0  0.7621
  C  C53  1  0.152500  0.973200  0.797600  1.0  0.6847
  C  C54  1  0.178800  0.935600  0.888800  1.0  -0.149
  C  C55  1  0.099700  0.936200  0.923400  1.0  -0.0525
  C  C56  1  0.123700  0.905300  0.008000  1.0  -0.043
  C  C57  1  0.225900  0.875100  0.058200  1.0  -0.0105
  C  C58  1  0.306300  0.872300  0.024000  1.0  -0.1687
  C  C59  1  0.279800  0.901400  0.936400  1.0  -0.0342
  C  C60  1  0.259400  0.847400  0.153200  1.0  0.1379
  C  C61  1  0.178800  0.935000  0.492600  1.0  0.7178
  C  C62  1  0.220800  0.874900  0.431400  1.0  -0.1501
  C  C63  1  0.183900  0.885200  0.337800  1.0  -0.0378
  C  C64  1  0.226400  0.832600  0.283200  1.0  0.1938
  C  C65  1  0.303000  0.763200  0.319800  1.0  -0.0536
  C  C66  1  0.338600  0.750200  0.412800  1.0  -0.1597
  C  C67  1  0.300300  0.808200  0.469000  1.0  -0.0019
  C  C68  1  0.416700  0.672400  0.451400  1.0  0.7606
  C  C69  1  0.645100  0.473200  0.797600  1.0  0.6852
  C  C70  1  0.710000  0.435600  0.888800  1.0  -0.1506
  C  C71  1  0.823700  0.436200  0.923400  1.0  -0.0528
  C  C72  1  0.884300  0.405300  0.008000  1.0  -0.0397
  C  C73  1  0.832300  0.375100  0.058200  1.0  -0.0089
  C  C74  1  0.717700  0.372300  0.024000  1.0  -0.1737
  C  C75  1  0.656600  0.401400  0.936400  1.0  -0.0349
  C  C76  1  0.893800  0.347400  0.153200  1.0  0.1382
  C  C77  1  0.313800  0.435000  0.492600  1.0  0.7143
  C  C78  1  0.210600  0.374900  0.431400  1.0  -0.1476
  C  C79  1  0.153900  0.385200  0.337800  1.0  -0.0367
  C  C80  1  0.056800  0.332600  0.283200  1.0  0.1974
  C  C81  1  0.016800  0.263200  0.319800  1.0  -0.0526
  C  C82  1  0.074200  0.250200  0.412800  1.0  -0.161
  C  C83  1  0.168700  0.308200  0.469000  1.0  -0.0034
  C  C84  1  0.034700  0.172400  0.451400  1.0  0.7614
  C  C85  1  0.847500  0.026800  0.202400  1.0  0.6839
  C  C86  1  0.821200  0.064400  0.111200  1.0  -0.1527
  C  C87  1  0.900300  0.063800  0.076600  1.0  -0.0507
  C  C88  1  0.876300  0.094700  0.992000  1.0  -0.0418
  C  C89  1  0.774100  0.124900  0.941800  1.0  -0.0082
  C  C90  1  0.693700  0.127700  0.976000  1.0  -0.1726
  C  C91  1  0.720200  0.098600  0.063600  1.0  -0.0366
  C  C92  1  0.740600  0.152600  0.846800  1.0  0.1379
  C  C93  1  0.821200  0.065000  0.507400  1.0  0.718
  C  C94  1  0.779200  0.125100  0.568600  1.0  -0.1495
  C  C95  1  0.816100  0.114800  0.662200  1.0  -0.0372
  C  C96  1  0.773600  0.167400  0.716800  1.0  0.1936
  C  C97  1  0.697000  0.236800  0.680200  1.0  -0.0537
  C  C98  1  0.661400  0.249800  0.587200  1.0  -0.1599
  C  C99  1  0.699700  0.191800  0.531000  1.0  -0.0012
  C  C100  1  0.583300  0.327600  0.548600  1.0  0.7622
  N  N101  1  0.998360  0.647300  0.808920  1.0  -0.4018
  N  N102  1  0.189440  0.852700  0.191080  1.0  -0.4014
  N  N103  1  0.001640  0.352700  0.191080  1.0  -0.4002
  N  N104  1  0.810560  0.147300  0.808920  1.0  -0.4014
  O  O105  1  0.304610  0.499900  0.247820  1.0  -0.6744
  O  O106  1  0.460210  0.524300  0.229820  1.0  -0.6526
  O  O107  1  0.622380  0.532500  0.541760  1.0  -0.8394
  O  O108  1  0.662090  0.545600  0.422580  1.0  -0.6236
  O  O109  1  0.053470  0.874500  0.599940  1.0  -0.6933
  O  O110  1  0.904150  0.838900  0.465700  1.0  -0.7294
  O  O111  1  0.056790  0.000100  0.752180  1.0  -0.6772
  O  O112  1  0.230390  0.975700  0.770180  1.0  -0.6554
  O  O113  1  0.080620  0.967500  0.458240  1.0  -0.8367
  O  O114  1  0.239510  0.954400  0.577420  1.0  -0.6225
  O  O115  1  0.453530  0.625500  0.400060  1.0  -0.6925
  O  O116  1  0.438450  0.661100  0.534300  1.0  -0.728
  O  O117  1  0.695390  0.500100  0.752180  1.0  -0.6762
  O  O118  1  0.539790  0.475700  0.770180  1.0  -0.6514
  O  O119  1  0.377620  0.467500  0.458240  1.0  -0.8412
  O  O120  1  0.337910  0.454400  0.577420  1.0  -0.6262
  O  O121  1  0.946530  0.125500  0.400060  1.0  -0.6935
  O  O122  1  0.095850  0.161100  0.534300  1.0  -0.7305
  O  O123  1  0.943210  0.999900  0.247820  1.0  -0.6772
  O  O124  1  0.769610  0.024300  0.229820  1.0  -0.6567
  O  O125  1  0.919380  0.032500  0.541760  1.0  -0.8377
  O  O126  1  0.760490  0.045600  0.422580  1.0  -0.6214
  O  O127  1  0.546470  0.374500  0.599940  1.0  -0.6922
  O  O128  1  0.561550  0.338900  0.465700  1.0  -0.7251
