# generated using pymatgen
data_CeH8C16NO6
_symmetry_space_group_name_H-M   'P 1'
_cell_length_a   13.50970000
_cell_length_b   14.56850000
_cell_length_c   16.24870000
_cell_angle_alpha   116.63400000
_cell_angle_beta   99.03570000
_cell_angle_gamma   90.00000000
_symmetry_Int_Tables_number   1
_chemical_formula_structural   CeH8C16NO6
_chemical_formula_sum   'Ce4 H32 C64 N4 O24'
_cell_volume   2814.19326966
_cell_formula_units_Z   4
loop_
 _symmetry_equiv_pos_site_id
 _symmetry_equiv_pos_as_xyz
  1  'x, y, z'
loop_
 _atom_site_type_symbol
 _atom_site_label
 _atom_site_symmetry_multiplicity
 _atom_site_fract_x
 _atom_site_fract_y
 _atom_site_fract_z
 _atom_site_occupancy
 _atom_site_charge
  Ce  Ce1  1  0.957210  0.895350  0.362640  1.0  2.2127
  Ce  Ce2  1  0.542790  0.532710  0.637360  1.0  2.2117
  Ce  Ce3  1  0.042790  0.104650  0.637360  1.0  2.2132
  Ce  Ce4  1  0.457210  0.467290  0.362640  1.0  2.2109
  H  H5  1  0.068100  0.684200  0.058600  1.0  0.1061
  H  H6  1  0.117400  0.642600  0.916400  1.0  0.1163
  H  H7  1  0.109200  0.938600  0.967000  1.0  0.1139
  H  H8  1  0.055500  0.977500  0.109400  1.0  0.1033
  H  H9  1  0.268400  0.677300  0.707600  1.0  0.1067
  H  H10  1  0.075900  0.877500  0.678600  1.0  0.1216
  H  H11  1  0.195800  0.679900  0.458800  1.0  0.11
  H  H12  1  0.151000  0.682000  0.816000  1.0  0.0605
  H  H13  1  0.431900  0.625600  0.941400  1.0  0.1061
  H  H14  1  0.382600  0.726200  0.083600  1.0  0.1152
  H  H15  1  0.390800  0.971600  0.033000  1.0  0.1144
  H  H16  1  0.444500  0.868100  0.890600  1.0  0.1038
  H  H17  1  0.231600  0.969700  0.292400  1.0  0.1077
  H  H18  1  0.424100  0.198900  0.321400  1.0  0.1218
  H  H19  1  0.304200  0.221100  0.541200  1.0  0.1104
  H  H20  1  0.349000  0.866000  0.184000  1.0  0.0617
  H  H21  1  0.931900  0.315800  0.941400  1.0  0.1068
  H  H22  1  0.882600  0.357400  0.083600  1.0  0.1162
  H  H23  1  0.890800  0.061400  0.033000  1.0  0.1138
  H  H24  1  0.944500  0.022500  0.890600  1.0  0.1038
  H  H25  1  0.731600  0.322700  0.292400  1.0  0.1072
  H  H26  1  0.924100  0.122500  0.321400  1.0  0.1219
  H  H27  1  0.804200  0.320100  0.541200  1.0  0.11
  H  H28  1  0.849000  0.318000  0.184000  1.0  0.0608
  H  H29  1  0.568100  0.374400  0.058600  1.0  0.1063
  H  H30  1  0.617400  0.273800  0.916400  1.0  0.1153
  H  H31  1  0.609200  0.028400  0.967000  1.0  0.1141
  H  H32  1  0.555500  0.131900  0.109400  1.0  0.104
  H  H33  1  0.768400  0.030300  0.707600  1.0  0.1058
  H  H34  1  0.575900  0.801100  0.678600  1.0  0.1218
  H  H35  1  0.695800  0.778900  0.458800  1.0  0.1104
  H  H36  1  0.651000  0.134000  0.816000  1.0  0.0643
  C  C37  1  0.019200  0.860900  0.188000  1.0  0.6903
  C  C38  1  0.054100  0.834500  0.096600  1.0  -0.1089
  C  C39  1  0.074600  0.735200  0.039800  1.0  -0.0418
  C  C40  1  0.104900  0.710100  0.954400  1.0  -0.1313
  C  C41  1  0.116400  0.784700  0.926600  1.0  -0.0106
  C  C42  1  0.099600  0.887100  0.984600  1.0  -0.0825
  C  C43  1  0.067500  0.910100  0.070400  1.0  -0.051
  C  C44  1  0.145600  0.756800  0.834400  1.0  0.1858
  C  C45  1  0.316600  0.587800  0.539000  1.0  0.7648
  C  C46  1  0.244600  0.667300  0.577200  1.0  -0.1523
  C  C47  1  0.232800  0.703800  0.670400  1.0  -0.0918
  C  C48  1  0.167300  0.780400  0.707400  1.0  0.1908
  C  C49  1  0.116300  0.823800  0.652600  1.0  -0.1047
  C  C50  1  0.127000  0.785800  0.559400  1.0  -0.1583
  C  C51  1  0.190200  0.706500  0.521600  1.0  0.0005
  C  C52  1  0.071000  0.827600  0.498400  1.0  0.7485
  C  C53  1  0.480800  0.672900  0.812000  1.0  0.6891
  C  C54  1  0.445900  0.737900  0.903400  1.0  -0.1084
  C  C55  1  0.425400  0.695400  0.960200  1.0  -0.0388
  C  C56  1  0.395100  0.755700  0.045600  1.0  -0.1331
  C  C57  1  0.383600  0.858100  0.073400  1.0  -0.0103
  C  C58  1  0.400400  0.902500  0.015400  1.0  -0.0852
  C  C59  1  0.432500  0.839700  0.929600  1.0  -0.0486
  C  C60  1  0.354400  0.922400  0.165600  1.0  0.1892
  C  C61  1  0.183400  0.048800  0.461000  1.0  0.7715
  C  C62  1  0.255400  0.090100  0.422800  1.0  -0.1533
  C  C63  1  0.267200  0.033400  0.329600  1.0  -0.0959
  C  C64  1  0.332700  0.073000  0.292600  1.0  0.1935
  C  C65  1  0.383700  0.171200  0.347400  1.0  -0.1045
  C  C66  1  0.373000  0.226400  0.440600  1.0  -0.1575
  C  C67  1  0.309800  0.184900  0.478400  1.0  0.0015
  C  C68  1  0.429000  0.329200  0.501600  1.0  0.7482
  C  C69  1  0.980800  0.139100  0.812000  1.0  0.6922
  C  C70  1  0.945900  0.165500  0.903400  1.0  -0.1092
  C  C71  1  0.925400  0.264800  0.960200  1.0  -0.0423
  C  C72  1  0.895100  0.289900  0.045600  1.0  -0.1331
  C  C73  1  0.883600  0.215300  0.073400  1.0  -0.0106
  C  C74  1  0.900400  0.112900  0.015400  1.0  -0.0836
  C  C75  1  0.932500  0.089900  0.929600  1.0  -0.0506
  C  C76  1  0.854400  0.243200  0.165600  1.0  0.1875
  C  C77  1  0.683400  0.412200  0.461000  1.0  0.7775
  C  C78  1  0.755400  0.332700  0.422800  1.0  -0.1521
  C  C79  1  0.767200  0.296200  0.329600  1.0  -0.0921
  C  C80  1  0.832700  0.219600  0.292600  1.0  0.1807
  C  C81  1  0.883700  0.176200  0.347400  1.0  -0.1036
  C  C82  1  0.873000  0.214200  0.440600  1.0  -0.1594
  C  C83  1  0.809800  0.293500  0.478400  1.0  0.0021
  C  C84  1  0.929000  0.172400  0.501600  1.0  0.7487
  C  C85  1  0.519200  0.327100  0.188000  1.0  0.6897
  C  C86  1  0.554100  0.262100  0.096600  1.0  -0.1092
  C  C87  1  0.574600  0.304600  0.039800  1.0  -0.042
  C  C88  1  0.604900  0.244300  0.954400  1.0  -0.1343
  C  C89  1  0.616400  0.141900  0.926600  1.0  -0.0099
  C  C90  1  0.599600  0.097500  0.984600  1.0  -0.0823
  C  C91  1  0.567500  0.160300  0.070400  1.0  -0.0485
  C  C92  1  0.645600  0.077600  0.834400  1.0  0.1887
  C  C93  1  0.816600  0.951200  0.539000  1.0  0.7769
  C  C94  1  0.744600  0.909900  0.577200  1.0  -0.1536
  C  C95  1  0.732800  0.966600  0.670400  1.0  -0.0925
  C  C96  1  0.667300  0.927000  0.707400  1.0  0.1931
  C  C97  1  0.616300  0.828800  0.652600  1.0  -0.1049
  C  C98  1  0.627000  0.773600  0.559400  1.0  -0.1568
  C  C99  1  0.690200  0.815100  0.521600  1.0  0.0006
  C  C100  1  0.571000  0.670800  0.498400  1.0  0.7483
  N  N101  1  0.150100  0.819300  0.801600  1.0  -0.3587
  N  N102  1  0.349900  0.017700  0.198400  1.0  -0.358
  N  N103  1  0.849900  0.180700  0.198400  1.0  -0.3573
  N  N104  1  0.650100  0.982300  0.801600  1.0  -0.3584
  O  O105  1  0.998200  0.949630  0.237460  1.0  -0.6634
  O  O106  1  0.012200  0.788670  0.209740  1.0  -0.7016
  O  O107  1  0.325600  0.553700  0.454200  1.0  -0.775
  O  O108  1  0.365500  0.557980  0.594960  1.0  -0.6992
  O  O109  1  0.054700  0.773680  0.411160  1.0  -0.6633
  O  O110  1  0.037200  0.916870  0.536740  1.0  -0.8505
  O  O111  1  0.501800  0.712170  0.762540  1.0  -0.6596
  O  O112  1  0.487800  0.578930  0.790260  1.0  -0.6996
  O  O113  1  0.174400  0.099500  0.545800  1.0  -0.7752
  O  O114  1  0.134500  0.963020  0.405040  1.0  -0.6983
  O  O115  1  0.445300  0.362520  0.588840  1.0  -0.6571
  O  O116  1  0.462800  0.380130  0.463260  1.0  -0.8515
  O  O117  1  0.001800  0.050370  0.762540  1.0  -0.6637
  O  O118  1  0.987800  0.211330  0.790260  1.0  -0.7012
  O  O119  1  0.674400  0.446300  0.545800  1.0  -0.7754
  O  O120  1  0.634500  0.442020  0.405040  1.0  -0.6989
  O  O121  1  0.945300  0.226320  0.588840  1.0  -0.6626
  O  O122  1  0.962800  0.083130  0.463260  1.0  -0.8511
  O  O123  1  0.498200  0.287830  0.237460  1.0  -0.6666
  O  O124  1  0.512200  0.421070  0.209740  1.0  -0.6984
  O  O125  1  0.825600  0.900500  0.454200  1.0  -0.7747
  O  O126  1  0.865500  0.036980  0.594960  1.0  -0.6989
  O  O127  1  0.554700  0.637480  0.411160  1.0  -0.6604
  O  O128  1  0.537200  0.619870  0.536740  1.0  -0.8523
