# generated using pymatgen
data_PrH8C16NO6
_symmetry_space_group_name_H-M   'P 1'
_cell_length_a   13.63470000
_cell_length_b   14.31450000
_cell_length_c   16.11510000
_cell_angle_alpha   116.36800000
_cell_angle_beta   98.63250000
_cell_angle_gamma   90.00000000
_symmetry_Int_Tables_number   1
_chemical_formula_structural   PrH8C16NO6
_chemical_formula_sum   'Pr4 H32 C64 N4 O24'
_cell_volume   2778.19052747
_cell_formula_units_Z   4
loop_
 _symmetry_equiv_pos_site_id
 _symmetry_equiv_pos_as_xyz
  1  'x, y, z'
loop_
 _atom_site_type_symbol
 _atom_site_label
 _atom_site_symmetry_multiplicity
 _atom_site_fract_x
 _atom_site_fract_y
 _atom_site_fract_z
 _atom_site_occupancy
 _atom_site_charge
  Pr  Pr1  1  0.043200  0.030950  0.636540  1.0  2.144
  Pr  Pr2  1  0.456800  0.394410  0.363460  1.0  2.1432
  Pr  Pr3  1  0.956800  0.969050  0.363460  1.0  2.143
  Pr  Pr4  1  0.543200  0.605590  0.636540  1.0  2.1468
  H  H5  1  0.920500  0.119700  0.937400  1.0  0.103
  H  H6  1  0.886600  0.223500  0.084600  1.0  0.118
  H  H7  1  0.898900  0.471900  0.033400  1.0  0.107
  H  H8  1  0.947600  0.366700  0.889400  1.0  0.1023
  H  H9  1  0.882000  0.386000  0.200000  1.0  0.0544
  H  H10  1  0.799700  0.721700  0.540400  1.0  0.1119
  H  H11  1  0.724200  0.471700  0.287800  1.0  0.1097
  H  H12  1  0.919800  0.699000  0.319200  1.0  0.1197
  H  H13  1  0.579500  0.182300  0.062600  1.0  0.103
  H  H14  1  0.613400  0.138900  0.915400  1.0  0.1182
  H  H15  1  0.601100  0.438500  0.966600  1.0  0.1076
  H  H16  1  0.552400  0.477300  0.110600  1.0  0.1022
  H  H17  1  0.618000  0.186000  0.800000  1.0  0.0549
  H  H18  1  0.700300  0.181300  0.459600  1.0  0.1115
  H  H19  1  0.775800  0.183900  0.712200  1.0  0.1094
  H  H20  1  0.580200  0.379800  0.680800  1.0  0.1196
  H  H21  1  0.079500  0.880300  0.062600  1.0  0.1029
  H  H22  1  0.113400  0.776500  0.915400  1.0  0.1179
  H  H23  1  0.101100  0.528100  0.966600  1.0  0.1074
  H  H24  1  0.052400  0.633300  0.110600  1.0  0.1025
  H  H25  1  0.118000  0.614000  0.800000  1.0  0.0536
  H  H26  1  0.200300  0.278300  0.459600  1.0  0.1117
  H  H27  1  0.275800  0.528300  0.712200  1.0  0.1091
  H  H28  1  0.080200  0.301000  0.680800  1.0  0.12
  H  H29  1  0.420500  0.817700  0.937400  1.0  0.1032
  H  H30  1  0.386600  0.861100  0.084600  1.0  0.1168
  H  H31  1  0.398900  0.561500  0.033400  1.0  0.1078
  H  H32  1  0.447600  0.522700  0.889400  1.0  0.1025
  H  H33  1  0.382000  0.814000  0.200000  1.0  0.0538
  H  H34  1  0.299700  0.818700  0.540400  1.0  0.1116
  H  H35  1  0.224200  0.816100  0.287800  1.0  0.1092
  H  H36  1  0.419800  0.620200  0.319200  1.0  0.1193
  C  C37  1  0.978600  0.167400  0.810000  1.0  0.7003
  C  C38  1  0.942900  0.233700  0.899800  1.0  -0.1333
  C  C39  1  0.919200  0.191400  0.957800  1.0  -0.0312
  C  C40  1  0.894100  0.252000  0.044000  1.0  -0.1432
  C  C41  1  0.880200  0.356600  0.069800  1.0  0.0116
  C  C42  1  0.903300  0.400600  0.014200  1.0  -0.0684
  C  C43  1  0.933700  0.337200  0.927800  1.0  -0.0375
  C  C44  1  0.855400  0.420500  0.163400  1.0  0.1888
  C  C45  1  0.930000  0.829700  0.502000  1.0  0.7628
  C  C46  1  0.872000  0.724900  0.439800  1.0  -0.1557
  C  C47  1  0.806800  0.684600  0.477600  1.0  0.0092
  C  C48  1  0.752700  0.589000  0.421000  1.0  -0.161
  C  C49  1  0.763100  0.533600  0.326800  1.0  -0.0976
  C  C50  1  0.832800  0.572100  0.291600  1.0  0.2048
  C  C51  1  0.881000  0.669800  0.345800  1.0  -0.0987
  C  C52  1  0.678500  0.550300  0.457800  1.0  0.7966
  C  C53  1  0.521400  0.357400  0.190000  1.0  0.6994
  C  C54  1  0.557100  0.333900  0.100200  1.0  -0.1334
  C  C55  1  0.580800  0.233600  0.042200  1.0  -0.0342
  C  C56  1  0.605900  0.208000  0.956000  1.0  -0.1437
  C  C57  1  0.619800  0.286800  0.930200  1.0  0.0084
  C  C58  1  0.596700  0.386400  0.985800  1.0  -0.065
  C  C59  1  0.566300  0.409400  0.072200  1.0  -0.0376
  C  C60  1  0.644600  0.257100  0.836600  1.0  0.1857
  C  C61  1  0.570000  0.327700  0.498000  1.0  0.7632
  C  C62  1  0.628000  0.285100  0.560200  1.0  -0.1573
  C  C63  1  0.693200  0.207000  0.522400  1.0  0.0094
  C  C64  1  0.747300  0.168000  0.579000  1.0  -0.1597
  C  C65  1  0.736900  0.206800  0.673200  1.0  -0.0941
  C  C66  1  0.667200  0.280500  0.708400  1.0  0.201
  C  C67  1  0.619000  0.324000  0.654200  1.0  -0.0975
  C  C68  1  0.821500  0.092500  0.542200  1.0  0.7924
  C  C69  1  0.021400  0.832600  0.190000  1.0  0.6991
  C  C70  1  0.057100  0.766300  0.100200  1.0  -0.1312
  C  C71  1  0.080800  0.808600  0.042200  1.0  -0.0324
  C  C72  1  0.105900  0.748000  0.956000  1.0  -0.1439
  C  C73  1  0.119800  0.643400  0.930200  1.0  0.0107
  C  C74  1  0.096700  0.599400  0.985800  1.0  -0.0639
  C  C75  1  0.066300  0.662800  0.072200  1.0  -0.0382
  C  C76  1  0.144600  0.579500  0.836600  1.0  0.187
  C  C77  1  0.070000  0.170300  0.498000  1.0  0.7626
  C  C78  1  0.128000  0.275100  0.560200  1.0  -0.156
  C  C79  1  0.193200  0.315400  0.522400  1.0  0.01
  C  C80  1  0.247300  0.411000  0.579000  1.0  -0.1619
  C  C81  1  0.236900  0.466400  0.673200  1.0  -0.0972
  C  C82  1  0.167200  0.427900  0.708400  1.0  0.2042
  C  C83  1  0.119000  0.330200  0.654200  1.0  -0.0988
  C  C84  1  0.321500  0.449700  0.542200  1.0  0.7731
  C  C85  1  0.478600  0.642600  0.810000  1.0  0.7046
  C  C86  1  0.442900  0.666100  0.899800  1.0  -0.1325
  C  C87  1  0.419200  0.766400  0.957800  1.0  -0.0337
  C  C88  1  0.394100  0.792000  0.044000  1.0  -0.1424
  C  C89  1  0.380200  0.713200  0.069800  1.0  0.0094
  C  C90  1  0.403300  0.613600  0.014200  1.0  -0.0647
  C  C91  1  0.433700  0.590600  0.927800  1.0  -0.0382
  C  C92  1  0.355400  0.742900  0.163400  1.0  0.1844
  C  C93  1  0.430000  0.672300  0.502000  1.0  0.7625
  C  C94  1  0.372000  0.714900  0.439800  1.0  -0.1578
  C  C95  1  0.306800  0.793000  0.477600  1.0  0.009
  C  C96  1  0.252700  0.832000  0.421000  1.0  -0.1591
  C  C97  1  0.263100  0.793200  0.326800  1.0  -0.0956
  C  C98  1  0.332800  0.719500  0.291600  1.0  0.201
  C  C99  1  0.381000  0.676000  0.345800  1.0  -0.0976
  C  C100  1  0.178500  0.907500  0.457800  1.0  0.7708
  N  N101  1  0.850700  0.515600  0.197000  1.0  -0.3563
  N  N102  1  0.649300  0.318600  0.803000  1.0  -0.356
  N  N103  1  0.149300  0.484400  0.803000  1.0  -0.3528
  N  N104  1  0.350700  0.681400  0.197000  1.0  -0.3551
  O  O105  1  0.005900  0.208700  0.762200  1.0  -0.6961
  O  O106  1  0.982300  0.073700  0.786600  1.0  -0.6923
  O  O107  1  0.961400  0.883020  0.464640  1.0  -0.8393
  O  O108  1  0.946300  0.860600  0.588800  1.0  -0.6483
  O  O109  1  0.669000  0.603100  0.543000  1.0  -0.781
  O  O110  1  0.629900  0.463000  0.402000  1.0  -0.6866
  O  O111  1  0.494100  0.446500  0.237800  1.0  -0.6979
  O  O112  1  0.517700  0.287100  0.213400  1.0  -0.6933
  O  O113  1  0.538600  0.418380  0.535360  1.0  -0.8408
  O  O114  1  0.553700  0.271800  0.411200  1.0  -0.6508
  O  O115  1  0.831000  0.060100  0.457000  1.0  -0.7816
  O  O116  1  0.870100  0.061000  0.598000  1.0  -0.6887
  O  O117  1  0.994100  0.791300  0.237800  1.0  -0.6951
  O  O118  1  0.017700  0.926300  0.213400  1.0  -0.6894
  O  O119  1  0.038600  0.116980  0.535360  1.0  -0.8399
  O  O120  1  0.053700  0.139400  0.411200  1.0  -0.6469
  O  O121  1  0.331000  0.396900  0.457000  1.0  -0.7793
  O  O122  1  0.370100  0.537000  0.598000  1.0  -0.6871
  O  O123  1  0.505900  0.553500  0.762200  1.0  -0.6985
  O  O124  1  0.482300  0.712900  0.786600  1.0  -0.691
  O  O125  1  0.461400  0.581620  0.464640  1.0  -0.8406
  O  O126  1  0.446300  0.728200  0.588800  1.0  -0.6529
  O  O127  1  0.169000  0.939900  0.543000  1.0  -0.7828
  O  O128  1  0.129900  0.939000  0.402000  1.0  -0.6858
