# generated using pymatgen
data_SmH8C16NO6
_symmetry_space_group_name_H-M   'P 1'
_cell_length_a   13.55150000
_cell_length_b   14.31400000
_cell_length_c   16.08430000
_cell_angle_alpha   116.42100000
_cell_angle_beta   98.74640000
_cell_angle_gamma   90.00000000
_symmetry_Int_Tables_number   1
_chemical_formula_structural   SmH8C16NO6
_chemical_formula_sum   'Sm4 H32 C64 N4 O24'
_cell_volume   2753.51336546
_cell_formula_units_Z   4
loop_
 _symmetry_equiv_pos_site_id
 _symmetry_equiv_pos_as_xyz
  1  'x, y, z'
loop_
 _atom_site_type_symbol
 _atom_site_label
 _atom_site_symmetry_multiplicity
 _atom_site_fract_x
 _atom_site_fract_y
 _atom_site_fract_z
 _atom_site_occupancy
 _atom_site_charge
  Sm  Sm1  1  0.957940  0.895110  0.365080  1.0  2.2475
  Sm  Sm2  1  0.542060  0.530030  0.634920  1.0  2.246
  Sm  Sm3  1  0.042060  0.104890  0.634920  1.0  2.2483
  Sm  Sm4  1  0.457940  0.469970  0.365080  1.0  2.2462
  H  H5  1  0.049400  0.978000  0.110600  1.0  0.102
  H  H6  1  0.098600  0.939600  0.968200  1.0  0.1124
  H  H7  1  0.129300  0.645000  0.922600  1.0  0.1083
  H  H8  1  0.081000  0.684700  0.066400  1.0  0.1056
  H  H9  1  0.156000  0.685000  0.812000  1.0  0.0661
  H  H10  1  0.199200  0.681600  0.459600  1.0  0.1115
  H  H11  1  0.272500  0.681100  0.711000  1.0  0.1099
  H  H12  1  0.077600  0.879900  0.681200  1.0  0.1233
  H  H13  1  0.450600  0.867400  0.889400  1.0  0.1023
  H  H14  1  0.401400  0.971400  0.031800  1.0  0.112
  H  H15  1  0.370700  0.722400  0.077400  1.0  0.1109
  H  H16  1  0.419000  0.618300  0.933600  1.0  0.1052
  H  H17  1  0.344000  0.873000  0.188000  1.0  0.0708
  H  H18  1  0.300800  0.222000  0.540400  1.0  0.1119
  H  H19  1  0.227500  0.970100  0.289000  1.0  0.1106
  H  H20  1  0.422400  0.198700  0.318800  1.0  0.1236
  H  H21  1  0.950600  0.022000  0.889400  1.0  0.1025
  H  H22  1  0.901400  0.060400  0.031800  1.0  0.1125
  H  H23  1  0.870700  0.355000  0.077400  1.0  0.1098
  H  H24  1  0.919000  0.315300  0.933600  1.0  0.1056
  H  H25  1  0.844000  0.315000  0.188000  1.0  0.0675
  H  H26  1  0.800800  0.318400  0.540400  1.0  0.1116
  H  H27  1  0.727500  0.318900  0.289000  1.0  0.1103
  H  H28  1  0.922400  0.120100  0.318800  1.0  0.1237
  H  H29  1  0.549400  0.132600  0.110600  1.0  0.1027
  H  H30  1  0.598600  0.028600  0.968200  1.0  0.1118
  H  H31  1  0.629300  0.277600  0.922600  1.0  0.1092
  H  H32  1  0.581000  0.381700  0.066400  1.0  0.1048
  H  H33  1  0.656000  0.127000  0.812000  1.0  0.0653
  H  H34  1  0.699200  0.778000  0.459600  1.0  0.1114
  H  H35  1  0.772500  0.029900  0.711000  1.0  0.1102
  H  H36  1  0.577600  0.801300  0.681200  1.0  0.1229
  C  C37  1  0.021000  0.858800  0.193000  1.0  0.6972
  C  C38  1  0.057500  0.835600  0.102400  1.0  -0.132
  C  C39  1  0.064900  0.910400  0.073000  1.0  -0.0354
  C  C40  1  0.095100  0.888000  0.988000  1.0  -0.0764
  C  C41  1  0.120200  0.787000  0.932600  1.0  -0.009
  C  C42  1  0.113700  0.712500  0.960400  1.0  -0.1344
  C  C43  1  0.083600  0.736400  0.046600  1.0  -0.0431
  C  C44  1  0.145400  0.758100  0.838000  1.0  0.1893
  C  C45  1  0.071300  0.830100  0.499400  1.0  0.7738
  C  C46  1  0.129000  0.787000  0.560800  1.0  -0.157
  C  C47  1  0.193300  0.708500  0.522800  1.0  0.014
  C  C48  1  0.248000  0.670800  0.579600  1.0  -0.1495
  C  C49  1  0.236000  0.707100  0.673000  1.0  -0.1009
  C  C50  1  0.167800  0.783800  0.709800  1.0  0.2104
  C  C51  1  0.118400  0.825600  0.655400  1.0  -0.1141
  C  C52  1  0.323700  0.591800  0.542800  1.0  0.8065
  C  C53  1  0.479000  0.665800  0.807000  1.0  0.6957
  C  C54  1  0.442500  0.733200  0.897600  1.0  -0.131
  C  C55  1  0.435100  0.837400  0.927000  1.0  -0.0332
  C  C56  1  0.404900  0.900000  0.012000  1.0  -0.0806
  C  C57  1  0.379800  0.854400  0.067400  1.0  -0.0068
  C  C58  1  0.386300  0.752100  0.039600  1.0  -0.1291
  C  C59  1  0.416400  0.689800  0.953400  1.0  -0.0418
  C  C60  1  0.354600  0.920100  0.162000  1.0  0.1937
  C  C61  1  0.428700  0.330700  0.500600  1.0  0.773
  C  C62  1  0.371000  0.226200  0.439200  1.0  -0.1556
  C  C63  1  0.306700  0.185700  0.477200  1.0  0.013
  C  C64  1  0.252000  0.091200  0.420400  1.0  -0.1503
  C  C65  1  0.264000  0.034100  0.327000  1.0  -0.1042
  C  C66  1  0.332200  0.074000  0.290200  1.0  0.213
  C  C67  1  0.381600  0.170200  0.344600  1.0  -0.113
  C  C68  1  0.176300  0.049000  0.457200  1.0  0.8084
  C  C69  1  0.979000  0.141200  0.807000  1.0  0.6988
  C  C70  1  0.942500  0.164400  0.897600  1.0  -0.1308
  C  C71  1  0.935100  0.089600  0.927000  1.0  -0.0354
  C  C72  1  0.904900  0.112000  0.012000  1.0  -0.0762
  C  C73  1  0.879800  0.213000  0.067400  1.0  -0.0086
  C  C74  1  0.886300  0.287500  0.039600  1.0  -0.1337
  C  C75  1  0.916400  0.263600  0.953400  1.0  -0.045
  C  C76  1  0.854600  0.241900  0.162000  1.0  0.1881
  C  C77  1  0.928700  0.169900  0.500600  1.0  0.7729
  C  C78  1  0.871000  0.213000  0.439200  1.0  -0.1577
  C  C79  1  0.806700  0.291500  0.477200  1.0  0.0123
  C  C80  1  0.752000  0.329200  0.420400  1.0  -0.1485
  C  C81  1  0.764000  0.292900  0.327000  1.0  -0.1015
  C  C82  1  0.832200  0.216200  0.290200  1.0  0.2114
  C  C83  1  0.881600  0.174400  0.344600  1.0  -0.1136
  C  C84  1  0.676300  0.408200  0.457200  1.0  0.8055
  C  C85  1  0.521000  0.334200  0.193000  1.0  0.6963
  C  C86  1  0.557500  0.266800  0.102400  1.0  -0.1296
  C  C87  1  0.564900  0.162600  0.073000  1.0  -0.0334
  C  C88  1  0.595100  0.100000  0.988000  1.0  -0.0794
  C  C89  1  0.620200  0.145600  0.932600  1.0  -0.0071
  C  C90  1  0.613700  0.247900  0.960400  1.0  -0.1326
  C  C91  1  0.583600  0.310200  0.046600  1.0  -0.043
  C  C92  1  0.645400  0.079900  0.838000  1.0  0.1914
  C  C93  1  0.571300  0.669300  0.499400  1.0  0.7727
  C  C94  1  0.629000  0.773800  0.560800  1.0  -0.1555
  C  C95  1  0.693300  0.814300  0.522800  1.0  0.0139
  C  C96  1  0.748000  0.908800  0.579600  1.0  -0.1501
  C  C97  1  0.736000  0.965900  0.673000  1.0  -0.1039
  C  C98  1  0.667800  0.926000  0.709800  1.0  0.2129
  C  C99  1  0.618400  0.829800  0.655400  1.0  -0.1137
  C  C100  1  0.823700  0.951000  0.542800  1.0  0.808
  N  N101  1  0.148700  0.820230  0.803060  1.0  -0.3669
  N  N102  1  0.351300  0.017170  0.196940  1.0  -0.3685
  N  N103  1  0.851300  0.179770  0.196940  1.0  -0.3681
  N  N104  1  0.648700  0.982830  0.803060  1.0  -0.369
  O  O105  1  0.993700  0.948680  0.240960  1.0  -0.7019
  O  O106  1  0.018100  0.788030  0.217460  1.0  -0.7186
  O  O107  1  0.040600  0.921270  0.537140  1.0  -0.8809
  O  O108  1  0.053200  0.774740  0.412080  1.0  -0.6594
  O  O109  1  0.371000  0.560960  0.597920  1.0  -0.6967
  O  O110  1  0.333500  0.561610  0.457420  1.0  -0.8059
  O  O111  1  0.506300  0.707720  0.759040  1.0  -0.7032
  O  O112  1  0.481900  0.570570  0.782540  1.0  -0.7153
  O  O113  1  0.459400  0.384130  0.462860  1.0  -0.8813
  O  O114  1  0.446800  0.362660  0.587920  1.0  -0.6604
  O  O115  1  0.129000  0.963040  0.402080  1.0  -0.6972
  O  O116  1  0.166500  0.104190  0.542580  1.0  -0.809
  O  O117  1  0.006300  0.051320  0.759040  1.0  -0.7033
  O  O118  1  0.981900  0.211970  0.782540  1.0  -0.7178
  O  O119  1  0.959400  0.078730  0.462860  1.0  -0.8802
  O  O120  1  0.946800  0.225260  0.587920  1.0  -0.6622
  O  O121  1  0.629000  0.439040  0.402080  1.0  -0.6962
  O  O122  1  0.666500  0.438390  0.542580  1.0  -0.808
  O  O123  1  0.493700  0.292280  0.240960  1.0  -0.7035
  O  O124  1  0.518100  0.429430  0.217460  1.0  -0.7146
  O  O125  1  0.540600  0.615870  0.537140  1.0  -0.8812
  O  O126  1  0.553200  0.637340  0.412080  1.0  -0.6592
  O  O127  1  0.871000  0.036960  0.597920  1.0  -0.6966
  O  O128  1  0.833500  0.895810  0.457420  1.0  -0.8064
