# generated using pymatgen
data_Ni12H8C24N32Cl5O4
_symmetry_space_group_name_H-M   'P 1'
_cell_length_a   18.55640000
_cell_length_b   18.55640000
_cell_length_c   18.55640000
_cell_angle_alpha   90.00000000
_cell_angle_beta   90.00000000
_cell_angle_gamma   90.00000000
_symmetry_Int_Tables_number   1
_chemical_formula_structural   Ni12H8C24N32Cl5O4
_chemical_formula_sum   'Ni36 H24 C72 N96 Cl15 O12'
_cell_volume   6389.71042269
_cell_formula_units_Z   3
loop_
 _symmetry_equiv_pos_site_id
 _symmetry_equiv_pos_as_xyz
  1  'x, y, z'
loop_
 _atom_site_type_symbol
 _atom_site_label
 _atom_site_symmetry_multiplicity
 _atom_site_fract_x
 _atom_site_fract_y
 _atom_site_fract_z
 _atom_site_occupancy
 _atom_site_charge
  Ni  Ni1  1  0.366470  0.500000  0.000000  1.0  0.6899
  Ni  Ni2  1  0.633530  0.500000  0.000000  1.0  0.6893
  Ni  Ni3  1  0.000000  0.366470  0.500000  1.0  0.6876
  Ni  Ni4  1  0.000000  0.633530  0.500000  1.0  0.6899
  Ni  Ni5  1  0.500000  0.000000  0.366470  1.0  0.6924
  Ni  Ni6  1  0.500000  0.000000  0.633530  1.0  0.69
  Ni  Ni7  1  0.500000  0.366470  0.000000  1.0  0.6876
  Ni  Ni8  1  0.500000  0.633530  0.000000  1.0  0.6899
  Ni  Ni9  1  0.366470  0.000000  0.500000  1.0  0.6899
  Ni  Ni10  1  0.633530  0.000000  0.500000  1.0  0.6893
  Ni  Ni11  1  0.000000  0.500000  0.633530  1.0  0.69
  Ni  Ni12  1  0.000000  0.500000  0.366470  1.0  0.6924
  Ni  Ni13  1  0.260480  0.500000  0.140520  1.0  0.5767
  Ni  Ni14  1  0.739520  0.500000  0.140520  1.0  0.578
  Ni  Ni15  1  0.739520  0.500000  0.859480  1.0  0.579
  Ni  Ni16  1  0.260480  0.500000  0.859480  1.0  0.5773
  Ni  Ni17  1  0.140520  0.260480  0.500000  1.0  0.5771
  Ni  Ni18  1  0.140520  0.739520  0.500000  1.0  0.5768
  Ni  Ni19  1  0.859480  0.739520  0.500000  1.0  0.5777
  Ni  Ni20  1  0.859480  0.260480  0.500000  1.0  0.5774
  Ni  Ni21  1  0.500000  0.140520  0.260480  1.0  0.577
  Ni  Ni22  1  0.500000  0.140520  0.739520  1.0  0.577
  Ni  Ni23  1  0.500000  0.859480  0.739520  1.0  0.5764
  Ni  Ni24  1  0.500000  0.859480  0.260480  1.0  0.5765
  Ni  Ni25  1  0.500000  0.260480  0.859480  1.0  0.5797
  Ni  Ni26  1  0.500000  0.739520  0.859480  1.0  0.5789
  Ni  Ni27  1  0.500000  0.739520  0.140520  1.0  0.5779
  Ni  Ni28  1  0.500000  0.260480  0.140520  1.0  0.5793
  Ni  Ni29  1  0.260480  0.140520  0.500000  1.0  0.5768
  Ni  Ni30  1  0.739520  0.140520  0.500000  1.0  0.5783
  Ni  Ni31  1  0.739520  0.859480  0.500000  1.0  0.578
  Ni  Ni32  1  0.260480  0.859480  0.500000  1.0  0.5758
  Ni  Ni33  1  0.140520  0.500000  0.739520  1.0  0.5752
  Ni  Ni34  1  0.140520  0.500000  0.260480  1.0  0.5757
  Ni  Ni35  1  0.859480  0.500000  0.260480  1.0  0.5753
  Ni  Ni36  1  0.859480  0.500000  0.739520  1.0  0.5762
  H  H37  1  0.235500  0.389100  0.235500  1.0  0.1153
  H  H38  1  0.764500  0.610900  0.235500  1.0  0.1158
  H  H39  1  0.764500  0.389100  0.764500  1.0  0.1159
  H  H40  1  0.235500  0.610900  0.764500  1.0  0.1159
  H  H41  1  0.235500  0.235500  0.389100  1.0  0.1166
  H  H42  1  0.235500  0.764500  0.610900  1.0  0.1155
  H  H43  1  0.764500  0.764500  0.389100  1.0  0.1165
  H  H44  1  0.764500  0.235500  0.610900  1.0  0.1155
  H  H45  1  0.389100  0.235500  0.235500  1.0  0.1168
  H  H46  1  0.610900  0.235500  0.764500  1.0  0.1179
  H  H47  1  0.389100  0.764500  0.764500  1.0  0.1175
  H  H48  1  0.610900  0.764500  0.235500  1.0  0.1168
  H  H49  1  0.389100  0.235500  0.764500  1.0  0.1181
  H  H50  1  0.610900  0.764500  0.764500  1.0  0.1174
  H  H51  1  0.389100  0.764500  0.235500  1.0  0.1169
  H  H52  1  0.610900  0.235500  0.235500  1.0  0.1165
  H  H53  1  0.235500  0.235500  0.610900  1.0  0.1154
  H  H54  1  0.764500  0.235500  0.389100  1.0  0.1171
  H  H55  1  0.764500  0.764500  0.610900  1.0  0.1157
  H  H56  1  0.235500  0.764500  0.389100  1.0  0.116
  H  H57  1  0.235500  0.389100  0.764500  1.0  0.1157
  H  H58  1  0.235500  0.610900  0.235500  1.0  0.1154
  H  H59  1  0.764500  0.389100  0.235500  1.0  0.1153
  H  H60  1  0.764500  0.610900  0.764500  1.0  0.1164
  C  C61  1  0.351100  0.351100  0.162600  1.0  0.3602
  C  C62  1  0.317000  0.317000  0.225500  1.0  -0.0508
  C  C63  1  0.648900  0.648900  0.162600  1.0  0.3602
  C  C64  1  0.683000  0.683000  0.225500  1.0  -0.0511
  C  C65  1  0.648900  0.351100  0.837400  1.0  0.3596
  C  C66  1  0.683000  0.317000  0.774500  1.0  -0.0508
  C  C67  1  0.351100  0.648900  0.837400  1.0  0.3605
  C  C68  1  0.317000  0.683000  0.774500  1.0  -0.0511
  C  C69  1  0.162600  0.351100  0.351100  1.0  0.3607
  C  C70  1  0.225500  0.317000  0.317000  1.0  -0.05
  C  C71  1  0.162600  0.648900  0.648900  1.0  0.3607
  C  C72  1  0.225500  0.683000  0.683000  1.0  -0.0501
  C  C73  1  0.837400  0.648900  0.351100  1.0  0.3609
  C  C74  1  0.774500  0.683000  0.317000  1.0  -0.0485
  C  C75  1  0.837400  0.351100  0.648900  1.0  0.36
  C  C76  1  0.774500  0.317000  0.683000  1.0  -0.0485
  C  C77  1  0.351100  0.162600  0.351100  1.0  0.3613
  C  C78  1  0.317000  0.225500  0.317000  1.0  -0.0496
  C  C79  1  0.648900  0.162600  0.648900  1.0  0.3604
  C  C80  1  0.683000  0.225500  0.683000  1.0  -0.0496
  C  C81  1  0.351100  0.837400  0.648900  1.0  0.3603
  C  C82  1  0.317000  0.774500  0.683000  1.0  -0.0488
  C  C83  1  0.648900  0.837400  0.351100  1.0  0.3601
  C  C84  1  0.683000  0.774500  0.317000  1.0  -0.0487
  C  C85  1  0.351100  0.351100  0.837400  1.0  0.3602
  C  C86  1  0.317000  0.317000  0.774500  1.0  -0.0509
  C  C87  1  0.648900  0.648900  0.837400  1.0  0.3599
  C  C88  1  0.683000  0.683000  0.774500  1.0  -0.051
  C  C89  1  0.351100  0.648900  0.162600  1.0  0.3608
  C  C90  1  0.317000  0.683000  0.225500  1.0  -0.0512
  C  C91  1  0.648900  0.351100  0.162600  1.0  0.3597
  C  C92  1  0.683000  0.317000  0.225500  1.0  -0.0507
  C  C93  1  0.351100  0.162600  0.648900  1.0  0.3609
  C  C94  1  0.317000  0.225500  0.683000  1.0  -0.0497
  C  C95  1  0.648900  0.162600  0.351100  1.0  0.3607
  C  C96  1  0.683000  0.225500  0.317000  1.0  -0.0496
  C  C97  1  0.648900  0.837400  0.648900  1.0  0.3597
  C  C98  1  0.683000  0.774500  0.683000  1.0  -0.0487
  C  C99  1  0.351100  0.837400  0.351100  1.0  0.3607
  C  C100  1  0.317000  0.774500  0.317000  1.0  -0.0488
  C  C101  1  0.162600  0.351100  0.648900  1.0  0.3604
  C  C102  1  0.225500  0.317000  0.683000  1.0  -0.0502
  C  C103  1  0.162600  0.648900  0.351100  1.0  0.3611
  C  C104  1  0.225500  0.683000  0.317000  1.0  -0.05
  C  C105  1  0.837400  0.351100  0.351100  1.0  0.3604
  C  C106  1  0.774500  0.317000  0.317000  1.0  -0.0485
  C  C107  1  0.837400  0.648900  0.648900  1.0  0.3605
  C  C108  1  0.774500  0.683000  0.683000  1.0  -0.0485
  C  C109  1  0.255800  0.348100  0.255800  1.0  -0.048
  C  C110  1  0.744200  0.651900  0.255800  1.0  -0.0482
  C  C111  1  0.744200  0.348100  0.744200  1.0  -0.0479
  C  C112  1  0.255800  0.651900  0.744200  1.0  -0.0477
  C  C113  1  0.255800  0.255800  0.348100  1.0  -0.0465
  C  C114  1  0.255800  0.744200  0.651900  1.0  -0.0479
  C  C115  1  0.744200  0.744200  0.348100  1.0  -0.0479
  C  C116  1  0.744200  0.255800  0.651900  1.0  -0.048
  C  C117  1  0.348100  0.255800  0.255800  1.0  -0.0491
  C  C118  1  0.651900  0.255800  0.744200  1.0  -0.0492
  C  C119  1  0.348100  0.744200  0.744200  1.0  -0.0487
  C  C120  1  0.651900  0.744200  0.255800  1.0  -0.0506
  C  C121  1  0.348100  0.255800  0.744200  1.0  -0.048
  C  C122  1  0.651900  0.744200  0.744200  1.0  -0.0495
  C  C123  1  0.348100  0.744200  0.255800  1.0  -0.049
  C  C124  1  0.651900  0.255800  0.255800  1.0  -0.0492
  C  C125  1  0.255800  0.255800  0.651900  1.0  -0.0475
  C  C126  1  0.744200  0.255800  0.348100  1.0  -0.047
  C  C127  1  0.744200  0.744200  0.651900  1.0  -0.0487
  C  C128  1  0.255800  0.744200  0.348100  1.0  -0.0471
  C  C129  1  0.255800  0.348100  0.744200  1.0  -0.0476
  C  C130  1  0.255800  0.651900  0.255800  1.0  -0.0479
  C  C131  1  0.744200  0.348100  0.255800  1.0  -0.0492
  C  C132  1  0.744200  0.651900  0.744200  1.0  -0.0489
  N  N133  1  0.371530  0.421540  0.076290  1.0  -0.0463
  N  N134  1  0.326370  0.410640  0.130580  1.0  -0.3029
  N  N135  1  0.628470  0.578460  0.076290  1.0  -0.0459
  N  N136  1  0.673630  0.589360  0.130580  1.0  -0.3047
  N  N137  1  0.628470  0.421540  0.923710  1.0  -0.0463
  N  N138  1  0.673630  0.410640  0.869420  1.0  -0.3052
  N  N139  1  0.371530  0.578460  0.923710  1.0  -0.0454
  N  N140  1  0.326370  0.589360  0.869420  1.0  -0.3029
  N  N141  1  0.076290  0.371530  0.421540  1.0  -0.0467
  N  N142  1  0.130580  0.326370  0.410640  1.0  -0.3032
  N  N143  1  0.076290  0.628470  0.578460  1.0  -0.0463
  N  N144  1  0.130580  0.673630  0.589360  1.0  -0.3044
  N  N145  1  0.923710  0.628470  0.421540  1.0  -0.0456
  N  N146  1  0.869420  0.673630  0.410640  1.0  -0.3043
  N  N147  1  0.923710  0.371530  0.578460  1.0  -0.0458
  N  N148  1  0.869420  0.326370  0.589360  1.0  -0.3028
  N  N149  1  0.421540  0.076290  0.371530  1.0  -0.0451
  N  N150  1  0.410640  0.130580  0.326370  1.0  -0.3007
  N  N151  1  0.578460  0.076290  0.628470  1.0  -0.0459
  N  N152  1  0.589360  0.130580  0.673630  1.0  -0.3019
  N  N153  1  0.421540  0.923710  0.628470  1.0  -0.0457
  N  N154  1  0.410640  0.869420  0.673630  1.0  -0.3007
  N  N155  1  0.578460  0.923710  0.371530  1.0  -0.0461
  N  N156  1  0.589360  0.869420  0.326370  1.0  -0.3019
  N  N157  1  0.421540  0.371530  0.923710  1.0  -0.0459
  N  N158  1  0.410640  0.326370  0.869420  1.0  -0.3004
  N  N159  1  0.578460  0.628470  0.923710  1.0  -0.0469
  N  N160  1  0.589360  0.673630  0.869420  1.0  -0.303
  N  N161  1  0.421540  0.628470  0.076290  1.0  -0.0466
  N  N162  1  0.410640  0.673630  0.130580  1.0  -0.3026
  N  N163  1  0.578460  0.371530  0.076290  1.0  -0.0472
  N  N164  1  0.589360  0.326370  0.130580  1.0  -0.3021
  N  N165  1  0.371530  0.076290  0.578460  1.0  -0.0458
  N  N166  1  0.326370  0.130580  0.589360  1.0  -0.302
  N  N167  1  0.628470  0.076290  0.421540  1.0  -0.0457
  N  N168  1  0.673630  0.130580  0.410640  1.0  -0.3048
  N  N169  1  0.628470  0.923710  0.578460  1.0  -0.0462
  N  N170  1  0.673630  0.869420  0.589360  1.0  -0.305
  N  N171  1  0.371530  0.923710  0.421540  1.0  -0.0456
  N  N172  1  0.326370  0.869420  0.410640  1.0  -0.302
  N  N173  1  0.076290  0.421540  0.628470  1.0  -0.0462
  N  N174  1  0.130580  0.410640  0.673630  1.0  -0.3033
  N  N175  1  0.076290  0.578460  0.371530  1.0  -0.0456
  N  N176  1  0.130580  0.589360  0.326370  1.0  -0.3033
  N  N177  1  0.923710  0.421540  0.371530  1.0  -0.0451
  N  N178  1  0.869420  0.410640  0.326370  1.0  -0.3034
  N  N179  1  0.923710  0.578460  0.628470  1.0  -0.0453
  N  N180  1  0.869420  0.589360  0.673630  1.0  -0.3027
  N  N181  1  0.628470  0.578460  0.923710  1.0  -0.0458
  N  N182  1  0.673630  0.589360  0.869420  1.0  -0.3046
  N  N183  1  0.371530  0.421540  0.923710  1.0  -0.046
  N  N184  1  0.326370  0.410640  0.869420  1.0  -0.3024
  N  N185  1  0.371530  0.578460  0.076290  1.0  -0.0458
  N  N186  1  0.326370  0.589360  0.130580  1.0  -0.3032
  N  N187  1  0.628470  0.421540  0.076290  1.0  -0.0464
  N  N188  1  0.673630  0.410640  0.130580  1.0  -0.3054
  N  N189  1  0.923710  0.628470  0.578460  1.0  -0.0459
  N  N190  1  0.869420  0.673630  0.589360  1.0  -0.3044
  N  N191  1  0.923710  0.371530  0.421540  1.0  -0.0455
  N  N192  1  0.869420  0.326370  0.410640  1.0  -0.3036
  N  N193  1  0.076290  0.371530  0.578460  1.0  -0.0466
  N  N194  1  0.130580  0.326370  0.589360  1.0  -0.3025
  N  N195  1  0.076290  0.628470  0.421540  1.0  -0.0467
  N  N196  1  0.130580  0.673630  0.410640  1.0  -0.3042
  N  N197  1  0.578460  0.923710  0.628470  1.0  -0.0461
  N  N198  1  0.589360  0.869420  0.673630  1.0  -0.3014
  N  N199  1  0.421540  0.923710  0.371530  1.0  -0.0452
  N  N200  1  0.410640  0.869420  0.326370  1.0  -0.3011
  N  N201  1  0.578460  0.076290  0.371530  1.0  -0.046
  N  N202  1  0.589360  0.130580  0.326370  1.0  -0.3015
  N  N203  1  0.421540  0.076290  0.628470  1.0  -0.0454
  N  N204  1  0.410640  0.130580  0.673630  1.0  -0.3013
  N  N205  1  0.578460  0.628470  0.076290  1.0  -0.0467
  N  N206  1  0.589360  0.673630  0.130580  1.0  -0.3032
  N  N207  1  0.421540  0.371530  0.076290  1.0  -0.0466
  N  N208  1  0.410640  0.326370  0.130580  1.0  -0.3012
  N  N209  1  0.578460  0.371530  0.923710  1.0  -0.0471
  N  N210  1  0.589360  0.326370  0.869420  1.0  -0.3016
  N  N211  1  0.421540  0.628470  0.923710  1.0  -0.0462
  N  N212  1  0.410640  0.673630  0.869420  1.0  -0.3025
  N  N213  1  0.628470  0.923710  0.421540  1.0  -0.046
  N  N214  1  0.673630  0.869420  0.410640  1.0  -0.3046
  N  N215  1  0.371530  0.923710  0.578460  1.0  -0.046
  N  N216  1  0.326370  0.869420  0.589360  1.0  -0.302
  N  N217  1  0.371530  0.076290  0.421540  1.0  -0.0452
  N  N218  1  0.326370  0.130580  0.410640  1.0  -0.3021
  N  N219  1  0.628470  0.076290  0.578460  1.0  -0.046
  N  N220  1  0.673630  0.130580  0.589360  1.0  -0.305
  N  N221  1  0.923710  0.578460  0.371530  1.0  -0.0448
  N  N222  1  0.869420  0.589360  0.326370  1.0  -0.3034
  N  N223  1  0.923710  0.421540  0.628470  1.0  -0.0455
  N  N224  1  0.869420  0.410640  0.673630  1.0  -0.3032
  N  N225  1  0.076290  0.578460  0.628470  1.0  -0.0459
  N  N226  1  0.130580  0.589360  0.673630  1.0  -0.303
  N  N227  1  0.076290  0.421540  0.371530  1.0  -0.0462
  N  N228  1  0.130580  0.410640  0.326370  1.0  -0.3031
  Cl  Cl229  1  0.500000  0.500000  0.000000  1.0  -0.1897
  Cl  Cl230  1  0.000000  0.500000  0.500000  1.0  -0.1897
  Cl  Cl231  1  0.500000  0.000000  0.500000  1.0  -0.1897
  Cl  Cl232  1  0.271200  0.500000  0.271200  1.0  -0.4617
  Cl  Cl233  1  0.728800  0.500000  0.271200  1.0  -0.4635
  Cl  Cl234  1  0.728800  0.500000  0.728800  1.0  -0.4624
  Cl  Cl235  1  0.271200  0.500000  0.728800  1.0  -0.4611
  Cl  Cl236  1  0.271200  0.271200  0.500000  1.0  -0.4613
  Cl  Cl237  1  0.271200  0.728800  0.500000  1.0  -0.461
  Cl  Cl238  1  0.728800  0.728800  0.500000  1.0  -0.4609
  Cl  Cl239  1  0.728800  0.271200  0.500000  1.0  -0.4626
  Cl  Cl240  1  0.500000  0.271200  0.271200  1.0  -0.466
  Cl  Cl241  1  0.500000  0.271200  0.728800  1.0  -0.4655
  Cl  Cl242  1  0.500000  0.728800  0.728800  1.0  -0.4639
  Cl  Cl243  1  0.500000  0.728800  0.271200  1.0  -0.4651
  O  O244  1  0.153900  0.500000  0.153900  1.0  -0.695
  O  O245  1  0.846100  0.500000  0.153900  1.0  -0.6967
  O  O246  1  0.846100  0.500000  0.846100  1.0  -0.6972
  O  O247  1  0.153900  0.500000  0.846100  1.0  -0.694
  O  O248  1  0.153900  0.153900  0.500000  1.0  -0.692
  O  O249  1  0.153900  0.846100  0.500000  1.0  -0.6886
  O  O250  1  0.846100  0.846100  0.500000  1.0  -0.692
  O  O251  1  0.846100  0.153900  0.500000  1.0  -0.695
  O  O252  1  0.500000  0.153900  0.153900  1.0  -0.6996
  O  O253  1  0.500000  0.153900  0.846100  1.0  -0.702
  O  O254  1  0.500000  0.846100  0.846100  1.0  -0.6958
  O  O255  1  0.500000  0.846100  0.153900  1.0  -0.6986
