# generated using pymatgen
data_Ni12H8C24N32Cl9
_symmetry_space_group_name_H-M   'P 1'
_cell_length_a   18.64830000
_cell_length_b   18.64830000
_cell_length_c   18.64830000
_cell_angle_alpha   90.00000000
_cell_angle_beta   90.00000000
_cell_angle_gamma   90.00000000
_symmetry_Int_Tables_number   1
_chemical_formula_structural   Ni12H8C24N32Cl9
_chemical_formula_sum   'Ni36 H24 C72 N96 Cl27'
_cell_volume   6485.11589194
_cell_formula_units_Z   3
loop_
 _symmetry_equiv_pos_site_id
 _symmetry_equiv_pos_as_xyz
  1  'x, y, z'
loop_
 _atom_site_type_symbol
 _atom_site_label
 _atom_site_symmetry_multiplicity
 _atom_site_fract_x
 _atom_site_fract_y
 _atom_site_fract_z
 _atom_site_occupancy
 _atom_site_charge
  Ni  Ni1  1  0.365640  0.500000  0.000000  1.0  0.5741
  Ni  Ni2  1  0.634360  0.500000  0.000000  1.0  0.5738
  Ni  Ni3  1  0.000000  0.365640  0.500000  1.0  0.5735
  Ni  Ni4  1  0.000000  0.634360  0.500000  1.0  0.5757
  Ni  Ni5  1  0.500000  0.000000  0.365640  1.0  0.5784
  Ni  Ni6  1  0.500000  0.000000  0.634360  1.0  0.577
  Ni  Ni7  1  0.500000  0.365640  0.000000  1.0  0.5735
  Ni  Ni8  1  0.500000  0.634360  0.000000  1.0  0.5757
  Ni  Ni9  1  0.365640  0.000000  0.500000  1.0  0.5741
  Ni  Ni10  1  0.634360  0.000000  0.500000  1.0  0.5738
  Ni  Ni11  1  0.000000  0.500000  0.634360  1.0  0.577
  Ni  Ni12  1  0.000000  0.500000  0.365640  1.0  0.5784
  Ni  Ni13  1  0.248600  0.500000  0.134270  1.0  0.5623
  Ni  Ni14  1  0.751400  0.500000  0.134270  1.0  0.5601
  Ni  Ni15  1  0.751400  0.500000  0.865730  1.0  0.5624
  Ni  Ni16  1  0.248600  0.500000  0.865730  1.0  0.564
  Ni  Ni17  1  0.134270  0.248600  0.500000  1.0  0.5635
  Ni  Ni18  1  0.134270  0.751400  0.500000  1.0  0.5642
  Ni  Ni19  1  0.865730  0.751400  0.500000  1.0  0.5638
  Ni  Ni20  1  0.865730  0.248600  0.500000  1.0  0.5638
  Ni  Ni21  1  0.500000  0.134270  0.248600  1.0  0.555
  Ni  Ni22  1  0.500000  0.134270  0.751400  1.0  0.5579
  Ni  Ni23  1  0.500000  0.865730  0.751400  1.0  0.5579
  Ni  Ni24  1  0.500000  0.865730  0.248600  1.0  0.5545
  Ni  Ni25  1  0.500000  0.248600  0.865730  1.0  0.5616
  Ni  Ni26  1  0.500000  0.751400  0.865730  1.0  0.5618
  Ni  Ni27  1  0.500000  0.751400  0.134270  1.0  0.5603
  Ni  Ni28  1  0.500000  0.248600  0.134270  1.0  0.5596
  Ni  Ni29  1  0.248600  0.134270  0.500000  1.0  0.5636
  Ni  Ni30  1  0.751400  0.134270  0.500000  1.0  0.5622
  Ni  Ni31  1  0.751400  0.865730  0.500000  1.0  0.5616
  Ni  Ni32  1  0.248600  0.865730  0.500000  1.0  0.5634
  Ni  Ni33  1  0.134270  0.500000  0.751400  1.0  0.5606
  Ni  Ni34  1  0.134270  0.500000  0.248600  1.0  0.5578
  Ni  Ni35  1  0.865730  0.500000  0.248600  1.0  0.5576
  Ni  Ni36  1  0.865730  0.500000  0.751400  1.0  0.5608
  H  H37  1  0.239300  0.391300  0.239300  1.0  0.091
  H  H38  1  0.760700  0.608700  0.239300  1.0  0.0905
  H  H39  1  0.760700  0.391300  0.760700  1.0  0.0896
  H  H40  1  0.239300  0.608700  0.760700  1.0  0.0904
  H  H41  1  0.239300  0.239300  0.391300  1.0  0.0909
  H  H42  1  0.239300  0.760700  0.608700  1.0  0.0927
  H  H43  1  0.760700  0.760700  0.391300  1.0  0.0907
  H  H44  1  0.760700  0.239300  0.608700  1.0  0.0924
  H  H45  1  0.391300  0.239300  0.239300  1.0  0.0901
  H  H46  1  0.608700  0.239300  0.760700  1.0  0.0901
  H  H47  1  0.391300  0.760700  0.760700  1.0  0.0897
  H  H48  1  0.608700  0.760700  0.239300  1.0  0.0906
  H  H49  1  0.391300  0.239300  0.760700  1.0  0.0898
  H  H50  1  0.608700  0.760700  0.760700  1.0  0.0898
  H  H51  1  0.391300  0.760700  0.239300  1.0  0.0905
  H  H52  1  0.608700  0.239300  0.239300  1.0  0.0903
  H  H53  1  0.239300  0.239300  0.608700  1.0  0.0925
  H  H54  1  0.760700  0.239300  0.391300  1.0  0.0909
  H  H55  1  0.760700  0.760700  0.608700  1.0  0.0926
  H  H56  1  0.239300  0.760700  0.391300  1.0  0.0906
  H  H57  1  0.239300  0.391300  0.760700  1.0  0.0897
  H  H58  1  0.239300  0.608700  0.239300  1.0  0.0908
  H  H59  1  0.760700  0.391300  0.239300  1.0  0.0907
  H  H60  1  0.760700  0.608700  0.760700  1.0  0.0901
  C  C61  1  0.351860  0.351860  0.164300  1.0  0.3373
  C  C62  1  0.318950  0.318950  0.227500  1.0  -0.0659
  C  C63  1  0.648140  0.648140  0.164300  1.0  0.3377
  C  C64  1  0.681050  0.681050  0.227500  1.0  -0.0663
  C  C65  1  0.648140  0.351860  0.835700  1.0  0.3376
  C  C66  1  0.681050  0.318950  0.772500  1.0  -0.0647
  C  C67  1  0.351860  0.648140  0.835700  1.0  0.3378
  C  C68  1  0.318950  0.681050  0.772500  1.0  -0.0649
  C  C69  1  0.164300  0.351860  0.351860  1.0  0.3382
  C  C70  1  0.227500  0.318950  0.318950  1.0  -0.0639
  C  C71  1  0.164300  0.648140  0.648140  1.0  0.3381
  C  C72  1  0.227500  0.681050  0.681050  1.0  -0.0643
  C  C73  1  0.835700  0.648140  0.351860  1.0  0.3382
  C  C74  1  0.772500  0.681050  0.318950  1.0  -0.0639
  C  C75  1  0.835700  0.351860  0.648140  1.0  0.3376
  C  C76  1  0.772500  0.318950  0.681050  1.0  -0.0637
  C  C77  1  0.351860  0.164300  0.351860  1.0  0.3377
  C  C78  1  0.318950  0.227500  0.318950  1.0  -0.0637
  C  C79  1  0.648140  0.164300  0.648140  1.0  0.3374
  C  C80  1  0.681050  0.227500  0.681050  1.0  -0.0641
  C  C81  1  0.351860  0.835700  0.648140  1.0  0.3374
  C  C82  1  0.318950  0.772500  0.681050  1.0  -0.0635
  C  C83  1  0.648140  0.835700  0.351860  1.0  0.338
  C  C84  1  0.681050  0.772500  0.318950  1.0  -0.0637
  C  C85  1  0.351860  0.351860  0.835700  1.0  0.3376
  C  C86  1  0.318950  0.318950  0.772500  1.0  -0.0646
  C  C87  1  0.648140  0.648140  0.835700  1.0  0.3378
  C  C88  1  0.681050  0.681050  0.772500  1.0  -0.065
  C  C89  1  0.351860  0.648140  0.164300  1.0  0.3375
  C  C90  1  0.318950  0.681050  0.227500  1.0  -0.0661
  C  C91  1  0.648140  0.351860  0.164300  1.0  0.3375
  C  C92  1  0.681050  0.318950  0.227500  1.0  -0.0661
  C  C93  1  0.351860  0.164300  0.648140  1.0  0.3372
  C  C94  1  0.318950  0.227500  0.681050  1.0  -0.0639
  C  C95  1  0.648140  0.164300  0.351860  1.0  0.3378
  C  C96  1  0.681050  0.227500  0.318950  1.0  -0.0639
  C  C97  1  0.648140  0.835700  0.648140  1.0  0.3375
  C  C98  1  0.681050  0.772500  0.681050  1.0  -0.0637
  C  C99  1  0.351860  0.835700  0.351860  1.0  0.3379
  C  C100  1  0.318950  0.772500  0.318950  1.0  -0.0636
  C  C101  1  0.164300  0.351860  0.648140  1.0  0.3378
  C  C102  1  0.227500  0.318950  0.681050  1.0  -0.064
  C  C103  1  0.164300  0.648140  0.351860  1.0  0.3385
  C  C104  1  0.227500  0.681050  0.318950  1.0  -0.0642
  C  C105  1  0.835700  0.351860  0.351860  1.0  0.338
  C  C106  1  0.772500  0.318950  0.318950  1.0  -0.0636
  C  C107  1  0.835700  0.648140  0.648140  1.0  0.3378
  C  C108  1  0.772500  0.681050  0.681050  1.0  -0.064
  C  C109  1  0.258790  0.349700  0.258790  1.0  -0.024
  C  C110  1  0.741210  0.650300  0.258790  1.0  -0.0235
  C  C111  1  0.741210  0.349700  0.741210  1.0  -0.0231
  C  C112  1  0.258790  0.650300  0.741210  1.0  -0.024
  C  C113  1  0.258790  0.258790  0.349700  1.0  -0.0256
  C  C114  1  0.258790  0.741210  0.650300  1.0  -0.0253
  C  C115  1  0.741210  0.741210  0.349700  1.0  -0.0246
  C  C116  1  0.741210  0.258790  0.650300  1.0  -0.0251
  C  C117  1  0.349700  0.258790  0.258790  1.0  -0.0256
  C  C118  1  0.650300  0.258790  0.741210  1.0  -0.0245
  C  C119  1  0.349700  0.741210  0.741210  1.0  -0.0246
  C  C120  1  0.650300  0.741210  0.258790  1.0  -0.0246
  C  C121  1  0.349700  0.258790  0.741210  1.0  -0.0249
  C  C122  1  0.650300  0.741210  0.741210  1.0  -0.024
  C  C123  1  0.349700  0.741210  0.258790  1.0  -0.025
  C  C124  1  0.650300  0.258790  0.258790  1.0  -0.0248
  C  C125  1  0.258790  0.258790  0.650300  1.0  -0.0258
  C  C126  1  0.741210  0.258790  0.349700  1.0  -0.025
  C  C127  1  0.741210  0.741210  0.650300  1.0  -0.0248
  C  C128  1  0.258790  0.741210  0.349700  1.0  -0.0252
  C  C129  1  0.258790  0.349700  0.741210  1.0  -0.024
  C  C130  1  0.258790  0.650300  0.258790  1.0  -0.0243
  C  C131  1  0.741210  0.349700  0.258790  1.0  -0.0235
  C  C132  1  0.741210  0.650300  0.741210  1.0  -0.0233
  N  N133  1  0.371030  0.420350  0.077020  1.0  -0.0239
  N  N134  1  0.326130  0.410400  0.131750  1.0  -0.3168
  N  N135  1  0.628970  0.579650  0.077020  1.0  -0.0237
  N  N136  1  0.673870  0.589600  0.131750  1.0  -0.3172
  N  N137  1  0.628970  0.420350  0.922980  1.0  -0.0236
  N  N138  1  0.673870  0.410400  0.868250  1.0  -0.3174
  N  N139  1  0.371030  0.579650  0.922980  1.0  -0.024
  N  N140  1  0.326130  0.589600  0.868250  1.0  -0.3174
  N  N141  1  0.077020  0.371030  0.420350  1.0  -0.0236
  N  N142  1  0.131750  0.326130  0.410400  1.0  -0.3153
  N  N143  1  0.077020  0.628970  0.579650  1.0  -0.0242
  N  N144  1  0.131750  0.673870  0.589600  1.0  -0.3173
  N  N145  1  0.922980  0.628970  0.420350  1.0  -0.0229
  N  N146  1  0.868250  0.673870  0.410400  1.0  -0.3171
  N  N147  1  0.922980  0.371030  0.579650  1.0  -0.0237
  N  N148  1  0.868250  0.326130  0.589600  1.0  -0.3154
  N  N149  1  0.420350  0.077020  0.371030  1.0  -0.0226
  N  N150  1  0.410400  0.131750  0.326130  1.0  -0.3152
  N  N151  1  0.579650  0.077020  0.628970  1.0  -0.0229
  N  N152  1  0.589600  0.131750  0.673870  1.0  -0.3154
  N  N153  1  0.420350  0.922980  0.628970  1.0  -0.0229
  N  N154  1  0.410400  0.868250  0.673870  1.0  -0.3146
  N  N155  1  0.579650  0.922980  0.371030  1.0  -0.0231
  N  N156  1  0.589600  0.868250  0.326130  1.0  -0.3151
  N  N157  1  0.420350  0.371030  0.922980  1.0  -0.0234
  N  N158  1  0.410400  0.326130  0.868250  1.0  -0.3134
  N  N159  1  0.579650  0.628970  0.922980  1.0  -0.0248
  N  N160  1  0.589600  0.673870  0.868250  1.0  -0.3153
  N  N161  1  0.420350  0.628970  0.077020  1.0  -0.024
  N  N162  1  0.410400  0.673870  0.131750  1.0  -0.3166
  N  N163  1  0.579650  0.371030  0.077020  1.0  -0.0241
  N  N164  1  0.589600  0.326130  0.131750  1.0  -0.315
  N  N165  1  0.371030  0.077020  0.579650  1.0  -0.0244
  N  N166  1  0.326130  0.131750  0.589600  1.0  -0.3157
  N  N167  1  0.628970  0.077020  0.420350  1.0  -0.023
  N  N168  1  0.673870  0.131750  0.410400  1.0  -0.3167
  N  N169  1  0.628970  0.922980  0.579650  1.0  -0.0239
  N  N170  1  0.673870  0.868250  0.589600  1.0  -0.3171
  N  N171  1  0.371030  0.922980  0.420350  1.0  -0.0231
  N  N172  1  0.326130  0.868250  0.410400  1.0  -0.316
  N  N173  1  0.077020  0.420350  0.628970  1.0  -0.0228
  N  N174  1  0.131750  0.410400  0.673870  1.0  -0.3174
  N  N175  1  0.077020  0.579650  0.371030  1.0  -0.0232
  N  N176  1  0.131750  0.589600  0.326130  1.0  -0.3166
  N  N177  1  0.922980  0.420350  0.371030  1.0  -0.0224
  N  N178  1  0.868250  0.410400  0.326130  1.0  -0.3163
  N  N179  1  0.922980  0.579650  0.628970  1.0  -0.0225
  N  N180  1  0.868250  0.589600  0.673870  1.0  -0.3174
  N  N181  1  0.628970  0.579650  0.922980  1.0  -0.0236
  N  N182  1  0.673870  0.589600  0.868250  1.0  -0.3157
  N  N183  1  0.371030  0.420350  0.922980  1.0  -0.0238
  N  N184  1  0.326130  0.410400  0.868250  1.0  -0.3153
  N  N185  1  0.371030  0.579650  0.077020  1.0  -0.0244
  N  N186  1  0.326130  0.589600  0.131750  1.0  -0.3165
  N  N187  1  0.628970  0.420350  0.077020  1.0  -0.0235
  N  N188  1  0.673870  0.410400  0.131750  1.0  -0.3171
  N  N189  1  0.922980  0.628970  0.579650  1.0  -0.0237
  N  N190  1  0.868250  0.673870  0.589600  1.0  -0.3159
  N  N191  1  0.922980  0.371030  0.420350  1.0  -0.0224
  N  N192  1  0.868250  0.326130  0.410400  1.0  -0.3141
  N  N193  1  0.077020  0.371030  0.579650  1.0  -0.0243
  N  N194  1  0.131750  0.326130  0.589600  1.0  -0.3146
  N  N195  1  0.077020  0.628970  0.420350  1.0  -0.0238
  N  N196  1  0.131750  0.673870  0.410400  1.0  -0.3165
  N  N197  1  0.579650  0.922980  0.628970  1.0  -0.023
  N  N198  1  0.589600  0.868250  0.673870  1.0  -0.3141
  N  N199  1  0.420350  0.922980  0.371030  1.0  -0.0228
  N  N200  1  0.410400  0.868250  0.326130  1.0  -0.3144
  N  N201  1  0.579650  0.077020  0.371030  1.0  -0.0228
  N  N202  1  0.589600  0.131750  0.326130  1.0  -0.3131
  N  N203  1  0.420350  0.077020  0.628970  1.0  -0.0225
  N  N204  1  0.410400  0.131750  0.673870  1.0  -0.3136
  N  N205  1  0.579650  0.628970  0.077020  1.0  -0.0242
  N  N206  1  0.589600  0.673870  0.131750  1.0  -0.315
  N  N207  1  0.420350  0.371030  0.077020  1.0  -0.024
  N  N208  1  0.410400  0.326130  0.131750  1.0  -0.3131
  N  N209  1  0.579650  0.371030  0.922980  1.0  -0.0243
  N  N210  1  0.589600  0.326130  0.868250  1.0  -0.3132
  N  N211  1  0.420350  0.628970  0.922980  1.0  -0.0239
  N  N212  1  0.410400  0.673870  0.868250  1.0  -0.3153
  N  N213  1  0.628970  0.922980  0.420350  1.0  -0.0231
  N  N214  1  0.673870  0.868250  0.410400  1.0  -0.3152
  N  N215  1  0.371030  0.922980  0.579650  1.0  -0.0243
  N  N216  1  0.326130  0.868250  0.589600  1.0  -0.315
  N  N217  1  0.371030  0.077020  0.420350  1.0  -0.0232
  N  N218  1  0.326130  0.131750  0.410400  1.0  -0.3149
  N  N219  1  0.628970  0.077020  0.579650  1.0  -0.0238
  N  N220  1  0.673870  0.131750  0.589600  1.0  -0.3156
  N  N221  1  0.922980  0.579650  0.371030  1.0  -0.0226
  N  N222  1  0.868250  0.589600  0.326130  1.0  -0.3149
  N  N223  1  0.922980  0.420350  0.628970  1.0  -0.0225
  N  N224  1  0.868250  0.410400  0.673870  1.0  -0.3161
  N  N225  1  0.077020  0.579650  0.628970  1.0  -0.0231
  N  N226  1  0.131750  0.589600  0.673870  1.0  -0.3165
  N  N227  1  0.077020  0.420350  0.371030  1.0  -0.0227
  N  N228  1  0.131750  0.410400  0.326130  1.0  -0.3157
  Cl  Cl229  1  0.500000  0.500000  0.000000  1.0  -0.2195
  Cl  Cl230  1  0.000000  0.500000  0.500000  1.0  -0.2195
  Cl  Cl231  1  0.500000  0.000000  0.500000  1.0  -0.2195
  Cl  Cl232  1  0.142600  0.424000  0.142600  1.0  -0.4823
  Cl  Cl233  1  0.857400  0.576000  0.142600  1.0  -0.4827
  Cl  Cl234  1  0.857400  0.424000  0.857400  1.0  -0.4841
  Cl  Cl235  1  0.142600  0.576000  0.857400  1.0  -0.4817
  Cl  Cl236  1  0.142600  0.142600  0.424000  1.0  -0.4817
  Cl  Cl237  1  0.142600  0.857400  0.576000  1.0  -0.4829
  Cl  Cl238  1  0.857400  0.857400  0.424000  1.0  -0.4829
  Cl  Cl239  1  0.857400  0.142600  0.576000  1.0  -0.4834
  Cl  Cl240  1  0.424000  0.142600  0.142600  1.0  -0.48
  Cl  Cl241  1  0.576000  0.142600  0.857400  1.0  -0.4836
  Cl  Cl242  1  0.424000  0.857400  0.857400  1.0  -0.4818
  Cl  Cl243  1  0.576000  0.857400  0.142600  1.0  -0.4833
  Cl  Cl244  1  0.424000  0.142600  0.857400  1.0  -0.4826
  Cl  Cl245  1  0.576000  0.857400  0.857400  1.0  -0.4826
  Cl  Cl246  1  0.424000  0.857400  0.142600  1.0  -0.4818
  Cl  Cl247  1  0.576000  0.142600  0.142600  1.0  -0.4813
  Cl  Cl248  1  0.142600  0.142600  0.576000  1.0  -0.4815
  Cl  Cl249  1  0.857400  0.142600  0.424000  1.0  -0.4834
  Cl  Cl250  1  0.857400  0.857400  0.576000  1.0  -0.4843
  Cl  Cl251  1  0.142600  0.857400  0.424000  1.0  -0.482
  Cl  Cl252  1  0.142600  0.424000  0.857400  1.0  -0.4824
  Cl  Cl253  1  0.142600  0.576000  0.142600  1.0  -0.4815
  Cl  Cl254  1  0.857400  0.424000  0.142600  1.0  -0.4832
  Cl  Cl255  1  0.857400  0.576000  0.857400  1.0  -0.4833
