# generated using pymatgen
data_CoH2(C3N4)2
_symmetry_space_group_name_H-M   'P 1'
_cell_length_a   18.79760000
_cell_length_b   18.79760000
_cell_length_c   18.79760000
_cell_angle_alpha   90.00000000
_cell_angle_beta   90.00000000
_cell_angle_gamma   90.00000000
_symmetry_Int_Tables_number   1
_chemical_formula_structural   CoH2(C3N4)2
_chemical_formula_sum   'Co12 H24 C72 N96'
_cell_volume   6642.12755685
_cell_formula_units_Z   12
loop_
 _symmetry_equiv_pos_site_id
 _symmetry_equiv_pos_as_xyz
  1  'x, y, z'
loop_
 _atom_site_type_symbol
 _atom_site_label
 _atom_site_symmetry_multiplicity
 _atom_site_fract_x
 _atom_site_fract_y
 _atom_site_fract_z
 _atom_site_occupancy
 _atom_site_charge
  Co  Co1  1  0.361960  0.500000  0.000000  1.0  0.7412
  Co  Co2  1  0.638040  0.500000  0.000000  1.0  0.7406
  Co  Co3  1  0.000000  0.361960  0.500000  1.0  0.7406
  Co  Co4  1  0.000000  0.638040  0.500000  1.0  0.7393
  Co  Co5  1  0.500000  0.000000  0.361960  1.0  0.7401
  Co  Co6  1  0.500000  0.000000  0.638040  1.0  0.7373
  Co  Co7  1  0.500000  0.361960  0.000000  1.0  0.7406
  Co  Co8  1  0.500000  0.638040  0.000000  1.0  0.7393
  Co  Co9  1  0.361960  0.000000  0.500000  1.0  0.7412
  Co  Co10  1  0.638040  0.000000  0.500000  1.0  0.7406
  Co  Co11  1  0.000000  0.500000  0.638040  1.0  0.7373
  Co  Co12  1  0.000000  0.500000  0.361960  1.0  0.7401
  H  H13  1  0.236800  0.387700  0.236800  1.0  0.1041
  H  H14  1  0.763200  0.612300  0.236800  1.0  0.1041
  H  H15  1  0.763200  0.387700  0.763200  1.0  0.104
  H  H16  1  0.236800  0.612300  0.763200  1.0  0.1046
  H  H17  1  0.236800  0.236800  0.387700  1.0  0.1055
  H  H18  1  0.236800  0.763200  0.612300  1.0  0.1043
  H  H19  1  0.763200  0.763200  0.387700  1.0  0.1047
  H  H20  1  0.763200  0.236800  0.612300  1.0  0.1044
  H  H21  1  0.387700  0.236800  0.236800  1.0  0.1038
  H  H22  1  0.612300  0.236800  0.763200  1.0  0.1044
  H  H23  1  0.387700  0.763200  0.763200  1.0  0.1037
  H  H24  1  0.612300  0.763200  0.236800  1.0  0.1037
  H  H25  1  0.387700  0.236800  0.763200  1.0  0.104
  H  H26  1  0.612300  0.763200  0.763200  1.0  0.1038
  H  H27  1  0.387700  0.763200  0.236800  1.0  0.1036
  H  H28  1  0.612300  0.236800  0.236800  1.0  0.104
  H  H29  1  0.236800  0.236800  0.612300  1.0  0.1046
  H  H30  1  0.763200  0.236800  0.387700  1.0  0.1051
  H  H31  1  0.763200  0.763200  0.612300  1.0  0.1042
  H  H32  1  0.236800  0.763200  0.387700  1.0  0.105
  H  H33  1  0.236800  0.387700  0.763200  1.0  0.1043
  H  H34  1  0.236800  0.612300  0.236800  1.0  0.1042
  H  H35  1  0.763200  0.387700  0.236800  1.0  0.1039
  H  H36  1  0.763200  0.612300  0.763200  1.0  0.1044
  C  C37  1  0.350060  0.350060  0.164100  1.0  0.3603
  C  C38  1  0.318180  0.318180  0.227300  1.0  -0.0759
  C  C39  1  0.649940  0.649940  0.164100  1.0  0.3612
  C  C40  1  0.681820  0.681820  0.227300  1.0  -0.0763
  C  C41  1  0.649940  0.350060  0.835900  1.0  0.3609
  C  C42  1  0.681820  0.318180  0.772700  1.0  -0.0764
  C  C43  1  0.350060  0.649940  0.835900  1.0  0.3606
  C  C44  1  0.318180  0.681820  0.772700  1.0  -0.0761
  C  C45  1  0.164100  0.350060  0.350060  1.0  0.3603
  C  C46  1  0.227300  0.318180  0.318180  1.0  -0.0756
  C  C47  1  0.164100  0.649940  0.649940  1.0  0.3607
  C  C48  1  0.227300  0.681820  0.681820  1.0  -0.0757
  C  C49  1  0.835900  0.649940  0.350060  1.0  0.3603
  C  C50  1  0.772700  0.681820  0.318180  1.0  -0.0744
  C  C51  1  0.835900  0.350060  0.649940  1.0  0.3604
  C  C52  1  0.772700  0.318180  0.681820  1.0  -0.0742
  C  C53  1  0.350060  0.164100  0.350060  1.0  0.3604
  C  C54  1  0.318180  0.227300  0.318180  1.0  -0.0751
  C  C55  1  0.649940  0.164100  0.649940  1.0  0.3614
  C  C56  1  0.681820  0.227300  0.681820  1.0  -0.0753
  C  C57  1  0.350060  0.835900  0.649940  1.0  0.3602
  C  C58  1  0.318180  0.772700  0.681820  1.0  -0.0747
  C  C59  1  0.649940  0.835900  0.350060  1.0  0.3609
  C  C60  1  0.681820  0.772700  0.318180  1.0  -0.0751
  C  C61  1  0.350060  0.350060  0.835900  1.0  0.3602
  C  C62  1  0.318180  0.318180  0.772700  1.0  -0.0762
  C  C63  1  0.649940  0.649940  0.835900  1.0  0.3614
  C  C64  1  0.681820  0.681820  0.772700  1.0  -0.0762
  C  C65  1  0.350060  0.649940  0.164100  1.0  0.3607
  C  C66  1  0.318180  0.681820  0.227300  1.0  -0.0761
  C  C67  1  0.649940  0.350060  0.164100  1.0  0.3609
  C  C68  1  0.681820  0.318180  0.227300  1.0  -0.0762
  C  C69  1  0.350060  0.164100  0.649940  1.0  0.3606
  C  C70  1  0.318180  0.227300  0.681820  1.0  -0.075
  C  C71  1  0.649940  0.164100  0.350060  1.0  0.3611
  C  C72  1  0.681820  0.227300  0.318180  1.0  -0.0752
  C  C73  1  0.649940  0.835900  0.649940  1.0  0.3609
  C  C74  1  0.681820  0.772700  0.681820  1.0  -0.0749
  C  C75  1  0.350060  0.835900  0.350060  1.0  0.3601
  C  C76  1  0.318180  0.772700  0.318180  1.0  -0.075
  C  C77  1  0.164100  0.350060  0.649940  1.0  0.3605
  C  C78  1  0.227300  0.318180  0.681820  1.0  -0.0756
  C  C79  1  0.164100  0.649940  0.350060  1.0  0.3606
  C  C80  1  0.227300  0.681820  0.318180  1.0  -0.0756
  C  C81  1  0.835900  0.350060  0.350060  1.0  0.3602
  C  C82  1  0.772700  0.318180  0.318180  1.0  -0.0743
  C  C83  1  0.835900  0.649940  0.649940  1.0  0.3605
  C  C84  1  0.772700  0.681820  0.681820  1.0  -0.0743
  C  C85  1  0.257460  0.347700  0.257460  1.0  -0.0232
  C  C86  1  0.742540  0.652300  0.257460  1.0  -0.0232
  C  C87  1  0.742540  0.347700  0.742540  1.0  -0.0248
  C  C88  1  0.257460  0.652300  0.742540  1.0  -0.023
  C  C89  1  0.257460  0.257460  0.347700  1.0  -0.0249
  C  C90  1  0.257460  0.742540  0.652300  1.0  -0.0242
  C  C91  1  0.742540  0.742540  0.347700  1.0  -0.0248
  C  C92  1  0.742540  0.257460  0.652300  1.0  -0.0248
  C  C93  1  0.347700  0.257460  0.257460  1.0  -0.0243
  C  C94  1  0.652300  0.257460  0.742540  1.0  -0.0236
  C  C95  1  0.347700  0.742540  0.742540  1.0  -0.0247
  C  C96  1  0.652300  0.742540  0.257460  1.0  -0.024
  C  C97  1  0.347700  0.257460  0.742540  1.0  -0.024
  C  C98  1  0.652300  0.742540  0.742540  1.0  -0.0239
  C  C99  1  0.347700  0.742540  0.257460  1.0  -0.024
  C  C100  1  0.652300  0.257460  0.257460  1.0  -0.0237
  C  C101  1  0.257460  0.257460  0.652300  1.0  -0.0244
  C  C102  1  0.742540  0.257460  0.347700  1.0  -0.0245
  C  C103  1  0.742540  0.742540  0.652300  1.0  -0.0246
  C  C104  1  0.257460  0.742540  0.347700  1.0  -0.0253
  C  C105  1  0.257460  0.347700  0.742540  1.0  -0.0245
  C  C106  1  0.257460  0.652300  0.257460  1.0  -0.0229
  C  C107  1  0.742540  0.347700  0.257460  1.0  -0.0242
  C  C108  1  0.742540  0.652300  0.742540  1.0  -0.0236
  N  N109  1  0.369650  0.418760  0.077720  1.0  -0.0548
  N  N110  1  0.325020  0.408280  0.132050  1.0  -0.3103
  N  N111  1  0.630350  0.581240  0.077720  1.0  -0.0547
  N  N112  1  0.674980  0.591720  0.132050  1.0  -0.3098
  N  N113  1  0.630350  0.418760  0.922280  1.0  -0.0551
  N  N114  1  0.674980  0.408280  0.867950  1.0  -0.3101
  N  N115  1  0.369650  0.581240  0.922280  1.0  -0.0547
  N  N116  1  0.325020  0.591720  0.867950  1.0  -0.3104
  N  N117  1  0.077720  0.369650  0.418760  1.0  -0.0549
  N  N118  1  0.132050  0.325020  0.408280  1.0  -0.3117
  N  N119  1  0.077720  0.630350  0.581240  1.0  -0.0539
  N  N120  1  0.132050  0.674980  0.591720  1.0  -0.3113
  N  N121  1  0.922280  0.630350  0.418760  1.0  -0.0544
  N  N122  1  0.867950  0.674980  0.408280  1.0  -0.3105
  N  N123  1  0.922280  0.369650  0.581240  1.0  -0.0548
  N  N124  1  0.867950  0.325020  0.591720  1.0  -0.3108
  N  N125  1  0.418760  0.077720  0.369650  1.0  -0.0548
  N  N126  1  0.408280  0.132050  0.325020  1.0  -0.311
  N  N127  1  0.581240  0.077720  0.630350  1.0  -0.0551
  N  N128  1  0.591720  0.132050  0.674980  1.0  -0.3103
  N  N129  1  0.418760  0.922280  0.630350  1.0  -0.0557
  N  N130  1  0.408280  0.867950  0.674980  1.0  -0.3109
  N  N131  1  0.581240  0.922280  0.369650  1.0  -0.0543
  N  N132  1  0.591720  0.867950  0.325020  1.0  -0.3109
  N  N133  1  0.418760  0.369650  0.922280  1.0  -0.0548
  N  N134  1  0.408280  0.325020  0.867950  1.0  -0.3101
  N  N135  1  0.581240  0.630350  0.922280  1.0  -0.0547
  N  N136  1  0.591720  0.674980  0.867950  1.0  -0.3093
  N  N137  1  0.418760  0.630350  0.077720  1.0  -0.0546
  N  N138  1  0.408280  0.674980  0.132050  1.0  -0.3099
  N  N139  1  0.581240  0.369650  0.077720  1.0  -0.0548
  N  N140  1  0.591720  0.325020  0.132050  1.0  -0.3099
  N  N141  1  0.369650  0.077720  0.581240  1.0  -0.0537
  N  N142  1  0.325020  0.132050  0.591720  1.0  -0.3106
  N  N143  1  0.630350  0.077720  0.418760  1.0  -0.0543
  N  N144  1  0.674980  0.132050  0.408280  1.0  -0.3107
  N  N145  1  0.630350  0.922280  0.581240  1.0  -0.0539
  N  N146  1  0.674980  0.867950  0.591720  1.0  -0.3108
  N  N147  1  0.369650  0.922280  0.418760  1.0  -0.0538
  N  N148  1  0.325020  0.867950  0.408280  1.0  -0.3112
  N  N149  1  0.077720  0.418760  0.630350  1.0  -0.0558
  N  N150  1  0.132050  0.408280  0.674980  1.0  -0.3117
  N  N151  1  0.077720  0.581240  0.369650  1.0  -0.0552
  N  N152  1  0.132050  0.591720  0.325020  1.0  -0.3114
  N  N153  1  0.922280  0.418760  0.369650  1.0  -0.0552
  N  N154  1  0.867950  0.408280  0.325020  1.0  -0.3109
  N  N155  1  0.922280  0.581240  0.630350  1.0  -0.0556
  N  N156  1  0.867950  0.591720  0.674980  1.0  -0.3102
  N  N157  1  0.630350  0.581240  0.922280  1.0  -0.0549
  N  N158  1  0.674980  0.591720  0.867950  1.0  -0.3141
  N  N159  1  0.369650  0.418760  0.922280  1.0  -0.055
  N  N160  1  0.325020  0.408280  0.867950  1.0  -0.315
  N  N161  1  0.369650  0.581240  0.077720  1.0  -0.0544
  N  N162  1  0.325020  0.591720  0.132050  1.0  -0.3147
  N  N163  1  0.630350  0.418760  0.077720  1.0  -0.055
  N  N164  1  0.674980  0.408280  0.132050  1.0  -0.3148
  N  N165  1  0.922280  0.630350  0.581240  1.0  -0.054
  N  N166  1  0.867950  0.674980  0.591720  1.0  -0.3151
  N  N167  1  0.922280  0.369650  0.418760  1.0  -0.0546
  N  N168  1  0.867950  0.325020  0.408280  1.0  -0.3159
  N  N169  1  0.077720  0.369650  0.581240  1.0  -0.0547
  N  N170  1  0.132050  0.325020  0.591720  1.0  -0.3163
  N  N171  1  0.077720  0.630350  0.418760  1.0  -0.0549
  N  N172  1  0.132050  0.674980  0.408280  1.0  -0.3159
  N  N173  1  0.581240  0.922280  0.630350  1.0  -0.0552
  N  N174  1  0.591720  0.867950  0.674980  1.0  -0.315
  N  N175  1  0.418760  0.922280  0.369650  1.0  -0.0546
  N  N176  1  0.408280  0.867950  0.325020  1.0  -0.3163
  N  N177  1  0.581240  0.077720  0.369650  1.0  -0.0546
  N  N178  1  0.591720  0.132050  0.325020  1.0  -0.3148
  N  N179  1  0.418760  0.077720  0.630350  1.0  -0.0553
  N  N180  1  0.408280  0.132050  0.674980  1.0  -0.3153
  N  N181  1  0.581240  0.630350  0.077720  1.0  -0.0542
  N  N182  1  0.591720  0.674980  0.132050  1.0  -0.3137
  N  N183  1  0.418760  0.369650  0.077720  1.0  -0.0552
  N  N184  1  0.408280  0.325020  0.132050  1.0  -0.3146
  N  N185  1  0.581240  0.369650  0.922280  1.0  -0.0547
  N  N186  1  0.591720  0.325020  0.867950  1.0  -0.3145
  N  N187  1  0.418760  0.630350  0.922280  1.0  -0.0548
  N  N188  1  0.408280  0.674980  0.867950  1.0  -0.3145
  N  N189  1  0.630350  0.922280  0.418760  1.0  -0.0538
  N  N190  1  0.674980  0.867950  0.408280  1.0  -0.3156
  N  N191  1  0.369650  0.922280  0.581240  1.0  -0.0536
  N  N192  1  0.325020  0.867950  0.591720  1.0  -0.3157
  N  N193  1  0.369650  0.077720  0.418760  1.0  -0.0539
  N  N194  1  0.325020  0.132050  0.408280  1.0  -0.3157
  N  N195  1  0.630350  0.077720  0.581240  1.0  -0.0542
  N  N196  1  0.674980  0.132050  0.591720  1.0  -0.3148
  N  N197  1  0.922280  0.581240  0.369650  1.0  -0.055
  N  N198  1  0.867950  0.591720  0.325020  1.0  -0.3159
  N  N199  1  0.922280  0.418760  0.630350  1.0  -0.0562
  N  N200  1  0.867950  0.408280  0.674980  1.0  -0.3155
  N  N201  1  0.077720  0.581240  0.630350  1.0  -0.0557
  N  N202  1  0.132050  0.591720  0.674980  1.0  -0.3158
  N  N203  1  0.077720  0.418760  0.369650  1.0  -0.055
  N  N204  1  0.132050  0.408280  0.325020  1.0  -0.3167
