# generated using pymatgen
data_Co12H8C24N32Cl5
_symmetry_space_group_name_H-M   'P 1'
_cell_length_a   18.50150000
_cell_length_b   18.50150000
_cell_length_c   18.50150000
_cell_angle_alpha   90.00000000
_cell_angle_beta   90.00000000
_cell_angle_gamma   90.00000000
_symmetry_Int_Tables_number   1
_chemical_formula_structural   Co12H8C24N32Cl5
_chemical_formula_sum   'Co36 H24 C72 N96 Cl15'
_cell_volume   6333.16524988
_cell_formula_units_Z   3
loop_
 _symmetry_equiv_pos_site_id
 _symmetry_equiv_pos_as_xyz
  1  'x, y, z'
loop_
 _atom_site_type_symbol
 _atom_site_label
 _atom_site_symmetry_multiplicity
 _atom_site_fract_x
 _atom_site_fract_y
 _atom_site_fract_z
 _atom_site_occupancy
 _atom_site_charge
  Co  Co1  1  0.366740  0.500000  0.000000  1.0  0.9771
  Co  Co2  1  0.633260  0.500000  0.000000  1.0  0.9748
  Co  Co3  1  0.000000  0.366740  0.500000  1.0  0.9749
  Co  Co4  1  0.000000  0.633260  0.500000  1.0  0.9745
  Co  Co5  1  0.500000  0.000000  0.366740  1.0  0.979
  Co  Co6  1  0.500000  0.000000  0.633260  1.0  0.9788
  Co  Co7  1  0.500000  0.366740  0.000000  1.0  0.9749
  Co  Co8  1  0.500000  0.633260  0.000000  1.0  0.9745
  Co  Co9  1  0.366740  0.000000  0.500000  1.0  0.9771
  Co  Co10  1  0.633260  0.000000  0.500000  1.0  0.9748
  Co  Co11  1  0.000000  0.500000  0.633260  1.0  0.9788
  Co  Co12  1  0.000000  0.500000  0.366740  1.0  0.979
  Co  Co13  1  0.268100  0.500000  0.148400  1.0  0.674
  Co  Co14  1  0.731900  0.500000  0.148400  1.0  0.6739
  Co  Co15  1  0.731900  0.500000  0.851600  1.0  0.6744
  Co  Co16  1  0.268100  0.500000  0.851600  1.0  0.6736
  Co  Co17  1  0.148400  0.268100  0.500000  1.0  0.6644
  Co  Co18  1  0.148400  0.731900  0.500000  1.0  0.6644
  Co  Co19  1  0.851600  0.731900  0.500000  1.0  0.6643
  Co  Co20  1  0.851600  0.268100  0.500000  1.0  0.6644
  Co  Co21  1  0.500000  0.148400  0.268100  1.0  0.6735
  Co  Co22  1  0.500000  0.148400  0.731900  1.0  0.6723
  Co  Co23  1  0.500000  0.851600  0.731900  1.0  0.6719
  Co  Co24  1  0.500000  0.851600  0.268100  1.0  0.6726
  Co  Co25  1  0.500000  0.268100  0.851600  1.0  0.6639
  Co  Co26  1  0.500000  0.731900  0.851600  1.0  0.6644
  Co  Co27  1  0.500000  0.731900  0.148400  1.0  0.6641
  Co  Co28  1  0.500000  0.268100  0.148400  1.0  0.664
  Co  Co29  1  0.268100  0.148400  0.500000  1.0  0.6732
  Co  Co30  1  0.731900  0.148400  0.500000  1.0  0.674
  Co  Co31  1  0.731900  0.851600  0.500000  1.0  0.6732
  Co  Co32  1  0.268100  0.851600  0.500000  1.0  0.6727
  Co  Co33  1  0.148400  0.500000  0.731900  1.0  0.6729
  Co  Co34  1  0.148400  0.500000  0.268100  1.0  0.674
  Co  Co35  1  0.851600  0.500000  0.268100  1.0  0.6739
  Co  Co36  1  0.851600  0.500000  0.731900  1.0  0.6728
  H  H37  1  0.238400  0.390100  0.238400  1.0  0.0301
  H  H38  1  0.761600  0.609900  0.238400  1.0  0.0305
  H  H39  1  0.761600  0.390100  0.761600  1.0  0.0305
  H  H40  1  0.238400  0.609900  0.761600  1.0  0.0304
  H  H41  1  0.238400  0.238400  0.390100  1.0  0.0309
  H  H42  1  0.238400  0.761600  0.609900  1.0  0.0303
  H  H43  1  0.761600  0.761600  0.390100  1.0  0.0308
  H  H44  1  0.761600  0.238400  0.609900  1.0  0.0306
  H  H45  1  0.390100  0.238400  0.238400  1.0  0.0308
  H  H46  1  0.609900  0.238400  0.761600  1.0  0.0312
  H  H47  1  0.390100  0.761600  0.761600  1.0  0.0309
  H  H48  1  0.609900  0.761600  0.238400  1.0  0.0306
  H  H49  1  0.390100  0.238400  0.761600  1.0  0.0312
  H  H50  1  0.609900  0.761600  0.761600  1.0  0.0307
  H  H51  1  0.390100  0.761600  0.238400  1.0  0.0308
  H  H52  1  0.609900  0.238400  0.238400  1.0  0.0307
  H  H53  1  0.238400  0.238400  0.609900  1.0  0.0303
  H  H54  1  0.761600  0.238400  0.390100  1.0  0.031
  H  H55  1  0.761600  0.761600  0.609900  1.0  0.0306
  H  H56  1  0.238400  0.761600  0.390100  1.0  0.0305
  H  H57  1  0.238400  0.390100  0.761600  1.0  0.0302
  H  H58  1  0.238400  0.609900  0.238400  1.0  0.03
  H  H59  1  0.761600  0.390100  0.238400  1.0  0.0303
  H  H60  1  0.761600  0.609900  0.761600  1.0  0.0308
  C  C61  1  0.350700  0.350700  0.161800  1.0  0.2655
  C  C62  1  0.316900  0.316900  0.225700  1.0  -0.1374
  C  C63  1  0.649300  0.649300  0.161800  1.0  0.2656
  C  C64  1  0.683100  0.683100  0.225700  1.0  -0.1378
  C  C65  1  0.649300  0.350700  0.838200  1.0  0.2658
  C  C66  1  0.683100  0.316900  0.774300  1.0  -0.1383
  C  C67  1  0.350700  0.649300  0.838200  1.0  0.2652
  C  C68  1  0.316900  0.683100  0.774300  1.0  -0.1382
  C  C69  1  0.161800  0.350700  0.350700  1.0  0.2665
  C  C70  1  0.225700  0.316900  0.316900  1.0  -0.1397
  C  C71  1  0.161800  0.649300  0.649300  1.0  0.2667
  C  C72  1  0.225700  0.683100  0.683100  1.0  -0.1399
  C  C73  1  0.838200  0.649300  0.350700  1.0  0.2662
  C  C74  1  0.774300  0.683100  0.316900  1.0  -0.1391
  C  C75  1  0.838200  0.350700  0.649300  1.0  0.2664
  C  C76  1  0.774300  0.316900  0.683100  1.0  -0.1386
  C  C77  1  0.350700  0.161800  0.350700  1.0  0.2651
  C  C78  1  0.316900  0.225700  0.316900  1.0  -0.1398
  C  C79  1  0.649300  0.161800  0.649300  1.0  0.2655
  C  C80  1  0.683100  0.225700  0.683100  1.0  -0.1401
  C  C81  1  0.350700  0.838200  0.649300  1.0  0.2654
  C  C82  1  0.316900  0.774300  0.683100  1.0  -0.1387
  C  C83  1  0.649300  0.838200  0.350700  1.0  0.2656
  C  C84  1  0.683100  0.774300  0.316900  1.0  -0.1389
  C  C85  1  0.350700  0.350700  0.838200  1.0  0.2653
  C  C86  1  0.316900  0.316900  0.774300  1.0  -0.1379
  C  C87  1  0.649300  0.649300  0.838200  1.0  0.2657
  C  C88  1  0.683100  0.683100  0.774300  1.0  -0.1386
  C  C89  1  0.350700  0.649300  0.161800  1.0  0.2653
  C  C90  1  0.316900  0.683100  0.225700  1.0  -0.1379
  C  C91  1  0.649300  0.350700  0.161800  1.0  0.2656
  C  C92  1  0.683100  0.316900  0.225700  1.0  -0.1374
  C  C93  1  0.350700  0.161800  0.649300  1.0  0.2653
  C  C94  1  0.316900  0.225700  0.683100  1.0  -0.1399
  C  C95  1  0.649300  0.161800  0.350700  1.0  0.2656
  C  C96  1  0.683100  0.225700  0.316900  1.0  -0.14
  C  C97  1  0.649300  0.838200  0.649300  1.0  0.2655
  C  C98  1  0.683100  0.774300  0.683100  1.0  -0.1388
  C  C99  1  0.350700  0.838200  0.350700  1.0  0.2653
  C  C100  1  0.316900  0.774300  0.316900  1.0  -0.1388
  C  C101  1  0.161800  0.350700  0.649300  1.0  0.2668
  C  C102  1  0.225700  0.316900  0.683100  1.0  -0.1397
  C  C103  1  0.161800  0.649300  0.350700  1.0  0.2666
  C  C104  1  0.225700  0.683100  0.316900  1.0  -0.1399
  C  C105  1  0.838200  0.350700  0.350700  1.0  0.2663
  C  C106  1  0.774300  0.316900  0.316900  1.0  -0.1387
  C  C107  1  0.838200  0.649300  0.649300  1.0  0.2663
  C  C108  1  0.774300  0.683100  0.683100  1.0  -0.1391
  C  C109  1  0.257500  0.347700  0.257500  1.0  -0.1263
  C  C110  1  0.742500  0.652300  0.257500  1.0  -0.1259
  C  C111  1  0.742500  0.347700  0.742500  1.0  -0.1249
  C  C112  1  0.257500  0.652300  0.742500  1.0  -0.1263
  C  C113  1  0.257500  0.257500  0.347700  1.0  -0.1265
  C  C114  1  0.257500  0.742500  0.652300  1.0  -0.1264
  C  C115  1  0.742500  0.742500  0.347700  1.0  -0.1256
  C  C116  1  0.742500  0.257500  0.652300  1.0  -0.1255
  C  C117  1  0.347700  0.257500  0.257500  1.0  -0.1238
  C  C118  1  0.652300  0.257500  0.742500  1.0  -0.124
  C  C119  1  0.347700  0.742500  0.742500  1.0  -0.1225
  C  C120  1  0.652300  0.742500  0.257500  1.0  -0.125
  C  C121  1  0.347700  0.257500  0.742500  1.0  -0.1229
  C  C122  1  0.652300  0.742500  0.742500  1.0  -0.1241
  C  C123  1  0.347700  0.742500  0.257500  1.0  -0.1235
  C  C124  1  0.652300  0.257500  0.257500  1.0  -0.125
  C  C125  1  0.257500  0.257500  0.652300  1.0  -0.1266
  C  C126  1  0.742500  0.257500  0.347700  1.0  -0.1253
  C  C127  1  0.742500  0.742500  0.652300  1.0  -0.1257
  C  C128  1  0.257500  0.742500  0.347700  1.0  -0.1266
  C  C129  1  0.257500  0.347700  0.742500  1.0  -0.1255
  C  C130  1  0.257500  0.652300  0.257500  1.0  -0.1266
  C  C131  1  0.742500  0.347700  0.257500  1.0  -0.1255
  C  C132  1  0.742500  0.652300  0.742500  1.0  -0.1255
  N  N133  1  0.371300  0.421500  0.075000  1.0  -0.0966
  N  N134  1  0.325800  0.410300  0.129200  1.0  -0.3357
  N  N135  1  0.628700  0.578500  0.075000  1.0  -0.0959
  N  N136  1  0.674200  0.589700  0.129200  1.0  -0.3374
  N  N137  1  0.628700  0.421500  0.925000  1.0  -0.0959
  N  N138  1  0.674200  0.410300  0.870800  1.0  -0.3386
  N  N139  1  0.371300  0.578500  0.925000  1.0  -0.0956
  N  N140  1  0.325800  0.589700  0.870800  1.0  -0.3352
  N  N141  1  0.075000  0.371300  0.421500  1.0  -0.0965
  N  N142  1  0.129200  0.325800  0.410300  1.0  -0.3328
  N  N143  1  0.075000  0.628700  0.578500  1.0  -0.0966
  N  N144  1  0.129200  0.674200  0.589700  1.0  -0.336
  N  N145  1  0.925000  0.628700  0.421500  1.0  -0.097
  N  N146  1  0.870800  0.674200  0.410300  1.0  -0.3338
  N  N147  1  0.925000  0.371300  0.578500  1.0  -0.0975
  N  N148  1  0.870800  0.325800  0.589700  1.0  -0.3331
  N  N149  1  0.421500  0.075000  0.371300  1.0  -0.0962
  N  N150  1  0.410300  0.129200  0.325800  1.0  -0.3353
  N  N151  1  0.578500  0.075000  0.628700  1.0  -0.0948
  N  N152  1  0.589700  0.129200  0.674200  1.0  -0.3372
  N  N153  1  0.421500  0.925000  0.628700  1.0  -0.0969
  N  N154  1  0.410300  0.870800  0.674200  1.0  -0.3371
  N  N155  1  0.578500  0.925000  0.371300  1.0  -0.0947
  N  N156  1  0.589700  0.870800  0.325800  1.0  -0.3349
  N  N157  1  0.421500  0.371300  0.925000  1.0  -0.0974
  N  N158  1  0.410300  0.325800  0.870800  1.0  -0.3328
  N  N159  1  0.578500  0.628700  0.925000  1.0  -0.0956
  N  N160  1  0.589700  0.674200  0.870800  1.0  -0.3354
  N  N161  1  0.421500  0.628700  0.075000  1.0  -0.0986
  N  N162  1  0.410300  0.674200  0.129200  1.0  -0.335
  N  N163  1  0.578500  0.371300  0.075000  1.0  -0.0963
  N  N164  1  0.589700  0.325800  0.129200  1.0  -0.3333
  N  N165  1  0.371300  0.075000  0.578500  1.0  -0.0954
  N  N166  1  0.325800  0.129200  0.589700  1.0  -0.3354
  N  N167  1  0.628700  0.075000  0.421500  1.0  -0.0951
  N  N168  1  0.674200  0.129200  0.410300  1.0  -0.3378
  N  N169  1  0.628700  0.925000  0.578500  1.0  -0.0951
  N  N170  1  0.674200  0.870800  0.589700  1.0  -0.3386
  N  N171  1  0.371300  0.925000  0.421500  1.0  -0.0949
  N  N172  1  0.325800  0.870800  0.410300  1.0  -0.3346
  N  N173  1  0.075000  0.421500  0.628700  1.0  -0.0965
  N  N174  1  0.129200  0.410300  0.674200  1.0  -0.3372
  N  N175  1  0.075000  0.578500  0.371300  1.0  -0.0963
  N  N176  1  0.129200  0.589700  0.325800  1.0  -0.3349
  N  N177  1  0.925000  0.421500  0.371300  1.0  -0.0963
  N  N178  1  0.870800  0.410300  0.325800  1.0  -0.335
  N  N179  1  0.925000  0.578500  0.628700  1.0  -0.0964
  N  N180  1  0.870800  0.589700  0.674200  1.0  -0.3363
  N  N181  1  0.628700  0.578500  0.925000  1.0  -0.0958
  N  N182  1  0.674200  0.589700  0.870800  1.0  -0.3404
  N  N183  1  0.371300  0.421500  0.925000  1.0  -0.0958
  N  N184  1  0.325800  0.410300  0.870800  1.0  -0.3381
  N  N185  1  0.371300  0.578500  0.075000  1.0  -0.0966
  N  N186  1  0.325800  0.589700  0.129200  1.0  -0.3383
  N  N187  1  0.628700  0.421500  0.075000  1.0  -0.0962
  N  N188  1  0.674200  0.410300  0.129200  1.0  -0.3413
  N  N189  1  0.925000  0.628700  0.578500  1.0  -0.0973
  N  N190  1  0.870800  0.674200  0.589700  1.0  -0.3381
  N  N191  1  0.925000  0.371300  0.421500  1.0  -0.0968
  N  N192  1  0.870800  0.325800  0.410300  1.0  -0.3353
  N  N193  1  0.075000  0.371300  0.578500  1.0  -0.097
  N  N194  1  0.129200  0.325800  0.589700  1.0  -0.3359
  N  N195  1  0.075000  0.628700  0.421500  1.0  -0.0966
  N  N196  1  0.129200  0.674200  0.410300  1.0  -0.3374
  N  N197  1  0.578500  0.925000  0.628700  1.0  -0.095
  N  N198  1  0.589700  0.870800  0.674200  1.0  -0.3391
  N  N199  1  0.421500  0.925000  0.371300  1.0  -0.0964
  N  N200  1  0.410300  0.870800  0.325800  1.0  -0.3374
  N  N201  1  0.578500  0.075000  0.371300  1.0  -0.0947
  N  N202  1  0.589700  0.129200  0.325800  1.0  -0.3378
  N  N203  1  0.421500  0.075000  0.628700  1.0  -0.0966
  N  N204  1  0.410300  0.129200  0.674200  1.0  -0.3401
  N  N205  1  0.578500  0.628700  0.075000  1.0  -0.0962
  N  N206  1  0.589700  0.674200  0.129200  1.0  -0.3379
  N  N207  1  0.421500  0.371300  0.075000  1.0  -0.0986
  N  N208  1  0.410300  0.325800  0.129200  1.0  -0.3353
  N  N209  1  0.578500  0.371300  0.925000  1.0  -0.0957
  N  N210  1  0.589700  0.325800  0.870800  1.0  -0.3358
  N  N211  1  0.421500  0.628700  0.925000  1.0  -0.0977
  N  N212  1  0.410300  0.674200  0.870800  1.0  -0.3382
  N  N213  1  0.628700  0.925000  0.421500  1.0  -0.095
  N  N214  1  0.674200  0.870800  0.410300  1.0  -0.3401
  N  N215  1  0.371300  0.925000  0.578500  1.0  -0.0953
  N  N216  1  0.325800  0.870800  0.589700  1.0  -0.3379
  N  N217  1  0.371300  0.075000  0.421500  1.0  -0.0951
  N  N218  1  0.325800  0.129200  0.410300  1.0  -0.3375
  N  N219  1  0.628700  0.075000  0.578500  1.0  -0.0949
  N  N220  1  0.674200  0.129200  0.589700  1.0  -0.3417
  N  N221  1  0.925000  0.578500  0.371300  1.0  -0.0963
  N  N222  1  0.870800  0.589700  0.325800  1.0  -0.3373
  N  N223  1  0.925000  0.421500  0.628700  1.0  -0.0967
  N  N224  1  0.870800  0.410300  0.674200  1.0  -0.3394
  N  N225  1  0.075000  0.578500  0.628700  1.0  -0.0961
  N  N226  1  0.129200  0.589700  0.674200  1.0  -0.3393
  N  N227  1  0.075000  0.421500  0.371300  1.0  -0.0962
  N  N228  1  0.129200  0.410300  0.325800  1.0  -0.338
  Cl  Cl229  1  0.240300  0.500000  0.000000  1.0  -0.5864
  Cl  Cl230  1  0.759700  0.500000  0.000000  1.0  -0.5852
  Cl  Cl231  1  0.000000  0.240300  0.500000  1.0  -0.5846
  Cl  Cl232  1  0.000000  0.759700  0.500000  1.0  -0.5862
  Cl  Cl233  1  0.500000  0.000000  0.240300  1.0  -0.5882
  Cl  Cl234  1  0.500000  0.000000  0.759700  1.0  -0.589
  Cl  Cl235  1  0.500000  0.240300  0.000000  1.0  -0.5846
  Cl  Cl236  1  0.500000  0.759700  0.000000  1.0  -0.5862
  Cl  Cl237  1  0.240300  0.000000  0.500000  1.0  -0.5864
  Cl  Cl238  1  0.759700  0.000000  0.500000  1.0  -0.5852
  Cl  Cl239  1  0.000000  0.500000  0.759700  1.0  -0.589
  Cl  Cl240  1  0.000000  0.500000  0.240300  1.0  -0.5882
  Cl  Cl241  1  0.500000  0.500000  0.000000  1.0  -0.2508
  Cl  Cl242  1  0.000000  0.500000  0.500000  1.0  -0.2508
  Cl  Cl243  1  0.500000  0.000000  0.500000  1.0  -0.2508
