# generated using pymatgen
data_LaH8C16NO6
_symmetry_space_group_name_H-M   'P 1'
_cell_length_a   13.50950000
_cell_length_b   14.53560000
_cell_length_c   16.25250000
_cell_angle_alpha   116.56300000
_cell_angle_beta   99.02180000
_cell_angle_gamma   90.00000000
_symmetry_Int_Tables_number   1
_chemical_formula_structural   LaH8C16NO6
_chemical_formula_sum   'La4 H32 C64 N4 O24'
_cell_volume   2810.38801710
_cell_formula_units_Z   4
loop_
 _symmetry_equiv_pos_site_id
 _symmetry_equiv_pos_as_xyz
  1  'x, y, z'
loop_
 _atom_site_type_symbol
 _atom_site_label
 _atom_site_symmetry_multiplicity
 _atom_site_fract_x
 _atom_site_fract_y
 _atom_site_fract_z
 _atom_site_occupancy
 _atom_site_charge
  La  La1  1  0.456710  0.895160  0.361610  1.0  2.1445
  La  La2  1  0.043290  0.533550  0.638390  1.0  2.1418
  La  La3  1  0.543290  0.104840  0.638390  1.0  2.1437
  La  La4  1  0.956710  0.466450  0.361610  1.0  2.1409
  H  H5  1  0.564100  0.681400  0.054200  1.0  0.1083
  H  H6  1  0.621600  0.644000  0.917200  1.0  0.1118
  H  H7  1  0.606500  0.937500  0.965200  1.0  0.1107
  H  H8  1  0.554400  0.976600  0.105800  1.0  0.1015
  H  H9  1  0.649000  0.685000  0.790000  1.0  0.0609
  H  H10  1  0.577700  0.878300  0.678800  1.0  0.1184
  H  H11  1  0.768900  0.678800  0.708200  1.0  0.1075
  H  H12  1  0.694000  0.679200  0.458000  1.0  0.1136
  H  H13  1  0.935900  0.627200  0.945800  1.0  0.1088
  H  H14  1  0.878400  0.726800  0.082800  1.0  0.112
  H  H15  1  0.893500  0.972300  0.034800  1.0  0.1107
  H  H16  1  0.945600  0.870800  0.894200  1.0  0.102
  H  H17  1  0.851000  0.895000  0.210000  1.0  0.0644
  H  H18  1  0.922300  0.199500  0.321200  1.0  0.1188
  H  H19  1  0.731100  0.970600  0.291800  1.0  0.1082
  H  H20  1  0.806000  0.221200  0.542000  1.0  0.1133
  H  H21  1  0.435900  0.318600  0.945800  1.0  0.1087
  H  H22  1  0.378400  0.356000  0.082800  1.0  0.1118
  H  H23  1  0.393500  0.062500  0.034800  1.0  0.1104
  H  H24  1  0.445600  0.023400  0.894200  1.0  0.102
  H  H25  1  0.351000  0.315000  0.210000  1.0  0.0618
  H  H26  1  0.422300  0.121700  0.321200  1.0  0.1187
  H  H27  1  0.231100  0.321200  0.291800  1.0  0.1079
  H  H28  1  0.306000  0.320800  0.542000  1.0  0.1131
  H  H29  1  0.064100  0.372800  0.054200  1.0  0.109
  H  H30  1  0.121600  0.273200  0.917200  1.0  0.1123
  H  H31  1  0.106500  0.027700  0.965200  1.0  0.1103
  H  H32  1  0.054400  0.129200  0.105800  1.0  0.1022
  H  H33  1  0.149000  0.105000  0.790000  1.0  0.0645
  H  H34  1  0.077700  0.800500  0.678800  1.0  0.1195
  H  H35  1  0.268900  0.029400  0.708200  1.0  0.1068
  H  H36  1  0.194000  0.778800  0.458000  1.0  0.1134
  C  C37  1  0.519400  0.859790  0.185980  1.0  0.6885
  C  C38  1  0.555300  0.834400  0.095800  1.0  -0.1282
  C  C39  1  0.574000  0.733600  0.037400  1.0  -0.0386
  C  C40  1  0.607200  0.711000  0.954800  1.0  -0.1293
  C  C41  1  0.619100  0.787000  0.927800  1.0  -0.0016
  C  C42  1  0.599100  0.886100  0.983400  1.0  -0.0826
  C  C43  1  0.567500  0.909300  0.067800  1.0  -0.0413
  C  C44  1  0.643800  0.756300  0.834000  1.0  0.1767
  C  C45  1  0.569400  0.825710  0.497620  1.0  0.7525
  C  C46  1  0.626400  0.784260  0.558920  1.0  -0.1565
  C  C47  1  0.616800  0.823370  0.652540  1.0  -0.0993
  C  C48  1  0.667000  0.779090  0.706780  1.0  0.2056
  C  C49  1  0.732400  0.704240  0.670480  1.0  -0.101
  C  C50  1  0.744100  0.666390  0.576580  1.0  -0.156
  C  C51  1  0.688900  0.705680  0.520760  1.0  0.0154
  C  C52  1  0.815700  0.586140  0.538880  1.0  0.7994
  C  C53  1  0.980600  0.673810  0.814020  1.0  0.6869
  C  C54  1  0.944700  0.738600  0.904200  1.0  -0.1278
  C  C55  1  0.926000  0.696200  0.962600  1.0  -0.0384
  C  C56  1  0.892800  0.756200  0.045200  1.0  -0.1306
  C  C57  1  0.880900  0.859200  0.072200  1.0  1e-04
  C  C58  1  0.900900  0.902700  0.016600  1.0  -0.0863
  C  C59  1  0.932500  0.841500  0.932200  1.0  -0.0403
  C  C60  1  0.856200  0.922300  0.166000  1.0  0.1812
  C  C61  1  0.930600  0.328090  0.502380  1.0  0.7528
  C  C62  1  0.873600  0.225340  0.441080  1.0  -0.1553
  C  C63  1  0.883200  0.170830  0.347460  1.0  -0.1014
  C  C64  1  0.833000  0.072310  0.293220  1.0  0.2092
  C  C65  1  0.767600  0.033760  0.329520  1.0  -0.1026
  C  C66  1  0.755900  0.089810  0.423420  1.0  -0.1567
  C  C67  1  0.811100  0.184920  0.479240  1.0  0.0155
  C  C68  1  0.684300  0.047260  0.461120  1.0  0.8039
  C  C69  1  0.480600  0.140210  0.814020  1.0  0.6876
  C  C70  1  0.444700  0.165600  0.904200  1.0  -0.1272
  C  C71  1  0.426000  0.266400  0.962600  1.0  -0.0393
  C  C72  1  0.392800  0.289000  0.045200  1.0  -0.1311
  C  C73  1  0.380900  0.213000  0.072200  1.0  -0.0017
  C  C74  1  0.400900  0.113900  0.016600  1.0  -0.0829
  C  C75  1  0.432500  0.090700  0.932200  1.0  -0.0409
  C  C76  1  0.356200  0.243700  0.166000  1.0  0.1812
  C  C77  1  0.430600  0.174290  0.502380  1.0  0.7535
  C  C78  1  0.373600  0.215740  0.441080  1.0  -0.1556
  C  C79  1  0.383200  0.176630  0.347460  1.0  -0.0991
  C  C80  1  0.333000  0.220910  0.293220  1.0  0.206
  C  C81  1  0.267600  0.295760  0.329520  1.0  -0.1015
  C  C82  1  0.255900  0.333610  0.423420  1.0  -0.1553
  C  C83  1  0.311100  0.294320  0.479240  1.0  0.015
  C  C84  1  0.184300  0.413860  0.461120  1.0  0.7999
  C  C85  1  0.019400  0.326190  0.185980  1.0  0.6877
  C  C86  1  0.055300  0.261400  0.095800  1.0  -0.1279
  C  C87  1  0.074000  0.303800  0.037400  1.0  -0.0398
  C  C88  1  0.107200  0.243800  0.954800  1.0  -0.1308
  C  C89  1  0.119100  0.140800  0.927800  1.0  -0.0007
  C  C90  1  0.099100  0.097300  0.983400  1.0  -0.0841
  C  C91  1  0.067500  0.158500  0.067800  1.0  -0.038
  C  C92  1  0.143800  0.077700  0.834000  1.0  0.1792
  C  C93  1  0.069400  0.671910  0.497620  1.0  0.7523
  C  C94  1  0.126400  0.774660  0.558920  1.0  -0.1549
  C  C95  1  0.116800  0.829170  0.652540  1.0  -0.1011
  C  C96  1  0.167000  0.927690  0.706780  1.0  0.2072
  C  C97  1  0.232400  0.966240  0.670480  1.0  -0.1026
  C  C98  1  0.244100  0.910190  0.576580  1.0  -0.1566
  C  C99  1  0.188900  0.815080  0.520760  1.0  0.016
  C  C100  1  0.315700  0.952740  0.538880  1.0  0.8033
  N  N101  1  0.648700  0.818280  0.800160  1.0  -0.38
  N  N102  1  0.851300  0.018120  0.199840  1.0  -0.3797
  N  N103  1  0.351300  0.181720  0.199840  1.0  -0.3801
  N  N104  1  0.148700  0.981880  0.800160  1.0  -0.3804
  O  O105  1  0.512000  0.787230  0.207660  1.0  -0.7102
  O  O106  1  0.498500  0.948850  0.235700  1.0  -0.6668
  O  O107  1  0.553800  0.772490  0.411580  1.0  -0.6457
  O  O108  1  0.537300  0.916300  0.536400  1.0  -0.8295
  O  O109  1  0.865200  0.557200  0.594200  1.0  -0.6987
  O  O110  1  0.823200  0.552820  0.454440  1.0  -0.7566
  O  O111  1  0.988000  0.579570  0.792340  1.0  -0.7094
  O  O112  1  0.001500  0.713150  0.764300  1.0  -0.6647
  O  O113  1  0.946200  0.360910  0.588420  1.0  -0.6427
  O  O114  1  0.962700  0.379900  0.463600  1.0  -0.8313
  O  O115  1  0.634800  0.963000  0.405800  1.0  -0.6976
  O  O116  1  0.676800  0.098380  0.545560  1.0  -0.7579
  O  O117  1  0.488000  0.212770  0.792340  1.0  -0.7106
  O  O118  1  0.501500  0.051150  0.764300  1.0  -0.667
  O  O119  1  0.446200  0.227510  0.588420  1.0  -0.6437
  O  O120  1  0.462700  0.083700  0.463600  1.0  -0.8305
  O  O121  1  0.134800  0.442800  0.405800  1.0  -0.6991
  O  O122  1  0.176800  0.447180  0.545560  1.0  -0.7592
  O  O123  1  0.012000  0.420430  0.207660  1.0  -0.709
  O  O124  1  0.998500  0.286850  0.235700  1.0  -0.6648
  O  O125  1  0.053800  0.639090  0.411580  1.0  -0.6443
  O  O126  1  0.037300  0.620100  0.536400  1.0  -0.8317
  O  O127  1  0.365200  0.037000  0.594200  1.0  -0.698
  O  O128  1  0.323200  0.901620  0.454440  1.0  -0.7563
