# generated using pymatgen
data_CdH2(C3N4)2
_symmetry_space_group_name_H-M   'P 1'
_cell_length_a   19.36200000
_cell_length_b   19.36200000
_cell_length_c   19.36200000
_cell_angle_alpha   90.00000000
_cell_angle_beta   90.00000000
_cell_angle_gamma   90.00000000
_symmetry_Int_Tables_number   1
_chemical_formula_structural   CdH2(C3N4)2
_chemical_formula_sum   'Cd12 H24 C72 N96'
_cell_volume   7258.56294593
_cell_formula_units_Z   12
loop_
 _symmetry_equiv_pos_site_id
 _symmetry_equiv_pos_as_xyz
  1  'x, y, z'
loop_
 _atom_site_type_symbol
 _atom_site_label
 _atom_site_symmetry_multiplicity
 _atom_site_fract_x
 _atom_site_fract_y
 _atom_site_fract_z
 _atom_site_occupancy
 _atom_site_charge
  Cd  Cd1  1  0.355420  0.500000  0.000000  1.0  0.8238
  Cd  Cd2  1  0.644580  0.500000  0.000000  1.0  0.8229
  Cd  Cd3  1  0.000000  0.355420  0.500000  1.0  0.823
  Cd  Cd4  1  0.000000  0.644580  0.500000  1.0  0.823
  Cd  Cd5  1  0.500000  0.000000  0.355420  1.0  0.8217
  Cd  Cd6  1  0.500000  0.000000  0.644580  1.0  0.8223
  Cd  Cd7  1  0.500000  0.355420  0.000000  1.0  0.823
  Cd  Cd8  1  0.500000  0.644580  0.000000  1.0  0.823
  Cd  Cd9  1  0.355420  0.000000  0.500000  1.0  0.8238
  Cd  Cd10  1  0.644580  0.000000  0.500000  1.0  0.8229
  Cd  Cd11  1  0.000000  0.500000  0.644580  1.0  0.8223
  Cd  Cd12  1  0.000000  0.500000  0.355420  1.0  0.8217
  H  H13  1  0.240300  0.387100  0.240300  1.0  0.0971
  H  H14  1  0.759700  0.612900  0.240300  1.0  0.0974
  H  H15  1  0.759700  0.387100  0.759700  1.0  0.0974
  H  H16  1  0.240300  0.612900  0.759700  1.0  0.0977
  H  H17  1  0.240300  0.240300  0.387100  1.0  0.0982
  H  H18  1  0.240300  0.759700  0.612900  1.0  0.0973
  H  H19  1  0.759700  0.759700  0.387100  1.0  0.0978
  H  H20  1  0.759700  0.240300  0.612900  1.0  0.098
  H  H21  1  0.387100  0.240300  0.240300  1.0  0.0973
  H  H22  1  0.612900  0.240300  0.759700  1.0  0.0976
  H  H23  1  0.387100  0.759700  0.759700  1.0  0.0976
  H  H24  1  0.612900  0.759700  0.240300  1.0  0.0968
  H  H25  1  0.387100  0.240300  0.759700  1.0  0.0979
  H  H26  1  0.612900  0.759700  0.759700  1.0  0.0972
  H  H27  1  0.387100  0.759700  0.240300  1.0  0.0971
  H  H28  1  0.612900  0.240300  0.240300  1.0  0.097
  H  H29  1  0.240300  0.240300  0.612900  1.0  0.0977
  H  H30  1  0.759700  0.240300  0.387100  1.0  0.0982
  H  H31  1  0.759700  0.759700  0.612900  1.0  0.0976
  H  H32  1  0.240300  0.759700  0.387100  1.0  0.0978
  H  H33  1  0.240300  0.387100  0.759700  1.0  0.0975
  H  H34  1  0.240300  0.612900  0.240300  1.0  0.097
  H  H35  1  0.759700  0.387100  0.240300  1.0  0.097
  H  H36  1  0.759700  0.612900  0.759700  1.0  0.0981
  C  C37  1  0.348950  0.348950  0.167730  1.0  0.3393
  C  C38  1  0.318490  0.318490  0.230340  1.0  -0.0777
  C  C39  1  0.651050  0.651050  0.167730  1.0  0.3399
  C  C40  1  0.681510  0.681510  0.230340  1.0  -0.0778
  C  C41  1  0.651050  0.348950  0.832270  1.0  0.3393
  C  C42  1  0.681510  0.318490  0.769660  1.0  -0.0783
  C  C43  1  0.348950  0.651050  0.832270  1.0  0.3382
  C  C44  1  0.318490  0.681510  0.769660  1.0  -0.078
  C  C45  1  0.167730  0.348950  0.348950  1.0  0.3399
  C  C46  1  0.230340  0.318490  0.318490  1.0  -0.0769
  C  C47  1  0.167730  0.651050  0.651050  1.0  0.3399
  C  C48  1  0.230340  0.681510  0.681510  1.0  -0.0765
  C  C49  1  0.832270  0.651050  0.348950  1.0  0.3388
  C  C50  1  0.769660  0.681510  0.318490  1.0  -0.075
  C  C51  1  0.832270  0.348950  0.651050  1.0  0.3392
  C  C52  1  0.769660  0.318490  0.681510  1.0  -0.0752
  C  C53  1  0.348950  0.167730  0.348950  1.0  0.3384
  C  C54  1  0.318490  0.230340  0.318490  1.0  -0.0768
  C  C55  1  0.651050  0.167730  0.651050  1.0  0.3394
  C  C56  1  0.681510  0.230340  0.681510  1.0  -0.0769
  C  C57  1  0.348950  0.832270  0.651050  1.0  0.3388
  C  C58  1  0.318490  0.769660  0.681510  1.0  -0.076
  C  C59  1  0.651050  0.832270  0.348950  1.0  0.3396
  C  C60  1  0.681510  0.769660  0.318490  1.0  -0.0764
  C  C61  1  0.348950  0.348950  0.832270  1.0  0.3386
  C  C62  1  0.318490  0.318490  0.769660  1.0  -0.0782
  C  C63  1  0.651050  0.651050  0.832270  1.0  0.339
  C  C64  1  0.681510  0.681510  0.769660  1.0  -0.0781
  C  C65  1  0.348950  0.651050  0.167730  1.0  0.3391
  C  C66  1  0.318490  0.681510  0.230340  1.0  -0.0777
  C  C67  1  0.651050  0.348950  0.167730  1.0  0.34
  C  C68  1  0.681510  0.318490  0.230340  1.0  -0.0778
  C  C69  1  0.348950  0.167730  0.651050  1.0  0.3386
  C  C70  1  0.318490  0.230340  0.681510  1.0  -0.0767
  C  C71  1  0.651050  0.167730  0.348950  1.0  0.3392
  C  C72  1  0.681510  0.230340  0.318490  1.0  -0.0769
  C  C73  1  0.651050  0.832270  0.651050  1.0  0.3396
  C  C74  1  0.681510  0.769660  0.681510  1.0  -0.076
  C  C75  1  0.348950  0.832270  0.348950  1.0  0.3388
  C  C76  1  0.318490  0.769660  0.318490  1.0  -0.0764
  C  C77  1  0.167730  0.348950  0.651050  1.0  0.3401
  C  C78  1  0.230340  0.318490  0.681510  1.0  -0.0768
  C  C79  1  0.167730  0.651050  0.348950  1.0  0.3397
  C  C80  1  0.230340  0.681510  0.318490  1.0  -0.0765
  C  C81  1  0.832270  0.348950  0.348950  1.0  0.339
  C  C82  1  0.769660  0.318490  0.318490  1.0  -0.0754
  C  C83  1  0.832270  0.651050  0.651050  1.0  0.3389
  C  C84  1  0.769660  0.681510  0.681510  1.0  -0.0749
  C  C85  1  0.259840  0.347820  0.259840  1.0  -0.0205
  C  C86  1  0.740160  0.652180  0.259840  1.0  -0.0208
  C  C87  1  0.740160  0.347820  0.740160  1.0  -0.0213
  C  C88  1  0.259840  0.652180  0.740160  1.0  -0.0201
  C  C89  1  0.259840  0.259840  0.347820  1.0  -0.0221
  C  C90  1  0.259840  0.740160  0.652180  1.0  -0.0219
  C  C91  1  0.740160  0.740160  0.347820  1.0  -0.0215
  C  C92  1  0.740160  0.259840  0.652180  1.0  -0.0222
  C  C93  1  0.347820  0.259840  0.259840  1.0  -0.0198
  C  C94  1  0.652180  0.259840  0.740160  1.0  -0.0201
  C  C95  1  0.347820  0.740160  0.740160  1.0  -0.02
  C  C96  1  0.652180  0.740160  0.259840  1.0  -0.0207
  C  C97  1  0.347820  0.259840  0.740160  1.0  -0.0193
  C  C98  1  0.652180  0.740160  0.740160  1.0  -0.0205
  C  C99  1  0.347820  0.740160  0.259840  1.0  -0.0197
  C  C100  1  0.652180  0.259840  0.259840  1.0  -0.0204
  C  C101  1  0.259840  0.259840  0.652180  1.0  -0.0219
  C  C102  1  0.740160  0.259840  0.347820  1.0  -0.0214
  C  C103  1  0.740160  0.740160  0.652180  1.0  -0.0221
  C  C104  1  0.259840  0.740160  0.347820  1.0  -0.0223
  C  C105  1  0.259840  0.347820  0.740160  1.0  -0.0209
  C  C106  1  0.259840  0.652180  0.259840  1.0  -0.0206
  C  C107  1  0.740160  0.347820  0.259840  1.0  -0.021
  C  C108  1  0.740160  0.652180  0.740160  1.0  -0.0206
  N  N109  1  0.365850  0.413880  0.082660  1.0  -0.0502
  N  N110  1  0.323750  0.404710  0.136150  1.0  -0.3257
  N  N111  1  0.634150  0.586120  0.082660  1.0  -0.0492
  N  N112  1  0.676250  0.595290  0.136150  1.0  -0.3253
  N  N113  1  0.634150  0.413880  0.917340  1.0  -0.0478
  N  N114  1  0.676250  0.404710  0.863850  1.0  -0.3257
  N  N115  1  0.365850  0.586120  0.917340  1.0  -0.048
  N  N116  1  0.323750  0.595290  0.863850  1.0  -0.3255
  N  N117  1  0.082660  0.365850  0.413880  1.0  -0.0478
  N  N118  1  0.136150  0.323750  0.404710  1.0  -0.327
  N  N119  1  0.082660  0.634150  0.586120  1.0  -0.0483
  N  N120  1  0.136150  0.676250  0.595290  1.0  -0.327
  N  N121  1  0.917340  0.634150  0.413880  1.0  -0.0461
  N  N122  1  0.863850  0.676250  0.404710  1.0  -0.3267
  N  N123  1  0.917340  0.365850  0.586120  1.0  -0.0491
  N  N124  1  0.863850  0.323750  0.595290  1.0  -0.326
  N  N125  1  0.413880  0.082660  0.365850  1.0  -0.0462
  N  N126  1  0.404710  0.136150  0.323750  1.0  -0.3262
  N  N127  1  0.586120  0.082660  0.634150  1.0  -0.0482
  N  N128  1  0.595290  0.136150  0.676250  1.0  -0.3259
  N  N129  1  0.413880  0.917340  0.634150  1.0  -0.0465
  N  N130  1  0.404710  0.863850  0.676250  1.0  -0.326
  N  N131  1  0.586120  0.917340  0.365850  1.0  -0.0484
  N  N132  1  0.595290  0.863850  0.323750  1.0  -0.3247
  N  N133  1  0.413880  0.365850  0.917340  1.0  -0.0455
  N  N134  1  0.404710  0.323750  0.863850  1.0  -0.3264
  N  N135  1  0.586120  0.634150  0.917340  1.0  -0.0473
  N  N136  1  0.595290  0.676250  0.863850  1.0  -0.3256
  N  N137  1  0.413880  0.634150  0.082660  1.0  -0.0471
  N  N138  1  0.404710  0.676250  0.136150  1.0  -0.327
  N  N139  1  0.586120  0.365850  0.082660  1.0  -0.0486
  N  N140  1  0.595290  0.323750  0.136150  1.0  -0.3255
  N  N141  1  0.365850  0.082660  0.586120  1.0  -0.0491
  N  N142  1  0.323750  0.136150  0.595290  1.0  -0.3246
  N  N143  1  0.634150  0.082660  0.413880  1.0  -0.0477
  N  N144  1  0.676250  0.136150  0.404710  1.0  -0.3256
  N  N145  1  0.634150  0.917340  0.586120  1.0  -0.05
  N  N146  1  0.676250  0.863850  0.595290  1.0  -0.325
  N  N147  1  0.365850  0.917340  0.413880  1.0  -0.0479
  N  N148  1  0.323750  0.863850  0.404710  1.0  -0.3253
  N  N149  1  0.082660  0.413880  0.634150  1.0  -0.0473
  N  N150  1  0.136150  0.404710  0.676250  1.0  -0.3271
  N  N151  1  0.082660  0.586120  0.365850  1.0  -0.0482
  N  N152  1  0.136150  0.595290  0.323750  1.0  -0.3262
  N  N153  1  0.917340  0.413880  0.365850  1.0  -0.0475
  N  N154  1  0.863850  0.404710  0.323750  1.0  -0.3257
  N  N155  1  0.917340  0.586120  0.634150  1.0  -0.0471
  N  N156  1  0.863850  0.595290  0.676250  1.0  -0.3265
  N  N157  1  0.634150  0.586120  0.917340  1.0  -0.0481
  N  N158  1  0.676250  0.595290  0.863850  1.0  -0.3285
  N  N159  1  0.365850  0.413880  0.917340  1.0  -0.048
  N  N160  1  0.323750  0.404710  0.863850  1.0  -0.3279
  N  N161  1  0.365850  0.586120  0.082660  1.0  -0.049
  N  N162  1  0.323750  0.595290  0.136150  1.0  -0.3281
  N  N163  1  0.634150  0.413880  0.082660  1.0  -0.05
  N  N164  1  0.676250  0.404710  0.136150  1.0  -0.3293
  N  N165  1  0.917340  0.634150  0.586120  1.0  -0.0483
  N  N166  1  0.863850  0.676250  0.595290  1.0  -0.3287
  N  N167  1  0.917340  0.365850  0.413880  1.0  -0.0464
  N  N168  1  0.863850  0.323750  0.404710  1.0  -0.3292
  N  N169  1  0.082660  0.365850  0.586120  1.0  -0.049
  N  N170  1  0.136150  0.323750  0.595290  1.0  -0.3291
  N  N171  1  0.082660  0.634150  0.413880  1.0  -0.0476
  N  N172  1  0.136150  0.676250  0.404710  1.0  -0.3306
  N  N173  1  0.586120  0.917340  0.634150  1.0  -0.048
  N  N174  1  0.595290  0.863850  0.676250  1.0  -0.3283
  N  N175  1  0.413880  0.917340  0.365850  1.0  -0.0469
  N  N176  1  0.404710  0.863850  0.323750  1.0  -0.3291
  N  N177  1  0.586120  0.082660  0.365850  1.0  -0.0479
  N  N178  1  0.595290  0.136150  0.323750  1.0  -0.3271
  N  N179  1  0.413880  0.082660  0.634150  1.0  -0.0464
  N  N180  1  0.404710  0.136150  0.676250  1.0  -0.3288
  N  N181  1  0.586120  0.634150  0.082660  1.0  -0.048
  N  N182  1  0.595290  0.676250  0.136150  1.0  -0.3287
  N  N183  1  0.413880  0.365850  0.082660  1.0  -0.0479
  N  N184  1  0.404710  0.323750  0.136150  1.0  -0.3291
  N  N185  1  0.586120  0.365850  0.917340  1.0  -0.0475
  N  N186  1  0.595290  0.323750  0.863850  1.0  -0.3281
  N  N187  1  0.413880  0.634150  0.917340  1.0  -0.0454
  N  N188  1  0.404710  0.676250  0.863850  1.0  -0.3298
  N  N189  1  0.634150  0.917340  0.413880  1.0  -0.0478
  N  N190  1  0.676250  0.863850  0.404710  1.0  -0.3287
  N  N191  1  0.365850  0.917340  0.586120  1.0  -0.0502
  N  N192  1  0.323750  0.863850  0.595290  1.0  -0.3272
  N  N193  1  0.365850  0.082660  0.413880  1.0  -0.0477
  N  N194  1  0.323750  0.136150  0.404710  1.0  -0.3278
  N  N195  1  0.634150  0.082660  0.586120  1.0  -0.0491
  N  N196  1  0.676250  0.136150  0.595290  1.0  -0.3283
  N  N197  1  0.917340  0.586120  0.365850  1.0  -0.0471
  N  N198  1  0.863850  0.595290  0.323750  1.0  -0.3286
  N  N199  1  0.917340  0.413880  0.634150  1.0  -0.0471
  N  N200  1  0.863850  0.404710  0.676250  1.0  -0.3288
  N  N201  1  0.082660  0.586120  0.634150  1.0  -0.0484
  N  N202  1  0.136150  0.595290  0.676250  1.0  -0.3301
  N  N203  1  0.082660  0.413880  0.365850  1.0  -0.0477
  N  N204  1  0.136150  0.404710  0.323750  1.0  -0.3296
