# generated using pymatgen
data_Cd3H2C6N8Cl
_symmetry_space_group_name_H-M   'P 1'
_cell_length_a   19.29450000
_cell_length_b   19.29450000
_cell_length_c   19.29450000
_cell_angle_alpha   90.00000000
_cell_angle_beta   90.00000000
_cell_angle_gamma   90.00000000
_symmetry_Int_Tables_number   1
_chemical_formula_structural   Cd3H2C6N8Cl
_chemical_formula_sum   'Cd36 H24 C72 N96 Cl12'
_cell_volume   7182.91266631
_cell_formula_units_Z   12
loop_
 _symmetry_equiv_pos_site_id
 _symmetry_equiv_pos_as_xyz
  1  'x, y, z'
loop_
 _atom_site_type_symbol
 _atom_site_label
 _atom_site_symmetry_multiplicity
 _atom_site_fract_x
 _atom_site_fract_y
 _atom_site_fract_z
 _atom_site_occupancy
 _atom_site_charge
  Cd  Cd1  1  0.354740  0.500000  0.000000  1.0  0.7165
  Cd  Cd2  1  0.645260  0.500000  0.000000  1.0  0.7169
  Cd  Cd3  1  0.000000  0.354740  0.500000  1.0  0.7172
  Cd  Cd4  1  0.000000  0.645260  0.500000  1.0  0.7174
  Cd  Cd5  1  0.500000  0.000000  0.354740  1.0  0.7152
  Cd  Cd6  1  0.500000  0.000000  0.645260  1.0  0.7146
  Cd  Cd7  1  0.500000  0.354740  0.000000  1.0  0.7172
  Cd  Cd8  1  0.500000  0.645260  0.000000  1.0  0.7174
  Cd  Cd9  1  0.354740  0.000000  0.500000  1.0  0.7165
  Cd  Cd10  1  0.645260  0.000000  0.500000  1.0  0.7169
  Cd  Cd11  1  0.000000  0.500000  0.645260  1.0  0.7146
  Cd  Cd12  1  0.000000  0.500000  0.354740  1.0  0.7152
  Cd  Cd13  1  0.244300  0.500000  0.146000  1.0  0.7195
  Cd  Cd14  1  0.755700  0.500000  0.146000  1.0  0.7206
  Cd  Cd15  1  0.755700  0.500000  0.854000  1.0  0.7202
  Cd  Cd16  1  0.244300  0.500000  0.854000  1.0  0.7191
  Cd  Cd17  1  0.146000  0.244300  0.500000  1.0  0.719
  Cd  Cd18  1  0.146000  0.755700  0.500000  1.0  0.7188
  Cd  Cd19  1  0.854000  0.755700  0.500000  1.0  0.7191
  Cd  Cd20  1  0.854000  0.244300  0.500000  1.0  0.7196
  Cd  Cd21  1  0.500000  0.146000  0.244300  1.0  0.7126
  Cd  Cd22  1  0.500000  0.146000  0.755700  1.0  0.7132
  Cd  Cd23  1  0.500000  0.854000  0.755700  1.0  0.7122
  Cd  Cd24  1  0.500000  0.854000  0.244300  1.0  0.7115
  Cd  Cd25  1  0.500000  0.244300  0.854000  1.0  0.7205
  Cd  Cd26  1  0.500000  0.755700  0.854000  1.0  0.7199
  Cd  Cd27  1  0.500000  0.755700  0.146000  1.0  0.7204
  Cd  Cd28  1  0.500000  0.244300  0.146000  1.0  0.7205
  Cd  Cd29  1  0.244300  0.146000  0.500000  1.0  0.7191
  Cd  Cd30  1  0.755700  0.146000  0.500000  1.0  0.7203
  Cd  Cd31  1  0.755700  0.854000  0.500000  1.0  0.7191
  Cd  Cd32  1  0.244300  0.854000  0.500000  1.0  0.7188
  Cd  Cd33  1  0.146000  0.500000  0.755700  1.0  0.7122
  Cd  Cd34  1  0.146000  0.500000  0.244300  1.0  0.7117
  Cd  Cd35  1  0.854000  0.500000  0.244300  1.0  0.7115
  Cd  Cd36  1  0.854000  0.500000  0.755700  1.0  0.7127
  H  H37  1  0.238700  0.385900  0.238700  1.0  0.0707
  H  H38  1  0.761300  0.614100  0.238700  1.0  0.0708
  H  H39  1  0.761300  0.385900  0.761300  1.0  0.0713
  H  H40  1  0.238700  0.614100  0.761300  1.0  0.071
  H  H41  1  0.238700  0.238700  0.385900  1.0  0.0714
  H  H42  1  0.238700  0.761300  0.614100  1.0  0.0711
  H  H43  1  0.761300  0.761300  0.385900  1.0  0.0714
  H  H44  1  0.761300  0.238700  0.614100  1.0  0.0712
  H  H45  1  0.385900  0.238700  0.238700  1.0  0.0714
  H  H46  1  0.614100  0.238700  0.761300  1.0  0.0721
  H  H47  1  0.385900  0.761300  0.761300  1.0  0.0719
  H  H48  1  0.614100  0.761300  0.238700  1.0  0.0714
  H  H49  1  0.385900  0.238700  0.761300  1.0  0.072
  H  H50  1  0.614100  0.761300  0.761300  1.0  0.0718
  H  H51  1  0.385900  0.761300  0.238700  1.0  0.0716
  H  H52  1  0.614100  0.238700  0.238700  1.0  0.0714
  H  H53  1  0.238700  0.238700  0.614100  1.0  0.071
  H  H54  1  0.761300  0.238700  0.385900  1.0  0.0716
  H  H55  1  0.761300  0.761300  0.614100  1.0  0.0713
  H  H56  1  0.238700  0.761300  0.385900  1.0  0.071
  H  H57  1  0.238700  0.385900  0.761300  1.0  0.0711
  H  H58  1  0.238700  0.614100  0.238700  1.0  0.0704
  H  H59  1  0.761300  0.385900  0.238700  1.0  0.0708
  H  H60  1  0.761300  0.614100  0.761300  1.0  0.0713
  C  C61  1  0.347500  0.347500  0.167800  1.0  0.2845
  C  C62  1  0.315700  0.315700  0.228000  1.0  -0.1087
  C  C63  1  0.652500  0.652500  0.167800  1.0  0.2851
  C  C64  1  0.684300  0.684300  0.228000  1.0  -0.1093
  C  C65  1  0.652500  0.347500  0.832200  1.0  0.2845
  C  C66  1  0.684300  0.315700  0.772000  1.0  -0.1093
  C  C67  1  0.347500  0.652500  0.832200  1.0  0.2842
  C  C68  1  0.315700  0.684300  0.772000  1.0  -0.1093
  C  C69  1  0.167800  0.347500  0.347500  1.0  0.2845
  C  C70  1  0.228000  0.315700  0.315700  1.0  -0.1086
  C  C71  1  0.167800  0.652500  0.652500  1.0  0.2847
  C  C72  1  0.228000  0.684300  0.684300  1.0  -0.109
  C  C73  1  0.832200  0.652500  0.347500  1.0  0.2839
  C  C74  1  0.772000  0.684300  0.315700  1.0  -0.1079
  C  C75  1  0.832200  0.347500  0.652500  1.0  0.284
  C  C76  1  0.772000  0.315700  0.684300  1.0  -0.1078
  C  C77  1  0.347500  0.167800  0.347500  1.0  0.2843
  C  C78  1  0.315700  0.228000  0.315700  1.0  -0.108
  C  C79  1  0.652500  0.167800  0.652500  1.0  0.285
  C  C80  1  0.684300  0.228000  0.684300  1.0  -0.1084
  C  C81  1  0.347500  0.832200  0.652500  1.0  0.2845
  C  C82  1  0.315700  0.772000  0.684300  1.0  -0.1072
  C  C83  1  0.652500  0.832200  0.347500  1.0  0.285
  C  C84  1  0.684300  0.772000  0.315700  1.0  -0.1072
  C  C85  1  0.347500  0.347500  0.832200  1.0  0.2841
  C  C86  1  0.315700  0.315700  0.772000  1.0  -0.1092
  C  C87  1  0.652500  0.652500  0.832200  1.0  0.2846
  C  C88  1  0.684300  0.684300  0.772000  1.0  -0.1095
  C  C89  1  0.347500  0.652500  0.167800  1.0  0.2846
  C  C90  1  0.315700  0.684300  0.228000  1.0  -0.1091
  C  C91  1  0.652500  0.347500  0.167800  1.0  0.285
  C  C92  1  0.684300  0.315700  0.228000  1.0  -0.1089
  C  C93  1  0.347500  0.167800  0.652500  1.0  0.2844
  C  C94  1  0.315700  0.228000  0.684300  1.0  -0.1081
  C  C95  1  0.652500  0.167800  0.347500  1.0  0.2849
  C  C96  1  0.684300  0.228000  0.315700  1.0  -0.1082
  C  C97  1  0.652500  0.832200  0.652500  1.0  0.2849
  C  C98  1  0.684300  0.772000  0.684300  1.0  -0.1074
  C  C99  1  0.347500  0.832200  0.347500  1.0  0.2845
  C  C100  1  0.315700  0.772000  0.315700  1.0  -0.1071
  C  C101  1  0.167800  0.347500  0.652500  1.0  0.2846
  C  C102  1  0.228000  0.315700  0.684300  1.0  -0.1088
  C  C103  1  0.167800  0.652500  0.347500  1.0  0.2847
  C  C104  1  0.228000  0.684300  0.315700  1.0  -0.1088
  C  C105  1  0.832200  0.347500  0.347500  1.0  0.2838
  C  C106  1  0.772000  0.315700  0.315700  1.0  -0.1076
  C  C107  1  0.832200  0.652500  0.652500  1.0  0.284
  C  C108  1  0.772000  0.684300  0.684300  1.0  -0.108
  C  C109  1  0.257600  0.345900  0.257600  1.0  -0.1261
  C  C110  1  0.742400  0.654100  0.257600  1.0  -0.1258
  C  C111  1  0.742400  0.345900  0.742400  1.0  -0.1249
  C  C112  1  0.257600  0.654100  0.742400  1.0  -0.1264
  C  C113  1  0.257600  0.257600  0.345900  1.0  -0.1295
  C  C114  1  0.257600  0.742400  0.654100  1.0  -0.131
  C  C115  1  0.742400  0.742400  0.345900  1.0  -0.1285
  C  C116  1  0.742400  0.257600  0.654100  1.0  -0.1298
  C  C117  1  0.345900  0.257600  0.257600  1.0  -0.1317
  C  C118  1  0.654100  0.257600  0.742400  1.0  -0.1322
  C  C119  1  0.345900  0.742400  0.742400  1.0  -0.1311
  C  C120  1  0.654100  0.742400  0.257600  1.0  -0.1329
  C  C121  1  0.345900  0.257600  0.742400  1.0  -0.126
  C  C122  1  0.654100  0.742400  0.742400  1.0  -0.1268
  C  C123  1  0.345900  0.742400  0.257600  1.0  -0.1266
  C  C124  1  0.654100  0.257600  0.257600  1.0  -0.1272
  C  C125  1  0.257600  0.257600  0.654100  1.0  -0.131
  C  C126  1  0.742400  0.257600  0.345900  1.0  -0.128
  C  C127  1  0.742400  0.742400  0.654100  1.0  -0.13
  C  C128  1  0.257600  0.742400  0.345900  1.0  -0.1302
  C  C129  1  0.257600  0.345900  0.742400  1.0  -0.1314
  C  C130  1  0.257600  0.654100  0.257600  1.0  -0.1324
  C  C131  1  0.742400  0.345900  0.257600  1.0  -0.1305
  C  C132  1  0.742400  0.654100  0.742400  1.0  -0.1307
  N  N133  1  0.366200  0.413500  0.082000  1.0  -0.0879
  N  N134  1  0.323200  0.404000  0.135300  1.0  -0.3736
  N  N135  1  0.633800  0.586500  0.082000  1.0  -0.0868
  N  N136  1  0.676800  0.596000  0.135300  1.0  -0.3721
  N  N137  1  0.633800  0.413500  0.918000  1.0  -0.0874
  N  N138  1  0.676800  0.404000  0.864700  1.0  -0.3733
  N  N139  1  0.366200  0.586500  0.918000  1.0  -0.088
  N  N140  1  0.323200  0.596000  0.864700  1.0  -0.3723
  N  N141  1  0.082000  0.366200  0.413500  1.0  -0.0872
  N  N142  1  0.135300  0.323200  0.404000  1.0  -0.3716
  N  N143  1  0.082000  0.633800  0.586500  1.0  -0.0853
  N  N144  1  0.135300  0.676800  0.596000  1.0  -0.3729
  N  N145  1  0.918000  0.633800  0.413500  1.0  -0.0867
  N  N146  1  0.864700  0.676800  0.404000  1.0  -0.3726
  N  N147  1  0.918000  0.366200  0.586500  1.0  -0.0858
  N  N148  1  0.864700  0.323200  0.596000  1.0  -0.372
  N  N149  1  0.413500  0.082000  0.366200  1.0  -0.0891
  N  N150  1  0.404000  0.135300  0.323200  1.0  -0.3742
  N  N151  1  0.586500  0.082000  0.633800  1.0  -0.0883
  N  N152  1  0.596000  0.135300  0.676800  1.0  -0.3716
  N  N153  1  0.413500  0.918000  0.633800  1.0  -0.0893
  N  N154  1  0.404000  0.864700  0.676800  1.0  -0.3723
  N  N155  1  0.586500  0.918000  0.366200  1.0  -0.0879
  N  N156  1  0.596000  0.864700  0.323200  1.0  -0.3727
  N  N157  1  0.413500  0.366200  0.918000  1.0  -0.0879
  N  N158  1  0.404000  0.323200  0.864700  1.0  -0.3713
  N  N159  1  0.586500  0.633800  0.918000  1.0  -0.0865
  N  N160  1  0.596000  0.676800  0.864700  1.0  -0.3722
  N  N161  1  0.413500  0.633800  0.082000  1.0  -0.0867
  N  N162  1  0.404000  0.676800  0.135300  1.0  -0.3733
  N  N163  1  0.586500  0.366200  0.082000  1.0  -0.0856
  N  N164  1  0.596000  0.323200  0.135300  1.0  -0.3721
  N  N165  1  0.366200  0.082000  0.586500  1.0  -0.0865
  N  N166  1  0.323200  0.135300  0.596000  1.0  -0.3725
  N  N167  1  0.633800  0.082000  0.413500  1.0  -0.0874
  N  N168  1  0.676800  0.135300  0.404000  1.0  -0.3727
  N  N169  1  0.633800  0.918000  0.586500  1.0  -0.0865
  N  N170  1  0.676800  0.864700  0.596000  1.0  -0.3733
  N  N171  1  0.366200  0.918000  0.413500  1.0  -0.0882
  N  N172  1  0.323200  0.864700  0.404000  1.0  -0.3725
  N  N173  1  0.082000  0.413500  0.633800  1.0  -0.0882
  N  N174  1  0.135300  0.404000  0.676800  1.0  -0.3731
  N  N175  1  0.082000  0.586500  0.366200  1.0  -0.0885
  N  N176  1  0.135300  0.596000  0.323200  1.0  -0.3732
  N  N177  1  0.918000  0.413500  0.366200  1.0  -0.0884
  N  N178  1  0.864700  0.404000  0.323200  1.0  -0.3739
  N  N179  1  0.918000  0.586500  0.633800  1.0  -0.0878
  N  N180  1  0.864700  0.596000  0.676800  1.0  -0.3711
  N  N181  1  0.633800  0.586500  0.918000  1.0  -0.0876
  N  N182  1  0.676800  0.596000  0.864700  1.0  -0.3715
  N  N183  1  0.366200  0.413500  0.918000  1.0  -0.0883
  N  N184  1  0.323200  0.404000  0.864700  1.0  -0.373
  N  N185  1  0.366200  0.586500  0.082000  1.0  -0.0867
  N  N186  1  0.323200  0.596000  0.135300  1.0  -0.3729
  N  N187  1  0.633800  0.413500  0.082000  1.0  -0.0874
  N  N188  1  0.676800  0.404000  0.135300  1.0  -0.3739
  N  N189  1  0.918000  0.633800  0.586500  1.0  -0.0856
  N  N190  1  0.864700  0.676800  0.596000  1.0  -0.3726
  N  N191  1  0.918000  0.366200  0.413500  1.0  -0.0868
  N  N192  1  0.864700  0.323200  0.404000  1.0  -0.3714
  N  N193  1  0.082000  0.366200  0.586500  1.0  -0.0857
  N  N194  1  0.135300  0.323200  0.596000  1.0  -0.3722
  N  N195  1  0.082000  0.633800  0.413500  1.0  -0.0871
  N  N196  1  0.135300  0.676800  0.404000  1.0  -0.373
  N  N197  1  0.586500  0.918000  0.633800  1.0  -0.0878
  N  N198  1  0.596000  0.864700  0.676800  1.0  -0.3715
  N  N199  1  0.413500  0.918000  0.366200  1.0  -0.0894
  N  N200  1  0.404000  0.864700  0.323200  1.0  -0.3743
  N  N201  1  0.586500  0.082000  0.366200  1.0  -0.0884
  N  N202  1  0.596000  0.135300  0.323200  1.0  -0.3727
  N  N203  1  0.413500  0.082000  0.633800  1.0  -0.0891
  N  N204  1  0.404000  0.135300  0.676800  1.0  -0.3723
  N  N205  1  0.586500  0.633800  0.082000  1.0  -0.0853
  N  N206  1  0.596000  0.676800  0.135300  1.0  -0.3726
  N  N207  1  0.413500  0.366200  0.082000  1.0  -0.087
  N  N208  1  0.404000  0.323200  0.135300  1.0  -0.372
  N  N209  1  0.586500  0.366200  0.918000  1.0  -0.0866
  N  N210  1  0.596000  0.323200  0.864700  1.0  -0.3714
  N  N211  1  0.413500  0.633800  0.918000  1.0  -0.0877
  N  N212  1  0.404000  0.676800  0.864700  1.0  -0.3727
  N  N213  1  0.633800  0.918000  0.413500  1.0  -0.0875
  N  N214  1  0.676800  0.864700  0.404000  1.0  -0.3728
  N  N215  1  0.366200  0.918000  0.586500  1.0  -0.0871
  N  N216  1  0.323200  0.864700  0.596000  1.0  -0.3725
  N  N217  1  0.366200  0.082000  0.413500  1.0  -0.0879
  N  N218  1  0.323200  0.135300  0.404000  1.0  -0.3724
  N  N219  1  0.633800  0.082000  0.586500  1.0  -0.0865
  N  N220  1  0.676800  0.135300  0.596000  1.0  -0.3734
  N  N221  1  0.918000  0.586500  0.366200  1.0  -0.0879
  N  N222  1  0.864700  0.596000  0.323200  1.0  -0.3729
  N  N223  1  0.918000  0.413500  0.633800  1.0  -0.0883
  N  N224  1  0.864700  0.404000  0.676800  1.0  -0.3727
  N  N225  1  0.082000  0.586500  0.633800  1.0  -0.0884
  N  N226  1  0.135300  0.596000  0.676800  1.0  -0.3716
  N  N227  1  0.082000  0.413500  0.366200  1.0  -0.0884
  N  N228  1  0.135300  0.404000  0.323200  1.0  -0.3742
  Cl  Cl229  1  0.229300  0.500000  0.000000  1.0  -0.5475
  Cl  Cl230  1  0.770700  0.500000  0.000000  1.0  -0.5471
  Cl  Cl231  1  0.000000  0.229300  0.500000  1.0  -0.5477
  Cl  Cl232  1  0.000000  0.770700  0.500000  1.0  -0.5459
  Cl  Cl233  1  0.500000  0.000000  0.229300  1.0  -0.5466
  Cl  Cl234  1  0.500000  0.000000  0.770700  1.0  -0.5469
  Cl  Cl235  1  0.500000  0.229300  0.000000  1.0  -0.5477
  Cl  Cl236  1  0.500000  0.770700  0.000000  1.0  -0.5459
  Cl  Cl237  1  0.229300  0.000000  0.500000  1.0  -0.5475
  Cl  Cl238  1  0.770700  0.000000  0.500000  1.0  -0.5471
  Cl  Cl239  1  0.000000  0.500000  0.770700  1.0  -0.5469
  Cl  Cl240  1  0.000000  0.500000  0.229300  1.0  -0.5466
