# generated using pymatgen
data_Mn3P2H24(C14O5)3
_symmetry_space_group_name_H-M   'P 1'
_cell_length_a   15.25100000
_cell_length_b   21.50410000
_cell_length_c   22.80790000
_cell_angle_alpha   118.12600000
_cell_angle_beta   107.65100000
_cell_angle_gamma   90.00000000
_symmetry_Int_Tables_number   1
_chemical_formula_structural   Mn3P2H24(C14O5)3
_chemical_formula_sum   'Mn12 P8 H96 C168 O60'
_cell_volume   6194.59494947
_cell_formula_units_Z   4
loop_
 _symmetry_equiv_pos_site_id
 _symmetry_equiv_pos_as_xyz
  1  'x, y, z'
loop_
 _atom_site_type_symbol
 _atom_site_label
 _atom_site_symmetry_multiplicity
 _atom_site_fract_x
 _atom_site_fract_y
 _atom_site_fract_z
 _atom_site_occupancy
 _atom_site_charge
  Mn  Mn1  1  0.360090  0.224040  0.532220  1.0  1.0823
  Mn  Mn2  1  0.112020  0.171080  0.436420  1.0  1.1228
  Mn  Mn3  1  0.018450  0.603640  0.066280  1.0  1.1041
  Mn  Mn4  1  0.139910  0.691820  0.467780  1.0  1.0835
  Mn  Mn5  1  0.387980  0.734660  0.563580  1.0  1.1242
  Mn  Mn6  1  0.481550  0.537360  0.933720  1.0  1.1038
  Mn  Mn7  1  0.639910  0.775960  0.467780  1.0  1.0855
  Mn  Mn8  1  0.887980  0.828920  0.563580  1.0  1.1243
  Mn  Mn9  1  0.981550  0.396360  0.933720  1.0  1.1039
  Mn  Mn10  1  0.860090  0.308180  0.532220  1.0  1.0822
  Mn  Mn11  1  0.612020  0.265340  0.436420  1.0  1.1247
  Mn  Mn12  1  0.518450  0.462640  0.066280  1.0  1.104
  P  P13  1  0.990630  0.996390  0.315940  1.0  1.1768
  P  P14  1  0.478930  0.177500  0.660880  1.0  1.1933
  P  P15  1  0.509370  0.680450  0.684060  1.0  1.1759
  P  P16  1  0.021070  0.516620  0.339120  1.0  1.1947
  P  P17  1  0.009370  0.003610  0.684060  1.0  1.1791
  P  P18  1  0.521070  0.822500  0.339120  1.0  1.1923
  P  P19  1  0.490630  0.319550  0.315940  1.0  1.1778
  P  P20  1  0.978930  0.483380  0.660880  1.0  1.1964
  H  H21  1  0.567800  0.200200  0.580800  1.0  0.1218
  H  H22  1  0.840400  0.276200  0.704200  1.0  0.1245
  H  H23  1  0.811400  0.257700  0.790400  1.0  0.1227
  H  H24  1  0.625700  0.041500  0.283000  1.0  0.1281
  H  H25  1  0.654600  0.931800  0.206400  1.0  0.1153
  H  H26  1  0.589800  0.067000  0.614600  1.0  0.1292
  H  H27  1  0.414300  0.883000  0.536000  1.0  0.1321
  H  H28  1  0.295300  0.948800  0.560000  1.0  0.1115
  H  H29  1  0.321600  0.072900  0.610800  1.0  0.1506
  H  H30  1  0.104800  0.871200  0.483400  1.0  0.1177
  H  H31  1  0.900800  0.945100  0.384200  1.0  0.1257
  H  H32  1  0.156900  0.952700  0.367200  1.0  0.1253
  H  H33  1  0.207300  0.900000  0.437800  1.0  0.119
  H  H34  1  0.903900  0.107900  0.390400  1.0  0.1302
  H  H35  1  0.807800  0.910300  0.217800  1.0  0.1262
  H  H36  1  0.999500  0.843200  0.237400  1.0  0.1264
  H  H37  1  0.992100  0.812200  0.046000  1.0  0.1252
  H  H38  1  0.986500  0.933800  0.084800  1.0  0.1247
  H  H39  1  0.987000  0.009200  0.198600  1.0  0.1291
  H  H40  1  0.456100  0.310000  0.760000  1.0  0.1311
  H  H41  1  0.486100  0.120700  0.756200  1.0  0.122
  H  H42  1  0.483100  0.172700  0.872000  1.0  0.1193
  H  H43  1  0.474300  0.293400  0.933400  1.0  0.1306
  H  H44  1  0.659100  0.220200  0.775800  1.0  0.1134
  H  H45  1  0.932200  0.619400  0.419200  1.0  0.1227
  H  H46  1  0.659600  0.572000  0.295800  1.0  0.1241
  H  H47  1  0.688600  0.467300  0.209600  1.0  0.1227
  H  H48  1  0.874300  0.758500  0.717000  1.0  0.13
  H  H49  1  0.845400  0.725400  0.793600  1.0  0.1156
  H  H50  1  0.910200  0.452400  0.385400  1.0  0.1278
  H  H51  1  0.085700  0.347000  0.464000  1.0  0.1315
  H  H52  1  0.204700  0.388800  0.440000  1.0  0.1114
  H  H53  1  0.178400  0.462100  0.389200  1.0  0.1501
  H  H54  1  0.395200  0.387800  0.516600  1.0  0.1176
  H  H55  1  0.599200  0.560900  0.615800  1.0  0.1274
  H  H56  1  0.343100  0.585500  0.632800  1.0  0.1249
  H  H57  1  0.292700  0.462200  0.562200  1.0  0.119
  H  H58  1  0.596100  0.717500  0.609600  1.0  0.129
  H  H59  1  0.692200  0.692500  0.782200  1.0  0.1259
  H  H60  1  0.500500  0.605800  0.762600  1.0  0.127
  H  H61  1  0.507900  0.766200  0.954000  1.0  0.1261
  H  H62  1  0.513500  0.849000  0.915200  1.0  0.1282
  H  H63  1  0.513000  0.810600  0.801400  1.0  0.1282
  H  H64  1  0.043900  0.550000  0.240000  1.0  0.1322
  H  H65  1  0.013900  0.364500  0.243800  1.0  0.1229
  H  H66  1  0.016900  0.300700  0.128000  1.0  0.1201
  H  H67  1  0.025700  0.360000  0.066600  1.0  0.1294
  H  H68  1  0.840900  0.444400  0.224200  1.0  0.1118
  H  H69  1  0.432200  0.799800  0.419200  1.0  0.1214
  H  H70  1  0.159600  0.723800  0.295800  1.0  0.1245
  H  H71  1  0.188600  0.742300  0.209600  1.0  0.1227
  H  H72  1  0.374300  0.958500  0.717000  1.0  0.1297
  H  H73  1  0.345400  0.068200  0.793600  1.0  0.1147
  H  H74  1  0.410200  0.933000  0.385400  1.0  0.1291
  H  H75  1  0.585700  0.117000  0.464000  1.0  0.1325
  H  H76  1  0.704700  0.051200  0.440000  1.0  0.1112
  H  H77  1  0.678400  0.927100  0.389200  1.0  0.1509
  H  H78  1  0.895200  0.128800  0.516600  1.0  0.1177
  H  H79  1  0.099200  0.054900  0.615800  1.0  0.126
  H  H80  1  0.843100  0.047300  0.632800  1.0  0.1253
  H  H81  1  0.792700  0.100000  0.562200  1.0  0.1195
  H  H82  1  0.096100  0.892100  0.609600  1.0  0.1306
  H  H83  1  0.192200  0.089700  0.782200  1.0  0.1269
  H  H84  1  0.000500  0.156800  0.762600  1.0  0.1262
  H  H85  1  0.007900  0.187800  0.954000  1.0  0.126
  H  H86  1  0.013500  0.066200  0.915200  1.0  0.1257
  H  H87  1  0.013000  0.990800  0.801400  1.0  0.1279
  H  H88  1  0.543900  0.690000  0.240000  1.0  0.1306
  H  H89  1  0.513900  0.879300  0.243800  1.0  0.1225
  H  H90  1  0.516900  0.827300  0.128000  1.0  0.1194
  H  H91  1  0.525700  0.706600  0.066600  1.0  0.1307
  H  H92  1  0.340900  0.779800  0.224200  1.0  0.1144
  H  H93  1  0.067800  0.380600  0.580800  1.0  0.1226
  H  H94  1  0.340400  0.428000  0.704200  1.0  0.1246
  H  H95  1  0.311400  0.532700  0.790400  1.0  0.1231
  H  H96  1  0.125700  0.241500  0.283000  1.0  0.1298
  H  H97  1  0.154600  0.274600  0.206400  1.0  0.1154
  H  H98  1  0.089800  0.547600  0.614600  1.0  0.1271
  H  H99  1  0.914300  0.653000  0.536000  1.0  0.1311
  H  H100  1  0.795300  0.611200  0.560000  1.0  0.1116
  H  H101  1  0.821600  0.537900  0.610800  1.0  0.1494
  H  H102  1  0.604800  0.612200  0.483400  1.0  0.1177
  H  H103  1  0.400800  0.439100  0.384200  1.0  0.1275
  H  H104  1  0.656900  0.414500  0.367200  1.0  0.1251
  H  H105  1  0.707300  0.537800  0.437800  1.0  0.1181
  H  H106  1  0.403900  0.282500  0.390400  1.0  0.1293
  H  H107  1  0.307800  0.307500  0.217800  1.0  0.126
  H  H108  1  0.499500  0.394200  0.237400  1.0  0.1267
  H  H109  1  0.492100  0.233800  0.046000  1.0  0.1254
  H  H110  1  0.486500  0.151000  0.084800  1.0  0.1292
  H  H111  1  0.487000  0.189400  0.198600  1.0  0.1282
  H  H112  1  0.956100  0.450000  0.760000  1.0  0.1321
  H  H113  1  0.986100  0.635500  0.756200  1.0  0.1227
  H  H114  1  0.983100  0.699300  0.872000  1.0  0.1194
  H  H115  1  0.974300  0.640000  0.933400  1.0  0.1292
  H  H116  1  0.159100  0.555600  0.775800  1.0  0.1124
  C  C117  1  0.616830  0.213920  0.624280  1.0  -0.0089
  C  C118  1  0.706800  0.241680  0.634700  1.0  -0.1466
  C  C119  1  0.778900  0.258090  0.696900  1.0  -0.0386
  C  C120  1  0.761500  0.248180  0.748740  1.0  -0.0876
  C  C121  1  0.723000  0.258010  0.581060  1.0  0.7317
  C  C122  1  0.746800  0.158300  0.392780  1.0  0.7486
  C  C123  1  0.762000  0.086170  0.343620  1.0  -0.1634
  C  C124  1  0.688100  0.033110  0.288940  1.0  -0.0387
  C  C125  1  0.705500  0.968040  0.243080  1.0  -0.0845
  C  C126  1  0.591670  0.928190  0.557600  1.0  0.7005
  C  C127  1  0.529900  0.043120  0.603680  1.0  0.0054
  C  C128  1  0.513270  0.969300  0.573020  1.0  -0.1154
  C  C129  1  0.425700  0.933650  0.556760  1.0  -0.0489
  C  C130  1  0.355200  0.973040  0.571240  1.0  -0.0931
  C  C131  1  0.370500  0.046670  0.601600  1.0  -0.0936
  C  C132  1  0.925100  0.886510  0.466360  1.0  0.7245
  C  C133  1  0.992500  0.905140  0.437920  1.0  -0.1255
  C  C134  1  0.084100  0.892010  0.454060  1.0  -0.0354
  C  C135  1  0.963000  0.936240  0.395500  1.0  0.0082
  C  C136  1  0.024400  0.954460  0.369600  1.0  -0.2747
  C  C137  1  0.115300  0.940620  0.385320  1.0  -0.0666
  C  C138  1  0.145300  0.909480  0.427220  1.0  -0.1145
  C  C139  1  0.853200  0.072590  0.352000  1.0  -0.0058
  C  C140  1  0.870400  0.007980  0.304780  1.0  -0.3042
  C  C141  1  0.796400  0.954830  0.249940  1.0  -0.0376
  C  C142  1  0.992600  0.933560  0.229540  1.0  -0.3154
  C  C143  1  0.997400  0.861680  0.206640  1.0  -0.0008
  C  C144  1  0.999000  0.816110  0.138340  1.0  -0.1313
  C  C145  1  0.993300  0.843100  0.092860  1.0  -0.0261
  C  C146  1  0.989200  0.915390  0.115800  1.0  -0.0886
  C  C147  1  0.989300  0.959970  0.183220  1.0  -0.0922
  C  C148  1  0.006600  0.738770  0.113960  1.0  0.6925
  C  C149  1  0.458400  0.391020  0.891260  1.0  0.7242
  C  C150  1  0.463300  0.313300  0.852000  1.0  -0.1282
  C  C151  1  0.462300  0.282240  0.782880  1.0  0.0148
  C  C152  1  0.470300  0.210110  0.746900  1.0  -0.2592
  C  C153  1  0.479500  0.169410  0.780200  1.0  -0.0324
  C  C154  1  0.479000  0.200840  0.849600  1.0  -0.1006
  C  C155  1  0.472600  0.272190  0.885860  1.0  -0.0225
  C  C156  1  0.459800  0.082330  0.618620  1.0  -0.279
  C  C157  1  0.598800  0.206330  0.676780  1.0  -0.2456
  C  C158  1  0.671400  0.224340  0.739340  1.0  -0.0135
  C  C159  1  0.883170  0.589640  0.375720  1.0  -0.0066
  C  C160  1  0.793200  0.606980  0.365300  1.0  -0.1495
  C  C161  1  0.721100  0.561190  0.303100  1.0  -0.0371
  C  C162  1  0.738500  0.499440  0.251260  1.0  -0.0888
  C  C163  1  0.777000  0.676950  0.418940  1.0  0.7293
  C  C164  1  0.753200  0.765520  0.607220  1.0  0.7533
  C  C165  1  0.738000  0.742550  0.656380  1.0  -0.1635
  C  C166  1  0.811900  0.744170  0.711060  1.0  -0.0365
  C  C167  1  0.794500  0.724960  0.756920  1.0  -0.0828
  C  C168  1  0.908330  0.370590  0.442400  1.0  0.6995
  C  C169  1  0.970100  0.439440  0.396320  1.0  0.0045
  C  C170  1  0.986730  0.396280  0.426980  1.0  -0.1137
  C  C171  1  0.074300  0.376890  0.443240  1.0  -0.0507
  C  C172  1  0.144800  0.401800  0.428760  1.0  -0.0934
  C  C173  1  0.129500  0.445070  0.398400  1.0  -0.0947
  C  C174  1  0.574900  0.420150  0.533640  1.0  0.7231
  C  C175  1  0.507500  0.467220  0.562080  1.0  -0.1255
  C  C176  1  0.415900  0.437950  0.545940  1.0  -0.0312
  C  C177  1  0.537000  0.540740  0.604500  1.0  0.0088
  C  C178  1  0.475600  0.584860  0.630400  1.0  -0.2741
  C  C179  1  0.384700  0.555300  0.614680  1.0  -0.0669
  C  C180  1  0.354700  0.482260  0.572780  1.0  -0.1161
  C  C181  1  0.646800  0.720590  0.648000  1.0  -0.006
  C  C182  1  0.629600  0.703200  0.695220  1.0  -0.302
  C  C183  1  0.703600  0.704890  0.750060  1.0  -0.0364
  C  C184  1  0.507400  0.704020  0.770460  1.0  -0.3148
  C  C185  1  0.502600  0.655040  0.793360  1.0  -0.0022
  C  C186  1  0.501000  0.677770  0.861660  1.0  -0.1324
  C  C187  1  0.506700  0.750240  0.907140  1.0  -0.0263
  C  C188  1  0.510800  0.799590  0.884200  1.0  -0.092
  C  C189  1  0.510700  0.776750  0.816780  1.0  -0.088
  C  C190  1  0.493400  0.624810  0.886040  1.0  0.6946
  C  C191  1  0.041600  0.499760  0.108740  1.0  0.7224
  C  C192  1  0.036700  0.461300  0.148000  1.0  -0.1271
  C  C193  1  0.037700  0.499360  0.217120  1.0  0.0183
  C  C194  1  0.029700  0.463210  0.253100  1.0  -0.26
  C  C195  1  0.020500  0.389210  0.219800  1.0  -0.0297
  C  C196  1  0.021000  0.351240  0.150400  1.0  -0.0964
  C  C197  1  0.027400  0.386330  0.114140  1.0  -0.02
  C  C198  1  0.040200  0.463710  0.381380  1.0  -0.2798
  C  C199  1  0.901200  0.529550  0.323220  1.0  -0.2461
  C  C200  1  0.828600  0.485000  0.260660  1.0  -0.0145
  C  C201  1  0.383170  0.786080  0.375720  1.0  -0.009
  C  C202  1  0.293200  0.758320  0.365300  1.0  -0.1473
  C  C203  1  0.221100  0.741910  0.303100  1.0  -0.0393
  C  C204  1  0.238500  0.751820  0.251260  1.0  -0.0869
  C  C205  1  0.277000  0.741990  0.418940  1.0  0.7324
  C  C206  1  0.253200  0.841700  0.607220  1.0  0.7448
  C  C207  1  0.238000  0.913830  0.656380  1.0  -0.1632
  C  C208  1  0.311900  0.966890  0.711060  1.0  -0.0393
  C  C209  1  0.294500  0.031960  0.756920  1.0  -0.0839
  C  C210  1  0.408330  0.071810  0.442400  1.0  0.7017
  C  C211  1  0.470100  0.956880  0.396320  1.0  0.0062
  C  C212  1  0.486730  0.030700  0.426980  1.0  -0.1152
  C  C213  1  0.574300  0.066350  0.443240  1.0  -0.05
  C  C214  1  0.644800  0.026960  0.428760  1.0  -0.0944
  C  C215  1  0.629500  0.953330  0.398400  1.0  -0.0964
  C  C216  1  0.074900  0.113490  0.533640  1.0  0.7267
  C  C217  1  0.007500  0.094860  0.562080  1.0  -0.1243
  C  C218  1  0.915900  0.107990  0.545940  1.0  -0.0337
  C  C219  1  0.037000  0.063760  0.604500  1.0  0.0094
  C  C220  1  0.975600  0.045540  0.630400  1.0  -0.2756
  C  C221  1  0.884700  0.059380  0.614680  1.0  -0.0655
  C  C222  1  0.854700  0.090520  0.572780  1.0  -0.1151
  C  C223  1  0.146800  0.927410  0.648000  1.0  -0.0065
  C  C224  1  0.129600  0.992020  0.695220  1.0  -0.3042
  C  C225  1  0.203600  0.045170  0.750060  1.0  -0.0375
  C  C226  1  0.007400  0.066440  0.770460  1.0  -0.3152
  C  C227  1  0.002600  0.138320  0.793360  1.0  -1e-04
  C  C228  1  0.001000  0.183890  0.861660  1.0  -0.1318
  C  C229  1  0.006700  0.156900  0.907140  1.0  -0.0247
  C  C230  1  0.010800  0.084610  0.884200  1.0  -0.0866
  C  C231  1  0.010700  0.040030  0.816780  1.0  -0.0908
  C  C232  1  0.993400  0.261230  0.886040  1.0  0.6932
  C  C233  1  0.541600  0.608980  0.108740  1.0  0.7238
  C  C234  1  0.536700  0.686700  0.148000  1.0  -0.1286
  C  C235  1  0.537700  0.717760  0.217120  1.0  0.0157
  C  C236  1  0.529700  0.789890  0.253100  1.0  -0.2588
  C  C237  1  0.520500  0.830590  0.219800  1.0  -0.0333
  C  C238  1  0.521000  0.799160  0.150400  1.0  -0.0997
  C  C239  1  0.527400  0.727810  0.114140  1.0  -0.0232
  C  C240  1  0.540200  0.917670  0.381380  1.0  -0.2788
  C  C241  1  0.401200  0.793670  0.323220  1.0  -0.2443
  C  C242  1  0.328600  0.775660  0.260660  1.0  -0.0117
  C  C243  1  0.116830  0.410360  0.624280  1.0  -0.0074
  C  C244  1  0.206800  0.393020  0.634700  1.0  -0.1498
  C  C245  1  0.278900  0.438810  0.696900  1.0  -0.0358
  C  C246  1  0.261500  0.500560  0.748740  1.0  -0.0889
  C  C247  1  0.223000  0.323050  0.581060  1.0  0.729
  C  C248  1  0.246800  0.234480  0.392780  1.0  0.7522
  C  C249  1  0.262000  0.257450  0.343620  1.0  -0.1643
  C  C250  1  0.188100  0.255830  0.288940  1.0  -0.0359
  C  C251  1  0.205500  0.275040  0.243080  1.0  -0.0846
  C  C252  1  0.091670  0.629410  0.557600  1.0  0.7013
  C  C253  1  0.029900  0.560560  0.603680  1.0  0.0056
  C  C254  1  0.013270  0.603720  0.573020  1.0  -0.115
  C  C255  1  0.925700  0.623110  0.556760  1.0  -0.0501
  C  C256  1  0.855200  0.598200  0.571240  1.0  -0.0935
  C  C257  1  0.870500  0.554930  0.601600  1.0  -0.0928
  C  C258  1  0.425100  0.579850  0.466360  1.0  0.7241
  C  C259  1  0.492500  0.532780  0.437920  1.0  -0.1242
  C  C260  1  0.584100  0.562050  0.454060  1.0  -0.0326
  C  C261  1  0.463000  0.459260  0.395500  1.0  0.009
  C  C262  1  0.524400  0.415140  0.369600  1.0  -0.2715
  C  C263  1  0.615300  0.444700  0.385320  1.0  -0.0686
  C  C264  1  0.645300  0.517740  0.427220  1.0  -0.1147
  C  C265  1  0.353200  0.279410  0.352000  1.0  -0.0044
  C  C266  1  0.370400  0.296800  0.304780  1.0  -0.3031
  C  C267  1  0.296400  0.295110  0.249940  1.0  -0.0348
  C  C268  1  0.492600  0.295980  0.229540  1.0  -0.3138
  C  C269  1  0.497400  0.344960  0.206640  1.0  -0.0045
  C  C270  1  0.499000  0.322230  0.138340  1.0  -0.133
  C  C271  1  0.493300  0.249760  0.092860  1.0  -0.0265
  C  C272  1  0.489200  0.200410  0.115800  1.0  -0.0926
  C  C273  1  0.489300  0.223250  0.183220  1.0  -0.0855
  C  C274  1  0.506600  0.375190  0.113960  1.0  0.6927
  C  C275  1  0.958400  0.500240  0.891260  1.0  0.7235
  C  C276  1  0.963300  0.538700  0.852000  1.0  -0.1269
  C  C277  1  0.962300  0.500640  0.782880  1.0  0.0166
  C  C278  1  0.970300  0.536790  0.746900  1.0  -0.2619
  C  C279  1  0.979500  0.610790  0.780200  1.0  -0.0309
  C  C280  1  0.979000  0.648760  0.849600  1.0  -0.0967
  C  C281  1  0.972600  0.613670  0.885860  1.0  -0.0203
  C  C282  1  0.959800  0.536290  0.618620  1.0  -0.2805
  C  C283  1  0.098800  0.470450  0.676780  1.0  -0.2455
  C  C284  1  0.171400  0.515000  0.739340  1.0  -0.0159
  O  O285  1  0.652620  0.248230  0.528980  1.0  -0.6307
  O  O286  1  0.804560  0.282710  0.594000  1.0  -0.5953
  O  O287  1  0.237320  0.137080  0.484440  1.0  -0.5001
  O  O288  1  0.813470  0.197690  0.448140  1.0  -0.5964
  O  O289  1  0.667500  0.175230  0.373580  1.0  -0.6029
  O  O290  1  0.413290  0.206310  0.620520  1.0  -0.8466
  O  O291  1  0.572470  0.860410  0.528480  1.0  -0.6152
  O  O292  1  0.955660  0.858940  0.505440  1.0  -0.5947
  O  O293  1  0.843260  0.897660  0.448180  1.0  -0.5464
  O  O294  1  0.053710  0.065400  0.345700  1.0  -0.8662
  O  O295  1  0.669120  0.961990  0.573600  1.0  -0.5351
  O  O296  1  0.011800  0.700680  0.054060  1.0  -0.6189
  O  O297  1  0.010360  0.714610  0.154540  1.0  -0.5824
  O  O298  1  0.470400  0.420160  0.954760  1.0  -0.7133
  O  O299  1  0.445490  0.424970  0.857240  1.0  -0.5868
  O  O300  1  0.847380  0.719250  0.471020  1.0  -0.6307
  O  O301  1  0.695440  0.688710  0.406000  1.0  -0.5954
  O  O302  1  0.262680  0.652640  0.515560  1.0  -0.4996
  O  O303  1  0.686530  0.749550  0.551860  1.0  -0.5939
  O  O304  1  0.832500  0.801650  0.626420  1.0  -0.6037
  O  O305  1  0.086710  0.585790  0.379480  1.0  -0.846
  O  O306  1  0.927530  0.331930  0.471520  1.0  -0.6168
  O  O307  1  0.544340  0.353500  0.494560  1.0  -0.5946
  O  O308  1  0.656740  0.449480  0.551820  1.0  -0.5466
  O  O309  1  0.446290  0.719700  0.654300  1.0  -0.8675
  O  O310  1  0.830880  0.388390  0.426400  1.0  -0.5337
  O  O311  1  0.488200  0.646620  0.945940  1.0  -0.6191
  O  O312  1  0.489640  0.560070  0.845460  1.0  -0.58
  O  O313  1  0.029600  0.465400  0.045240  1.0  -0.7135
  O  O314  1  0.054510  0.567730  0.142760  1.0  -0.5849
  O  O315  1  0.347380  0.751770  0.471020  1.0  -0.6301
  O  O316  1  0.195440  0.717290  0.406000  1.0  -0.5948
  O  O317  1  0.762680  0.862920  0.515560  1.0  -0.4993
  O  O318  1  0.186530  0.802310  0.551860  1.0  -0.5963
  O  O319  1  0.332500  0.824770  0.626420  1.0  -0.605
  O  O320  1  0.586710  0.793690  0.379480  1.0  -0.8443
  O  O321  1  0.427530  0.139590  0.471520  1.0  -0.6164
  O  O322  1  0.044340  0.141060  0.494560  1.0  -0.5957
  O  O323  1  0.156740  0.102340  0.551820  1.0  -0.5477
  O  O324  1  0.946290  0.934600  0.654300  1.0  -0.868
  O  O325  1  0.330880  0.038010  0.426400  1.0  -0.5359
  O  O326  1  0.988200  0.299320  0.945940  1.0  -0.6183
  O  O327  1  0.989640  0.285390  0.845460  1.0  -0.5805
  O  O328  1  0.529600  0.579840  0.045240  1.0  -0.7138
  O  O329  1  0.554510  0.575030  0.142760  1.0  -0.5848
  O  O330  1  0.152620  0.280750  0.528980  1.0  -0.6309
  O  O331  1  0.304560  0.311290  0.594000  1.0  -0.5955
  O  O332  1  0.737320  0.347360  0.484440  1.0  -0.4992
  O  O333  1  0.313470  0.250450  0.448140  1.0  -0.5943
  O  O334  1  0.167500  0.198350  0.373580  1.0  -0.6028
  O  O335  1  0.913290  0.414210  0.620520  1.0  -0.844
  O  O336  1  0.072470  0.668070  0.528480  1.0  -0.6186
  O  O337  1  0.455660  0.646500  0.505440  1.0  -0.594
  O  O338  1  0.343260  0.550520  0.448180  1.0  -0.548
  O  O339  1  0.553710  0.280300  0.345700  1.0  -0.8676
  O  O340  1  0.169120  0.611610  0.573600  1.0  -0.5352
  O  O341  1  0.511800  0.353380  0.054060  1.0  -0.6187
  O  O342  1  0.510360  0.439930  0.154540  1.0  -0.5826
  O  O343  1  0.970400  0.534600  0.954760  1.0  -0.7113
  O  O344  1  0.945490  0.432270  0.857240  1.0  -0.5848
