# generated using pymatgen
data_RbY(CO2)4
_symmetry_space_group_name_H-M   'P 1'
_cell_length_a   9.15020000
_cell_length_b   9.30390000
_cell_length_c   9.30390000
_cell_angle_alpha   76.00660000
_cell_angle_beta   60.54480000
_cell_angle_gamma   60.54480000
_symmetry_Int_Tables_number   1
_chemical_formula_structural   RbY(CO2)4
_chemical_formula_sum   'Rb2 Y2 C8 O16'
_cell_volume   600.53469597
_cell_formula_units_Z   2
loop_
 _symmetry_equiv_pos_site_id
 _symmetry_equiv_pos_as_xyz
  1  'x, y, z'
loop_
 _atom_site_type_symbol
 _atom_site_label
 _atom_site_symmetry_multiplicity
 _atom_site_fract_x
 _atom_site_fract_y
 _atom_site_fract_z
 _atom_site_occupancy
 _atom_site_charge
  Rb  Rb1  1  0.125000  0.750000  0.750000  1.0  0.9548
  Rb  Rb2  1  0.875000  0.250000  0.250000  1.0  0.9552
  Y  Y3  1  0.625000  0.750000  0.750000  1.0  1.7304
  Y  Y4  1  0.375000  0.250000  0.250000  1.0  1.7309
  C  C5  1  0.606000  0.974000  0.984000  1.0  0.3865
  C  C6  1  0.064000  0.526000  0.516000  1.0  0.3897
  C  C7  1  0.590000  0.016000  0.474000  1.0  0.3907
  C  C8  1  0.580000  0.484000  0.026000  1.0  0.3908
  C  C9  1  0.394000  0.026000  0.016000  1.0  0.3905
  C  C10  1  0.936000  0.474000  0.484000  1.0  0.3893
  C  C11  1  0.410000  0.984000  0.526000  1.0  0.3902
  C  C12  1  0.420000  0.516000  0.974000  1.0  0.3916
  O  O13  1  0.726500  0.883000  0.857000  1.0  -0.4842
  O  O14  1  0.638200  0.137000  0.957000  1.0  -0.5769
  O  O15  1  0.966500  0.617000  0.643000  1.0  -0.4845
  O  O16  1  0.232200  0.363000  0.543000  1.0  -0.5776
  O  O17  1  0.583500  0.143000  0.383000  1.0  -0.4839
  O  O18  1  0.595200  0.043000  0.637000  1.0  -0.5768
  O  O19  1  0.609500  0.357000  0.117000  1.0  -0.4825
  O  O20  1  0.775200  0.457000  0.863000  1.0  -0.5784
  O  O21  1  0.273500  0.117000  0.143000  1.0  -0.4866
  O  O22  1  0.361800  0.863000  0.043000  1.0  -0.5775
  O  O23  1  0.033500  0.383000  0.357000  1.0  -0.4847
  O  O24  1  0.767800  0.637000  0.457000  1.0  -0.5768
  O  O25  1  0.416500  0.857000  0.617000  1.0  -0.4837
  O  O26  1  0.404800  0.957000  0.363000  1.0  -0.5777
  O  O27  1  0.390500  0.643000  0.883000  1.0  -0.4841
  O  O28  1  0.224800  0.543000  0.137000  1.0  -0.5748
