# generated using pymatgen
data_SrZrCd(CO2)8
_symmetry_space_group_name_H-M   'P 1'
_cell_length_a   8.60840000
_cell_length_b   9.03620000
_cell_length_c   9.03620000
_cell_angle_alpha   76.88590000
_cell_angle_beta   61.55400000
_cell_angle_gamma   61.55400000
_symmetry_Int_Tables_number   1
_chemical_formula_structural   SrZrCd(CO2)8
_chemical_formula_sum   'Sr1 Zr1 Cd1 C8 O16'
_cell_volume   543.41934739
_cell_formula_units_Z   1
loop_
 _symmetry_equiv_pos_site_id
 _symmetry_equiv_pos_as_xyz
  1  'x, y, z'
loop_
 _atom_site_type_symbol
 _atom_site_label
 _atom_site_symmetry_multiplicity
 _atom_site_fract_x
 _atom_site_fract_y
 _atom_site_fract_z
 _atom_site_occupancy
 _atom_site_charge
  Sr  Sr1  1  0.500000  0.000000  0.000000  1.0  1.6362
  Zr  Zr2  1  0.750000  0.500000  0.500000  1.0  1.9947
  Cd  Cd3  1  0.000000  0.000000  0.000000  1.0  0.9547
  C  C4  1  0.769900  0.276700  0.276700  1.0  0.5991
  C  C5  1  0.982700  0.231300  0.231300  1.0  0.5588
  C  C6  1  0.323300  0.723300  0.723300  1.0  0.5992
  C  C7  1  0.445300  0.768700  0.768700  1.0  0.5573
  C  C8  1  0.953400  0.276700  0.723300  1.0  0.6001
  C  C9  1  0.786000  0.231300  0.768700  1.0  0.5575
  C  C10  1  0.953400  0.723300  0.276700  1.0  0.6001
  C  C11  1  0.786000  0.768700  0.231300  1.0  0.5579
  O  O12  1  0.121100  0.122900  0.122900  1.0  -0.6581
  O  O13  1  0.000900  0.314300  0.314300  1.0  -0.5415
  O  O14  1  0.734600  0.203200  0.203200  1.0  -0.5615
  O  O15  1  0.648800  0.388300  0.388300  1.0  -0.5414
  O  O16  1  0.366900  0.877100  0.877100  1.0  -0.6596
  O  O17  1  0.629500  0.685700  0.685700  1.0  -0.5406
  O  O18  1  0.141000  0.796800  0.796800  1.0  -0.5584
  O  O19  1  0.425400  0.611700  0.611700  1.0  -0.5425
  O  O20  1  0.756000  0.122900  0.877100  1.0  -0.6603
  O  O21  1  0.684800  0.314300  0.685700  1.0  -0.5421
  O  O22  1  0.062200  0.203200  0.796800  1.0  -0.5619
  O  O23  1  0.962900  0.388300  0.611700  1.0  -0.5436
  O  O24  1  0.756000  0.877100  0.122900  1.0  -0.6603
  O  O25  1  0.684800  0.685700  0.314300  1.0  -0.5402
  O  O26  1  0.062200  0.796800  0.203200  1.0  -0.5596
  O  O27  1  0.962900  0.611700  0.388300  1.0  -0.5442
