# generated using pymatgen
data_Ca2Zr(CO2)8
_symmetry_space_group_name_H-M   'P 1'
_cell_length_a   8.42880000
_cell_length_b   9.00600000
_cell_length_c   9.00600000
_cell_angle_alpha   77.35070000
_cell_angle_beta   62.09830000
_cell_angle_gamma   62.09830000
_symmetry_Int_Tables_number   1
_chemical_formula_structural   Ca2Zr(CO2)8
_chemical_formula_sum   'Ca2 Zr1 C8 O16'
_cell_volume   533.93722964
_cell_formula_units_Z   1
loop_
 _symmetry_equiv_pos_site_id
 _symmetry_equiv_pos_as_xyz
  1  'x, y, z'
loop_
 _atom_site_type_symbol
 _atom_site_label
 _atom_site_symmetry_multiplicity
 _atom_site_fract_x
 _atom_site_fract_y
 _atom_site_fract_z
 _atom_site_occupancy
 _atom_site_charge
  Ca  Ca1  1  0.000000  0.000000  0.000000  1.0  1.4369
  Ca  Ca2  1  0.500000  0.000000  0.000000  1.0  1.6526
  Zr  Zr3  1  0.750000  0.500000  0.500000  1.0  2.0319
  C  C4  1  0.972800  0.231600  0.231600  1.0  0.6136
  C  C5  1  0.762700  0.265900  0.265900  1.0  0.4774
  C  C6  1  0.436000  0.768400  0.768400  1.0  0.6129
  C  C7  1  0.294500  0.734100  0.734100  1.0  0.4771
  C  C8  1  0.795600  0.231600  0.768400  1.0  0.6113
  C  C9  1  0.971400  0.265900  0.734100  1.0  0.4777
  C  C10  1  0.795600  0.768400  0.231600  1.0  0.6117
  C  C11  1  0.971400  0.734100  0.265900  1.0  0.4785
  O  O12  1  0.135000  0.127000  0.127000  1.0  -0.7171
  O  O13  1  0.006600  0.307500  0.307500  1.0  -0.5433
  O  O14  1  0.681000  0.209800  0.209800  1.0  -0.5727
  O  O15  1  0.637300  0.377700  0.377700  1.0  -0.5424
  O  O16  1  0.389000  0.873000  0.873000  1.0  -0.7167
  O  O17  1  0.621600  0.692500  0.692500  1.0  -0.5418
  O  O18  1  0.100600  0.790200  0.790200  1.0  -0.5696
  O  O19  1  0.392700  0.622300  0.622300  1.0  -0.542
  O  O20  1  0.738000  0.127000  0.873000  1.0  -0.7187
  O  O21  1  0.685900  0.307500  0.692500  1.0  -0.5424
  O  O22  1  0.109200  0.209800  0.790200  1.0  -0.569
  O  O23  1  0.985000  0.377700  0.622300  1.0  -0.5402
  O  O24  1  0.738000  0.873000  0.127000  1.0  -0.7171
  O  O25  1  0.685900  0.692500  0.307500  1.0  -0.541
  O  O26  1  0.109200  0.790200  0.209800  1.0  -0.5675
  O  O27  1  0.985000  0.622300  0.377700  1.0  -0.5402
