# generated using pymatgen
data_Zn3Cu4H40C60(N4O7)2
_symmetry_space_group_name_H-M   'P 1'
_cell_length_a   27.96000000
_cell_length_b   26.62000000
_cell_length_c   6.10100000
_cell_angle_alpha   90.00000000
_cell_angle_beta   94.96000000
_cell_angle_gamma   90.00000000
_symmetry_Int_Tables_number   1
_chemical_formula_structural   Zn3Cu4H40C60(N4O7)2
_chemical_formula_sum   'Zn6 Cu8 H80 C120 N16 O28'
_cell_volume   4523.94054525
_cell_formula_units_Z   2
loop_
 _symmetry_equiv_pos_site_id
 _symmetry_equiv_pos_as_xyz
  1  'x, y, z'
loop_
 _atom_site_type_symbol
 _atom_site_label
 _atom_site_symmetry_multiplicity
 _atom_site_fract_x
 _atom_site_fract_y
 _atom_site_fract_z
 _atom_site_occupancy
 _atom_site_charge
  Zn  Zn1  1  0.000000  0.000000  0.500000  1.0  1.1199
  Zn  Zn2  1  0.500000  0.500000  0.500000  1.0  1.1199
  Zn  Zn3  1  0.000000  0.054600  0.000000  1.0  1.0192
  Zn  Zn4  1  0.500000  0.554600  0.000000  1.0  1.0192
  Zn  Zn5  1  0.000000  0.945400  0.000000  1.0  1.0195
  Zn  Zn6  1  0.500000  0.445400  0.000000  1.0  1.0195
  Cu  Cu7  1  0.753000  0.731900  0.361200  1.0  0.8128
  Cu  Cu8  1  0.253000  0.231900  0.361200  1.0  0.8128
  Cu  Cu9  1  0.247000  0.731900  0.638800  1.0  0.8116
  Cu  Cu10  1  0.747000  0.231900  0.638800  1.0  0.8116
  Cu  Cu11  1  0.247000  0.268100  0.638800  1.0  0.8116
  Cu  Cu12  1  0.747000  0.768100  0.638800  1.0  0.8116
  Cu  Cu13  1  0.753000  0.268100  0.361200  1.0  0.8126
  Cu  Cu14  1  0.253000  0.768100  0.361200  1.0  0.8126
  H  H15  1  0.711100  0.601800  0.903600  1.0  0.0974
  H  H16  1  0.755300  0.589700  0.598400  1.0  0.0838
  H  H17  1  0.819800  0.643100  0.541200  1.0  0.0943
  H  H18  1  0.840000  0.708700  0.789300  1.0  0.0859
  H  H19  1  0.837900  0.764400  0.962200  1.0  0.1433
  H  H20  1  0.840900  0.772200  0.173600  1.0  0.1977
  H  H21  1  0.820500  0.852100  0.711100  1.0  0.1716
  H  H22  1  0.677700  0.617800  0.161600  1.0  0.0842
  H  H23  1  0.898500  0.831700  0.077100  1.0  0.0821
  H  H24  1  0.886300  0.905300  0.639100  1.0  0.0854
  H  H25  1  0.211100  0.101800  0.903600  1.0  0.0974
  H  H26  1  0.255300  0.089700  0.598400  1.0  0.0838
  H  H27  1  0.319800  0.143100  0.541200  1.0  0.0961
  H  H28  1  0.340000  0.208700  0.789300  1.0  0.086
  H  H29  1  0.337900  0.264400  0.962200  1.0  0.1433
  H  H30  1  0.340900  0.272200  0.173600  1.0  0.1977
  H  H31  1  0.320500  0.352100  0.711100  1.0  0.1716
  H  H32  1  0.177700  0.117800  0.161600  1.0  0.0842
  H  H33  1  0.398500  0.331700  0.077100  1.0  0.0821
  H  H34  1  0.386300  0.405300  0.639100  1.0  0.0854
  H  H35  1  0.288900  0.601800  0.096400  1.0  0.0967
  H  H36  1  0.244700  0.589700  0.401600  1.0  0.0843
  H  H37  1  0.180200  0.643100  0.458800  1.0  0.097
  H  H38  1  0.160000  0.708700  0.210700  1.0  0.089
  H  H39  1  0.162100  0.764400  0.037800  1.0  0.1442
  H  H40  1  0.159100  0.772200  0.826400  1.0  0.1968
  H  H41  1  0.179500  0.852100  0.288900  1.0  0.1725
  H  H42  1  0.322300  0.617800  0.838400  1.0  0.0863
  H  H43  1  0.101500  0.831700  0.922900  1.0  0.0813
  H  H44  1  0.113700  0.905300  0.360900  1.0  0.0852
  H  H45  1  0.788900  0.101800  0.096400  1.0  0.0967
  H  H46  1  0.744700  0.089700  0.401600  1.0  0.0843
  H  H47  1  0.680200  0.143100  0.458800  1.0  0.097
  H  H48  1  0.660000  0.208700  0.210700  1.0  0.089
  H  H49  1  0.662100  0.264400  0.037800  1.0  0.1442
  H  H50  1  0.659100  0.272200  0.826400  1.0  0.1968
  H  H51  1  0.679500  0.352100  0.288900  1.0  0.1725
  H  H52  1  0.822300  0.117800  0.838400  1.0  0.0863
  H  H53  1  0.601500  0.331700  0.922900  1.0  0.0813
  H  H54  1  0.613700  0.405300  0.360900  1.0  0.0852
  H  H55  1  0.288900  0.398200  0.096400  1.0  0.0991
  H  H56  1  0.244700  0.410300  0.401600  1.0  0.0838
  H  H57  1  0.180200  0.356900  0.458800  1.0  0.097
  H  H58  1  0.160000  0.291300  0.210700  1.0  0.0882
  H  H59  1  0.162100  0.235600  0.037800  1.0  0.1428
  H  H60  1  0.159100  0.227800  0.826400  1.0  0.1954
  H  H61  1  0.179500  0.147900  0.288900  1.0  0.1716
  H  H62  1  0.322300  0.382200  0.838400  1.0  0.086
  H  H63  1  0.101500  0.168300  0.922900  1.0  0.0813
  H  H64  1  0.113700  0.094700  0.360900  1.0  0.0845
  H  H65  1  0.788900  0.898200  0.096400  1.0  0.0991
  H  H66  1  0.744700  0.910300  0.401600  1.0  0.0838
  H  H67  1  0.680200  0.856900  0.458800  1.0  0.097
  H  H68  1  0.660000  0.791300  0.210700  1.0  0.0882
  H  H69  1  0.662100  0.735600  0.037800  1.0  0.1428
  H  H70  1  0.659100  0.727800  0.826400  1.0  0.1954
  H  H71  1  0.679500  0.647900  0.288900  1.0  0.1716
  H  H72  1  0.822300  0.882200  0.838400  1.0  0.086
  H  H73  1  0.601500  0.668300  0.922900  1.0  0.0813
  H  H74  1  0.613700  0.594700  0.360900  1.0  0.0845
  H  H75  1  0.711100  0.398200  0.903600  1.0  0.099
  H  H76  1  0.755300  0.410300  0.598400  1.0  0.0846
  H  H77  1  0.819800  0.356900  0.541200  1.0  0.0962
  H  H78  1  0.840000  0.291300  0.789300  1.0  0.0855
  H  H79  1  0.837900  0.235600  0.962200  1.0  0.1418
  H  H80  1  0.840900  0.227800  0.173600  1.0  0.1957
  H  H81  1  0.820500  0.147900  0.711100  1.0  0.1731
  H  H82  1  0.677700  0.382200  0.161600  1.0  0.0862
  H  H83  1  0.898500  0.168300  0.077100  1.0  0.0825
  H  H84  1  0.886300  0.094700  0.639100  1.0  0.0851
  H  H85  1  0.211100  0.898200  0.903600  1.0  0.099
  H  H86  1  0.255300  0.910300  0.598400  1.0  0.0846
  H  H87  1  0.319800  0.856900  0.541200  1.0  0.0978
  H  H88  1  0.340000  0.791300  0.789300  1.0  0.0854
  H  H89  1  0.337900  0.735600  0.962200  1.0  0.1418
  H  H90  1  0.340900  0.727800  0.173600  1.0  0.1957
  H  H91  1  0.320500  0.647900  0.711100  1.0  0.1731
  H  H92  1  0.177700  0.882200  0.161600  1.0  0.0862
  H  H93  1  0.398500  0.668300  0.077100  1.0  0.0825
  H  H94  1  0.386300  0.594700  0.639100  1.0  0.0851
  C  C95  1  0.749200  0.662300  0.028000  1.0  0.0063
  C  C96  1  0.737200  0.623400  0.880400  1.0  -0.156
  C  C97  1  0.763500  0.616200  0.698900  1.0  -0.116
  C  C98  1  0.801900  0.648000  0.664800  1.0  -0.115
  C  C99  1  0.813900  0.687000  0.812400  1.0  -0.1872
  C  C100  1  0.787500  0.694100  0.994000  1.0  0.163
  C  C101  1  0.827000  0.766000  0.105000  1.0  -0.0646
  C  C102  1  0.685000  0.646000  0.256000  1.0  -0.0569
  C  C103  1  0.663000  0.654000  0.418000  1.0  -0.1022
  C  C104  1  0.825000  0.807000  0.440000  1.0  0.3104
  C  C105  1  0.849000  0.801100  0.258000  1.0  -0.1107
  C  C106  1  0.884100  0.836400  0.209000  1.0  -0.1832
  C  C107  1  0.896800  0.875500  0.345000  1.0  -0.1269
  C  C108  1  0.874800  0.879000  0.537000  1.0  -0.1466
  C  C109  1  0.934800  0.909700  0.297000  1.0  0.7099
  C  C110  1  0.249200  0.162300  0.028000  1.0  0.0063
  C  C111  1  0.237200  0.123400  0.880400  1.0  -0.156
  C  C112  1  0.263500  0.116200  0.698900  1.0  -0.116
  C  C113  1  0.301900  0.148000  0.664800  1.0  -0.115
  C  C114  1  0.313900  0.187000  0.812400  1.0  -0.1872
  C  C115  1  0.287500  0.194100  0.994000  1.0  0.163
  C  C116  1  0.327000  0.266000  0.105000  1.0  -0.0646
  C  C117  1  0.185000  0.146000  0.256000  1.0  -0.0569
  C  C118  1  0.163000  0.154000  0.418000  1.0  -0.1022
  C  C119  1  0.325000  0.307000  0.440000  1.0  0.3104
  C  C120  1  0.349000  0.301100  0.258000  1.0  -0.1107
  C  C121  1  0.384100  0.336400  0.209000  1.0  -0.1832
  C  C122  1  0.396800  0.375500  0.345000  1.0  -0.1269
  C  C123  1  0.374800  0.379000  0.537000  1.0  -0.1466
  C  C124  1  0.434800  0.409700  0.297000  1.0  0.7099
  C  C125  1  0.250800  0.662300  0.972000  1.0  0.0057
  C  C126  1  0.262800  0.623400  0.119600  1.0  -0.1534
  C  C127  1  0.236500  0.616200  0.301100  1.0  -0.1156
  C  C128  1  0.198100  0.648000  0.335200  1.0  -0.1152
  C  C129  1  0.186100  0.687000  0.187600  1.0  -0.1917
  C  C130  1  0.212500  0.694100  0.006000  1.0  0.1634
  C  C131  1  0.173000  0.766000  0.895000  1.0  -0.0654
  C  C132  1  0.315000  0.646000  0.744000  1.0  -0.054
  C  C133  1  0.337000  0.654000  0.582000  1.0  -0.1079
  C  C134  1  0.175000  0.807000  0.560000  1.0  0.3088
  C  C135  1  0.151000  0.801100  0.742000  1.0  -0.1071
  C  C136  1  0.115900  0.836400  0.791000  1.0  -0.184
  C  C137  1  0.103200  0.875500  0.655000  1.0  -0.1273
  C  C138  1  0.125200  0.879000  0.463000  1.0  -0.1471
  C  C139  1  0.065200  0.909700  0.703000  1.0  0.7102
  C  C140  1  0.750800  0.162300  0.972000  1.0  0.0057
  C  C141  1  0.762800  0.123400  0.119600  1.0  -0.1534
  C  C142  1  0.736500  0.116200  0.301100  1.0  -0.1156
  C  C143  1  0.698100  0.148000  0.335200  1.0  -0.1152
  C  C144  1  0.686100  0.187000  0.187600  1.0  -0.1917
  C  C145  1  0.712500  0.194100  0.006000  1.0  0.1634
  C  C146  1  0.673000  0.266000  0.895000  1.0  -0.0654
  C  C147  1  0.815000  0.146000  0.744000  1.0  -0.054
  C  C148  1  0.837000  0.154000  0.582000  1.0  -0.1079
  C  C149  1  0.675000  0.307000  0.560000  1.0  0.3088
  C  C150  1  0.651000  0.301100  0.742000  1.0  -0.1071
  C  C151  1  0.615900  0.336400  0.791000  1.0  -0.184
  C  C152  1  0.603200  0.375500  0.655000  1.0  -0.1273
  C  C153  1  0.625200  0.379000  0.463000  1.0  -0.1471
  C  C154  1  0.565200  0.409700  0.703000  1.0  0.7102
  C  C155  1  0.250800  0.337700  0.972000  1.0  0.0092
  C  C156  1  0.262800  0.376600  0.119600  1.0  -0.1507
  C  C157  1  0.236500  0.383800  0.301100  1.0  -0.1148
  C  C158  1  0.198100  0.352000  0.335200  1.0  -0.1126
  C  C159  1  0.186100  0.313000  0.187600  1.0  -0.1893
  C  C160  1  0.212500  0.305900  0.006000  1.0  0.1641
  C  C161  1  0.173000  0.234000  0.895000  1.0  -0.0667
  C  C162  1  0.315000  0.354000  0.744000  1.0  -0.0567
  C  C163  1  0.337000  0.346000  0.582000  1.0  -0.1078
  C  C164  1  0.175000  0.193000  0.560000  1.0  0.3092
  C  C165  1  0.151000  0.198900  0.742000  1.0  -0.1081
  C  C166  1  0.115900  0.163600  0.791000  1.0  -0.1839
  C  C167  1  0.103200  0.124500  0.655000  1.0  -0.1269
  C  C168  1  0.125200  0.121000  0.463000  1.0  -0.1483
  C  C169  1  0.065200  0.090300  0.703000  1.0  0.7112
  C  C170  1  0.750800  0.837700  0.972000  1.0  0.0092
  C  C171  1  0.762800  0.876600  0.119600  1.0  -0.1507
  C  C172  1  0.736500  0.883800  0.301100  1.0  -0.1148
  C  C173  1  0.698100  0.852000  0.335200  1.0  -0.1126
  C  C174  1  0.686100  0.813000  0.187600  1.0  -0.1893
  C  C175  1  0.712500  0.805900  0.006000  1.0  0.1641
  C  C176  1  0.673000  0.734000  0.895000  1.0  -0.0667
  C  C177  1  0.815000  0.854000  0.744000  1.0  -0.0567
  C  C178  1  0.837000  0.846000  0.582000  1.0  -0.1078
  C  C179  1  0.675000  0.693000  0.560000  1.0  0.3092
  C  C180  1  0.651000  0.698900  0.742000  1.0  -0.1081
  C  C181  1  0.615900  0.663600  0.791000  1.0  -0.1839
  C  C182  1  0.603200  0.624500  0.655000  1.0  -0.1269
  C  C183  1  0.625200  0.621000  0.463000  1.0  -0.1483
  C  C184  1  0.565200  0.590300  0.703000  1.0  0.7112
  C  C185  1  0.749200  0.337700  0.028000  1.0  0.0069
  C  C186  1  0.737200  0.376600  0.880400  1.0  -0.1526
  C  C187  1  0.763500  0.383800  0.698900  1.0  -0.1148
  C  C188  1  0.801900  0.352000  0.664800  1.0  -0.114
  C  C189  1  0.813900  0.313000  0.812400  1.0  -0.1848
  C  C190  1  0.787500  0.305900  0.994000  1.0  0.1602
  C  C191  1  0.827000  0.234000  0.105000  1.0  -0.0635
  C  C192  1  0.685000  0.354000  0.256000  1.0  -0.0581
  C  C193  1  0.663000  0.346000  0.418000  1.0  -0.1016
  C  C194  1  0.825000  0.193000  0.440000  1.0  0.311
  C  C195  1  0.849000  0.198900  0.258000  1.0  -0.1107
  C  C196  1  0.884100  0.163600  0.209000  1.0  -0.183
  C  C197  1  0.896800  0.124500  0.345000  1.0  -0.1267
  C  C198  1  0.874800  0.121000  0.537000  1.0  -0.1458
  C  C199  1  0.934800  0.090300  0.297000  1.0  0.7108
  C  C200  1  0.249200  0.837700  0.028000  1.0  0.0069
  C  C201  1  0.237200  0.876600  0.880400  1.0  -0.1526
  C  C202  1  0.263500  0.883800  0.698900  1.0  -0.1148
  C  C203  1  0.301900  0.852000  0.664800  1.0  -0.114
  C  C204  1  0.313900  0.813000  0.812400  1.0  -0.1848
  C  C205  1  0.287500  0.805900  0.994000  1.0  0.1602
  C  C206  1  0.327000  0.734000  0.105000  1.0  -0.0635
  C  C207  1  0.185000  0.854000  0.256000  1.0  -0.0581
  C  C208  1  0.163000  0.846000  0.418000  1.0  -0.1016
  C  C209  1  0.325000  0.693000  0.440000  1.0  0.311
  C  C210  1  0.349000  0.698900  0.258000  1.0  -0.1107
  C  C211  1  0.384100  0.663600  0.209000  1.0  -0.183
  C  C212  1  0.396800  0.624500  0.345000  1.0  -0.1267
  C  C213  1  0.374800  0.621000  0.537000  1.0  -0.1458
  C  C214  1  0.434800  0.590300  0.297000  1.0  0.7108
  N  N215  1  0.718000  0.674000  0.206000  1.0  -0.1363
  N  N216  1  0.795000  0.734000  0.136000  1.0  -0.1316
  N  N217  1  0.218000  0.174000  0.206000  1.0  -0.1363
  N  N218  1  0.295000  0.234000  0.136000  1.0  -0.1316
  N  N219  1  0.282000  0.674000  0.794000  1.0  -0.141
  N  N220  1  0.205000  0.734000  0.864000  1.0  -0.1272
  N  N221  1  0.782000  0.174000  0.794000  1.0  -0.141
  N  N222  1  0.705000  0.234000  0.864000  1.0  -0.1272
  N  N223  1  0.282000  0.326000  0.794000  1.0  -0.1386
  N  N224  1  0.205000  0.266000  0.864000  1.0  -0.1278
  N  N225  1  0.782000  0.826000  0.794000  1.0  -0.1386
  N  N226  1  0.705000  0.766000  0.864000  1.0  -0.1278
  N  N227  1  0.718000  0.326000  0.206000  1.0  -0.1348
  N  N228  1  0.795000  0.266000  0.136000  1.0  -0.1325
  N  N229  1  0.218000  0.826000  0.206000  1.0  -0.1348
  N  N230  1  0.295000  0.766000  0.136000  1.0  -0.1325
  O  O231  1  0.790100  0.776600  0.481000  1.0  -0.6294
  O  O232  1  0.948700  0.943800  0.422000  1.0  -0.6448
  O  O233  1  0.953500  0.098400  0.116000  1.0  -0.6305
  O  O234  1  0.290100  0.276600  0.481000  1.0  -0.6294
  O  O235  1  0.448700  0.443800  0.422000  1.0  -0.6448
  O  O236  1  0.453500  0.598400  0.116000  1.0  -0.6305
  O  O237  1  0.209900  0.776600  0.519000  1.0  -0.6309
  O  O238  1  0.051300  0.943800  0.578000  1.0  -0.6437
  O  O239  1  0.046500  0.098400  0.884000  1.0  -0.6316
  O  O240  1  0.709900  0.276600  0.519000  1.0  -0.6309
  O  O241  1  0.551300  0.443800  0.578000  1.0  -0.6437
  O  O242  1  0.546500  0.598400  0.884000  1.0  -0.6316
  O  O243  1  0.209900  0.223400  0.519000  1.0  -0.6335
  O  O244  1  0.051300  0.056200  0.578000  1.0  -0.6421
  O  O245  1  0.046500  0.901600  0.884000  1.0  -0.6307
  O  O246  1  0.709900  0.723400  0.519000  1.0  -0.6335
  O  O247  1  0.551300  0.556200  0.578000  1.0  -0.6421
  O  O248  1  0.546500  0.401600  0.884000  1.0  -0.6307
  O  O249  1  0.790100  0.223400  0.481000  1.0  -0.6322
  O  O250  1  0.948700  0.056200  0.422000  1.0  -0.6435
  O  O251  1  0.953500  0.901600  0.116000  1.0  -0.6305
  O  O252  1  0.290100  0.723400  0.481000  1.0  -0.6322
  O  O253  1  0.448700  0.556200  0.422000  1.0  -0.6435
  O  O254  1  0.453500  0.401600  0.116000  1.0  -0.6305
  O  O255  1  0.027100  0.000000  0.198000  1.0  -0.7689
  O  O256  1  0.527100  0.500000  0.198000  1.0  -0.7689
  O  O257  1  0.972900  0.000000  0.802000  1.0  -0.7705
  O  O258  1  0.472900  0.500000  0.802000  1.0  -0.7705
