# generated using pymatgen
data_MnCr(CO2)6
_symmetry_space_group_name_H-M   'P 1'
_cell_length_a   15.29330000
_cell_length_b   15.59850000
_cell_length_c   18.19420000
_cell_angle_alpha   64.68500000
_cell_angle_beta   77.98600000
_cell_angle_gamma   61.07700000
_symmetry_Int_Tables_number   1
_chemical_formula_structural   MnCr(CO2)6
_chemical_formula_sum   'Mn4 Cr4 C24 O48'
_cell_volume   3434.10024386
_cell_formula_units_Z   4
loop_
 _symmetry_equiv_pos_site_id
 _symmetry_equiv_pos_as_xyz
  1  'x, y, z'
loop_
 _atom_site_type_symbol
 _atom_site_label
 _atom_site_symmetry_multiplicity
 _atom_site_fract_x
 _atom_site_fract_y
 _atom_site_fract_z
 _atom_site_occupancy
 _atom_site_charge
  Mn  Mn1  1  0.348000  0.722710  0.840590  1.0  1.0475
  Mn  Mn2  1  0.861620  0.564160  0.119390  1.0  1.0865
  Mn  Mn3  1  0.626200  0.191900  0.627640  1.0  1.095
  Mn  Mn4  1  0.128320  0.831430  0.343960  1.0  1.0682
  Cr  Cr5  1  0.111590  0.724150  0.104100  1.0  1.4174
  Cr  Cr6  1  0.627040  0.831300  0.855020  1.0  1.4152
  Cr  Cr7  1  0.362620  0.586330  0.610370  1.0  1.4447
  Cr  Cr8  1  0.863400  0.210170  0.362590  1.0  1.4466
  C  C9  1  0.180400  0.765600  0.948800  1.0  0.5409
  C  C10  1  0.273000  0.690400  0.004600  1.0  0.5654
  C  C11  1  0.449700  0.837500  0.839300  1.0  0.5366
  C  C12  1  0.533400  0.726200  0.844300  1.0  0.5545
  C  C13  1  0.692500  0.711600  0.010100  1.0  0.571
  C  C14  1  0.790000  0.691000  0.953600  1.0  0.5524
  C  C15  1  0.946300  0.696700  0.119700  1.0  0.573
  C  C16  1  0.033200  0.596400  0.109800  1.0  0.6008
  C  C17  1  0.638700  0.985600  0.711900  1.0  0.5359
  C  C18  1  0.627300  0.023600  0.779700  1.0  0.6106
  C  C19  1  0.447500  0.382600  0.620800  1.0  0.5966
  C  C20  1  0.533900  0.403600  0.629100  1.0  0.5333
  C  C21  1  0.201300  0.712800  0.509400  1.0  0.5485
  C  C22  1  0.295700  0.697700  0.454000  1.0  0.5435
  C  C23  1  0.354000  0.702600  0.689700  1.0  0.5886
  C  C24  1  0.346400  0.605000  0.754800  1.0  0.5678
  C  C25  1  0.700900  0.242100  0.461800  1.0  0.6053
  C  C26  1  0.793100  0.172500  0.518100  1.0  0.5592
  C  C27  1  0.853400  0.367200  0.214400  1.0  0.5397
  C  C28  1  0.863500  0.403000  0.276000  1.0  0.5899
  C  C29  1  0.949500  0.014700  0.355300  1.0  0.606
  C  C30  1  0.034400  0.040500  0.349400  1.0  0.5924
  C  C31  1  0.127400  0.719900  0.252400  1.0  0.5846
  C  C32  1  0.117900  0.827400  0.189800  1.0  0.5586
  O  O33  1  0.098200  0.794000  0.984700  1.0  -0.5193
  O  O34  1  0.256400  0.670100  0.079800  1.0  -0.5169
  O  O35  1  0.192100  0.791900  0.873800  1.0  -0.4627
  O  O36  1  0.355900  0.655000  0.972300  1.0  -0.5062
  O  O37  1  0.363400  0.859100  0.831400  1.0  -0.4834
  O  O38  1  0.509000  0.662400  0.841800  1.0  -0.4958
  O  O39  1  0.481600  0.898300  0.841400  1.0  -0.5269
  O  O40  1  0.621000  0.711000  0.850000  1.0  -0.513
  O  O41  1  0.612600  0.776400  0.974100  1.0  -0.4929
  O  O42  1  0.771700  0.747600  0.880100  1.0  -0.5259
  O  O43  1  0.705100  0.663300  0.085000  1.0  -0.4728
  O  O44  1  0.870600  0.624300  0.986700  1.0  -0.4995
  O  O45  1  0.859300  0.702900  0.127300  1.0  -0.4856
  O  O46  1  0.018900  0.524800  0.112400  1.0  -0.5048
  O  O47  1  0.967400  0.764900  0.117600  1.0  -0.5035
  O  O48  1  0.118300  0.595800  0.101300  1.0  -0.5276
  O  O49  1  0.647600  0.891600  0.737000  1.0  -0.4772
  O  O50  1  0.624100  0.961600  0.851300  1.0  -0.4706
  O  O51  1  0.636200  0.044900  0.639900  1.0  -0.4472
  O  O52  1  0.629400  0.109200  0.759300  1.0  -0.5149
  O  O53  1  0.468000  0.294300  0.622500  1.0  -0.4815
  O  O54  1  0.619700  0.327600  0.642600  1.0  -0.5134
  O  O55  1  0.363600  0.457500  0.612400  1.0  -0.478
  O  O56  1  0.509100  0.494100  0.626400  1.0  -0.5144
  O  O57  1  0.219100  0.668500  0.585400  1.0  -0.5071
  O  O58  1  0.378200  0.640300  0.491400  1.0  -0.5048
  O  O59  1  0.119700  0.762200  0.477500  1.0  -0.4997
  O  O60  1  0.284800  0.741700  0.379400  1.0  -0.4851
  O  O61  1  0.364400  0.706100  0.617700  1.0  -0.4828
  O  O62  1  0.342800  0.542700  0.728700  1.0  -0.4789
  O  O63  1  0.346100  0.772400  0.709500  1.0  -0.5036
  O  O64  1  0.341400  0.593100  0.827200  1.0  -0.4989
  O  O65  1  0.618400  0.262500  0.495000  1.0  -0.5063
  O  O66  1  0.780900  0.144500  0.592800  1.0  -0.4434
  O  O67  1  0.720200  0.270200  0.387000  1.0  -0.4916
  O  O68  1  0.876800  0.150700  0.482500  1.0  -0.5168
  O  O69  1  0.845700  0.279700  0.244200  1.0  -0.4891
  O  O70  1  0.872300  0.337900  0.350300  1.0  -0.4882
  O  O71  1  0.853400  0.422000  0.141200  1.0  -0.4613
  O  O72  1  0.863800  0.489200  0.251600  1.0  -0.482
  O  O73  1  0.864300  0.082300  0.364700  1.0  -0.5079
  O  O74  1  0.009200  0.129700  0.351100  1.0  -0.5117
  O  O75  1  0.967700  0.930900  0.351500  1.0  -0.5029
  O  O76  1  0.120100  0.975000  0.343700  1.0  -0.4783
  O  O77  1  0.129100  0.700300  0.325200  1.0  -0.5096
  O  O78  1  0.122400  0.888700  0.214900  1.0  -0.4428
  O  O79  1  0.128500  0.657900  0.223800  1.0  -0.4741
  O  O80  1  0.106700  0.844600  0.116300  1.0  -0.4751
