# generated using pymatgen
data_MnCr(CO2)6
_symmetry_space_group_name_H-M   'P 1'
_cell_length_a   14.52860000
_cell_length_b   20.87780000
_cell_length_c   22.75700000
_cell_angle_alpha   90.00000000
_cell_angle_beta   90.00000000
_cell_angle_gamma   90.00000000
_symmetry_Int_Tables_number   1
_chemical_formula_structural   MnCr(CO2)6
_chemical_formula_sum   'Mn8 Cr8 C48 O96'
_cell_volume   6902.77169201
_cell_formula_units_Z   8
loop_
 _symmetry_equiv_pos_site_id
 _symmetry_equiv_pos_as_xyz
  1  'x, y, z'
loop_
 _atom_site_type_symbol
 _atom_site_label
 _atom_site_symmetry_multiplicity
 _atom_site_fract_x
 _atom_site_fract_y
 _atom_site_fract_z
 _atom_site_occupancy
 _atom_site_charge
  Mn  Mn1  1  0.488720  0.128380  0.514680  1.0  1.091
  Mn  Mn2  1  0.312560  0.750190  0.365300  1.0  1.0421
  Mn  Mn3  1  0.011280  0.871620  0.014680  1.0  1.0922
  Mn  Mn4  1  0.187440  0.249810  0.865300  1.0  1.0423
  Mn  Mn5  1  0.511280  0.628380  0.985320  1.0  1.0918
  Mn  Mn6  1  0.687440  0.250190  0.134700  1.0  1.0435
  Mn  Mn7  1  0.988720  0.371620  0.485320  1.0  1.0917
  Mn  Mn8  1  0.812560  0.749810  0.634700  1.0  1.0411
  Cr  Cr9  1  0.296140  0.767620  0.129930  1.0  1.3724
  Cr  Cr10  1  0.546970  0.872240  0.511620  1.0  1.4104
  Cr  Cr11  1  0.203860  0.232380  0.629930  1.0  1.3741
  Cr  Cr12  1  0.953030  0.127760  0.011620  1.0  1.4098
  Cr  Cr13  1  0.703860  0.267620  0.370070  1.0  1.3749
  Cr  Cr14  1  0.453030  0.372240  0.988380  1.0  1.4109
  Cr  Cr15  1  0.796140  0.732380  0.870070  1.0  1.3753
  Cr  Cr16  1  0.046970  0.627760  0.488380  1.0  1.4104
  C  C17  1  0.392300  0.826600  0.458470  1.0  0.5466
  C  C18  1  0.474300  0.794000  0.427320  1.0  0.5386
  C  C19  1  0.637200  0.795600  0.588500  1.0  0.566
  C  C20  1  0.711600  0.837600  0.559200  1.0  0.5837
  C  C21  1  0.518800  0.995600  0.546120  1.0  0.6046
  C  C22  1  0.525100  0.997100  0.478110  1.0  0.5538
  C  C23  1  0.554100  0.218800  0.429240  1.0  0.5407
  C  C24  1  0.642200  0.188300  0.458030  1.0  0.5724
  C  C25  1  0.308200  0.156200  0.558680  1.0  0.5875
  C  C26  1  0.375800  0.194600  0.596870  1.0  0.5448
  C  C27  1  0.308600  0.722000  0.242100  1.0  0.556
  C  C28  1  0.314400  0.796200  0.246800  1.0  0.5247
  C  C29  1  0.107700  0.173400  0.958470  1.0  0.5468
  C  C30  1  0.025700  0.206000  0.927320  1.0  0.5399
  C  C31  1  0.862800  0.204400  0.088500  1.0  0.5664
  C  C32  1  0.788400  0.162400  0.059200  1.0  0.5816
  C  C33  1  0.981200  0.004400  0.046120  1.0  0.604
  C  C34  1  0.974900  0.002900  0.978110  1.0  0.5537
  C  C35  1  0.945900  0.781200  0.929240  1.0  0.5409
  C  C36  1  0.857800  0.811700  0.958030  1.0  0.5711
  C  C37  1  0.191800  0.843800  0.058680  1.0  0.5864
  C  C38  1  0.124200  0.805400  0.096870  1.0  0.5422
  C  C39  1  0.191400  0.278000  0.742100  1.0  0.5568
  C  C40  1  0.185600  0.203800  0.746800  1.0  0.5258
  C  C41  1  0.607700  0.326600  0.041530  1.0  0.5476
  C  C42  1  0.525700  0.294000  0.072680  1.0  0.5396
  C  C43  1  0.362800  0.295600  0.911500  1.0  0.5657
  C  C44  1  0.288400  0.337600  0.940800  1.0  0.5811
  C  C45  1  0.481200  0.495600  0.953880  1.0  0.6049
  C  C46  1  0.474900  0.497100  0.021890  1.0  0.5545
  C  C47  1  0.445900  0.718800  0.070760  1.0  0.5419
  C  C48  1  0.357800  0.688300  0.041970  1.0  0.5728
  C  C49  1  0.691800  0.656200  0.941320  1.0  0.5891
  C  C50  1  0.624200  0.694600  0.903130  1.0  0.5431
  C  C51  1  0.691400  0.222000  0.257900  1.0  0.5557
  C  C52  1  0.685600  0.296200  0.253200  1.0  0.5242
  C  C53  1  0.892300  0.673400  0.541530  1.0  0.5462
  C  C54  1  0.974300  0.706000  0.572680  1.0  0.5407
  C  C55  1  0.137200  0.704400  0.411500  1.0  0.5665
  C  C56  1  0.211600  0.662400  0.440800  1.0  0.5841
  C  C57  1  0.018800  0.504400  0.453880  1.0  0.6045
  C  C58  1  0.025100  0.502900  0.521890  1.0  0.5549
  C  C59  1  0.054100  0.281200  0.570760  1.0  0.541
  C  C60  1  0.142200  0.311700  0.541970  1.0  0.5718
  C  C61  1  0.808200  0.343800  0.441320  1.0  0.5849
  C  C62  1  0.875800  0.305400  0.403130  1.0  0.544
  C  C63  1  0.808600  0.778000  0.757900  1.0  0.5565
  C  C64  1  0.814400  0.703800  0.753200  1.0  0.525
  O  O65  1  0.412530  0.862290  0.502300  1.0  -0.526
  O  O66  1  0.553000  0.809420  0.447550  1.0  -0.4986
  O  O67  1  0.314300  0.816360  0.440480  1.0  -0.4945
  O  O68  1  0.458410  0.756800  0.386580  1.0  -0.481
  O  O69  1  0.555300  0.805720  0.572180  1.0  -0.4831
  O  O70  1  0.681390  0.876000  0.521150  1.0  -0.4941
  O  O71  1  0.662480  0.754240  0.625170  1.0  -0.4604
  O  O72  1  0.793200  0.830970  0.573920  1.0  -0.4851
  O  O73  1  0.530770  0.941330  0.569180  1.0  -0.4759
  O  O74  1  0.544500  0.943930  0.454640  1.0  -0.5118
  O  O75  1  0.504600  0.046160  0.572080  1.0  -0.4572
  O  O76  1  0.508700  0.047880  0.452760  1.0  -0.4848
  O  O77  1  0.479400  0.201760  0.447130  1.0  -0.4489
  O  O78  1  0.632070  0.152250  0.499450  1.0  -0.5129
  O  O79  1  0.571570  0.259410  0.388550  1.0  -0.4958
  O  O80  1  0.717960  0.204990  0.434520  1.0  -0.5181
  O  O81  1  0.339650  0.122610  0.519770  1.0  -0.4621
  O  O82  1  0.459300  0.190120  0.587820  1.0  -0.4445
  O  O83  1  0.223600  0.163310  0.572150  1.0  -0.4956
  O  O84  1  0.338520  0.228800  0.638030  1.0  -0.5069
  O  O85  1  0.309900  0.690560  0.287870  1.0  -0.4823
  O  O86  1  0.318300  0.821170  0.295320  1.0  -0.473
  O  O87  1  0.304800  0.699910  0.190410  1.0  -0.4714
  O  O88  1  0.313700  0.825300  0.197420  1.0  -0.48
  O  O89  1  0.087470  0.137710  0.002300  1.0  -0.5262
  O  O90  1  0.947000  0.190580  0.947550  1.0  -0.4991
  O  O91  1  0.185700  0.183640  0.940480  1.0  -0.493
  O  O92  1  0.041590  0.243200  0.886580  1.0  -0.4823
  O  O93  1  0.944700  0.194280  0.072180  1.0  -0.4811
  O  O94  1  0.818610  0.124000  0.021150  1.0  -0.4902
  O  O95  1  0.837520  0.245760  0.125170  1.0  -0.4589
  O  O96  1  0.706800  0.169030  0.073920  1.0  -0.4858
  O  O97  1  0.969230  0.058670  0.069180  1.0  -0.4771
  O  O98  1  0.955500  0.056070  0.954640  1.0  -0.5127
  O  O99  1  0.995400  0.953840  0.072080  1.0  -0.4563
  O  O100  1  0.991300  0.952120  0.952760  1.0  -0.4847
  O  O101  1  0.020600  0.798240  0.947130  1.0  -0.4456
  O  O102  1  0.867930  0.847750  0.999450  1.0  -0.5144
  O  O103  1  0.928430  0.740590  0.888550  1.0  -0.4941
  O  O104  1  0.782040  0.795010  0.934520  1.0  -0.5193
  O  O105  1  0.160350  0.877390  0.019770  1.0  -0.4631
  O  O106  1  0.040700  0.809880  0.087820  1.0  -0.4454
  O  O107  1  0.276400  0.836690  0.072150  1.0  -0.4934
  O  O108  1  0.161480  0.771200  0.138030  1.0  -0.5058
  O  O109  1  0.190100  0.309440  0.787870  1.0  -0.4795
  O  O110  1  0.181700  0.178830  0.795320  1.0  -0.4785
  O  O111  1  0.195200  0.300090  0.690410  1.0  -0.4698
  O  O112  1  0.186300  0.174700  0.697420  1.0  -0.4795
  O  O113  1  0.587470  0.362290  0.997700  1.0  -0.5245
  O  O114  1  0.447000  0.309420  0.052450  1.0  -0.4993
  O  O115  1  0.685700  0.316360  0.059520  1.0  -0.4922
  O  O116  1  0.541590  0.256800  0.113420  1.0  -0.4812
  O  O117  1  0.444700  0.305720  0.927820  1.0  -0.4805
  O  O118  1  0.318610  0.376000  0.978850  1.0  -0.4904
  O  O119  1  0.337520  0.254240  0.874830  1.0  -0.4604
  O  O120  1  0.206800  0.330970  0.926080  1.0  -0.485
  O  O121  1  0.469230  0.441330  0.930820  1.0  -0.4755
  O  O122  1  0.455500  0.443930  0.045360  1.0  -0.5122
  O  O123  1  0.495400  0.546160  0.927920  1.0  -0.4568
  O  O124  1  0.491300  0.547880  0.047240  1.0  -0.4856
  O  O125  1  0.520600  0.701760  0.052870  1.0  -0.4462
  O  O126  1  0.367930  0.652250  0.000550  1.0  -0.5154
  O  O127  1  0.428430  0.759410  0.111450  1.0  -0.4937
  O  O128  1  0.282040  0.704990  0.065480  1.0  -0.5196
  O  O129  1  0.660350  0.622610  0.980230  1.0  -0.4626
  O  O130  1  0.540700  0.690120  0.912180  1.0  -0.4464
  O  O131  1  0.776400  0.663310  0.927850  1.0  -0.4932
  O  O132  1  0.661480  0.728800  0.861970  1.0  -0.5042
  O  O133  1  0.690100  0.190560  0.212130  1.0  -0.4829
  O  O134  1  0.681700  0.321170  0.204680  1.0  -0.4764
  O  O135  1  0.695200  0.199910  0.309590  1.0  -0.4714
  O  O136  1  0.686300  0.325300  0.302580  1.0  -0.4791
  O  O137  1  0.912530  0.637710  0.497700  1.0  -0.5257
  O  O138  1  0.053000  0.690580  0.552450  1.0  -0.4978
  O  O139  1  0.814300  0.683640  0.559520  1.0  -0.4928
  O  O140  1  0.958410  0.743200  0.613420  1.0  -0.4795
  O  O141  1  0.055300  0.694280  0.427820  1.0  -0.4821
  O  O142  1  0.181390  0.624000  0.478850  1.0  -0.4934
  O  O143  1  0.162480  0.745760  0.374830  1.0  -0.4651
  O  O144  1  0.293200  0.669030  0.426080  1.0  -0.4844
  O  O145  1  0.030770  0.558670  0.430820  1.0  -0.4747
  O  O146  1  0.044500  0.556070  0.545360  1.0  -0.5109
  O  O147  1  0.004600  0.453840  0.427920  1.0  -0.4574
  O  O148  1  0.008700  0.452120  0.547240  1.0  -0.4841
  O  O149  1  0.979400  0.298240  0.552870  1.0  -0.4475
  O  O150  1  0.132070  0.347750  0.500550  1.0  -0.5144
  O  O151  1  0.071570  0.240590  0.611450  1.0  -0.4949
  O  O152  1  0.217960  0.295010  0.565480  1.0  -0.5182
  O  O153  1  0.839650  0.377390  0.480230  1.0  -0.4598
  O  O154  1  0.959300  0.309880  0.412180  1.0  -0.4455
  O  O155  1  0.723600  0.336690  0.427850  1.0  -0.4957
  O  O156  1  0.838520  0.271200  0.361970  1.0  -0.5046
  O  O157  1  0.809900  0.809440  0.712130  1.0  -0.4823
  O  O158  1  0.818300  0.678830  0.704680  1.0  -0.4774
  O  O159  1  0.804800  0.800090  0.809590  1.0  -0.4686
  O  O160  1  0.813700  0.674700  0.802580  1.0  -0.478
