# generated using pymatgen
data_NiH6(C7O3)2
_symmetry_space_group_name_H-M   'P 1'
_cell_length_a   8.52400000
_cell_length_b   17.21390000
_cell_length_c   17.21390000
_cell_angle_alpha   120.00000000
_cell_angle_beta   90.00000000
_cell_angle_gamma   90.00000000
_symmetry_Int_Tables_number   1
_chemical_formula_structural   NiH6(C7O3)2
_chemical_formula_sum   'Ni3 H18 C42 O18'
_cell_volume   2187.42224396
_cell_formula_units_Z   3
loop_
 _symmetry_equiv_pos_site_id
 _symmetry_equiv_pos_as_xyz
  1  'x, y, z'
loop_
 _atom_site_type_symbol
 _atom_site_label
 _atom_site_symmetry_multiplicity
 _atom_site_fract_x
 _atom_site_fract_y
 _atom_site_fract_z
 _atom_site_occupancy
 _atom_site_charge
  Ni  Ni1  1  0.666667  0.474660  0.474660  1.0  0.792
  Ni  Ni2  1  0.333333  0.000000  0.525340  1.0  0.7919
  Ni  Ni3  1  0.000000  0.525340  0.000000  1.0  0.7892
  H  H4  1  0.337200  0.234500  0.533600  1.0  0.1347
  H  H5  1  0.547400  0.192500  0.306500  1.0  0.1183
  H  H6  1  0.469300  0.043900  0.236000  1.0  0.1204
  H  H7  1  0.003870  0.299100  0.765500  1.0  0.134
  H  H8  1  0.214070  0.114000  0.807500  1.0  0.119
  H  H9  1  0.135970  0.192100  0.956100  1.0  0.1199
  H  H10  1  0.670530  0.466400  0.700900  1.0  0.1345
  H  H11  1  0.880730  0.693500  0.886000  1.0  0.1191
  H  H12  1  0.802630  0.764000  0.807900  1.0  0.1208
  H  H13  1  0.662800  0.700900  0.466400  1.0  0.1339
  H  H14  1  0.452600  0.886000  0.693500  1.0  0.119
  H  H15  1  0.530700  0.807900  0.764000  1.0  0.1201
  H  H16  1  0.996130  0.533600  0.234500  1.0  0.1337
  H  H17  1  0.785930  0.306500  0.192500  1.0  0.119
  H  H18  1  0.864030  0.236000  0.043900  1.0  0.1207
  H  H19  1  0.329470  0.765500  0.299100  1.0  0.1345
  H  H20  1  0.119270  0.807500  0.114000  1.0  0.1184
  H  H21  1  0.197370  0.956100  0.192100  1.0  0.1205
  C  C22  1  0.451500  0.228160  0.427340  1.0  -0.1113
  C  C23  1  0.363800  0.196080  0.473900  1.0  -0.084
  C  C24  1  0.358300  0.047920  0.341920  1.0  -0.0081
  C  C25  1  0.490400  0.171100  0.337930  1.0  -0.0432
  C  C26  1  0.316400  0.107070  0.431400  1.0  0.2602
  C  C27  1  0.443500  0.081900  0.296000  1.0  -0.123
  C  C28  1  0.502300  0.324100  0.473580  1.0  0.6436
  C  C29  1  0.118170  0.199180  0.771840  1.0  -0.114
  C  C30  1  0.030470  0.277820  0.803920  1.0  -0.0832
  C  C31  1  0.024970  0.294000  0.952080  1.0  -0.0076
  C  C32  1  0.157070  0.166830  0.828900  1.0  -0.0402
  C  C33  1  0.983070  0.324330  0.892930  1.0  0.2609
  C  C34  1  0.110170  0.214100  0.918100  1.0  -0.1215
  C  C35  1  0.168970  0.149480  0.675900  1.0  0.6417
  C  C36  1  0.784830  0.572660  0.800820  1.0  -0.1106
  C  C37  1  0.697130  0.526100  0.722180  1.0  -0.0828
  C  C38  1  0.691630  0.658080  0.706000  1.0  -0.0078
  C  C39  1  0.823730  0.662070  0.833170  1.0  -0.0402
  C  C40  1  0.649730  0.568600  0.675670  1.0  0.2633
  C  C41  1  0.776830  0.704000  0.785900  1.0  -0.1236
  C  C42  1  0.835630  0.526420  0.850520  1.0  0.6423
  C  C43  1  0.548500  0.800820  0.572660  1.0  -0.1134
  C  C44  1  0.636200  0.722180  0.526100  1.0  -0.0824
  C  C45  1  0.641700  0.706000  0.658080  1.0  -0.0079
  C  C46  1  0.509600  0.833170  0.662070  1.0  -0.0396
  C  C47  1  0.683600  0.675670  0.568600  1.0  0.2606
  C  C48  1  0.556500  0.785900  0.704000  1.0  -0.1235
  C  C49  1  0.497700  0.850520  0.526420  1.0  0.6409
  C  C50  1  0.881830  0.427340  0.228160  1.0  -0.1114
  C  C51  1  0.969530  0.473900  0.196080  1.0  -0.0752
  C  C52  1  0.975030  0.341920  0.047920  1.0  -0.0075
  C  C53  1  0.842930  0.337930  0.171100  1.0  -0.0401
  C  C54  1  0.016930  0.431400  0.107070  1.0  0.2632
  C  C55  1  0.889830  0.296000  0.081900  1.0  -0.1228
  C  C56  1  0.831030  0.473580  0.324100  1.0  0.6408
  C  C57  1  0.215170  0.771840  0.199180  1.0  -0.1115
  C  C58  1  0.302870  0.803920  0.277820  1.0  -0.0812
  C  C59  1  0.308370  0.952080  0.294000  1.0  -0.0083
  C  C60  1  0.176270  0.828900  0.166830  1.0  -0.0415
  C  C61  1  0.350270  0.892930  0.324330  1.0  0.26
  C  C62  1  0.223170  0.918100  0.214100  1.0  -0.1244
  C  C63  1  0.164370  0.675900  0.149480  1.0  0.6435
  O  O64  1  0.470700  0.372350  0.557320  1.0  -0.3946
  O  O65  1  0.229100  0.076680  0.477230  1.0  -0.382
  O  O66  1  0.573500  0.351160  0.428650  1.0  -0.5299
  O  O67  1  0.137370  0.184970  0.627650  1.0  -0.4004
  O  O68  1  0.895770  0.400550  0.923320  1.0  -0.3814
  O  O69  1  0.240170  0.077490  0.648840  1.0  -0.5288
  O  O70  1  0.804030  0.442680  0.815030  1.0  -0.3964
  O  O71  1  0.562430  0.522770  0.599450  1.0  -0.3823
  O  O72  1  0.906830  0.571350  0.922510  1.0  -0.5278
  O  O73  1  0.529300  0.815030  0.442680  1.0  -0.4007
  O  O74  1  0.770900  0.599450  0.522770  1.0  -0.3802
  O  O75  1  0.426500  0.922510  0.571350  1.0  -0.5302
  O  O76  1  0.862630  0.557320  0.372350  1.0  -0.3964
  O  O77  1  0.104230  0.477230  0.076680  1.0  -0.3801
  O  O78  1  0.759830  0.428650  0.351160  1.0  -0.5274
  O  O79  1  0.195970  0.627650  0.184970  1.0  -0.395
  O  O80  1  0.437570  0.923320  0.400550  1.0  -0.3798
  O  O81  1  0.093170  0.648840  0.077490  1.0  -0.5299
