# generated using pymatgen
data_Fe(C2N3)3
_symmetry_space_group_name_H-M   'P 1'
_cell_length_a   13.91040000
_cell_length_b   17.03650000
_cell_length_c   20.81500000
_cell_angle_alpha   90.00000000
_cell_angle_beta   90.00000000
_cell_angle_gamma   90.00000000
_symmetry_Int_Tables_number   1
_chemical_formula_structural   Fe(C2N3)3
_chemical_formula_sum   'Fe8 C48 N72'
_cell_volume   4932.83298362
_cell_formula_units_Z   8
loop_
 _symmetry_equiv_pos_site_id
 _symmetry_equiv_pos_as_xyz
  1  'x, y, z'
loop_
 _atom_site_type_symbol
 _atom_site_label
 _atom_site_symmetry_multiplicity
 _atom_site_fract_x
 _atom_site_fract_y
 _atom_site_fract_z
 _atom_site_occupancy
 _atom_site_charge
  Fe  Fe1  1  0.876480  0.199740  0.075630  1.0  0.8086
  Fe  Fe2  1  0.035370  0.199410  0.416920  1.0  0.7699
  Fe  Fe3  1  0.623520  0.800250  0.575630  1.0  0.8047
  Fe  Fe4  1  0.464630  0.800590  0.916920  1.0  0.7713
  Fe  Fe5  1  0.123520  0.699740  0.424370  1.0  0.8056
  Fe  Fe6  1  0.964630  0.699410  0.083080  1.0  0.7702
  Fe  Fe7  1  0.376480  0.300250  0.924370  1.0  0.8081
  Fe  Fe8  1  0.535370  0.300590  0.583080  1.0  0.7692
  C  C9  1  0.807280  0.210200  0.226310  1.0  0.4996
  C  C10  1  0.842710  0.213080  0.331180  1.0  0.5786
  C  C11  1  0.071020  0.183470  0.160690  1.0  0.5695
  C  C12  1  0.108620  0.186410  0.266480  1.0  0.5135
  C  C13  1  0.993380  0.233920  0.951780  1.0  0.6643
  C  C14  1  0.144900  0.278720  0.935740  1.0  0.5891
  C  C15  1  0.943150  0.380310  0.061100  1.0  0.6328
  C  C16  1  0.985220  0.510700  0.064150  1.0  0.5811
  C  C17  1  0.260300  0.185770  0.458570  1.0  0.6343
  C  C18  1  0.408820  0.238310  0.474780  1.0  0.6492
  C  C19  1  0.895110  0.879240  0.089950  1.0  0.5939
  C  C20  1  0.857260  0.010170  0.081630  1.0  0.5666
  C  C21  1  0.692720  0.789800  0.726310  1.0  0.4992
  C  C22  1  0.657290  0.786920  0.831180  1.0  0.5789
  C  C23  1  0.428980  0.816530  0.660690  1.0  0.5692
  C  C24  1  0.391380  0.813590  0.766480  1.0  0.514
  C  C25  1  0.506620  0.766080  0.451780  1.0  0.6642
  C  C26  1  0.355100  0.721280  0.435740  1.0  0.5884
  C  C27  1  0.556850  0.619690  0.561100  1.0  0.6332
  C  C28  1  0.514780  0.489300  0.564150  1.0  0.5807
  C  C29  1  0.239700  0.814230  0.958570  1.0  0.635
  C  C30  1  0.091180  0.761690  0.974780  1.0  0.6399
  C  C31  1  0.604890  0.120760  0.589950  1.0  0.5942
  C  C32  1  0.642740  0.989830  0.581630  1.0  0.5671
  C  C33  1  0.192720  0.710200  0.273690  1.0  0.4986
  C  C34  1  0.157290  0.713080  0.168820  1.0  0.5784
  C  C35  1  0.928980  0.683470  0.339310  1.0  0.5708
  C  C36  1  0.891380  0.686410  0.233520  1.0  0.514
  C  C37  1  0.006620  0.733920  0.548220  1.0  0.6661
  C  C38  1  0.855100  0.778720  0.564260  1.0  0.5871
  C  C39  1  0.056850  0.880310  0.438900  1.0  0.633
  C  C40  1  0.014780  0.010700  0.435850  1.0  0.5806
  C  C41  1  0.739700  0.685770  0.041430  1.0  0.635
  C  C42  1  0.591180  0.738310  0.025220  1.0  0.6405
  C  C43  1  0.104890  0.379240  0.410050  1.0  0.5944
  C  C44  1  0.142740  0.510170  0.418370  1.0  0.5665
  C  C45  1  0.307280  0.289800  0.773690  1.0  0.4998
  C  C46  1  0.342710  0.286920  0.668820  1.0  0.5781
  C  C47  1  0.571020  0.316530  0.839310  1.0  0.569
  C  C48  1  0.608620  0.313590  0.733520  1.0  0.5131
  C  C49  1  0.493380  0.266080  0.048220  1.0  0.6643
  C  C50  1  0.644900  0.221280  0.064260  1.0  0.5882
  C  C51  1  0.443150  0.119690  0.938900  1.0  0.6329
  C  C52  1  0.485220  0.989300  0.935850  1.0  0.5805
  C  C53  1  0.760300  0.314230  0.541430  1.0  0.6345
  C  C54  1  0.908820  0.261690  0.525220  1.0  0.6428
  C  C55  1  0.395110  0.620760  0.910050  1.0  0.5947
  C  C56  1  0.357260  0.489830  0.918370  1.0  0.5663
  N  N57  1  0.826890  0.206760  0.173150  1.0  -0.4133
  N  N58  1  0.894420  0.214240  0.374010  1.0  -0.4835
  N  N59  1  0.776470  0.212070  0.286110  1.0  -0.5007
  N  N60  1  0.019730  0.187910  0.117740  1.0  -0.5011
  N  N61  1  0.091990  0.191660  0.320480  1.0  -0.4228
  N  N62  1  0.136170  0.179150  0.206350  1.0  -0.5321
  N  N63  1  0.933020  0.200530  0.977540  1.0  -0.5503
  N  N64  1  0.225370  0.285990  0.947430  1.0  -0.5202
  N  N65  1  0.054940  0.273850  0.918170  1.0  -0.4526
  N  N66  1  0.900930  0.323900  0.071840  1.0  -0.5799
  N  N67  1  0.983590  0.576250  0.076700  1.0  -0.4292
  N  N68  1  0.998780  0.438800  0.045000  1.0  -0.4106
  N  N69  1  0.177230  0.184700  0.458000  1.0  -0.5103
  N  N70  1  0.465810  0.284960  0.488260  1.0  -0.4826
  N  N71  1  0.353950  0.179860  0.457370  1.0  -0.4808
  N  N72  1  0.939030  0.822700  0.085890  1.0  -0.4514
  N  N73  1  0.864480  0.076150  0.070640  1.0  -0.4507
  N  N74  1  0.835780  0.938050  0.096840  1.0  -0.4716
  N  N75  1  0.673110  0.793240  0.673150  1.0  -0.413
  N  N76  1  0.605580  0.785760  0.874010  1.0  -0.4841
  N  N77  1  0.723530  0.787930  0.786110  1.0  -0.4988
  N  N78  1  0.480270  0.812090  0.617740  1.0  -0.4999
  N  N79  1  0.408010  0.808340  0.820480  1.0  -0.4222
  N  N80  1  0.363830  0.820850  0.706350  1.0  -0.5347
  N  N81  1  0.566980  0.799470  0.477540  1.0  -0.5491
  N  N82  1  0.274630  0.714010  0.447430  1.0  -0.519
  N  N83  1  0.445060  0.726150  0.418170  1.0  -0.4518
  N  N84  1  0.599070  0.676100  0.571840  1.0  -0.5791
  N  N85  1  0.516410  0.423750  0.576700  1.0  -0.428
  N  N86  1  0.501220  0.561200  0.545000  1.0  -0.4097
  N  N87  1  0.322770  0.815300  0.958000  1.0  -0.5119
  N  N88  1  0.034190  0.715040  0.988260  1.0  -0.4842
  N  N89  1  0.146050  0.820140  0.957370  1.0  -0.4827
  N  N90  1  0.560970  0.177300  0.585890  1.0  -0.4523
  N  N91  1  0.635520  0.923850  0.570640  1.0  -0.4492
  N  N92  1  0.664220  0.061950  0.596840  1.0  -0.4709
  N  N93  1  0.173110  0.706760  0.326850  1.0  -0.4137
  N  N94  1  0.105580  0.714240  0.125990  1.0  -0.4849
  N  N95  1  0.223530  0.712070  0.213890  1.0  -0.4988
  N  N96  1  0.980270  0.687910  0.382260  1.0  -0.5003
  N  N97  1  0.908010  0.691660  0.179520  1.0  -0.4233
  N  N98  1  0.863830  0.679150  0.293650  1.0  -0.5348
  N  N99  1  0.066980  0.700530  0.522460  1.0  -0.55
  N  N100  1  0.774630  0.785990  0.552570  1.0  -0.5187
  N  N101  1  0.945060  0.773850  0.581830  1.0  -0.447
  N  N102  1  0.099070  0.823900  0.428160  1.0  -0.5792
  N  N103  1  0.016410  0.076250  0.423300  1.0  -0.43
  N  N104  1  0.001220  0.938800  0.455000  1.0  -0.41
  N  N105  1  0.822770  0.684700  0.042000  1.0  -0.5129
  N  N106  1  0.534190  0.784960  0.011740  1.0  -0.4843
  N  N107  1  0.646050  0.679860  0.042630  1.0  -0.4818
  N  N108  1  0.060970  0.322700  0.414110  1.0  -0.4521
  N  N109  1  0.135520  0.576150  0.429360  1.0  -0.4497
  N  N110  1  0.164220  0.438050  0.403160  1.0  -0.4714
  N  N111  1  0.326890  0.293240  0.826850  1.0  -0.4132
  N  N112  1  0.394420  0.285760  0.625990  1.0  -0.4847
  N  N113  1  0.276470  0.287930  0.713890  1.0  -0.5014
  N  N114  1  0.519730  0.312090  0.882260  1.0  -0.5022
  N  N115  1  0.591990  0.308340  0.679520  1.0  -0.4235
  N  N116  1  0.636170  0.320850  0.793650  1.0  -0.5316
  N  N117  1  0.433020  0.299470  0.022460  1.0  -0.551
  N  N118  1  0.725370  0.214010  0.052570  1.0  -0.5199
  N  N119  1  0.554940  0.226150  0.081830  1.0  -0.4476
  N  N120  1  0.400930  0.176100  0.928160  1.0  -0.5787
  N  N121  1  0.483590  0.923750  0.923300  1.0  -0.4274
  N  N122  1  0.498780  0.061200  0.955000  1.0  -0.4107
  N  N123  1  0.677230  0.315300  0.542000  1.0  -0.5138
  N  N124  1  0.965810  0.215040  0.511740  1.0  -0.4853
  N  N125  1  0.853950  0.320140  0.542630  1.0  -0.4814
  N  N126  1  0.439030  0.677300  0.914110  1.0  -0.452
  N  N127  1  0.364480  0.423850  0.929360  1.0  -0.45
  N  N128  1  0.335780  0.561950  0.903160  1.0  -0.4713
