# generated using pymatgen
data_Co(C2N3)3
_symmetry_space_group_name_H-M   'P 1'
_cell_length_a   13.87180000
_cell_length_b   16.94890000
_cell_length_c   20.77200000
_cell_angle_alpha   90.00000000
_cell_angle_beta   90.00000000
_cell_angle_gamma   90.00000000
_symmetry_Int_Tables_number   1
_chemical_formula_structural   Co(C2N3)3
_chemical_formula_sum   'Co8 C48 N72'
_cell_volume   4883.74129219
_cell_formula_units_Z   8
loop_
 _symmetry_equiv_pos_site_id
 _symmetry_equiv_pos_as_xyz
  1  'x, y, z'
loop_
 _atom_site_type_symbol
 _atom_site_label
 _atom_site_symmetry_multiplicity
 _atom_site_fract_x
 _atom_site_fract_y
 _atom_site_fract_z
 _atom_site_occupancy
 _atom_site_charge
  Co  Co1  1  0.878340  0.201710  0.076080  1.0  0.8549
  Co  Co2  1  0.036340  0.201050  0.415220  1.0  0.826
  Co  Co3  1  0.621660  0.798290  0.576080  1.0  0.8509
  Co  Co4  1  0.463660  0.798950  0.915220  1.0  0.8264
  Co  Co5  1  0.121660  0.701710  0.423920  1.0  0.851
  Co  Co6  1  0.963660  0.701050  0.084780  1.0  0.8267
  Co  Co7  1  0.378340  0.298290  0.923920  1.0  0.8541
  Co  Co8  1  0.536340  0.298950  0.584780  1.0  0.8259
  C  C9  1  0.808670  0.211210  0.225180  1.0  0.521
  C  C10  1  0.845010  0.213510  0.330120  1.0  0.5501
  C  C11  1  0.071550  0.184540  0.160630  1.0  0.5646
  C  C12  1  0.109680  0.187490  0.266200  1.0  0.5102
  C  C13  1  0.995440  0.235610  0.953940  1.0  0.6415
  C  C14  1  0.148090  0.278870  0.937020  1.0  0.5896
  C  C15  1  0.942380  0.381980  0.062000  1.0  0.6012
  C  C16  1  0.983290  0.513380  0.065830  1.0  0.6105
  C  C17  1  0.259490  0.188120  0.457600  1.0  0.6023
  C  C18  1  0.408780  0.238780  0.476370  1.0  0.6343
  C  C19  1  0.895980  0.880620  0.090460  1.0  0.5818
  C  C20  1  0.859310  0.012670  0.081990  1.0  0.5437
  C  C21  1  0.691330  0.788790  0.725180  1.0  0.5215
  C  C22  1  0.654990  0.786490  0.830120  1.0  0.551
  C  C23  1  0.428450  0.815460  0.660630  1.0  0.5628
  C  C24  1  0.390320  0.812510  0.766200  1.0  0.5103
  C  C25  1  0.504560  0.764390  0.453940  1.0  0.6415
  C  C26  1  0.351910  0.721130  0.437020  1.0  0.5891
  C  C27  1  0.557620  0.618020  0.562000  1.0  0.6014
  C  C28  1  0.516710  0.486620  0.565830  1.0  0.6105
  C  C29  1  0.240510  0.811880  0.957600  1.0  0.6022
  C  C30  1  0.091220  0.761220  0.976370  1.0  0.6336
  C  C31  1  0.604020  0.119380  0.590460  1.0  0.5825
  C  C32  1  0.640690  0.987330  0.581990  1.0  0.544
  C  C33  1  0.191330  0.711210  0.274820  1.0  0.5209
  C  C34  1  0.154990  0.713510  0.169880  1.0  0.5503
  C  C35  1  0.928450  0.684540  0.339370  1.0  0.5632
  C  C36  1  0.890320  0.687490  0.233800  1.0  0.5102
  C  C37  1  0.004560  0.735610  0.546060  1.0  0.6429
  C  C38  1  0.851910  0.778870  0.562980  1.0  0.5881
  C  C39  1  0.057620  0.881980  0.438000  1.0  0.6011
  C  C40  1  0.016710  0.013380  0.434170  1.0  0.6102
  C  C41  1  0.740510  0.688120  0.042400  1.0  0.6026
  C  C42  1  0.591220  0.738780  0.023630  1.0  0.6347
  C  C43  1  0.104020  0.380620  0.409540  1.0  0.5826
  C  C44  1  0.140690  0.512670  0.418010  1.0  0.5437
  C  C45  1  0.308670  0.288790  0.774820  1.0  0.5206
  C  C46  1  0.345010  0.286490  0.669880  1.0  0.5495
  C  C47  1  0.571550  0.315460  0.839370  1.0  0.5642
  C  C48  1  0.609680  0.312510  0.733800  1.0  0.5097
  C  C49  1  0.495440  0.264390  0.046060  1.0  0.6414
  C  C50  1  0.648090  0.221130  0.062980  1.0  0.5886
  C  C51  1  0.442380  0.118020  0.938000  1.0  0.6008
  C  C52  1  0.483290  0.986620  0.934170  1.0  0.6104
  C  C53  1  0.759490  0.311880  0.542400  1.0  0.6018
  C  C54  1  0.908780  0.261220  0.523630  1.0  0.6354
  C  C55  1  0.395980  0.619380  0.909540  1.0  0.582
  C  C56  1  0.359310  0.487330  0.918010  1.0  0.544
  N  N57  1  0.828260  0.207640  0.171820  1.0  -0.3893
  N  N58  1  0.897720  0.214310  0.372690  1.0  -0.4876
  N  N59  1  0.778440  0.213290  0.285310  1.0  -0.5129
  N  N60  1  0.019840  0.189980  0.117230  1.0  -0.4844
  N  N61  1  0.093760  0.193170  0.320350  1.0  -0.4284
  N  N62  1  0.136590  0.178750  0.205820  1.0  -0.5185
  N  N63  1  0.934380  0.202060  0.979550  1.0  -0.558
  N  N64  1  0.229280  0.285260  0.947480  1.0  -0.5109
  N  N65  1  0.057200  0.275850  0.920310  1.0  -0.4594
  N  N66  1  0.901140  0.324760  0.072510  1.0  -0.5513
  N  N67  1  0.981220  0.578900  0.079040  1.0  -0.4154
  N  N68  1  0.997350  0.441450  0.045900  1.0  -0.4331
  N  N69  1  0.176330  0.188000  0.455570  1.0  -0.5068
  N  N70  1  0.466750  0.284840  0.491110  1.0  -0.4695
  N  N71  1  0.353420  0.181130  0.457400  1.0  -0.4883
  N  N72  1  0.939380  0.823070  0.087020  1.0  -0.4644
  N  N73  1  0.866620  0.078870  0.071950  1.0  -0.48
  N  N74  1  0.837070  0.939860  0.096540  1.0  -0.4699
  N  N75  1  0.671740  0.792360  0.671820  1.0  -0.3895
  N  N76  1  0.602280  0.785690  0.872690  1.0  -0.4886
  N  N77  1  0.721560  0.786710  0.785310  1.0  -0.511
  N  N78  1  0.480160  0.810020  0.617230  1.0  -0.4833
  N  N79  1  0.406240  0.806830  0.820350  1.0  -0.4283
  N  N80  1  0.363410  0.821250  0.705820  1.0  -0.5209
  N  N81  1  0.565620  0.797940  0.479550  1.0  -0.5573
  N  N82  1  0.270720  0.714740  0.447480  1.0  -0.5095
  N  N83  1  0.442800  0.724150  0.420310  1.0  -0.4591
  N  N84  1  0.598860  0.675240  0.572510  1.0  -0.5515
  N  N85  1  0.518780  0.421100  0.579040  1.0  -0.4162
  N  N86  1  0.502650  0.558550  0.545900  1.0  -0.4308
  N  N87  1  0.323670  0.812000  0.955570  1.0  -0.5084
  N  N88  1  0.033250  0.715160  0.991110  1.0  -0.4713
  N  N89  1  0.146580  0.818870  0.957400  1.0  -0.4898
  N  N90  1  0.560620  0.176930  0.587020  1.0  -0.4647
  N  N91  1  0.633380  0.921130  0.571950  1.0  -0.4784
  N  N92  1  0.662930  0.060140  0.596540  1.0  -0.4692
  N  N93  1  0.171740  0.707640  0.328180  1.0  -0.3907
  N  N94  1  0.102280  0.714310  0.127310  1.0  -0.4895
  N  N95  1  0.221560  0.713290  0.214690  1.0  -0.5102
  N  N96  1  0.980160  0.689980  0.382770  1.0  -0.4843
  N  N97  1  0.906240  0.693170  0.179650  1.0  -0.4294
  N  N98  1  0.863410  0.678750  0.294180  1.0  -0.5208
  N  N99  1  0.065620  0.702060  0.520450  1.0  -0.5581
  N  N100  1  0.770720  0.785260  0.552520  1.0  -0.5103
  N  N101  1  0.942800  0.775850  0.579690  1.0  -0.4541
  N  N102  1  0.098860  0.824760  0.427490  1.0  -0.5504
  N  N103  1  0.018780  0.078900  0.420960  1.0  -0.4164
  N  N104  1  0.002650  0.941450  0.454100  1.0  -0.4307
  N  N105  1  0.823670  0.688000  0.044430  1.0  -0.5102
  N  N106  1  0.533250  0.784840  0.008890  1.0  -0.4705
  N  N107  1  0.646580  0.681130  0.042600  1.0  -0.4892
  N  N108  1  0.060620  0.323070  0.412980  1.0  -0.4644
  N  N109  1  0.133380  0.578870  0.428050  1.0  -0.4793
  N  N110  1  0.162930  0.439860  0.403460  1.0  -0.4691
  N  N111  1  0.328260  0.292360  0.828180  1.0  -0.3893
  N  N112  1  0.397720  0.285690  0.627310  1.0  -0.4887
  N  N113  1  0.278440  0.286710  0.714690  1.0  -0.5134
  N  N114  1  0.519840  0.310020  0.882770  1.0  -0.4855
  N  N115  1  0.593760  0.306830  0.679650  1.0  -0.4288
  N  N116  1  0.636590  0.321250  0.794180  1.0  -0.5176
  N  N117  1  0.434380  0.297940  0.020450  1.0  -0.5597
  N  N118  1  0.729280  0.214740  0.052520  1.0  -0.5113
  N  N119  1  0.557200  0.224150  0.079690  1.0  -0.4552
  N  N120  1  0.401140  0.175240  0.927490  1.0  -0.5507
  N  N121  1  0.481220  0.921100  0.920960  1.0  -0.4165
  N  N122  1  0.497350  0.058550  0.954100  1.0  -0.4329
  N  N123  1  0.676330  0.312000  0.544430  1.0  -0.5101
  N  N124  1  0.966750  0.215160  0.508890  1.0  -0.4714
  N  N125  1  0.853420  0.318870  0.542600  1.0  -0.4889
  N  N126  1  0.439380  0.676930  0.912980  1.0  -0.4642
  N  N127  1  0.366620  0.421130  0.928050  1.0  -0.4789
  N  N128  1  0.337070  0.560140  0.903460  1.0  -0.4693
