# generated using pymatgen
data_Ni(C2N3)3
_symmetry_space_group_name_H-M   'P 1'
_cell_length_a   13.80390000
_cell_length_b   16.86790000
_cell_length_c   20.76390000
_cell_angle_alpha   90.00000000
_cell_angle_beta   90.00000000
_cell_angle_gamma   90.00000000
_symmetry_Int_Tables_number   1
_chemical_formula_structural   Ni(C2N3)3
_chemical_formula_sum   'Ni8 C48 N72'
_cell_volume   4834.72471479
_cell_formula_units_Z   8
loop_
 _symmetry_equiv_pos_site_id
 _symmetry_equiv_pos_as_xyz
  1  'x, y, z'
loop_
 _atom_site_type_symbol
 _atom_site_label
 _atom_site_symmetry_multiplicity
 _atom_site_fract_x
 _atom_site_fract_y
 _atom_site_fract_z
 _atom_site_occupancy
 _atom_site_charge
  Ni  Ni1  1  0.880000  0.203660  0.077070  1.0  0.6098
  Ni  Ni2  1  0.036690  0.202870  0.413620  1.0  0.5967
  Ni  Ni3  1  0.620000  0.796340  0.577070  1.0  0.6064
  Ni  Ni4  1  0.463310  0.797130  0.913620  1.0  0.5968
  Ni  Ni5  1  0.120000  0.703660  0.422930  1.0  0.6073
  Ni  Ni6  1  0.963310  0.702870  0.086380  1.0  0.597
  Ni  Ni7  1  0.380000  0.296340  0.922930  1.0  0.6091
  Ni  Ni8  1  0.536690  0.297130  0.586380  1.0  0.5963
  C  C9  1  0.810100  0.212490  0.224060  1.0  0.5107
  C  C10  1  0.847200  0.214750  0.328990  1.0  0.5219
  C  C11  1  0.070500  0.186310  0.160830  1.0  0.6024
  C  C12  1  0.110200  0.189100  0.266660  1.0  0.551
  C  C13  1  0.997500  0.237230  0.957000  1.0  0.6536
  C  C14  1  0.151900  0.279140  0.938530  1.0  0.625
  C  C15  1  0.940700  0.383420  0.063270  1.0  0.6254
  C  C16  1  0.980700  0.516360  0.067230  1.0  0.6364
  C  C17  1  0.257000  0.190640  0.456970  1.0  0.6163
  C  C18  1  0.408800  0.239850  0.478900  1.0  0.6661
  C  C19  1  0.898200  0.881910  0.091510  1.0  0.624
  C  C20  1  0.862300  0.015410  0.083000  1.0  0.6051
  C  C21  1  0.689900  0.787510  0.724060  1.0  0.5106
  C  C22  1  0.652800  0.785250  0.828990  1.0  0.5206
  C  C23  1  0.429500  0.813690  0.660830  1.0  0.6025
  C  C24  1  0.389800  0.810900  0.766660  1.0  0.5506
  C  C25  1  0.502500  0.762770  0.457000  1.0  0.654
  C  C26  1  0.348100  0.720860  0.438530  1.0  0.6248
  C  C27  1  0.559300  0.616580  0.563270  1.0  0.6259
  C  C28  1  0.519300  0.483640  0.567230  1.0  0.6361
  C  C29  1  0.243000  0.809360  0.956970  1.0  0.6165
  C  C30  1  0.091200  0.760150  0.978900  1.0  0.6652
  C  C31  1  0.601800  0.118090  0.591510  1.0  0.6223
  C  C32  1  0.637700  0.984590  0.583000  1.0  0.6049
  C  C33  1  0.189900  0.712490  0.275940  1.0  0.5105
  C  C34  1  0.152800  0.714750  0.171010  1.0  0.52
  C  C35  1  0.929500  0.686310  0.339170  1.0  0.6031
  C  C36  1  0.889800  0.689100  0.233340  1.0  0.5503
  C  C37  1  0.002500  0.737230  0.543000  1.0  0.6542
  C  C38  1  0.848100  0.779140  0.561470  1.0  0.6244
  C  C39  1  0.059300  0.883420  0.436730  1.0  0.6251
  C  C40  1  0.019300  0.016360  0.432770  1.0  0.6359
  C  C41  1  0.743000  0.690640  0.043030  1.0  0.6167
  C  C42  1  0.591200  0.739850  0.021100  1.0  0.6662
  C  C43  1  0.101800  0.381910  0.408490  1.0  0.6225
  C  C44  1  0.137700  0.515410  0.417000  1.0  0.6051
  C  C45  1  0.310100  0.287510  0.775940  1.0  0.5105
  C  C46  1  0.347200  0.285250  0.671010  1.0  0.5212
  C  C47  1  0.570500  0.313690  0.839170  1.0  0.6028
  C  C48  1  0.610200  0.310900  0.733340  1.0  0.5502
  C  C49  1  0.497500  0.262770  0.043000  1.0  0.6538
  C  C50  1  0.651900  0.220860  0.061470  1.0  0.6248
  C  C51  1  0.440700  0.116580  0.936730  1.0  0.6253
  C  C52  1  0.480700  0.983640  0.932770  1.0  0.6365
  C  C53  1  0.757000  0.309360  0.543030  1.0  0.616
  C  C54  1  0.908800  0.260150  0.521100  1.0  0.668
  C  C55  1  0.398200  0.618090  0.908490  1.0  0.6239
  C  C56  1  0.362300  0.484590  0.917000  1.0  0.6047
  N  N57  1  0.829750  0.209020  0.170560  1.0  -0.4033
  N  N58  1  0.901300  0.215130  0.370650  1.0  -0.5325
  N  N59  1  0.779800  0.214900  0.284130  1.0  -0.4915
  N  N60  1  0.019370  0.192520  0.117800  1.0  -0.4846
  N  N61  1  0.094320  0.195010  0.320620  1.0  -0.4233
  N  N62  1  0.136900  0.180000  0.206230  1.0  -0.4969
  N  N63  1  0.935950  0.204190  0.982760  1.0  -0.5277
  N  N64  1  0.233840  0.284600  0.947910  1.0  -0.5152
  N  N65  1  0.060110  0.277300  0.922730  1.0  -0.4484
  N  N66  1  0.901030  0.325390  0.074370  1.0  -0.5382
  N  N67  1  0.979550  0.582290  0.080920  1.0  -0.4171
  N  N68  1  0.993800  0.444290  0.046060  1.0  -0.4253
  N  N69  1  0.173800  0.191250  0.454290  1.0  -0.4943
  N  N70  1  0.466930  0.284150  0.494910  1.0  -0.4563
  N  N71  1  0.352100  0.182950  0.457750  1.0  -0.4556
  N  N72  1  0.941200  0.823750  0.089130  1.0  -0.4428
  N  N73  1  0.869160  0.082240  0.073110  1.0  -0.4386
  N  N74  1  0.839010  0.941880  0.096440  1.0  -0.4491
  N  N75  1  0.670250  0.790980  0.670560  1.0  -0.4027
  N  N76  1  0.598700  0.784870  0.870650  1.0  -0.5331
  N  N77  1  0.720200  0.785100  0.784130  1.0  -0.4896
  N  N78  1  0.480630  0.807480  0.617800  1.0  -0.4839
  N  N79  1  0.405680  0.804990  0.820620  1.0  -0.4238
  N  N80  1  0.363100  0.820000  0.706230  1.0  -0.5016
  N  N81  1  0.564050  0.795810  0.482760  1.0  -0.5283
  N  N82  1  0.266160  0.715400  0.447910  1.0  -0.5137
  N  N83  1  0.439890  0.722700  0.422730  1.0  -0.4471
  N  N84  1  0.598970  0.674610  0.574370  1.0  -0.5381
  N  N85  1  0.520450  0.417710  0.580920  1.0  -0.4181
  N  N86  1  0.506200  0.555710  0.546060  1.0  -0.4241
  N  N87  1  0.326200  0.808750  0.954290  1.0  -0.4953
  N  N88  1  0.033070  0.715850  0.994910  1.0  -0.4566
  N  N89  1  0.147900  0.817050  0.957750  1.0  -0.4575
  N  N90  1  0.558800  0.176250  0.589130  1.0  -0.4427
  N  N91  1  0.630840  0.917760  0.573110  1.0  -0.4399
  N  N92  1  0.660990  0.058120  0.596440  1.0  -0.4492
  N  N93  1  0.170250  0.709020  0.329440  1.0  -0.4022
  N  N94  1  0.098700  0.715130  0.129350  1.0  -0.5338
  N  N95  1  0.220200  0.714900  0.215870  1.0  -0.4896
  N  N96  1  0.980630  0.692520  0.382200  1.0  -0.484
  N  N97  1  0.905680  0.695010  0.179380  1.0  -0.4249
  N  N98  1  0.863100  0.680000  0.293770  1.0  -0.5016
  N  N99  1  0.064050  0.704190  0.517240  1.0  -0.5259
  N  N100  1  0.766160  0.784600  0.552090  1.0  -0.5144
  N  N101  1  0.939890  0.777300  0.577270  1.0  -0.4408
  N  N102  1  0.098970  0.825390  0.425630  1.0  -0.5375
  N  N103  1  0.020450  0.082290  0.419080  1.0  -0.4177
  N  N104  1  0.006200  0.944290  0.453940  1.0  -0.4238
  N  N105  1  0.826200  0.691250  0.045710  1.0  -0.4976
  N  N106  1  0.533070  0.784150  0.005090  1.0  -0.4566
  N  N107  1  0.647900  0.682950  0.042250  1.0  -0.4563
  N  N108  1  0.058800  0.323750  0.410870  1.0  -0.443
  N  N109  1  0.130840  0.582240  0.426890  1.0  -0.4379
  N  N110  1  0.160990  0.441880  0.403560  1.0  -0.4489
  N  N111  1  0.329750  0.290980  0.829440  1.0  -0.4018
  N  N112  1  0.401300  0.284870  0.629350  1.0  -0.5331
  N  N113  1  0.279800  0.285100  0.715870  1.0  -0.4919
  N  N114  1  0.519370  0.307480  0.882200  1.0  -0.4852
  N  N115  1  0.594320  0.304990  0.679380  1.0  -0.4244
  N  N116  1  0.636900  0.320000  0.793770  1.0  -0.4966
  N  N117  1  0.435950  0.295810  0.017240  1.0  -0.5263
  N  N118  1  0.733840  0.215400  0.052090  1.0  -0.5161
  N  N119  1  0.560110  0.222700  0.077270  1.0  -0.4446
  N  N120  1  0.401030  0.174610  0.925630  1.0  -0.5381
  N  N121  1  0.479550  0.917710  0.919080  1.0  -0.4181
  N  N122  1  0.493800  0.055710  0.953940  1.0  -0.4253
  N  N123  1  0.673800  0.308750  0.545710  1.0  -0.498
  N  N124  1  0.966930  0.215850  0.505090  1.0  -0.4551
  N  N125  1  0.852100  0.317050  0.542250  1.0  -0.4565
  N  N126  1  0.441200  0.676250  0.910870  1.0  -0.4421
  N  N127  1  0.369160  0.417760  0.926890  1.0  -0.4391
  N  N128  1  0.339010  0.558120  0.903560  1.0  -0.4488
