# generated using pymatgen
data_Co(C2N3)3
_symmetry_space_group_name_H-M   'P 1'
_cell_length_a   14.22280000
_cell_length_b   16.70500000
_cell_length_c   21.60200000
_cell_angle_alpha   90.00000000
_cell_angle_beta   90.00000000
_cell_angle_gamma   90.00000000
_symmetry_Int_Tables_number   1
_chemical_formula_structural   Co(C2N3)3
_chemical_formula_sum   'Co8 C48 N72'
_cell_volume   5132.45966215
_cell_formula_units_Z   8
loop_
 _symmetry_equiv_pos_site_id
 _symmetry_equiv_pos_as_xyz
  1  'x, y, z'
loop_
 _atom_site_type_symbol
 _atom_site_label
 _atom_site_symmetry_multiplicity
 _atom_site_fract_x
 _atom_site_fract_y
 _atom_site_fract_z
 _atom_site_occupancy
 _atom_site_charge
  Co  Co1  1  0.870760  0.268200  0.925220  1.0  0.8644
  Co  Co2  1  0.035650  0.269350  0.598470  1.0  0.8148
  Co  Co3  1  0.629240  0.731800  0.425220  1.0  0.8636
  Co  Co4  1  0.464350  0.730650  0.098470  1.0  0.8146
  Co  Co5  1  0.129240  0.768200  0.574780  1.0  0.8646
  Co  Co6  1  0.964350  0.769350  0.901530  1.0  0.8126
  Co  Co7  1  0.370760  0.231800  0.074780  1.0  0.8658
  Co  Co8  1  0.535650  0.230650  0.401530  1.0  0.8132
  C  C9  1  0.811280  0.242510  0.782110  1.0  0.5879
  C  C10  1  0.851790  0.251170  0.682300  1.0  0.5339
  C  C11  1  0.059060  0.291460  0.842710  1.0  0.5931
  C  C12  1  0.102330  0.290830  0.741870  1.0  0.5346
  C  C13  1  0.992000  0.278910  0.044500  1.0  0.6457
  C  C14  1  0.147700  0.256420  0.062570  1.0  0.6164
  C  C15  1  0.841670  0.459250  0.909070  1.0  0.6121
  C  C16  1  0.883600  0.590800  0.898000  1.0  0.6116
  C  C17  1  0.250600  0.291440  0.551930  1.0  0.5878
  C  C18  1  0.399910  0.275000  0.514270  1.0  0.6183
  C  C19  1  0.953850  0.950670  0.942680  1.0  0.5826
  C  C20  1  0.909470  0.080880  0.956130  1.0  0.5937
  C  C21  1  0.688720  0.757490  0.282110  1.0  0.5873
  C  C22  1  0.648210  0.748830  0.182300  1.0  0.5339
  C  C23  1  0.440940  0.708540  0.342710  1.0  0.5919
  C  C24  1  0.397670  0.709170  0.241870  1.0  0.5354
  C  C25  1  0.508000  0.721090  0.544500  1.0  0.6468
  C  C26  1  0.352300  0.743580  0.562570  1.0  0.6146
  C  C27  1  0.658330  0.540750  0.409070  1.0  0.6121
  C  C28  1  0.616400  0.409200  0.398000  1.0  0.6112
  C  C29  1  0.249400  0.708560  0.051930  1.0  0.589
  C  C30  1  0.100090  0.725000  0.014270  1.0  0.6164
  C  C31  1  0.546150  0.049330  0.442680  1.0  0.583
  C  C32  1  0.590530  0.919120  0.456130  1.0  0.5931
  C  C33  1  0.188720  0.742510  0.717890  1.0  0.5879
  C  C34  1  0.148210  0.751170  0.817700  1.0  0.5339
  C  C35  1  0.940940  0.791460  0.657290  1.0  0.5915
  C  C36  1  0.897670  0.790830  0.758130  1.0  0.5362
  C  C37  1  0.008000  0.778910  0.455500  1.0  0.6459
  C  C38  1  0.852300  0.756420  0.437430  1.0  0.6147
  C  C39  1  0.158330  0.959250  0.590930  1.0  0.6121
  C  C40  1  0.116400  0.090800  0.602000  1.0  0.6111
  C  C41  1  0.749400  0.791440  0.948070  1.0  0.588
  C  C42  1  0.600090  0.775000  0.985730  1.0  0.6167
  C  C43  1  0.046150  0.450670  0.557320  1.0  0.5831
  C  C44  1  0.090530  0.580880  0.543870  1.0  0.5936
  C  C45  1  0.311280  0.257490  0.217890  1.0  0.5882
  C  C46  1  0.351790  0.248830  0.317700  1.0  0.5342
  C  C47  1  0.559060  0.208540  0.157290  1.0  0.5925
  C  C48  1  0.602330  0.209170  0.258130  1.0  0.5359
  C  C49  1  0.492000  0.221090  0.955500  1.0  0.6447
  C  C50  1  0.647700  0.243580  0.937430  1.0  0.6169
  C  C51  1  0.341670  0.040750  0.090930  1.0  0.6125
  C  C52  1  0.383600  0.909200  0.102000  1.0  0.6122
  C  C53  1  0.750600  0.208560  0.448070  1.0  0.5875
  C  C54  1  0.899910  0.225000  0.485730  1.0  0.62
  C  C55  1  0.453850  0.549330  0.057320  1.0  0.5831
  C  C56  1  0.409470  0.419120  0.043870  1.0  0.594
  N  N57  1  0.826530  0.244290  0.834160  1.0  -0.4216
  N  N58  1  0.905050  0.259040  0.643240  1.0  -0.4776
  N  N59  1  0.785710  0.240620  0.723740  1.0  -0.5369
  N  N60  1  0.008830  0.283400  0.884370  1.0  -0.4997
  N  N61  1  0.092190  0.285530  0.689250  1.0  -0.537
  N  N62  1  0.124440  0.300350  0.800630  1.0  -0.5205
  N  N63  1  0.924430  0.287460  0.016300  1.0  -0.6274
  N  N64  1  0.225270  0.244950  0.050760  1.0  -0.5077
  N  N65  1  0.061920  0.269800  0.082670  1.0  -0.451
  N  N66  1  0.849430  0.391100  0.915650  1.0  -0.3631
  N  N67  1  0.931870  0.646020  0.895350  1.0  -0.5334
  N  N68  1  0.820240  0.534110  0.899980  1.0  -0.4703
  N  N69  1  0.170910  0.282850  0.557240  1.0  -0.4612
  N  N70  1  0.460900  0.251280  0.484450  1.0  -0.5677
  N  N71  1  0.341080  0.307860  0.552620  1.0  -0.4153
  N  N72  1  0.980340  0.894270  0.916730  1.0  -0.4922
  N  N73  1  0.893710  0.145920  0.941570  1.0  -0.4393
  N  N74  1  0.926170  0.009180  0.978360  1.0  -0.4683
  N  N75  1  0.673470  0.755710  0.334160  1.0  -0.4217
  N  N76  1  0.594950  0.740960  0.143240  1.0  -0.4774
  N  N77  1  0.714290  0.759380  0.223740  1.0  -0.533
  N  N78  1  0.491170  0.716600  0.384370  1.0  -0.4994
  N  N79  1  0.407810  0.714470  0.189250  1.0  -0.5364
  N  N80  1  0.375560  0.699650  0.300630  1.0  -0.5239
  N  N81  1  0.575570  0.712540  0.516300  1.0  -0.628
  N  N82  1  0.274730  0.755050  0.550760  1.0  -0.5073
  N  N83  1  0.438080  0.730200  0.582670  1.0  -0.4491
  N  N84  1  0.650570  0.608900  0.415650  1.0  -0.3614
  N  N85  1  0.568130  0.353980  0.395350  1.0  -0.5328
  N  N86  1  0.679760  0.465890  0.399980  1.0  -0.4709
  N  N87  1  0.329090  0.717150  0.057240  1.0  -0.4615
  N  N88  1  0.039100  0.748720  0.984450  1.0  -0.5681
  N  N89  1  0.158920  0.692140  0.052620  1.0  -0.4151
  N  N90  1  0.519660  0.105730  0.416730  1.0  -0.4929
  N  N91  1  0.606290  0.854080  0.441570  1.0  -0.439
  N  N92  1  0.573830  0.990820  0.478360  1.0  -0.4695
  N  N93  1  0.173470  0.744290  0.665840  1.0  -0.4209
  N  N94  1  0.094950  0.759040  0.856760  1.0  -0.48
  N  N95  1  0.214290  0.740620  0.776260  1.0  -0.5354
  N  N96  1  0.991170  0.783400  0.615630  1.0  -0.4986
  N  N97  1  0.907810  0.785530  0.810750  1.0  -0.5365
  N  N98  1  0.875560  0.800350  0.699370  1.0  -0.5239
  N  N99  1  0.075570  0.787460  0.483700  1.0  -0.6292
  N  N100  1  0.774730  0.744950  0.449240  1.0  -0.51
  N  N101  1  0.938080  0.769800  0.417330  1.0  -0.4505
  N  N102  1  0.150570  0.891100  0.584350  1.0  -0.3626
  N  N103  1  0.068130  0.146020  0.604650  1.0  -0.5338
  N  N104  1  0.179760  0.034110  0.600020  1.0  -0.4712
  N  N105  1  0.829090  0.782850  0.942760  1.0  -0.4641
  N  N106  1  0.539100  0.751280  0.015550  1.0  -0.5669
  N  N107  1  0.658920  0.807860  0.947380  1.0  -0.4151
  N  N108  1  0.019660  0.394270  0.583270  1.0  -0.4931
  N  N109  1  0.106290  0.645920  0.558430  1.0  -0.4389
  N  N110  1  0.073830  0.509180  0.521640  1.0  -0.4729
  N  N111  1  0.326530  0.255710  0.165840  1.0  -0.4225
  N  N112  1  0.405050  0.240960  0.356760  1.0  -0.4797
  N  N113  1  0.285710  0.259380  0.276260  1.0  -0.537
  N  N114  1  0.508830  0.216600  0.115630  1.0  -0.4993
  N  N115  1  0.592190  0.214470  0.310750  1.0  -0.5368
  N  N116  1  0.624440  0.199650  0.199370  1.0  -0.5214
  N  N117  1  0.424430  0.212540  0.983700  1.0  -0.6272
  N  N118  1  0.725270  0.255050  0.949240  1.0  -0.5108
  N  N119  1  0.561920  0.230200  0.917330  1.0  -0.4522
  N  N120  1  0.349430  0.108900  0.084350  1.0  -0.3619
  N  N121  1  0.431870  0.853980  0.104650  1.0  -0.5332
  N  N122  1  0.320240  0.965890  0.100020  1.0  -0.4703
  N  N123  1  0.670910  0.217150  0.442760  1.0  -0.4637
  N  N124  1  0.960900  0.248720  0.515550  1.0  -0.5666
  N  N125  1  0.841080  0.192140  0.447380  1.0  -0.4144
  N  N126  1  0.480340  0.605730  0.083270  1.0  -0.4931
  N  N127  1  0.393710  0.354080  0.058430  1.0  -0.4384
  N  N128  1  0.426170  0.490820  0.021640  1.0  -0.4727
