# generated using pymatgen
data_Mn(C2N3)3
_symmetry_space_group_name_H-M   'P 1'
_cell_length_a   14.37590000
_cell_length_b   16.90550000
_cell_length_c   21.63450000
_cell_angle_alpha   90.00000000
_cell_angle_beta   90.00000000
_cell_angle_gamma   90.00000000
_symmetry_Int_Tables_number   1
_chemical_formula_structural   Mn(C2N3)3
_chemical_formula_sum   'Mn8 C48 N72'
_cell_volume   5257.87098924
_cell_formula_units_Z   8
loop_
 _symmetry_equiv_pos_site_id
 _symmetry_equiv_pos_as_xyz
  1  'x, y, z'
loop_
 _atom_site_type_symbol
 _atom_site_label
 _atom_site_symmetry_multiplicity
 _atom_site_fract_x
 _atom_site_fract_y
 _atom_site_fract_z
 _atom_site_occupancy
 _atom_site_charge
  Mn  Mn1  1  0.865640  0.266980  0.929760  1.0  0.916
  Mn  Mn2  1  0.029260  0.268130  0.597130  1.0  0.9567
  Mn  Mn3  1  0.634360  0.733020  0.429760  1.0  0.9142
  Mn  Mn4  1  0.470740  0.731870  0.097130  1.0  0.9567
  Mn  Mn5  1  0.134360  0.766980  0.570240  1.0  0.9124
  Mn  Mn6  1  0.970740  0.768130  0.902870  1.0  0.9567
  Mn  Mn7  1  0.365640  0.233020  0.070240  1.0  0.9159
  Mn  Mn8  1  0.529260  0.231870  0.402870  1.0  0.9572
  C  C9  1  0.807380  0.247390  0.781370  1.0  0.6023
  C  C10  1  0.841010  0.252290  0.680330  1.0  0.5446
  C  C11  1  0.056780  0.293460  0.847290  1.0  0.5348
  C  C12  1  0.094360  0.290500  0.745610  1.0  0.554
  C  C13  1  0.982630  0.281410  0.052490  1.0  0.6789
  C  C14  1  0.138270  0.264130  0.064990  1.0  0.6053
  C  C15  1  0.836110  0.461660  0.914660  1.0  0.5596
  C  C16  1  0.882830  0.589030  0.902230  1.0  0.6383
  C  C17  1  0.247240  0.298190  0.550700  1.0  0.593
  C  C18  1  0.396210  0.278850  0.517650  1.0  0.6443
  C  C19  1  0.962420  0.950970  0.942990  1.0  0.6029
  C  C20  1  0.910870  0.076620  0.958010  1.0  0.6251
  C  C21  1  0.692620  0.752610  0.281370  1.0  0.601
  C  C22  1  0.658990  0.747710  0.180330  1.0  0.5447
  C  C23  1  0.443220  0.706540  0.347290  1.0  0.5359
  C  C24  1  0.405640  0.709500  0.245610  1.0  0.5551
  C  C25  1  0.517370  0.718590  0.552490  1.0  0.6789
  C  C26  1  0.361730  0.735870  0.564990  1.0  0.6041
  C  C27  1  0.663890  0.538340  0.414660  1.0  0.5598
  C  C28  1  0.617170  0.410970  0.402230  1.0  0.6383
  C  C29  1  0.252760  0.701810  0.050700  1.0  0.5948
  C  C30  1  0.103790  0.721150  0.017650  1.0  0.6415
  C  C31  1  0.537580  0.049030  0.442990  1.0  0.6038
  C  C32  1  0.589130  0.923380  0.458010  1.0  0.6239
  C  C33  1  0.192620  0.747390  0.718630  1.0  0.6005
  C  C34  1  0.158990  0.752290  0.819670  1.0  0.5428
  C  C35  1  0.943220  0.793460  0.652710  1.0  0.5357
  C  C36  1  0.905640  0.790500  0.754390  1.0  0.5546
  C  C37  1  0.017370  0.781410  0.447510  1.0  0.6789
  C  C38  1  0.861730  0.764130  0.435010  1.0  0.6043
  C  C39  1  0.163890  0.961660  0.585340  1.0  0.5598
  C  C40  1  0.117170  0.089030  0.597770  1.0  0.6393
  C  C41  1  0.752760  0.798190  0.949300  1.0  0.5945
  C  C42  1  0.603790  0.778850  0.982350  1.0  0.6423
  C  C43  1  0.037580  0.450970  0.557010  1.0  0.6035
  C  C44  1  0.089130  0.576620  0.541990  1.0  0.625
  C  C45  1  0.307380  0.252610  0.218630  1.0  0.6017
  C  C46  1  0.341010  0.247710  0.319670  1.0  0.5422
  C  C47  1  0.556780  0.206540  0.152710  1.0  0.5347
  C  C48  1  0.594360  0.209500  0.254390  1.0  0.5538
  C  C49  1  0.482630  0.218590  0.947510  1.0  0.6786
  C  C50  1  0.638270  0.235870  0.935010  1.0  0.6052
  C  C51  1  0.336110  0.038340  0.085340  1.0  0.5601
  C  C52  1  0.382830  0.910970  0.097770  1.0  0.6398
  C  C53  1  0.747240  0.201810  0.449300  1.0  0.593
  C  C54  1  0.896210  0.221150  0.482350  1.0  0.6434
  C  C55  1  0.462420  0.549030  0.057010  1.0  0.6035
  C  C56  1  0.410870  0.423380  0.041990  1.0  0.6249
  N  N57  1  0.824600  0.245250  0.832910  1.0  -0.4409
  N  N58  1  0.889570  0.252750  0.638930  1.0  -0.5276
  N  N59  1  0.778250  0.252310  0.724310  1.0  -0.5269
  N  N60  1  0.009370  0.285710  0.890300  1.0  -0.4986
  N  N61  1  0.082250  0.282500  0.693290  1.0  -0.512
  N  N62  1  0.117920  0.302350  0.803560  1.0  -0.4882
  N  N63  1  0.911820  0.281220  0.027940  1.0  -0.6187
  N  N64  1  0.213230  0.248930  0.051060  1.0  -0.5321
  N  N65  1  0.056780  0.284720  0.086380  1.0  -0.4717
  N  N66  1  0.842720  0.394570  0.923320  1.0  -0.406
  N  N67  1  0.933470  0.641420  0.899210  1.0  -0.5324
  N  N68  1  0.817250  0.535440  0.903980  1.0  -0.5197
  N  N69  1  0.168880  0.287220  0.555740  1.0  -0.4877
  N  N70  1  0.457690  0.250930  0.492480  1.0  -0.5729
  N  N71  1  0.335290  0.317500  0.550190  1.0  -0.4438
  N  N72  1  0.992300  0.897730  0.915530  1.0  -0.5174
  N  N73  1  0.892190  0.140490  0.944610  1.0  -0.4767
  N  N74  1  0.930480  0.005890  0.979570  1.0  -0.475
  N  N75  1  0.675400  0.754750  0.332910  1.0  -0.4427
  N  N76  1  0.610430  0.747250  0.138930  1.0  -0.5278
  N  N77  1  0.721750  0.747690  0.224310  1.0  -0.5255
  N  N78  1  0.490630  0.714290  0.390300  1.0  -0.4994
  N  N79  1  0.417750  0.717500  0.193290  1.0  -0.5095
  N  N80  1  0.382080  0.697650  0.303560  1.0  -0.4908
  N  N81  1  0.588180  0.718780  0.527940  1.0  -0.6183
  N  N82  1  0.286770  0.751070  0.551060  1.0  -0.5321
  N  N83  1  0.443220  0.715280  0.586380  1.0  -0.4711
  N  N84  1  0.657280  0.605430  0.423320  1.0  -0.4055
  N  N85  1  0.566530  0.358580  0.399210  1.0  -0.5311
  N  N86  1  0.682750  0.464560  0.403980  1.0  -0.5204
  N  N87  1  0.331120  0.712780  0.055740  1.0  -0.4891
  N  N88  1  0.042310  0.749070  0.992480  1.0  -0.5738
  N  N89  1  0.164710  0.682500  0.050190  1.0  -0.4421
  N  N90  1  0.507700  0.102270  0.415530  1.0  -0.5197
  N  N91  1  0.607810  0.859510  0.444610  1.0  -0.4762
  N  N92  1  0.569520  0.994110  0.479570  1.0  -0.4707
  N  N93  1  0.175400  0.745250  0.667090  1.0  -0.4427
  N  N94  1  0.110430  0.752750  0.861070  1.0  -0.5339
  N  N95  1  0.221750  0.752310  0.775690  1.0  -0.526
  N  N96  1  0.990630  0.785710  0.609700  1.0  -0.4967
  N  N97  1  0.917750  0.782500  0.806710  1.0  -0.5102
  N  N98  1  0.882080  0.802350  0.696440  1.0  -0.491
  N  N99  1  0.088180  0.781220  0.472060  1.0  -0.6193
  N  N100  1  0.786770  0.748930  0.448940  1.0  -0.535
  N  N101  1  0.943220  0.784720  0.413620  1.0  -0.478
  N  N102  1  0.157280  0.894570  0.576680  1.0  -0.4063
  N  N103  1  0.066530  0.141420  0.600790  1.0  -0.5322
  N  N104  1  0.182750  0.035440  0.596020  1.0  -0.5194
  N  N105  1  0.831120  0.787220  0.944260  1.0  -0.4883
  N  N106  1  0.542310  0.750930  0.007520  1.0  -0.5698
  N  N107  1  0.664710  0.817500  0.949810  1.0  -0.4428
  N  N108  1  0.007700  0.397730  0.584470  1.0  -0.5188
  N  N109  1  0.107810  0.640490  0.555390  1.0  -0.4766
  N  N110  1  0.069520  0.505890  0.520430  1.0  -0.474
  N  N111  1  0.324600  0.254750  0.167090  1.0  -0.4421
  N  N112  1  0.389570  0.247250  0.361070  1.0  -0.5326
  N  N113  1  0.278250  0.247690  0.275690  1.0  -0.528
  N  N114  1  0.509370  0.214290  0.109700  1.0  -0.4963
  N  N115  1  0.582250  0.217500  0.306710  1.0  -0.5114
  N  N116  1  0.617920  0.197650  0.196440  1.0  -0.4886
  N  N117  1  0.411820  0.218780  0.972060  1.0  -0.6194
  N  N118  1  0.713230  0.251070  0.948940  1.0  -0.5359
  N  N119  1  0.556780  0.215280  0.913620  1.0  -0.4738
  N  N120  1  0.342720  0.105430  0.076680  1.0  -0.4065
  N  N121  1  0.433470  0.858580  0.100790  1.0  -0.5323
  N  N122  1  0.317250  0.964560  0.096020  1.0  -0.5199
  N  N123  1  0.668880  0.212780  0.444260  1.0  -0.4884
  N  N124  1  0.957690  0.249070  0.507520  1.0  -0.57
  N  N125  1  0.835290  0.182500  0.449810  1.0  -0.4412
  N  N126  1  0.492300  0.602270  0.084470  1.0  -0.5208
  N  N127  1  0.392190  0.359510  0.055390  1.0  -0.4763
  N  N128  1  0.430480  0.494110  0.020430  1.0  -0.4738
