# generated using pymatgen
data_Ni3H16C30(NO7)2
_symmetry_space_group_name_H-M   'P 1'
_cell_length_a   12.23150000
_cell_length_b   12.44280000
_cell_length_c   17.74830000
_cell_angle_alpha   90.00000000
_cell_angle_beta   90.00000000
_cell_angle_gamma   112.51000000
_symmetry_Int_Tables_number   1
_chemical_formula_structural   Ni3H16C30(NO7)2
_chemical_formula_sum   'Ni6 H32 C60 N4 O28'
_cell_volume   2495.39064432
_cell_formula_units_Z   2
loop_
 _symmetry_equiv_pos_site_id
 _symmetry_equiv_pos_as_xyz
  1  'x, y, z'
loop_
 _atom_site_type_symbol
 _atom_site_label
 _atom_site_symmetry_multiplicity
 _atom_site_fract_x
 _atom_site_fract_y
 _atom_site_fract_z
 _atom_site_occupancy
 _atom_site_charge
  Ni  Ni1  1  0.154370  0.061030  0.295520  1.0  0.5435
  Ni  Ni2  1  0.345630  0.938970  0.795520  1.0  0.5433
  Ni  Ni3  1  0.845630  0.938970  0.704480  1.0  0.5435
  Ni  Ni4  1  0.654370  0.061030  0.204480  1.0  0.5436
  Ni  Ni5  1  0.000000  0.500000  0.500000  1.0  0.4905
  Ni  Ni6  1  0.500000  0.500000  0.000000  1.0  0.4905
  H  H7  1  0.747200  0.376100  0.321300  1.0  0.1291
  H  H8  1  0.469100  0.410600  0.215700  1.0  0.1407
  H  H9  1  0.650200  0.642100  0.376000  1.0  0.1359
  H  H10  1  0.433600  0.588800  0.233100  1.0  0.1135
  H  H11  1  0.510300  0.684700  0.293300  1.0  0.1031
  H  H12  1  0.351200  0.731400  0.270600  1.0  0.1475
  H  H13  1  0.068900  0.714100  0.396300  1.0  0.1117
  H  H14  1  0.211500  0.483800  0.427600  1.0  0.114
  H  H15  1  0.752800  0.623900  0.821300  1.0  0.1286
  H  H16  1  0.030900  0.589400  0.715700  1.0  0.1415
  H  H17  1  0.849800  0.357900  0.876000  1.0  0.1364
  H  H18  1  0.066400  0.411200  0.733100  1.0  0.1135
  H  H19  1  0.989700  0.315300  0.793300  1.0  0.1041
  H  H20  1  0.148800  0.268600  0.770600  1.0  0.1478
  H  H21  1  0.431100  0.285900  0.896300  1.0  0.1122
  H  H22  1  0.288500  0.516200  0.927600  1.0  0.1149
  H  H23  1  0.252800  0.623900  0.678700  1.0  0.1295
  H  H24  1  0.530900  0.589400  0.784300  1.0  0.1415
  H  H25  1  0.349800  0.357900  0.624000  1.0  0.1354
  H  H26  1  0.566400  0.411200  0.766900  1.0  0.1137
  H  H27  1  0.489700  0.315300  0.706700  1.0  0.1037
  H  H28  1  0.648800  0.268600  0.729400  1.0  0.1484
  H  H29  1  0.931100  0.285900  0.603700  1.0  0.1113
  H  H30  1  0.788500  0.516200  0.572400  1.0  0.1155
  H  H31  1  0.247200  0.376100  0.178700  1.0  0.1291
  H  H32  1  0.969100  0.410600  0.284300  1.0  0.141
  H  H33  1  0.150200  0.642100  0.124000  1.0  0.1357
  H  H34  1  0.933600  0.588800  0.266900  1.0  0.1134
  H  H35  1  0.010300  0.684700  0.206700  1.0  0.103
  H  H36  1  0.851200  0.731400  0.229400  1.0  0.1476
  H  H37  1  0.568900  0.714100  0.103700  1.0  0.1117
  H  H38  1  0.711500  0.483800  0.072400  1.0  0.1143
  C  C39  1  0.808100  0.553500  0.417100  1.0  0.7352
  C  C40  1  0.713600  0.515600  0.358200  1.0  -0.1382
  C  C41  1  0.696200  0.416800  0.314600  1.0  -0.0182
  C  C42  1  0.605900  0.377000  0.261800  1.0  -0.1268
  C  C43  1  0.531700  0.437400  0.251400  1.0  -0.0796
  C  C44  1  0.549800  0.537200  0.293400  1.0  0.0691
  C  C45  1  0.639500  0.574800  0.346900  1.0  -0.0777
  C  C46  1  0.587300  0.268800  0.218300  1.0  0.7158
  C  C47  1  0.467700  0.600300  0.284500  1.0  0.0709
  C  C48  1  0.295800  0.601700  0.348100  1.0  0.2782
  C  C49  1  0.294800  0.696300  0.309100  1.0  -0.1274
  C  C50  1  0.208100  0.739500  0.327800  1.0  -0.1245
  C  C51  1  0.126700  0.683700  0.383100  1.0  0.1962
  C  C52  1  0.210200  0.550200  0.401800  1.0  0.1472
  C  C53  1  0.207100  0.846300  0.289300  1.0  0.754
  C  C54  1  0.691900  0.446500  0.917100  1.0  0.7367
  C  C55  1  0.786400  0.484400  0.858200  1.0  -0.1361
  C  C56  1  0.803800  0.583200  0.814600  1.0  -0.0177
  C  C57  1  0.894100  0.623000  0.761800  1.0  -0.1265
  C  C58  1  0.968300  0.562600  0.751400  1.0  -0.0788
  C  C59  1  0.950200  0.462800  0.793400  1.0  0.068
  C  C60  1  0.860500  0.425200  0.846900  1.0  -0.0764
  C  C61  1  0.912700  0.731200  0.718300  1.0  0.7172
  C  C62  1  0.032300  0.399700  0.784500  1.0  0.0724
  C  C63  1  0.204200  0.398300  0.848100  1.0  0.2776
  C  C64  1  0.205200  0.303700  0.809100  1.0  -0.1278
  C  C65  1  0.291900  0.260500  0.827800  1.0  -0.1237
  C  C66  1  0.373300  0.316300  0.883100  1.0  0.1978
  C  C67  1  0.289800  0.449800  0.901800  1.0  0.1452
  C  C68  1  0.292900  0.153700  0.789300  1.0  0.75
  C  C69  1  0.191900  0.446500  0.582900  1.0  0.721
  C  C70  1  0.286400  0.484400  0.641800  1.0  -0.1376
  C  C71  1  0.303800  0.583200  0.685400  1.0  -0.0178
  C  C72  1  0.394100  0.623000  0.738200  1.0  -0.1255
  C  C73  1  0.468300  0.562600  0.748600  1.0  -0.0791
  C  C74  1  0.450200  0.462800  0.706600  1.0  0.0672
  C  C75  1  0.360500  0.425200  0.653100  1.0  -0.0748
  C  C76  1  0.412700  0.731200  0.781700  1.0  0.7161
  C  C77  1  0.532300  0.399700  0.715500  1.0  0.0735
  C  C78  1  0.704200  0.398300  0.651900  1.0  0.2769
  C  C79  1  0.705200  0.303700  0.690900  1.0  -0.1277
  C  C80  1  0.791900  0.260500  0.672200  1.0  -0.1251
  C  C81  1  0.873300  0.316300  0.616900  1.0  0.1966
  C  C82  1  0.789800  0.449800  0.598200  1.0  0.1467
  C  C83  1  0.792900  0.153700  0.710700  1.0  0.7525
  C  C84  1  0.308100  0.553500  0.082900  1.0  0.7208
  C  C85  1  0.213600  0.515600  0.141800  1.0  -0.1383
  C  C86  1  0.196200  0.416800  0.185400  1.0  -0.0185
  C  C87  1  0.105900  0.377000  0.238200  1.0  -0.1279
  C  C88  1  0.031700  0.437400  0.248600  1.0  -0.0802
  C  C89  1  0.049800  0.537200  0.206600  1.0  0.0673
  C  C90  1  0.139500  0.574800  0.153100  1.0  -0.0747
  C  C91  1  0.087300  0.268800  0.281700  1.0  0.7172
  C  C92  1  0.967700  0.600300  0.215500  1.0  0.0714
  C  C93  1  0.795800  0.601700  0.151900  1.0  0.2773
  C  C94  1  0.794800  0.696300  0.190900  1.0  -0.1281
  C  C95  1  0.708100  0.739500  0.172200  1.0  -0.1258
  C  C96  1  0.626700  0.683700  0.116900  1.0  0.1968
  C  C97  1  0.710200  0.550200  0.098200  1.0  0.1468
  C  C98  1  0.707100  0.846300  0.210700  1.0  0.7561
  N  N99  1  0.125700  0.588700  0.419170  1.0  -0.2843
  N  N100  1  0.374300  0.411300  0.919170  1.0  -0.2836
  N  N101  1  0.874300  0.411300  0.580830  1.0  -0.2841
  N  N102  1  0.625700  0.588700  0.080830  1.0  -0.2864
  O  O103  1  0.871000  0.494400  0.423860  1.0  -0.6
  O  O104  1  0.817700  0.640700  0.457180  1.0  -0.5422
  O  O105  1  0.501600  0.231600  0.172010  1.0  -0.5595
  O  O106  1  0.660900  0.222200  0.229830  1.0  -0.6048
  O  O107  1  0.376600  0.551200  0.339580  1.0  -0.2831
  O  O108  1  0.149400  0.898400  0.320610  1.0  -0.6206
  O  O109  1  0.265600  0.875700  0.228590  1.0  -0.5543
  O  O110  1  0.629000  0.505600  0.923860  1.0  -0.6002
  O  O111  1  0.682300  0.359300  0.957180  1.0  -0.5431
  O  O112  1  0.998400  0.768400  0.672010  1.0  -0.5622
  O  O113  1  0.839100  0.777800  0.729830  1.0  -0.6052
  O  O114  1  0.123400  0.448800  0.839580  1.0  -0.2828
  O  O115  1  0.350600  0.101600  0.820610  1.0  -0.6186
  O  O116  1  0.234400  0.124300  0.728590  1.0  -0.5545
  O  O117  1  0.129000  0.505600  0.576140  1.0  -0.5998
  O  O118  1  0.182300  0.359300  0.542820  1.0  -0.5445
  O  O119  1  0.498400  0.768400  0.827990  1.0  -0.5644
  O  O120  1  0.339100  0.777800  0.770170  1.0  -0.6056
  O  O121  1  0.623400  0.448800  0.660420  1.0  -0.2848
  O  O122  1  0.850600  0.101600  0.679390  1.0  -0.6179
  O  O123  1  0.734400  0.124300  0.771410  1.0  -0.5583
  O  O124  1  0.371000  0.494400  0.076140  1.0  -0.5998
  O  O125  1  0.317700  0.640700  0.042820  1.0  -0.5424
  O  O126  1  0.001600  0.231600  0.327990  1.0  -0.5629
  O  O127  1  0.160900  0.222200  0.270170  1.0  -0.6047
  O  O128  1  0.876600  0.551200  0.160420  1.0  -0.2859
  O  O129  1  0.649400  0.898400  0.179390  1.0  -0.6223
  O  O130  1  0.765600  0.875700  0.271410  1.0  -0.5572
