# generated using pymatgen
data_Ni(C2N3)3
_symmetry_space_group_name_H-M   'P 1'
_cell_length_a   14.11920000
_cell_length_b   16.65450000
_cell_length_c   21.58330000
_cell_angle_alpha   90.00000000
_cell_angle_beta   90.00000000
_cell_angle_gamma   90.00000000
_symmetry_Int_Tables_number   1
_chemical_formula_structural   Ni(C2N3)3
_chemical_formula_sum   'Ni8 C48 N72'
_cell_volume   5075.27449903
_cell_formula_units_Z   8
loop_
 _symmetry_equiv_pos_site_id
 _symmetry_equiv_pos_as_xyz
  1  'x, y, z'
loop_
 _atom_site_type_symbol
 _atom_site_label
 _atom_site_symmetry_multiplicity
 _atom_site_fract_x
 _atom_site_fract_y
 _atom_site_fract_z
 _atom_site_occupancy
 _atom_site_charge
  Ni  Ni1  1  0.874120  0.268980  0.923330  1.0  0.574
  Ni  Ni2  1  0.036890  0.270030  0.598680  1.0  0.5262
  Ni  Ni3  1  0.625880  0.731020  0.423330  1.0  0.5733
  Ni  Ni4  1  0.463110  0.729970  0.098680  1.0  0.5255
  Ni  Ni5  1  0.125880  0.768980  0.576670  1.0  0.5731
  Ni  Ni6  1  0.963110  0.770030  0.901320  1.0  0.525
  Ni  Ni7  1  0.374120  0.231020  0.076670  1.0  0.5745
  Ni  Ni8  1  0.536890  0.229970  0.401320  1.0  0.5254
  C  C9  1  0.812920  0.244430  0.782320  1.0  0.571
  C  C10  1  0.854800  0.251980  0.682620  1.0  0.5537
  C  C11  1  0.060610  0.290960  0.841020  1.0  0.6141
  C  C12  1  0.104360  0.291290  0.739880  1.0  0.5625
  C  C13  1  0.996100  0.276880  0.041470  1.0  0.6708
  C  C14  1  0.152600  0.253390  0.061520  1.0  0.6145
  C  C15  1  0.845480  0.458990  0.907470  1.0  0.628
  C  C16  1  0.886000  0.591870  0.897120  1.0  0.6229
  C  C17  1  0.250000  0.290440  0.550470  1.0  0.6038
  C  C18  1  0.400500  0.273420  0.512050  1.0  0.62
  C  C19  1  0.952400  0.950990  0.941280  1.0  0.6013
  C  C20  1  0.909740  0.082490  0.953520  1.0  0.6363
  C  C21  1  0.687080  0.755570  0.282320  1.0  0.5706
  C  C22  1  0.645200  0.748020  0.182620  1.0  0.5524
  C  C23  1  0.439390  0.709040  0.341020  1.0  0.6134
  C  C24  1  0.395640  0.708710  0.239880  1.0  0.5626
  C  C25  1  0.503900  0.723120  0.541470  1.0  0.6724
  C  C26  1  0.347400  0.746610  0.561520  1.0  0.6121
  C  C27  1  0.654520  0.541010  0.407470  1.0  0.6271
  C  C28  1  0.614000  0.408130  0.397120  1.0  0.623
  C  C29  1  0.250000  0.709560  0.050470  1.0  0.6051
  C  C30  1  0.099500  0.726580  0.012050  1.0  0.6199
  C  C31  1  0.547600  0.049010  0.441280  1.0  0.6028
  C  C32  1  0.590260  0.917510  0.453520  1.0  0.6355
  C  C33  1  0.187080  0.744430  0.717680  1.0  0.5702
  C  C34  1  0.145200  0.751980  0.817380  1.0  0.553
  C  C35  1  0.939390  0.790960  0.658980  1.0  0.6132
  C  C36  1  0.895640  0.791290  0.760120  1.0  0.5628
  C  C37  1  0.003900  0.776880  0.458530  1.0  0.6708
  C  C38  1  0.847400  0.753390  0.438480  1.0  0.6126
  C  C39  1  0.154520  0.958990  0.592530  1.0  0.6272
  C  C40  1  0.114000  0.091870  0.602880  1.0  0.6233
  C  C41  1  0.750000  0.790440  0.949530  1.0  0.6052
  C  C42  1  0.599500  0.773420  0.987950  1.0  0.6203
  C  C43  1  0.047600  0.450990  0.558720  1.0  0.6026
  C  C44  1  0.090260  0.582490  0.546480  1.0  0.6364
  C  C45  1  0.312920  0.255570  0.217680  1.0  0.5707
  C  C46  1  0.354800  0.248020  0.317380  1.0  0.5542
  C  C47  1  0.560610  0.209040  0.158980  1.0  0.6137
  C  C48  1  0.604360  0.208710  0.260120  1.0  0.5631
  C  C49  1  0.496100  0.223120  0.958530  1.0  0.67
  C  C50  1  0.652600  0.246610  0.938480  1.0  0.6155
  C  C51  1  0.345480  0.041010  0.092530  1.0  0.6285
  C  C52  1  0.386000  0.908130  0.102880  1.0  0.6239
  C  C53  1  0.750000  0.209560  0.449530  1.0  0.6042
  C  C54  1  0.900500  0.226580  0.487950  1.0  0.6218
  C  C55  1  0.452400  0.549010  0.058720  1.0  0.602
  C  C56  1  0.409740  0.417510  0.046480  1.0  0.6361
  N  N57  1  0.828280  0.246610  0.834440  1.0  -0.3956
  N  N58  1  0.908760  0.260210  0.643860  1.0  -0.5431
  N  N59  1  0.787590  0.241960  0.723720  1.0  -0.4879
  N  N60  1  0.009510  0.282650  0.882310  1.0  -0.5009
  N  N61  1  0.094700  0.285910  0.687180  1.0  -0.5088
  N  N62  1  0.126210  0.300440  0.799050  1.0  -0.5078
  N  N63  1  0.929650  0.287470  0.012180  1.0  -0.5152
  N  N64  1  0.231220  0.243000  0.051100  1.0  -0.4673
  N  N65  1  0.064980  0.265010  0.080640  1.0  -0.449
  N  N66  1  0.853860  0.390630  0.913990  1.0  -0.3684
  N  N67  1  0.932690  0.647870  0.894510  1.0  -0.4489
  N  N68  1  0.822770  0.534200  0.898860  1.0  -0.4545
  N  N69  1  0.169720  0.281850  0.556900  1.0  -0.4318
  N  N70  1  0.462170  0.249450  0.482600  1.0  -0.5753
  N  N71  1  0.340700  0.306980  0.550550  1.0  -0.4011
  N  N72  1  0.978400  0.893210  0.915850  1.0  -0.454
  N  N73  1  0.895360  0.147700  0.938900  1.0  -0.4542
  N  N74  1  0.925320  0.010570  0.976070  1.0  -0.4371
  N  N75  1  0.671720  0.753390  0.334440  1.0  -0.3962
  N  N76  1  0.591240  0.739790  0.143860  1.0  -0.5421
  N  N77  1  0.712410  0.758040  0.223720  1.0  -0.4878
  N  N78  1  0.490490  0.717350  0.382310  1.0  -0.5003
  N  N79  1  0.405300  0.714090  0.187180  1.0  -0.5088
  N  N80  1  0.373790  0.699560  0.299050  1.0  -0.5098
  N  N81  1  0.570350  0.712530  0.512180  1.0  -0.5139
  N  N82  1  0.268780  0.757000  0.551100  1.0  -0.4662
  N  N83  1  0.435020  0.734990  0.580640  1.0  -0.4447
  N  N84  1  0.646140  0.609370  0.413990  1.0  -0.3663
  N  N85  1  0.567310  0.352130  0.394510  1.0  -0.4484
  N  N86  1  0.677230  0.465800  0.398860  1.0  -0.4551
  N  N87  1  0.330280  0.718150  0.056900  1.0  -0.4302
  N  N88  1  0.037830  0.750550  0.982600  1.0  -0.5755
  N  N89  1  0.159300  0.693020  0.050550  1.0  -0.3999
  N  N90  1  0.521600  0.106790  0.415850  1.0  -0.4527
  N  N91  1  0.604640  0.852300  0.438900  1.0  -0.4546
  N  N92  1  0.574680  0.989430  0.476070  1.0  -0.4368
  N  N93  1  0.171720  0.746610  0.665560  1.0  -0.3939
  N  N94  1  0.091240  0.760210  0.856140  1.0  -0.5436
  N  N95  1  0.212410  0.741960  0.776280  1.0  -0.4872
  N  N96  1  0.990490  0.782650  0.617690  1.0  -0.4999
  N  N97  1  0.905300  0.785910  0.812820  1.0  -0.511
  N  N98  1  0.873790  0.800440  0.700950  1.0  -0.5103
  N  N99  1  0.070350  0.787470  0.487820  1.0  -0.5147
  N  N100  1  0.768780  0.743000  0.448900  1.0  -0.4691
  N  N101  1  0.935020  0.765010  0.419360  1.0  -0.4398
  N  N102  1  0.146140  0.890630  0.586010  1.0  -0.3689
  N  N103  1  0.067310  0.147870  0.605490  1.0  -0.4495
  N  N104  1  0.177230  0.034200  0.601140  1.0  -0.4553
  N  N105  1  0.830280  0.781850  0.943100  1.0  -0.4323
  N  N106  1  0.537830  0.749450  0.017400  1.0  -0.5739
  N  N107  1  0.659300  0.806980  0.949450  1.0  -0.4003
  N  N108  1  0.021600  0.393210  0.584150  1.0  -0.454
  N  N109  1  0.104640  0.647700  0.561100  1.0  -0.4536
  N  N110  1  0.074680  0.510570  0.523930  1.0  -0.441
  N  N111  1  0.328280  0.253390  0.165560  1.0  -0.3958
  N  N112  1  0.408760  0.239790  0.356140  1.0  -0.5448
  N  N113  1  0.287590  0.258040  0.276280  1.0  -0.4878
  N  N114  1  0.509510  0.217350  0.117690  1.0  -0.5003
  N  N115  1  0.594700  0.214090  0.312820  1.0  -0.5109
  N  N116  1  0.626210  0.199560  0.200950  1.0  -0.5089
  N  N117  1  0.429650  0.212530  0.987820  1.0  -0.5139
  N  N118  1  0.731220  0.257000  0.948900  1.0  -0.4702
  N  N119  1  0.564980  0.234990  0.919360  1.0  -0.4483
  N  N120  1  0.353860  0.109370  0.086010  1.0  -0.3662
  N  N121  1  0.432690  0.852130  0.105490  1.0  -0.4483
  N  N122  1  0.322770  0.965800  0.101140  1.0  -0.4547
  N  N123  1  0.669720  0.218150  0.443100  1.0  -0.4333
  N  N124  1  0.962170  0.250550  0.517400  1.0  -0.5739
  N  N125  1  0.840700  0.193020  0.449450  1.0  -0.3994
  N  N126  1  0.478400  0.606790  0.084150  1.0  -0.4539
  N  N127  1  0.395360  0.352300  0.061100  1.0  -0.4542
  N  N128  1  0.425320  0.489430  0.023930  1.0  -0.441
