# generated using pymatgen
data_Cu3H16C30(NO7)2
_symmetry_space_group_name_H-M   'P 1'
_cell_length_a   11.64160000
_cell_length_b   14.95170000
_cell_length_c   16.61080000
_cell_angle_alpha   90.00000000
_cell_angle_beta   93.89300000
_cell_angle_gamma   90.00000000
_symmetry_Int_Tables_number   1
_chemical_formula_structural   Cu3H16C30(NO7)2
_chemical_formula_sum   'Cu6 H32 C60 N4 O28'
_cell_volume   2884.63281411
_cell_formula_units_Z   2
loop_
 _symmetry_equiv_pos_site_id
 _symmetry_equiv_pos_as_xyz
  1  'x, y, z'
loop_
 _atom_site_type_symbol
 _atom_site_label
 _atom_site_symmetry_multiplicity
 _atom_site_fract_x
 _atom_site_fract_y
 _atom_site_fract_z
 _atom_site_occupancy
 _atom_site_charge
  Cu  Cu1  1  0.396770  0.036300  0.008650  1.0  0.8882
  Cu  Cu2  1  0.103230  0.536300  0.491350  1.0  0.8908
  Cu  Cu3  1  0.603230  0.963700  0.991350  1.0  0.8886
  Cu  Cu4  1  0.896770  0.463700  0.508650  1.0  0.8882
  Cu  Cu5  1  0.500000  0.500000  0.000000  1.0  0.8323
  Cu  Cu6  1  0.000000  0.000000  0.500000  1.0  0.8323
  H  H7  1  0.254600  0.494700  0.736000  1.0  0.1134
  H  H8  1  0.952200  0.362300  0.744300  1.0  0.1074
  H  H9  1  0.183300  0.356800  0.937300  1.0  0.1126
  H  H10  1  0.008000  0.267900  0.938700  1.0  0.098
  H  H11  1  0.929500  0.254100  0.855900  1.0  0.0763
  H  H12  1  0.792700  0.204000  0.929900  1.0  0.1197
  H  H13  1  0.482900  0.304100  0.982400  1.0  0.0911
  H  H14  1  0.737300  0.471200  0.949700  1.0  0.086
  H  H15  1  0.245400  0.994700  0.764000  1.0  0.1133
  H  H16  1  0.547800  0.862300  0.755700  1.0  0.1074
  H  H17  1  0.316700  0.856800  0.562700  1.0  0.114
  H  H18  1  0.492000  0.767900  0.561300  1.0  0.097
  H  H19  1  0.570500  0.754100  0.644100  1.0  0.0764
  H  H20  1  0.707300  0.704000  0.570100  1.0  0.1193
  H  H21  1  0.017100  0.804100  0.517600  1.0  0.092
  H  H22  1  0.762700  0.971200  0.550300  1.0  0.0861
  H  H23  1  0.745400  0.505300  0.264000  1.0  0.1137
  H  H24  1  0.047800  0.637700  0.255700  1.0  0.1075
  H  H25  1  0.816700  0.643200  0.062700  1.0  0.1141
  H  H26  1  0.992000  0.732100  0.061300  1.0  0.0975
  H  H27  1  0.070500  0.745900  0.144100  1.0  0.0764
  H  H28  1  0.207300  0.796000  0.070100  1.0  0.1196
  H  H29  1  0.517100  0.695900  0.017600  1.0  0.0921
  H  H30  1  0.262700  0.528800  0.050300  1.0  0.0855
  H  H31  1  0.754600  0.005300  0.236000  1.0  0.113
  H  H32  1  0.452200  0.137700  0.244300  1.0  0.1074
  H  H33  1  0.683300  0.143200  0.437300  1.0  0.113
  H  H34  1  0.508000  0.232100  0.438700  1.0  0.0987
  H  H35  1  0.429500  0.245900  0.355900  1.0  0.0761
  H  H36  1  0.292700  0.296000  0.429900  1.0  0.1196
  H  H37  1  0.982900  0.195900  0.482400  1.0  0.0911
  H  H38  1  0.237300  0.028800  0.449700  1.0  0.0854
  C  C39  1  0.345200  0.463270  0.884600  1.0  0.6366
  C  C40  1  0.234500  0.430680  0.843030  1.0  -0.1337
  C  C41  1  0.203600  0.458700  0.764390  1.0  0.0093
  C  C42  1  0.097400  0.433330  0.727850  1.0  -0.1518
  C  C43  1  0.024600  0.379480  0.769610  1.0  -0.0896
  C  C44  1  0.054900  0.350270  0.847040  1.0  0.0313
  C  C45  1  0.161200  0.376290  0.884060  1.0  -0.1185
  C  C46  1  0.061400  0.461670  0.643560  1.0  0.6905
  C  C47  1  0.969800  0.298920  0.891500  1.0  0.0156
  C  C48  1  0.783600  0.340970  0.935200  1.0  0.2593
  C  C49  1  0.744000  0.253370  0.939130  1.0  -0.0824
  C  C50  1  0.629300  0.241090  0.957250  1.0  -0.1398
  C  C51  1  0.560900  0.313770  0.971200  1.0  0.1787
  C  C52  1  0.709300  0.411590  0.951520  1.0  0.1202
  C  C53  1  0.582100  0.148880  0.965520  1.0  0.6938
  C  C54  1  0.154800  0.963270  0.615400  1.0  0.6361
  C  C55  1  0.265500  0.930680  0.656970  1.0  -0.134
  C  C56  1  0.296400  0.958700  0.735610  1.0  0.0084
  C  C57  1  0.402600  0.933330  0.772150  1.0  -0.1526
  C  C58  1  0.475400  0.879480  0.730390  1.0  -0.0898
  C  C59  1  0.445100  0.850270  0.652960  1.0  0.0311
  C  C60  1  0.338800  0.876290  0.615940  1.0  -0.1197
  C  C61  1  0.438600  0.961670  0.856440  1.0  0.6898
  C  C62  1  0.530200  0.798920  0.608500  1.0  0.0157
  C  C63  1  0.716400  0.840970  0.564800  1.0  0.26
  C  C64  1  0.756000  0.753370  0.560870  1.0  -0.0822
  C  C65  1  0.870700  0.741090  0.542750  1.0  -0.1398
  C  C66  1  0.939100  0.813770  0.528800  1.0  0.178
  C  C67  1  0.790700  0.911590  0.548480  1.0  0.1195
  C  C68  1  0.917900  0.648880  0.534480  1.0  0.6937
  C  C69  1  0.654800  0.536730  0.115400  1.0  0.6355
  C  C70  1  0.765500  0.569320  0.156970  1.0  -0.1341
  C  C71  1  0.796400  0.541300  0.235610  1.0  0.0087
  C  C72  1  0.902600  0.566670  0.272150  1.0  -0.1522
  C  C73  1  0.975400  0.620520  0.230390  1.0  -0.0898
  C  C74  1  0.945100  0.649730  0.152960  1.0  0.0314
  C  C75  1  0.838800  0.623710  0.115940  1.0  -0.1199
  C  C76  1  0.938600  0.538330  0.356440  1.0  0.6896
  C  C77  1  0.030200  0.701080  0.108500  1.0  0.0173
  C  C78  1  0.216400  0.659030  0.064800  1.0  0.2601
  C  C79  1  0.256000  0.746630  0.060870  1.0  -0.0837
  C  C80  1  0.370700  0.758910  0.042750  1.0  -0.139
  C  C81  1  0.439100  0.686230  0.028800  1.0  0.1785
  C  C82  1  0.290700  0.588410  0.048480  1.0  0.1208
  C  C83  1  0.417900  0.851120  0.034480  1.0  0.6936
  C  C84  1  0.845200  0.036730  0.384600  1.0  0.636
  C  C85  1  0.734500  0.069320  0.343030  1.0  -0.1337
  C  C86  1  0.703600  0.041300  0.264390  1.0  0.009
  C  C87  1  0.597400  0.066670  0.227850  1.0  -0.1521
  C  C88  1  0.524600  0.120520  0.269610  1.0  -0.0897
  C  C89  1  0.554900  0.149730  0.347040  1.0  0.0316
  C  C90  1  0.661200  0.123710  0.384060  1.0  -0.1196
  C  C91  1  0.561400  0.038330  0.143560  1.0  0.6906
  C  C92  1  0.469800  0.201080  0.391500  1.0  0.0167
  C  C93  1  0.283600  0.159030  0.435200  1.0  0.2599
  C  C94  1  0.244000  0.246630  0.439130  1.0  -0.0834
  C  C95  1  0.129300  0.258910  0.457250  1.0  -0.1388
  C  C96  1  0.060900  0.186230  0.471200  1.0  0.1789
  C  C97  1  0.209300  0.088410  0.451520  1.0  0.1218
  C  C98  1  0.082100  0.351120  0.465520  1.0  0.6938
  N  N99  1  0.600920  0.397880  0.969490  1.0  -0.2913
  N  N100  1  0.899080  0.897880  0.530510  1.0  -0.2905
  N  N101  1  0.399080  0.602120  0.030510  1.0  -0.2909
  N  N102  1  0.100920  0.102120  0.469490  1.0  -0.2919
  O  O103  1  0.364130  0.436050  0.957850  1.0  -0.5848
  O  O104  1  0.410100  0.514110  0.850840  1.0  -0.5949
  O  O105  1  0.959380  0.442630  0.619060  1.0  -0.5666
  O  O106  1  0.134420  0.502160  0.604730  1.0  -0.5591
  O  O107  1  0.890080  0.366500  0.916870  1.0  -0.2928
  O  O108  1  0.476300  0.145150  0.977540  1.0  -0.5772
  O  O109  1  0.650200  0.085180  0.961750  1.0  -0.5621
  O  O110  1  0.135870  0.936050  0.542150  1.0  -0.5852
  O  O111  1  0.089900  0.014110  0.649160  1.0  -0.5942
  O  O112  1  0.540620  0.942630  0.880940  1.0  -0.5677
  O  O113  1  0.365580  0.002160  0.895270  1.0  -0.5583
  O  O114  1  0.609920  0.866500  0.583130  1.0  -0.2922
  O  O115  1  0.023700  0.645150  0.522460  1.0  -0.5787
  O  O116  1  0.849800  0.585180  0.538250  1.0  -0.5619
  O  O117  1  0.635870  0.563950  0.042150  1.0  -0.5851
  O  O118  1  0.589900  0.485890  0.149160  1.0  -0.5931
  O  O119  1  0.040620  0.557370  0.380940  1.0  -0.5669
  O  O120  1  0.865580  0.497840  0.395270  1.0  -0.5582
  O  O121  1  0.109920  0.633500  0.083130  1.0  -0.2925
  O  O122  1  0.523700  0.854850  0.022460  1.0  -0.5784
  O  O123  1  0.349800  0.914820  0.038250  1.0  -0.5617
  O  O124  1  0.864130  0.063950  0.457850  1.0  -0.5852
  O  O125  1  0.910100  0.985890  0.350840  1.0  -0.5946
  O  O126  1  0.459380  0.057370  0.119060  1.0  -0.5661
  O  O127  1  0.634420  0.997840  0.104730  1.0  -0.56
  O  O128  1  0.390080  0.133500  0.416870  1.0  -0.2922
  O  O129  1  0.976300  0.354850  0.477540  1.0  -0.5775
  O  O130  1  0.150200  0.414820  0.461750  1.0  -0.5612
