# generated using pymatgen
data_Mn3H16C30(NO7)2
_symmetry_space_group_name_H-M   'P 1'
_cell_length_a   12.55280000
_cell_length_b   12.66300000
_cell_length_c   18.18900000
_cell_angle_alpha   90.00000000
_cell_angle_beta   90.00000000
_cell_angle_gamma   113.38800000
_symmetry_Int_Tables_number   1
_chemical_formula_structural   Mn3H16C30(NO7)2
_chemical_formula_sum   'Mn6 H32 C60 N4 O28'
_cell_volume   2653.70089713
_cell_formula_units_Z   2
loop_
 _symmetry_equiv_pos_site_id
 _symmetry_equiv_pos_as_xyz
  1  'x, y, z'
loop_
 _atom_site_type_symbol
 _atom_site_label
 _atom_site_symmetry_multiplicity
 _atom_site_fract_x
 _atom_site_fract_y
 _atom_site_fract_z
 _atom_site_occupancy
 _atom_site_charge
  Mn  Mn1  1  0.677340  0.072900  0.209090  1.0  1.1873
  Mn  Mn2  1  0.822660  0.927100  0.709090  1.0  1.187
  Mn  Mn3  1  0.322660  0.927100  0.790910  1.0  1.1871
  Mn  Mn4  1  0.177340  0.072900  0.290910  1.0  1.1875
  Mn  Mn5  1  0.500000  0.500000  0.000000  1.0  1.1826
  Mn  Mn6  1  0.000000  0.500000  0.500000  1.0  1.1826
  H  H7  1  0.259100  0.391400  0.182500  1.0  0.1041
  H  H8  1  0.166800  0.653600  0.127800  1.0  0.1133
  H  H9  1  0.984100  0.421100  0.282300  1.0  0.1083
  H  H10  1  0.025100  0.691600  0.203000  1.0  0.0733
  H  H11  1  0.949900  0.599000  0.263300  1.0  0.0759
  H  H12  1  0.874500  0.741200  0.223400  1.0  0.1244
  H  H13  1  0.595700  0.723000  0.103900  1.0  0.086
  H  H14  1  0.725800  0.489800  0.072600  1.0  0.0915
  H  H15  1  0.240900  0.608600  0.682500  1.0  0.1043
  H  H16  1  0.333200  0.346400  0.627800  1.0  0.1132
  H  H17  1  0.515900  0.578900  0.782300  1.0  0.1088
  H  H18  1  0.474900  0.308400  0.703000  1.0  0.072
  H  H19  1  0.550100  0.401000  0.763300  1.0  0.0759
  H  H20  1  0.625500  0.258800  0.723400  1.0  0.1252
  H  H21  1  0.904300  0.277000  0.603900  1.0  0.0856
  H  H22  1  0.774200  0.510200  0.572600  1.0  0.0925
  H  H23  1  0.740900  0.608600  0.817500  1.0  0.1042
  H  H24  1  0.833200  0.346400  0.872200  1.0  0.114
  H  H25  1  0.015900  0.578900  0.717700  1.0  0.1089
  H  H26  1  0.974900  0.308400  0.797000  1.0  0.0723
  H  H27  1  0.050100  0.401000  0.736700  1.0  0.0755
  H  H28  1  0.125500  0.258800  0.776600  1.0  0.1245
  H  H29  1  0.404300  0.277000  0.896100  1.0  0.0862
  H  H30  1  0.274200  0.510200  0.927400  1.0  0.0925
  H  H31  1  0.759100  0.391400  0.317500  1.0  0.1043
  H  H32  1  0.666800  0.653600  0.372200  1.0  0.1135
  H  H33  1  0.484100  0.421100  0.217700  1.0  0.1081
  H  H34  1  0.525100  0.691600  0.297000  1.0  0.073
  H  H35  1  0.449900  0.599000  0.236700  1.0  0.0761
  H  H36  1  0.374500  0.741200  0.276600  1.0  0.1242
  H  H37  1  0.095700  0.723000  0.396100  1.0  0.0865
  H  H38  1  0.225800  0.489800  0.427400  1.0  0.0918
  C  C39  1  0.102500  0.283400  0.282730  1.0  0.6948
  C  C40  1  0.118800  0.390300  0.238790  1.0  -0.1588
  C  C41  1  0.209000  0.430700  0.188320  1.0  -0.031
  C  C42  1  0.226900  0.528000  0.146100  1.0  -0.1457
  C  C43  1  0.321700  0.566300  0.088840  1.0  0.6686
  C  C44  1  0.153900  0.586100  0.155650  1.0  -0.0538
  C  C45  1  0.062400  0.546200  0.205560  1.0  -0.0169
  C  C46  1  0.045700  0.448200  0.247580  1.0  -0.0655
  C  C47  1  0.982700  0.608500  0.213030  1.0  0.075
  C  C48  1  0.815300  0.608500  0.149710  1.0  0.2052
  C  C49  1  0.817800  0.705600  0.186630  1.0  -0.1307
  C  C50  1  0.735500  0.749800  0.168690  1.0  -0.1522
  C  C51  1  0.738600  0.857500  0.205670  1.0  0.701
  C  C52  1  0.651900  0.693000  0.115900  1.0  0.1522
  C  C53  1  0.728000  0.556600  0.097490  1.0  0.1125
  C  C54  1  0.397500  0.716600  0.782730  1.0  0.6934
  C  C55  1  0.381200  0.609700  0.738790  1.0  -0.1572
  C  C56  1  0.291000  0.569300  0.688320  1.0  -0.0296
  C  C57  1  0.273100  0.472000  0.646100  1.0  -0.1467
  C  C58  1  0.178300  0.433700  0.588840  1.0  0.6688
  C  C59  1  0.346100  0.413900  0.655650  1.0  -0.0534
  C  C60  1  0.437600  0.453800  0.705560  1.0  -0.0158
  C  C61  1  0.454300  0.551800  0.747580  1.0  -0.0637
  C  C62  1  0.517300  0.391500  0.713030  1.0  0.0757
  C  C63  1  0.684700  0.391500  0.649710  1.0  0.2075
  C  C64  1  0.682200  0.294400  0.686630  1.0  -0.1293
  C  C65  1  0.764500  0.250200  0.668690  1.0  -0.1536
  C  C66  1  0.761400  0.142500  0.705670  1.0  0.7023
  C  C67  1  0.848100  0.307000  0.615900  1.0  0.1535
  C  C68  1  0.772000  0.443400  0.597490  1.0  0.1122
  C  C69  1  0.897500  0.716600  0.717270  1.0  0.6953
  C  C70  1  0.881200  0.609700  0.761210  1.0  -0.158
  C  C71  1  0.791000  0.569300  0.811680  1.0  -0.0282
  C  C72  1  0.773100  0.472000  0.853900  1.0  -0.1437
  C  C73  1  0.678300  0.433700  0.911160  1.0  0.6689
  C  C74  1  0.846100  0.413900  0.844350  1.0  -0.0547
  C  C75  1  0.937600  0.453800  0.794440  1.0  -0.0171
  C  C76  1  0.954300  0.551800  0.752420  1.0  -0.0634
  C  C77  1  0.017300  0.391500  0.786970  1.0  0.0746
  C  C78  1  0.184700  0.391500  0.850290  1.0  0.2024
  C  C79  1  0.182200  0.294400  0.813370  1.0  -0.1296
  C  C80  1  0.264500  0.250200  0.831310  1.0  -0.1531
  C  C81  1  0.261400  0.142500  0.794330  1.0  0.702
  C  C82  1  0.348100  0.307000  0.884100  1.0  0.154
  C  C83  1  0.272000  0.443400  0.902510  1.0  0.1106
  C  C84  1  0.602500  0.283400  0.217270  1.0  0.6936
  C  C85  1  0.618800  0.390300  0.261210  1.0  -0.1584
  C  C86  1  0.709000  0.430700  0.311680  1.0  -0.0289
  C  C87  1  0.726900  0.528000  0.353900  1.0  -0.1453
  C  C88  1  0.821700  0.566300  0.411160  1.0  0.6666
  C  C89  1  0.653900  0.586100  0.344350  1.0  -0.0561
  C  C90  1  0.562400  0.546200  0.294440  1.0  -0.0166
  C  C91  1  0.545700  0.448200  0.252420  1.0  -0.065
  C  C92  1  0.482700  0.608500  0.286970  1.0  0.0747
  C  C93  1  0.315300  0.608500  0.350290  1.0  0.201
  C  C94  1  0.317800  0.705600  0.313370  1.0  -0.131
  C  C95  1  0.235500  0.749800  0.331310  1.0  -0.1534
  C  C96  1  0.238600  0.857500  0.294330  1.0  0.7009
  C  C97  1  0.151900  0.693000  0.384100  1.0  0.1524
  C  C98  1  0.228000  0.556600  0.402510  1.0  0.1133
  N  N99  1  0.647520  0.597700  0.081270  1.0  -0.3786
  N  N100  1  0.852480  0.402300  0.581270  1.0  -0.3737
  N  N101  1  0.352480  0.402300  0.918730  1.0  -0.3806
  N  N102  1  0.147520  0.597700  0.418730  1.0  -0.3814
  O  O103  1  0.173400  0.238630  0.270770  1.0  -0.6741
  O  O104  1  0.019970  0.245920  0.328490  1.0  -0.6057
  O  O105  1  0.334600  0.654580  0.050750  1.0  -0.6041
  O  O106  1  0.379000  0.505650  0.081640  1.0  -0.6398
  O  O107  1  0.891060  0.556700  0.159150  1.0  -0.257
  O  O108  1  0.671500  0.901500  0.183590  1.0  -0.6564
  O  O109  1  0.809000  0.896100  0.258360  1.0  -0.603
  O  O110  1  0.326600  0.761370  0.770770  1.0  -0.6747
  O  O111  1  0.480030  0.754080  0.828490  1.0  -0.6037
  O  O112  1  0.165400  0.345420  0.550750  1.0  -0.6018
  O  O113  1  0.121000  0.494350  0.581640  1.0  -0.6409
  O  O114  1  0.608940  0.443300  0.659150  1.0  -0.2574
  O  O115  1  0.828500  0.098500  0.683590  1.0  -0.6498
  O  O116  1  0.691000  0.103900  0.758360  1.0  -0.6035
  O  O117  1  0.826600  0.761370  0.729230  1.0  -0.6753
  O  O118  1  0.980030  0.754080  0.671510  1.0  -0.601
  O  O119  1  0.665400  0.345420  0.949250  1.0  -0.6033
  O  O120  1  0.621000  0.494350  0.918360  1.0  -0.6399
  O  O121  1  0.108940  0.443300  0.840850  1.0  -0.2571
  O  O122  1  0.328500  0.098500  0.816410  1.0  -0.6501
  O  O123  1  0.191000  0.103900  0.741640  1.0  -0.6043
  O  O124  1  0.673400  0.238630  0.229230  1.0  -0.675
  O  O125  1  0.519970  0.245920  0.171510  1.0  -0.6028
  O  O126  1  0.834600  0.654580  0.449250  1.0  -0.6022
  O  O127  1  0.879000  0.505650  0.418360  1.0  -0.6379
  O  O128  1  0.391060  0.556700  0.340850  1.0  -0.2564
  O  O129  1  0.171500  0.901500  0.316410  1.0  -0.6557
  O  O130  1  0.309000  0.896100  0.241640  1.0  -0.6038
