# generated using pymatgen
data_Co3H16C30(NO7)2
_symmetry_space_group_name_H-M   'P 1'
_cell_length_a   12.51750000
_cell_length_b   17.86000000
_cell_length_c   12.34350000
_cell_angle_alpha   90.00000000
_cell_angle_beta   112.60100000
_cell_angle_gamma   90.00000000
_symmetry_Int_Tables_number   1
_chemical_formula_structural   Co3H16C30(NO7)2
_chemical_formula_sum   'Co6 H32 C60 N4 O28'
_cell_volume   2547.62101625
_cell_formula_units_Z   2
loop_
 _symmetry_equiv_pos_site_id
 _symmetry_equiv_pos_as_xyz
  1  'x, y, z'
loop_
 _atom_site_type_symbol
 _atom_site_label
 _atom_site_symmetry_multiplicity
 _atom_site_fract_x
 _atom_site_fract_y
 _atom_site_fract_z
 _atom_site_occupancy
 _atom_site_charge
  Co  Co1  1  0.562490  0.295530  0.157400  1.0  0.8114
  Co  Co2  1  0.437510  0.795530  0.342600  1.0  0.8117
  Co  Co3  1  0.437510  0.704470  0.842600  1.0  0.8115
  Co  Co4  1  0.562490  0.204470  0.657400  1.0  0.8114
  Co  Co5  1  0.000000  0.000000  0.500000  1.0  0.8217
  Co  Co6  1  0.000000  0.500000  0.000000  1.0  0.8217
  H  H7  1  0.878800  0.178700  0.248700  1.0  0.1092
  H  H8  1  0.912200  0.284500  0.971900  1.0  0.1173
  H  H9  1  0.143600  0.125200  0.151200  1.0  0.1163
  H  H10  1  0.088800  0.267500  0.935800  1.0  0.1109
  H  H11  1  0.184600  0.207700  0.011400  1.0  0.0933
  H  H12  1  0.984300  0.073500  0.712500  1.0  0.0942
  H  H13  1  0.214100  0.106600  0.571300  1.0  0.0984
  H  H14  1  0.230900  0.231200  0.852700  1.0  0.1264
  H  H15  1  0.121200  0.678700  0.251300  1.0  0.1091
  H  H16  1  0.087800  0.784500  0.528100  1.0  0.1172
  H  H17  1  0.856400  0.625200  0.348800  1.0  0.1159
  H  H18  1  0.911200  0.767500  0.564200  1.0  0.111
  H  H19  1  0.815400  0.707700  0.488600  1.0  0.0942
  H  H20  1  0.015700  0.573500  0.787500  1.0  0.0938
  H  H21  1  0.785900  0.606600  0.928700  1.0  0.0988
  H  H22  1  0.769100  0.731200  0.647300  1.0  0.1276
  H  H23  1  0.121200  0.821300  0.751300  1.0  0.1091
  H  H24  1  0.087800  0.715500  0.028100  1.0  0.1176
  H  H25  1  0.856400  0.874800  0.848800  1.0  0.1163
  H  H26  1  0.911200  0.732500  0.064200  1.0  0.1122
  H  H27  1  0.815400  0.792300  0.988600  1.0  0.0938
  H  H28  1  0.015700  0.926500  0.287500  1.0  0.095
  H  H29  1  0.785900  0.893400  0.428700  1.0  0.0988
  H  H30  1  0.769100  0.768800  0.147300  1.0  0.1275
  H  H31  1  0.878800  0.321300  0.748700  1.0  0.1089
  H  H32  1  0.912200  0.215500  0.471900  1.0  0.1165
  H  H33  1  0.143600  0.374800  0.651200  1.0  0.1172
  H  H34  1  0.088800  0.232500  0.435800  1.0  0.1116
  H  H35  1  0.184600  0.292300  0.511400  1.0  0.0937
  H  H36  1  0.984300  0.426500  0.212500  1.0  0.0949
  H  H37  1  0.214100  0.393400  0.071300  1.0  0.0984
  H  H38  1  0.230900  0.268800  0.352700  1.0  0.1272
  C  C39  1  0.055500  0.083290  0.307900  1.0  0.7182
  C  C40  1  0.016100  0.142140  0.212800  1.0  -0.1412
  C  C41  1  0.918400  0.185210  0.197300  1.0  -0.0219
  C  C42  1  0.878200  0.237900  0.106800  1.0  -0.1505
  C  C43  1  0.938600  0.248590  0.033200  1.0  -0.0589
  C  C44  1  0.037700  0.206400  0.050200  1.0  0.0304
  C  C45  1  0.076000  0.153660  0.139700  1.0  -0.0894
  C  C46  1  0.771600  0.282650  0.090700  1.0  0.6838
  C  C47  1  0.100600  0.216370  0.969200  1.0  0.0448
  C  C48  1  0.101800  0.152740  0.798200  1.0  0.2801
  C  C49  1  0.050600  0.099240  0.712100  1.0  0.1295
  C  C50  1  0.184400  0.118840  0.629300  1.0  0.1861
  C  C51  1  0.239700  0.173800  0.711500  1.0  -0.1367
  C  C52  1  0.196600  0.192600  0.797300  1.0  -0.1197
  C  C53  1  0.346700  0.212870  0.710800  1.0  0.725
  C  C54  1  0.944500  0.583290  0.192100  1.0  0.7179
  C  C55  1  0.983900  0.642140  0.287200  1.0  -0.1401
  C  C56  1  0.081600  0.685210  0.302700  1.0  -0.0211
  C  C57  1  0.121800  0.737900  0.393200  1.0  -0.1503
  C  C58  1  0.061400  0.748590  0.466800  1.0  -0.0597
  C  C59  1  0.962300  0.706400  0.449800  1.0  0.0304
  C  C60  1  0.924000  0.653660  0.360300  1.0  -0.0875
  C  C61  1  0.228400  0.782650  0.409300  1.0  0.6804
  C  C62  1  0.899400  0.716370  0.530800  1.0  0.0438
  C  C63  1  0.898200  0.652740  0.701800  1.0  0.28
  C  C64  1  0.949400  0.599240  0.787900  1.0  0.128
  C  C65  1  0.815600  0.618840  0.870700  1.0  0.1872
  C  C66  1  0.760300  0.673800  0.788500  1.0  -0.1356
  C  C67  1  0.803400  0.692600  0.702700  1.0  -0.1193
  C  C68  1  0.653300  0.712870  0.789200  1.0  0.726
  C  C69  1  0.944500  0.916710  0.692100  1.0  0.7081
  C  C70  1  0.983900  0.857860  0.787200  1.0  -0.1406
  C  C71  1  0.081600  0.814790  0.802700  1.0  -0.0207
  C  C72  1  0.121800  0.762100  0.893200  1.0  -0.1495
  C  C73  1  0.061400  0.751410  0.966800  1.0  -0.0596
  C  C74  1  0.962300  0.793600  0.949800  1.0  0.0296
  C  C75  1  0.924000  0.846340  0.860300  1.0  -0.0888
  C  C76  1  0.228400  0.717350  0.909300  1.0  0.6811
  C  C77  1  0.899400  0.783630  0.030800  1.0  0.0438
  C  C78  1  0.898200  0.847260  0.201800  1.0  0.2801
  C  C79  1  0.949400  0.900760  0.287900  1.0  0.1295
  C  C80  1  0.815600  0.881160  0.370700  1.0  0.1853
  C  C81  1  0.760300  0.826200  0.288500  1.0  -0.1351
  C  C82  1  0.803400  0.807400  0.202700  1.0  -0.1183
  C  C83  1  0.653300  0.787130  0.289200  1.0  0.7259
  C  C84  1  0.055500  0.416710  0.807900  1.0  0.7065
  C  C85  1  0.016100  0.357860  0.712800  1.0  -0.1417
  C  C86  1  0.918400  0.314790  0.697300  1.0  -0.0215
  C  C87  1  0.878200  0.262100  0.606800  1.0  -0.15
  C  C88  1  0.938600  0.251410  0.533200  1.0  -0.0584
  C  C89  1  0.037700  0.293600  0.550200  1.0  0.0303
  C  C90  1  0.076000  0.346340  0.639700  1.0  -0.0875
  C  C91  1  0.771600  0.217350  0.590700  1.0  0.6829
  C  C92  1  0.100600  0.283630  0.469200  1.0  0.0449
  C  C93  1  0.101800  0.347260  0.298200  1.0  0.2791
  C  C94  1  0.050600  0.400760  0.212100  1.0  0.1281
  C  C95  1  0.184400  0.381160  0.129300  1.0  0.1849
  C  C96  1  0.239700  0.326200  0.211500  1.0  -0.1357
  C  C97  1  0.196600  0.307400  0.297300  1.0  -0.1203
  C  C98  1  0.346700  0.287130  0.210800  1.0  0.725
  N  N99  1  0.090350  0.082350  0.628860  1.0  -0.3175
  N  N100  1  0.909650  0.582350  0.871140  1.0  -0.3162
  N  N101  1  0.909650  0.917650  0.371140  1.0  -0.3171
  N  N102  1  0.090350  0.417650  0.128860  1.0  -0.3162
  O  O103  1  0.998220  0.077500  0.371950  1.0  -0.6193
  O  O104  1  0.141580  0.042590  0.315900  1.0  -0.563
  O  O105  1  0.733830  0.328230  0.004390  1.0  -0.5481
  O  O106  1  0.725820  0.271720  0.163840  1.0  -0.642
  O  O107  1  0.051100  0.161100  0.877730  1.0  -0.3093
  O  O108  1  0.397370  0.181940  0.652090  1.0  -0.6377
  O  O109  1  0.376130  0.272500  0.768810  1.0  -0.5291
  O  O110  1  0.001780  0.577500  0.128050  1.0  -0.6202
  O  O111  1  0.858420  0.542590  0.184100  1.0  -0.5604
  O  O112  1  0.266170  0.828230  0.495610  1.0  -0.5493
  O  O113  1  0.274180  0.771720  0.336160  1.0  -0.6444
  O  O114  1  0.948900  0.661100  0.622270  1.0  -0.3102
  O  O115  1  0.602630  0.681940  0.847910  1.0  -0.6368
  O  O116  1  0.623870  0.772500  0.731190  1.0  -0.5276
  O  O117  1  0.001780  0.922500  0.628050  1.0  -0.6197
  O  O118  1  0.858420  0.957410  0.684100  1.0  -0.5607
  O  O119  1  0.266170  0.671770  0.995610  1.0  -0.5478
  O  O120  1  0.274180  0.728280  0.836160  1.0  -0.6445
  O  O121  1  0.948900  0.838900  0.122270  1.0  -0.3101
  O  O122  1  0.602630  0.818060  0.347910  1.0  -0.6384
  O  O123  1  0.623870  0.727500  0.231190  1.0  -0.5266
  O  O124  1  0.998220  0.422500  0.871950  1.0  -0.6196
  O  O125  1  0.141580  0.457410  0.815900  1.0  -0.5624
  O  O126  1  0.733830  0.171770  0.504390  1.0  -0.545
  O  O127  1  0.725820  0.228280  0.663840  1.0  -0.6419
  O  O128  1  0.051100  0.338900  0.377730  1.0  -0.3089
  O  O129  1  0.397370  0.318060  0.152090  1.0  -0.6381
  O  O130  1  0.376130  0.227500  0.268810  1.0  -0.5307
