# generated using pymatgen
data_Cu3H13(C2O)13
_symmetry_space_group_name_H-M   'P 1'
_cell_length_a   18.74200000
_cell_length_b   22.85950000
_cell_length_c   29.66900000
_cell_angle_alpha   104.85800000
_cell_angle_beta   90.00000000
_cell_angle_gamma   90.00000000
_symmetry_Int_Tables_number   1
_chemical_formula_structural   Cu3H13(C2O)13
_chemical_formula_sum   'Cu24 H104 C208 O104'
_cell_volume   12286.16442194
_cell_formula_units_Z   8
loop_
 _symmetry_equiv_pos_site_id
 _symmetry_equiv_pos_as_xyz
  1  'x, y, z'
loop_
 _atom_site_type_symbol
 _atom_site_label
 _atom_site_symmetry_multiplicity
 _atom_site_fract_x
 _atom_site_fract_y
 _atom_site_fract_z
 _atom_site_occupancy
 _atom_site_charge
  Cu  Cu1  1  0.802460  0.221120  0.529790  1.0  0.9479
  Cu  Cu2  1  0.733330  0.318130  0.515140  1.0  0.9607
  Cu  Cu3  1  0.307490  0.302100  0.501160  1.0  0.919
  Cu  Cu4  1  0.240170  0.205950  0.514960  1.0  0.9026
  Cu  Cu5  1  0.502630  0.492590  0.194730  1.0  0.9068
  Cu  Cu6  1  0.500340  0.463900  0.275950  1.0  0.9085
  Cu  Cu7  1  0.302460  0.278880  0.970210  1.0  0.9416
  Cu  Cu8  1  0.233330  0.181870  0.984860  1.0  0.9621
  Cu  Cu9  1  0.807490  0.197900  0.998840  1.0  0.9258
  Cu  Cu10  1  0.740170  0.294050  0.985040  1.0  0.9032
  Cu  Cu11  1  0.002630  0.007410  0.305270  1.0  0.9067
  Cu  Cu12  1  0.000340  0.036100  0.224050  1.0  0.9072
  Cu  Cu13  1  0.197540  0.778880  0.470210  1.0  0.9412
  Cu  Cu14  1  0.266670  0.681870  0.484860  1.0  0.9614
  Cu  Cu15  1  0.692510  0.697900  0.498840  1.0  0.9215
  Cu  Cu16  1  0.759830  0.794050  0.485040  1.0  0.9027
  Cu  Cu17  1  0.497370  0.507410  0.805270  1.0  0.9069
  Cu  Cu18  1  0.499660  0.536100  0.724050  1.0  0.9072
  Cu  Cu19  1  0.697540  0.721120  0.029790  1.0  0.9474
  Cu  Cu20  1  0.766670  0.818130  0.015140  1.0  0.9603
  Cu  Cu21  1  0.192510  0.802100  0.001160  1.0  0.9259
  Cu  Cu22  1  0.259830  0.705950  0.014960  1.0  0.9016
  Cu  Cu23  1  0.997370  0.992590  0.694730  1.0  0.9071
  Cu  Cu24  1  0.999660  0.963900  0.775950  1.0  0.9086
  H  H25  1  0.132500  0.890500  0.142800  1.0  0.1215
  H  H26  1  0.136800  0.855600  0.270600  1.0  0.1322
  H  H27  1  0.235600  0.743400  0.161100  1.0  0.113
  H  H28  1  0.292600  0.722100  0.218900  1.0  0.0857
  H  H29  1  0.222000  0.681700  0.209700  1.0  0.099
  H  H30  1  0.219700  0.727800  0.322200  1.0  0.1161
  H  H31  1  0.343700  0.594400  0.348200  1.0  0.1189
  H  H32  1  0.334300  0.619100  0.217500  1.0  0.119
  H  H33  1  0.663700  0.369500  0.124400  1.0  0.1206
  H  H34  1  0.798400  0.242900  0.147700  1.0  0.1285
  H  H35  1  0.679200  0.342300  0.253700  1.0  0.1169
  H  H36  1  0.706900  0.265000  0.282200  1.0  0.0929
  H  H37  1  0.770700  0.312600  0.293700  1.0  0.0945
  H  H38  1  0.846000  0.178000  0.258300  1.0  0.1172
  H  H39  1  0.869100  0.147900  0.386400  1.0  0.1261
  H  H40  1  0.742900  0.283600  0.368600  1.0  0.1213
  H  H41  1  0.022400  0.275400  0.531500  1.0  0.1259
  H  H42  1  0.132900  0.417400  0.508300  1.0  0.1314
  H  H43  1  0.918200  0.424200  0.516000  1.0  0.1091
  H  H44  1  0.057400  0.509400  0.528700  1.0  0.0598
  H  H45  1  0.058700  0.480400  0.473700  1.0  0.061
  H  H46  1  0.632200  0.092800  0.511100  1.0  0.1166
  H  H47  1  0.522100  0.241900  0.506300  1.0  0.1234
  H  H48  1  0.417800  0.085000  0.499000  1.0  0.125
  H  H49  1  0.560500  0.998100  0.475100  1.0  0.0525
  H  H50  1  0.553300  0.014900  0.530400  1.0  0.0579
  H  H51  1  0.632500  0.609500  0.357200  1.0  0.1235
  H  H52  1  0.636800  0.644400  0.229400  1.0  0.1322
  H  H53  1  0.735600  0.756600  0.338900  1.0  0.1114
  H  H54  1  0.792600  0.777900  0.281100  1.0  0.0845
  H  H55  1  0.722000  0.818300  0.290300  1.0  0.1003
  H  H56  1  0.719700  0.772200  0.177800  1.0  0.1165
  H  H57  1  0.843700  0.905600  0.151800  1.0  0.119
  H  H58  1  0.834300  0.880900  0.282500  1.0  0.1198
  H  H59  1  0.163700  0.130500  0.375600  1.0  0.1205
  H  H60  1  0.298400  0.257100  0.352300  1.0  0.1285
  H  H61  1  0.179200  0.157700  0.246300  1.0  0.1169
  H  H62  1  0.206900  0.235000  0.217800  1.0  0.0933
  H  H63  1  0.270700  0.187400  0.206300  1.0  0.0962
  H  H64  1  0.346000  0.322000  0.241700  1.0  0.1171
  H  H65  1  0.369100  0.352100  0.113600  1.0  0.126
  H  H66  1  0.242900  0.216400  0.131400  1.0  0.1212
  H  H67  1  0.522400  0.224600  0.968500  1.0  0.1256
  H  H68  1  0.632900  0.082600  0.991700  1.0  0.1313
  H  H69  1  0.418200  0.075800  0.984000  1.0  0.1091
  H  H70  1  0.557400  0.990600  0.971300  1.0  0.0606
  H  H71  1  0.558700  0.019600  0.026300  1.0  0.0586
  H  H72  1  0.132200  0.407200  0.988900  1.0  0.1179
  H  H73  1  0.022100  0.258100  0.993700  1.0  0.1236
  H  H74  1  0.917800  0.415000  0.001000  1.0  0.1245
  H  H75  1  0.060500  0.501900  0.024900  1.0  0.053
  H  H76  1  0.053300  0.485100  0.969600  1.0  0.0588
  H  H77  1  0.867500  0.109500  0.857200  1.0  0.1219
  H  H78  1  0.863200  0.144400  0.729400  1.0  0.1316
  H  H79  1  0.764400  0.256600  0.838900  1.0  0.112
  H  H80  1  0.707400  0.277900  0.781100  1.0  0.0849
  H  H81  1  0.778000  0.318300  0.790300  1.0  0.1002
  H  H82  1  0.780300  0.272200  0.677800  1.0  0.1166
  H  H83  1  0.656300  0.405600  0.651800  1.0  0.1194
  H  H84  1  0.665700  0.380900  0.782500  1.0  0.1198
  H  H85  1  0.336300  0.630500  0.875600  1.0  0.1205
  H  H86  1  0.201600  0.757100  0.852300  1.0  0.1293
  H  H87  1  0.320800  0.657700  0.746300  1.0  0.1165
  H  H88  1  0.293100  0.735000  0.717800  1.0  0.09
  H  H89  1  0.229300  0.687400  0.706300  1.0  0.0951
  H  H90  1  0.154000  0.822000  0.741700  1.0  0.1166
  H  H91  1  0.130900  0.852100  0.613600  1.0  0.1261
  H  H92  1  0.257100  0.716400  0.631400  1.0  0.1217
  H  H93  1  0.977600  0.724600  0.468500  1.0  0.1255
  H  H94  1  0.867100  0.582600  0.491700  1.0  0.1289
  H  H95  1  0.081800  0.575800  0.484000  1.0  0.108
  H  H96  1  0.942600  0.490600  0.471300  1.0  0.0593
  H  H97  1  0.941300  0.519600  0.526300  1.0  0.0585
  H  H98  1  0.367800  0.907200  0.488900  1.0  0.1172
  H  H99  1  0.477900  0.758100  0.493700  1.0  0.1237
  H  H100  1  0.582200  0.915000  0.501000  1.0  0.1234
  H  H101  1  0.439500  0.001900  0.524900  1.0  0.0529
  H  H102  1  0.446700  0.985100  0.469600  1.0  0.0565
  H  H103  1  0.367500  0.390500  0.642800  1.0  0.1239
  H  H104  1  0.363200  0.355600  0.770600  1.0  0.1318
  H  H105  1  0.264400  0.243400  0.661100  1.0  0.1131
  H  H106  1  0.207400  0.222100  0.718900  1.0  0.0852
  H  H107  1  0.278000  0.181700  0.709700  1.0  0.099
  H  H108  1  0.280300  0.227800  0.822200  1.0  0.1153
  H  H109  1  0.156300  0.094400  0.848200  1.0  0.1191
  H  H110  1  0.165700  0.119100  0.717500  1.0  0.1191
  H  H111  1  0.836300  0.869500  0.624400  1.0  0.1205
  H  H112  1  0.701600  0.742900  0.647700  1.0  0.1282
  H  H113  1  0.820800  0.842300  0.753700  1.0  0.1165
  H  H114  1  0.793100  0.765000  0.782200  1.0  0.089
  H  H115  1  0.729300  0.812600  0.793700  1.0  0.0947
  H  H116  1  0.654000  0.678000  0.758300  1.0  0.117
  H  H117  1  0.630900  0.647900  0.886400  1.0  0.126
  H  H118  1  0.757100  0.783600  0.868600  1.0  0.121
  H  H119  1  0.477600  0.775400  0.031500  1.0  0.1259
  H  H120  1  0.367100  0.917400  0.008300  1.0  0.1294
  H  H121  1  0.581800  0.924200  0.016000  1.0  0.1079
  H  H122  1  0.442600  0.009400  0.028700  1.0  0.0593
  H  H123  1  0.441300  0.980400  0.973700  1.0  0.0603
  H  H124  1  0.867800  0.592800  0.011100  1.0  0.1162
  H  H125  1  0.977900  0.741900  0.006300  1.0  0.1234
  H  H126  1  0.082200  0.585000  0.999000  1.0  0.1237
  H  H127  1  0.939500  0.498100  0.975100  1.0  0.0525
  H  H128  1  0.946700  0.514900  0.030400  1.0  0.0565
  C  C129  1  0.201200  0.793490  0.093980  1.0  0.6904
  C  C130  1  0.184700  0.813640  0.144380  1.0  -0.1311
  C  C131  1  0.146820  0.865740  0.162450  1.0  0.0149
  C  C132  1  0.129340  0.882360  0.209690  1.0  -0.1623
  C  C133  1  0.083700  0.936130  0.230180  1.0  0.7015
  C  C134  1  0.150000  0.845700  0.238580  1.0  -0.1023
  C  C135  1  0.190300  0.794550  0.219200  1.0  0.2406
  C  C136  1  0.207700  0.778540  0.173330  1.0  -0.1599
  C  C137  1  0.250000  0.710140  0.234150  1.0  0.0311
  C  C138  1  0.272700  0.679610  0.266560  1.0  0.1966
  C  C139  1  0.252300  0.695390  0.311510  1.0  -0.1075
  C  C140  1  0.279300  0.663780  0.342360  1.0  -0.1467
  C  C141  1  0.260030  0.686460  0.393060  1.0  0.6794
  C  C142  1  0.326200  0.615760  0.326890  1.0  0.0166
  C  C143  1  0.347750  0.598760  0.280450  1.0  -0.1634
  C  C144  1  0.320800  0.630300  0.249430  1.0  -0.1572
  C  C145  1  0.402350  0.552270  0.263810  1.0  0.6975
  C  C146  1  0.603330  0.406180  0.207850  1.0  0.6959
  C  C147  1  0.661170  0.361130  0.190880  1.0  -0.138
  C  C148  1  0.682510  0.347340  0.144780  1.0  0.0119
  C  C149  1  0.730960  0.301520  0.128260  1.0  -0.1548
  C  C150  1  0.749740  0.283650  0.077720  1.0  0.6951
  C  C151  1  0.763200  0.273030  0.158730  1.0  -0.0761
  C  C152  1  0.744000  0.288540  0.205620  1.0  0.2478
  C  C153  1  0.692830  0.332140  0.221820  1.0  -0.1649
  C  C154  1  0.759300  0.269380  0.280160  1.0  0.0152
  C  C155  1  0.791100  0.235780  0.308540  1.0  0.2328
  C  C156  1  0.835100  0.188790  0.290670  1.0  -0.0851
  C  C157  1  0.864360  0.156270  0.319810  1.0  -0.1216
  C  C158  1  0.916000  0.105070  0.299360  1.0  0.694
  C  C159  1  0.848750  0.170450  0.366830  1.0  0.0206
  C  C160  1  0.803310  0.217620  0.384630  1.0  -0.1202
  C  C161  1  0.774200  0.250810  0.355970  1.0  -0.211
  C  C162  1  0.787220  0.236890  0.435770  1.0  0.6887
  C  C163  1  0.889050  0.317750  0.527730  1.0  0.6753
  C  C164  1  0.959150  0.346440  0.524390  1.0  -0.1332
  C  C165  1  0.023200  0.314340  0.525660  1.0  0.0093
  C  C166  1  0.087820  0.340880  0.518210  1.0  -0.1232
  C  C167  1  0.155910  0.307580  0.516330  1.0  0.6825
  C  C168  1  0.089100  0.397960  0.511620  1.0  -0.2235
  C  C169  1  0.023200  0.426960  0.510000  1.0  0.2102
  C  C170  1  0.961300  0.402470  0.516640  1.0  -0.1944
  C  C171  1  0.029800  0.484300  0.502250  1.0  -0.1541
  C  C172  1  0.657030  0.208640  0.514570  1.0  0.6686
  C  C173  1  0.588000  0.111830  0.508180  1.0  -0.1771
  C  C174  1  0.587190  0.172420  0.508890  1.0  -0.1392
  C  C175  1  0.523380  0.200230  0.505920  1.0  0.0158
  C  C176  1  0.460680  0.167490  0.502400  1.0  -0.1203
  C  C177  1  0.390040  0.199160  0.502120  1.0  0.6912
  C  C178  1  0.461100  0.107230  0.501250  1.0  -0.2213
  C  C179  1  0.527370  0.079170  0.503440  1.0  0.2123
  C  C180  1  0.529000  0.017830  0.501380  1.0  -0.1756
  C  C181  1  0.701200  0.706510  0.406020  1.0  0.6857
  C  C182  1  0.684700  0.686360  0.355620  1.0  -0.1319
  C  C183  1  0.646820  0.634260  0.337550  1.0  0.0155
  C  C184  1  0.629340  0.617640  0.290310  1.0  -0.1621
  C  C185  1  0.583700  0.563870  0.269820  1.0  0.7013
  C  C186  1  0.650000  0.654300  0.261420  1.0  -0.1
  C  C187  1  0.690300  0.705450  0.280800  1.0  0.2298
  C  C188  1  0.707700  0.721460  0.326670  1.0  -0.1592
  C  C189  1  0.750000  0.789860  0.265850  1.0  0.0299
  C  C190  1  0.772700  0.820390  0.233440  1.0  0.1978
  C  C191  1  0.752300  0.804610  0.188490  1.0  -0.1072
  C  C192  1  0.779300  0.836220  0.157640  1.0  -0.1453
  C  C193  1  0.760030  0.813540  0.106940  1.0  0.6792
  C  C194  1  0.826200  0.884240  0.173110  1.0  0.0158
  C  C195  1  0.847750  0.901240  0.219550  1.0  -0.1631
  C  C196  1  0.820800  0.869700  0.250570  1.0  -0.1583
  C  C197  1  0.902350  0.947730  0.236190  1.0  0.6977
  C  C198  1  0.103330  0.093820  0.292150  1.0  0.6956
  C  C199  1  0.161170  0.138870  0.309120  1.0  -0.1389
  C  C200  1  0.182510  0.152660  0.355220  1.0  0.0112
  C  C201  1  0.230960  0.198480  0.371740  1.0  -0.1547
  C  C202  1  0.249740  0.216350  0.422280  1.0  0.6956
  C  C203  1  0.263200  0.226970  0.341270  1.0  -0.0764
  C  C204  1  0.244000  0.211460  0.294380  1.0  0.237
  C  C205  1  0.192830  0.167860  0.278180  1.0  -0.1654
  C  C206  1  0.259300  0.230620  0.219840  1.0  0.0151
  C  C207  1  0.291100  0.264220  0.191460  1.0  0.2327
  C  C208  1  0.335100  0.311210  0.209330  1.0  -0.0857
  C  C209  1  0.364360  0.343730  0.180190  1.0  -0.1214
  C  C210  1  0.416000  0.394930  0.200640  1.0  0.6944
  C  C211  1  0.348750  0.329550  0.133170  1.0  0.0203
  C  C212  1  0.303310  0.282380  0.115370  1.0  -0.12
  C  C213  1  0.274200  0.249190  0.144030  1.0  -0.2118
  C  C214  1  0.287220  0.263110  0.064230  1.0  0.6883
  C  C215  1  0.389050  0.182250  0.972270  1.0  0.6751
  C  C216  1  0.459150  0.153560  0.975610  1.0  -0.1333
  C  C217  1  0.523200  0.185660  0.974340  1.0  0.0088
  C  C218  1  0.587820  0.159120  0.981790  1.0  -0.1249
  C  C219  1  0.655910  0.192420  0.983670  1.0  0.6825
  C  C220  1  0.589100  0.102040  0.988380  1.0  -0.221
  C  C221  1  0.523200  0.073040  0.990000  1.0  0.2101
  C  C222  1  0.461300  0.097530  0.983360  1.0  -0.1931
  C  C223  1  0.529800  0.015700  0.997750  1.0  -0.1544
  C  C224  1  0.157030  0.291360  0.985430  1.0  0.6686
  C  C225  1  0.088000  0.388170  0.991820  1.0  -0.1758
  C  C226  1  0.087190  0.327580  0.991110  1.0  -0.1395
  C  C227  1  0.023380  0.299770  0.994080  1.0  0.0165
  C  C228  1  0.960680  0.332510  0.997600  1.0  -0.1204
  C  C229  1  0.890040  0.300840  0.997880  1.0  0.691
  C  C230  1  0.961100  0.392770  0.998750  1.0  -0.2208
  C  C231  1  0.027370  0.420830  0.996560  1.0  0.2122
  C  C232  1  0.029000  0.482170  0.998620  1.0  -0.1749
  C  C233  1  0.798800  0.206510  0.906020  1.0  0.6872
  C  C234  1  0.815300  0.186360  0.855620  1.0  -0.132
  C  C235  1  0.853180  0.134260  0.837550  1.0  0.0169
  C  C236  1  0.870660  0.117640  0.790310  1.0  -0.1611
  C  C237  1  0.916300  0.063870  0.769820  1.0  0.7015
  C  C238  1  0.850000  0.154300  0.761420  1.0  -0.0997
  C  C239  1  0.809700  0.205450  0.780800  1.0  0.2256
  C  C240  1  0.792300  0.221460  0.826670  1.0  -0.1619
  C  C241  1  0.750000  0.289860  0.765850  1.0  0.0283
  C  C242  1  0.727300  0.320390  0.733440  1.0  0.1986
  C  C243  1  0.747700  0.304610  0.688490  1.0  -0.1057
  C  C244  1  0.720700  0.336220  0.657640  1.0  -0.1451
  C  C245  1  0.739970  0.313540  0.606940  1.0  0.6795
  C  C246  1  0.673800  0.384240  0.673110  1.0  0.013
  C  C247  1  0.652250  0.401240  0.719550  1.0  -0.164
  C  C248  1  0.679200  0.369700  0.750570  1.0  -0.1575
  C  C249  1  0.597650  0.447730  0.736190  1.0  0.6983
  C  C250  1  0.396670  0.593820  0.792150  1.0  0.6951
  C  C251  1  0.338830  0.638870  0.809120  1.0  -0.138
  C  C252  1  0.317490  0.652660  0.855220  1.0  0.0123
  C  C253  1  0.269040  0.698480  0.871740  1.0  -0.1548
  C  C254  1  0.250260  0.716350  0.922280  1.0  0.6953
  C  C255  1  0.236800  0.726970  0.841270  1.0  -0.0776
  C  C256  1  0.256000  0.711460  0.794380  1.0  0.2346
  C  C257  1  0.307170  0.667860  0.778180  1.0  -0.1641
  C  C258  1  0.240700  0.730620  0.719840  1.0  0.0146
  C  C259  1  0.208900  0.764220  0.691460  1.0  0.232
  C  C260  1  0.164900  0.811210  0.709330  1.0  -0.0877
  C  C261  1  0.135640  0.843730  0.680190  1.0  -0.1219
  C  C262  1  0.084000  0.894930  0.700640  1.0  0.6934
  C  C263  1  0.151250  0.829550  0.633170  1.0  0.0205
  C  C264  1  0.196690  0.782380  0.615370  1.0  -0.1224
  C  C265  1  0.225800  0.749190  0.644030  1.0  -0.2067
  C  C266  1  0.212780  0.763110  0.564230  1.0  0.6877
  C  C267  1  0.110950  0.682250  0.472270  1.0  0.674
  C  C268  1  0.040850  0.653560  0.475610  1.0  -0.1345
  C  C269  1  0.976800  0.685660  0.474340  1.0  0.0093
  C  C270  1  0.912180  0.659120  0.481790  1.0  -0.1237
  C  C271  1  0.844090  0.692420  0.483670  1.0  0.6846
  C  C272  1  0.910900  0.602040  0.488380  1.0  -0.2227
  C  C273  1  0.976800  0.573040  0.490000  1.0  0.2119
  C  C274  1  0.038700  0.597530  0.483360  1.0  -0.1934
  C  C275  1  0.970200  0.515700  0.497750  1.0  -0.1559
  C  C276  1  0.342970  0.791360  0.485430  1.0  0.6689
  C  C277  1  0.412000  0.888170  0.491820  1.0  -0.1767
  C  C278  1  0.412810  0.827580  0.491110  1.0  -0.14
  C  C279  1  0.476620  0.799770  0.494080  1.0  0.0167
  C  C280  1  0.539320  0.832510  0.497600  1.0  -0.1195
  C  C281  1  0.609960  0.800840  0.497880  1.0  0.6895
  C  C282  1  0.538900  0.892770  0.498750  1.0  -0.2229
  C  C283  1  0.472630  0.920830  0.496560  1.0  0.2133
  C  C284  1  0.471000  0.982170  0.498620  1.0  -0.1754
  C  C285  1  0.298800  0.293490  0.593980  1.0  0.6852
  C  C286  1  0.315300  0.313640  0.644380  1.0  -0.1317
  C  C287  1  0.353180  0.365740  0.662450  1.0  0.0157
  C  C288  1  0.370660  0.382360  0.709690  1.0  -0.1611
  C  C289  1  0.416300  0.436130  0.730180  1.0  0.702
  C  C290  1  0.350000  0.345700  0.738580  1.0  -0.1014
  C  C291  1  0.309700  0.294550  0.719200  1.0  0.2277
  C  C292  1  0.292300  0.278540  0.673330  1.0  -0.1622
  C  C293  1  0.250000  0.210140  0.734150  1.0  0.0295
  C  C294  1  0.227300  0.179610  0.766560  1.0  0.1979
  C  C295  1  0.247700  0.195390  0.811510  1.0  -0.1058
  C  C296  1  0.220700  0.163780  0.842360  1.0  -0.147
  C  C297  1  0.239970  0.186460  0.893060  1.0  0.6794
  C  C298  1  0.173800  0.115760  0.826890  1.0  0.0131
  C  C299  1  0.152250  0.098760  0.780450  1.0  -0.1643
  C  C300  1  0.179200  0.130300  0.749430  1.0  -0.1558
  C  C301  1  0.097650  0.052270  0.763810  1.0  0.6978
  C  C302  1  0.896670  0.906180  0.707850  1.0  0.6956
  C  C303  1  0.838830  0.861130  0.690880  1.0  -0.1373
  C  C304  1  0.817490  0.847340  0.644780  1.0  0.0121
  C  C305  1  0.769040  0.801520  0.628260  1.0  -0.1552
  C  C306  1  0.750260  0.783650  0.577720  1.0  0.6949
  C  C307  1  0.736800  0.773030  0.658730  1.0  -0.0776
  C  C308  1  0.756000  0.788540  0.705620  1.0  0.2362
  C  C309  1  0.807170  0.832140  0.721820  1.0  -0.1631
  C  C310  1  0.740700  0.769380  0.780160  1.0  0.0143
  C  C311  1  0.708900  0.735780  0.808540  1.0  0.233
  C  C312  1  0.664900  0.688790  0.790670  1.0  -0.0858
  C  C313  1  0.635640  0.656270  0.819810  1.0  -0.1223
  C  C314  1  0.584000  0.605070  0.799360  1.0  0.6932
  C  C315  1  0.651250  0.670450  0.866830  1.0  0.0202
  C  C316  1  0.696690  0.717620  0.884630  1.0  -0.1234
  C  C317  1  0.725800  0.750810  0.855970  1.0  -0.2067
  C  C318  1  0.712780  0.736890  0.935770  1.0  0.6878
  C  C319  1  0.610950  0.817750  0.027730  1.0  0.6755
  C  C320  1  0.540850  0.846440  0.024390  1.0  -0.134
  C  C321  1  0.476800  0.814340  0.025660  1.0  0.0094
  C  C322  1  0.412180  0.840880  0.018210  1.0  -0.1224
  C  C323  1  0.344090  0.807580  0.016330  1.0  0.6846
  C  C324  1  0.410900  0.897960  0.011620  1.0  -0.2239
  C  C325  1  0.476800  0.926960  0.010000  1.0  0.2122
  C  C326  1  0.538700  0.902470  0.016640  1.0  -0.1931
  C  C327  1  0.470200  0.984300  0.002250  1.0  -0.1555
  C  C328  1  0.842970  0.708640  0.014570  1.0  0.6689
  C  C329  1  0.912000  0.611830  0.008180  1.0  -0.1782
  C  C330  1  0.912810  0.672420  0.008890  1.0  -0.1392
  C  C331  1  0.976620  0.700230  0.005920  1.0  0.0158
  C  C332  1  0.039320  0.667490  0.002400  1.0  -0.1197
  C  C333  1  0.109960  0.699160  0.002120  1.0  0.6895
  C  C334  1  0.038900  0.607230  0.001250  1.0  -0.2231
  C  C335  1  0.972630  0.579170  0.003440  1.0  0.2132
  C  C336  1  0.971000  0.517830  0.001380  1.0  -0.1766
  O  O337  1  0.232460  0.742950  0.079790  1.0  -0.5688
  O  O338  1  0.183050  0.828630  0.068520  1.0  -0.5679
  O  O339  1  0.066570  0.968460  0.203000  1.0  -0.5611
  O  O340  1  0.066730  0.944530  0.271950  1.0  -0.5609
  O  O341  1  0.209700  0.760360  0.251520  1.0  -0.2821
  O  O342  1  0.280510  0.652520  0.419060  1.0  -0.5673
  O  O343  1  0.226810  0.734630  0.405580  1.0  -0.5795
  O  O344  1  0.422490  0.522310  0.292200  1.0  -0.5728
  O  O345  1  0.423750  0.544360  0.222880  1.0  -0.571
  O  O346  1  0.580650  0.411640  0.248260  1.0  -0.5709
  O  O347  1  0.582100  0.435890  0.179840  1.0  -0.5669
  O  O348  1  0.723590  0.314070  0.052660  1.0  -0.558
  O  O349  1  0.790360  0.237800  0.064750  1.0  -0.564
  O  O350  1  0.777400  0.255510  0.234280  1.0  -0.2845
  O  O351  1  0.932400  0.097170  0.257520  1.0  -0.5656
  O  O352  1  0.936790  0.074400  0.326460  1.0  -0.5595
  O  O353  1  0.749630  0.282640  0.450040  1.0  -0.5616
  O  O354  1  0.814010  0.204280  0.460430  1.0  -0.5768
  O  O355  1  0.835590  0.346710  0.521420  1.0  -0.5882
  O  O356  1  0.889670  0.265810  0.536470  1.0  -0.5781
  O  O357  1  0.153770  0.255470  0.523500  1.0  -0.5576
  O  O358  1  0.210280  0.333170  0.505360  1.0  -0.5795
  O  O359  1  0.711560  0.180860  0.519970  1.0  -0.55
  O  O360  1  0.650720  0.262810  0.512660  1.0  -0.5619
  O  O361  1  0.392840  0.253460  0.499780  1.0  -0.5617
  O  O362  1  0.335030  0.168990  0.504140  1.0  -0.5572
  O  O363  1  0.732460  0.757050  0.420210  1.0  -0.5686
  O  O364  1  0.683050  0.671370  0.431480  1.0  -0.5688
  O  O365  1  0.566570  0.531540  0.297000  1.0  -0.5589
  O  O366  1  0.566730  0.555470  0.228050  1.0  -0.5603
  O  O367  1  0.709700  0.739640  0.248480  1.0  -0.2838
  O  O368  1  0.780510  0.847480  0.080940  1.0  -0.5667
  O  O369  1  0.726810  0.765370  0.094420  1.0  -0.579
  O  O370  1  0.922490  0.977690  0.207800  1.0  -0.5733
  O  O371  1  0.923750  0.955640  0.277120  1.0  -0.572
  O  O372  1  0.080650  0.088360  0.251740  1.0  -0.5711
  O  O373  1  0.082100  0.064110  0.320160  1.0  -0.5665
  O  O374  1  0.223590  0.185930  0.447340  1.0  -0.5574
  O  O375  1  0.290360  0.262200  0.435250  1.0  -0.5634
  O  O376  1  0.277400  0.244490  0.265720  1.0  -0.2808
  O  O377  1  0.432400  0.402830  0.242480  1.0  -0.5669
  O  O378  1  0.436790  0.425600  0.173540  1.0  -0.5606
  O  O379  1  0.249630  0.217360  0.049960  1.0  -0.5612
  O  O380  1  0.314010  0.295720  0.039570  1.0  -0.5781
  O  O381  1  0.335590  0.153290  0.978580  1.0  -0.5886
  O  O382  1  0.389670  0.234190  0.963530  1.0  -0.5776
  O  O383  1  0.653770  0.244530  0.976500  1.0  -0.5583
  O  O384  1  0.710280  0.166830  0.994640  1.0  -0.5787
  O  O385  1  0.211560  0.319140  0.980030  1.0  -0.5513
  O  O386  1  0.150720  0.237190  0.987340  1.0  -0.5631
  O  O387  1  0.892840  0.246540  0.000220  1.0  -0.5626
  O  O388  1  0.835030  0.331010  0.995860  1.0  -0.5591
  O  O389  1  0.767540  0.257050  0.920210  1.0  -0.568
  O  O390  1  0.816950  0.171370  0.931480  1.0  -0.5678
  O  O391  1  0.933430  0.031540  0.797000  1.0  -0.5591
  O  O392  1  0.933270  0.055470  0.728050  1.0  -0.5604
  O  O393  1  0.790300  0.239640  0.748480  1.0  -0.2844
  O  O394  1  0.719490  0.347480  0.580940  1.0  -0.5667
  O  O395  1  0.773190  0.265370  0.594420  1.0  -0.5792
  O  O396  1  0.577510  0.477690  0.707800  1.0  -0.5715
  O  O397  1  0.576250  0.455640  0.777120  1.0  -0.572
  O  O398  1  0.419350  0.588360  0.751740  1.0  -0.5716
  O  O399  1  0.417900  0.564110  0.820160  1.0  -0.5678
  O  O400  1  0.276410  0.685930  0.947340  1.0  -0.5578
  O  O401  1  0.209640  0.762200  0.935250  1.0  -0.5646
  O  O402  1  0.222600  0.744490  0.765720  1.0  -0.2804
  O  O403  1  0.067600  0.902830  0.742480  1.0  -0.5676
  O  O404  1  0.063210  0.925600  0.673540  1.0  -0.562
  O  O405  1  0.250370  0.717360  0.549960  1.0  -0.5613
  O  O406  1  0.185990  0.795720  0.539570  1.0  -0.5778
  O  O407  1  0.164410  0.653290  0.478580  1.0  -0.5887
  O  O408  1  0.110330  0.734190  0.463530  1.0  -0.5789
  O  O409  1  0.846230  0.744530  0.476500  1.0  -0.5568
  O  O410  1  0.789720  0.666830  0.494640  1.0  -0.5788
  O  O411  1  0.288440  0.819140  0.480030  1.0  -0.5498
  O  O412  1  0.349280  0.737190  0.487340  1.0  -0.5632
  O  O413  1  0.607160  0.746540  0.500220  1.0  -0.563
  O  O414  1  0.664970  0.831010  0.495860  1.0  -0.5595
  O  O415  1  0.267540  0.242950  0.579790  1.0  -0.568
  O  O416  1  0.316950  0.328630  0.568520  1.0  -0.5684
  O  O417  1  0.433430  0.468460  0.703000  1.0  -0.5614
  O  O418  1  0.433270  0.444530  0.771950  1.0  -0.5608
  O  O419  1  0.290300  0.260360  0.751520  1.0  -0.2818
  O  O420  1  0.219490  0.152520  0.919060  1.0  -0.5674
  O  O421  1  0.273190  0.234630  0.905580  1.0  -0.5797
  O  O422  1  0.077510  0.022310  0.792200  1.0  -0.5714
  O  O423  1  0.076250  0.044360  0.722880  1.0  -0.5723
  O  O424  1  0.919350  0.911640  0.748260  1.0  -0.5713
  O  O425  1  0.917900  0.935890  0.679840  1.0  -0.5682
  O  O426  1  0.776410  0.814070  0.552660  1.0  -0.5574
  O  O427  1  0.709640  0.737800  0.564750  1.0  -0.5645
  O  O428  1  0.722600  0.755510  0.734280  1.0  -0.2842
  O  O429  1  0.567600  0.597170  0.757520  1.0  -0.5664
  O  O430  1  0.563210  0.574400  0.826460  1.0  -0.5601
  O  O431  1  0.750370  0.782640  0.950040  1.0  -0.5616
  O  O432  1  0.685990  0.704280  0.960430  1.0  -0.5764
  O  O433  1  0.664410  0.846710  0.021420  1.0  -0.5892
  O  O434  1  0.610330  0.765810  0.036470  1.0  -0.5794
  O  O435  1  0.346230  0.755470  0.023500  1.0  -0.5572
  O  O436  1  0.289720  0.833170  0.005360  1.0  -0.579
  O  O437  1  0.788440  0.680860  0.019970  1.0  -0.5503
  O  O438  1  0.849280  0.762810  0.012660  1.0  -0.5617
  O  O439  1  0.107160  0.753460  0.999780  1.0  -0.5625
  O  O440  1  0.164970  0.668990  0.004140  1.0  -0.5574
