# generated using pymatgen
data_UH3C8SO7
_symmetry_space_group_name_H-M   'P 1'
_cell_length_a   11.48010000
_cell_length_b   21.05660000
_cell_length_c   14.72270000
_cell_angle_alpha   90.00000000
_cell_angle_beta   110.47100000
_cell_angle_gamma   90.00000000
_symmetry_Int_Tables_number   1
_chemical_formula_structural   UH3C8SO7
_chemical_formula_sum   'U8 H24 C64 S8 O56'
_cell_volume   3334.19602373
_cell_formula_units_Z   8
loop_
 _symmetry_equiv_pos_site_id
 _symmetry_equiv_pos_as_xyz
  1  'x, y, z'
loop_
 _atom_site_type_symbol
 _atom_site_label
 _atom_site_symmetry_multiplicity
 _atom_site_fract_x
 _atom_site_fract_y
 _atom_site_fract_z
 _atom_site_occupancy
 _atom_site_charge
  U  U1  1  0.106490  0.471200  0.874690  1.0  1.6724
  U  U2  1  0.390990  0.245480  0.955950  1.0  1.647
  U  U3  1  0.893510  0.971200  0.625310  1.0  1.6747
  U  U4  1  0.609010  0.745480  0.544050  1.0  1.649
  U  U5  1  0.893510  0.528800  0.125310  1.0  1.6743
  U  U6  1  0.609010  0.754520  0.044050  1.0  1.6488
  U  U7  1  0.106490  0.028800  0.374690  1.0  1.672
  U  U8  1  0.390990  0.254520  0.455950  1.0  1.6467
  H  H9  1  0.759400  0.339200  0.972900  1.0  0.1259
  H  H10  1  0.893300  0.161200  0.992400  1.0  0.1373
  H  H11  1  0.126700  0.311000  0.045000  1.0  0.1288
  H  H12  1  0.033100  0.181500  0.776100  1.0  0.1285
  H  H13  1  0.662200  0.196500  0.666667  1.0  0.1339
  H  H14  1  0.871500  0.353000  0.761400  1.0  0.1391
  H  H15  1  0.240600  0.839200  0.527100  1.0  0.1252
  H  H16  1  0.106700  0.661200  0.507600  1.0  0.1377
  H  H17  1  0.873300  0.811000  0.455000  1.0  0.1291
  H  H18  1  0.966900  0.681500  0.723900  1.0  0.1286
  H  H19  1  0.337800  0.696500  0.833300  1.0  0.1343
  H  H20  1  0.128500  0.853000  0.738600  1.0  0.1384
  H  H21  1  0.240600  0.660800  0.027100  1.0  0.1256
  H  H22  1  0.106700  0.838800  0.007600  1.0  0.1369
  H  H23  1  0.873300  0.689000  0.955000  1.0  0.1289
  H  H24  1  0.966900  0.818500  0.223900  1.0  0.1286
  H  H25  1  0.337800  0.803500  0.333333  1.0  0.1346
  H  H26  1  0.128500  0.647000  0.238600  1.0  0.1395
  H  H27  1  0.759400  0.160800  0.472900  1.0  0.1256
  H  H28  1  0.893300  0.338800  0.492400  1.0  0.137
  H  H29  1  0.126700  0.189000  0.545000  1.0  0.1289
  H  H30  1  0.033100  0.318500  0.276100  1.0  0.1286
  H  H31  1  0.662200  0.303500  0.166700  1.0  0.1336
  H  H32  1  0.871500  0.147000  0.261400  1.0  0.1395
  C  C33  1  0.969600  0.405400  0.012100  1.0  0.7398
  C  C34  1  0.676300  0.219300  0.947300  1.0  0.6723
  C  C35  1  0.945800  0.336100  0.007600  1.0  -0.1405
  C  C36  1  0.826500  0.311700  0.984600  1.0  0.0462
  C  C37  1  0.806500  0.246100  0.978700  1.0  -0.1122
  C  C38  1  0.906400  0.204900  0.997700  1.0  0.046
  C  C39  1  0.027500  0.229600  0.025100  1.0  -0.2226
  C  C40  1  0.046500  0.294900  0.028600  1.0  0.0447
  C  C41  1  0.096400  0.301700  0.825000  1.0  0.7043
  C  C42  1  0.829800  0.108100  0.696400  1.0  0.7273
  C  C43  1  0.970100  0.271900  0.777700  1.0  -0.1157
  C  C44  1  0.961400  0.206100  0.760100  1.0  0.0257
  C  C45  1  0.847100  0.178400  0.719300  1.0  -0.1405
  C  C46  1  0.739700  0.215600  0.694100  1.0  0.0484
  C  C47  1  0.747500  0.280600  0.709300  1.0  -0.2616
  C  C48  1  0.865000  0.309400  0.751400  1.0  0.0217
  C  C49  1  0.030400  0.905400  0.487900  1.0  0.7405
  C  C50  1  0.323700  0.719300  0.552700  1.0  0.673
  C  C51  1  0.054200  0.836100  0.492400  1.0  -0.1412
  C  C52  1  0.173500  0.811700  0.515400  1.0  0.0454
  C  C53  1  0.193500  0.746100  0.521300  1.0  -0.1127
  C  C54  1  0.093600  0.704900  0.502300  1.0  0.0469
  C  C55  1  0.972500  0.729600  0.474900  1.0  -0.2245
  C  C56  1  0.953500  0.794900  0.471400  1.0  0.0462
  C  C57  1  0.903600  0.801700  0.675000  1.0  0.7034
  C  C58  1  0.170200  0.608100  0.803600  1.0  0.7292
  C  C59  1  0.029900  0.771900  0.722300  1.0  -0.1163
  C  C60  1  0.038600  0.706100  0.739900  1.0  0.0262
  C  C61  1  0.152900  0.678400  0.780700  1.0  -0.1403
  C  C62  1  0.260300  0.715600  0.805900  1.0  0.0475
  C  C63  1  0.252500  0.780600  0.790700  1.0  -0.2574
  C  C64  1  0.135000  0.809400  0.748600  1.0  0.0226
  C  C65  1  0.030400  0.594600  0.987900  1.0  0.7376
  C  C66  1  0.323700  0.780700  0.052700  1.0  0.6734
  C  C67  1  0.054200  0.663900  0.992400  1.0  -0.1417
  C  C68  1  0.173500  0.688300  0.015400  1.0  0.0445
  C  C69  1  0.193500  0.753900  0.021300  1.0  -0.113
  C  C70  1  0.093600  0.795100  0.002300  1.0  0.0474
  C  C71  1  0.972500  0.770400  0.974900  1.0  -0.2231
  C  C72  1  0.953500  0.705100  0.971400  1.0  0.0463
  C  C73  1  0.903600  0.698300  0.175000  1.0  0.7032
  C  C74  1  0.170200  0.891900  0.303600  1.0  0.7309
  C  C75  1  0.029900  0.728100  0.222300  1.0  -0.1173
  C  C76  1  0.038600  0.793900  0.239900  1.0  0.0259
  C  C77  1  0.152900  0.821600  0.280700  1.0  -0.1384
  C  C78  1  0.260300  0.784400  0.305900  1.0  0.048
  C  C79  1  0.252500  0.719400  0.290700  1.0  -0.2574
  C  C80  1  0.135000  0.690600  0.248600  1.0  0.0234
  C  C81  1  0.969600  0.094600  0.512100  1.0  0.7374
  C  C82  1  0.676300  0.280700  0.447300  1.0  0.6742
  C  C83  1  0.945800  0.163900  0.507600  1.0  -0.1408
  C  C84  1  0.826500  0.188300  0.484600  1.0  0.0458
  C  C85  1  0.806500  0.253900  0.478700  1.0  -0.1119
  C  C86  1  0.906400  0.295100  0.497700  1.0  0.0454
  C  C87  1  0.027500  0.270400  0.525100  1.0  -0.222
  C  C88  1  0.046500  0.205100  0.528600  1.0  0.0452
  C  C89  1  0.096400  0.198300  0.325000  1.0  0.7049
  C  C90  1  0.829800  0.391900  0.196400  1.0  0.7306
  C  C91  1  0.970100  0.228100  0.277700  1.0  -0.116
  C  C92  1  0.961400  0.293900  0.260100  1.0  0.0263
  C  C93  1  0.847100  0.321600  0.219300  1.0  -0.1399
  C  C94  1  0.739700  0.284400  0.194100  1.0  0.0477
  C  C95  1  0.747500  0.219400  0.209300  1.0  -0.2622
  C  C96  1  0.865000  0.190600  0.251400  1.0  0.0222
  S  S97  1  0.156390  0.178250  0.055700  1.0  1.3983
  S  S98  1  0.613080  0.327390  0.677920  1.0  1.4008
  S  S99  1  0.843610  0.678250  0.444300  1.0  1.3978
  S  S100  1  0.386920  0.827390  0.822080  1.0  1.3989
  S  S101  1  0.843610  0.821750  0.944300  1.0  1.398
  S  S102  1  0.386920  0.672610  0.322080  1.0  1.3994
  S  S103  1  0.156390  0.321750  0.555700  1.0  1.3977
  S  S104  1  0.613080  0.172610  0.177920  1.0  1.4009
  O  O105  1  0.074200  0.423300  0.008200  1.0  -0.6965
  O  O106  1  0.886300  0.442500  0.018200  1.0  -0.6978
  O  O107  1  0.593900  0.257600  0.960400  1.0  -0.6843
  O  O108  1  0.657000  0.165000  0.918900  1.0  -0.4598
  O  O109  1  0.255900  0.216800  0.043700  1.0  -0.6818
  O  O110  1  0.122700  0.124800  0.991200  1.0  -0.5405
  O  O111  1  0.185600  0.160900  0.156900  1.0  -0.6206
  O  O112  1  0.104000  0.360200  0.839600  1.0  -0.7521
  O  O113  1  0.187700  0.264200  0.849800  1.0  -0.7431
  O  O114  1  0.926900  0.073400  0.711900  1.0  -0.6753
  O  O115  1  0.721900  0.087000  0.658000  1.0  -0.5515
  O  O116  1  0.513700  0.287200  0.615200  1.0  -0.7039
  O  O117  1  0.590800  0.341900  0.766800  1.0  -0.6154
  O  O118  1  0.634500  0.383100  0.629500  1.0  -0.5782
  O  O119  1  0.925800  0.923300  0.491800  1.0  -0.6965
  O  O120  1  0.113700  0.942500  0.481800  1.0  -0.6976
  O  O121  1  0.406100  0.757600  0.539600  1.0  -0.6797
  O  O122  1  0.343000  0.665000  0.581100  1.0  -0.4595
  O  O123  1  0.744100  0.716800  0.456300  1.0  -0.6831
  O  O124  1  0.877300  0.624800  0.508800  1.0  -0.5407
  O  O125  1  0.814400  0.660900  0.343100  1.0  -0.6184
  O  O126  1  0.896000  0.860200  0.660400  1.0  -0.7552
  O  O127  1  0.812300  0.764200  0.650200  1.0  -0.7444
  O  O128  1  0.073100  0.573400  0.788100  1.0  -0.6739
  O  O129  1  0.278100  0.587000  0.842000  1.0  -0.5515
  O  O130  1  0.486300  0.787200  0.884800  1.0  -0.7036
  O  O131  1  0.409200  0.841900  0.733200  1.0  -0.6161
  O  O132  1  0.365500  0.883100  0.870500  1.0  -0.5766
  O  O133  1  0.925800  0.576700  0.991800  1.0  -0.6976
  O  O134  1  0.113700  0.557500  0.981800  1.0  -0.6974
  O  O135  1  0.406100  0.742400  0.039600  1.0  -0.6811
  O  O136  1  0.343000  0.835000  0.081100  1.0  -0.46
  O  O137  1  0.744100  0.783200  0.956300  1.0  -0.6832
  O  O138  1  0.877300  0.875200  0.008800  1.0  -0.5432
  O  O139  1  0.814400  0.839100  0.843100  1.0  -0.6182
  O  O140  1  0.896000  0.639800  0.160400  1.0  -0.7532
  O  O141  1  0.812300  0.735800  0.150200  1.0  -0.7447
  O  O142  1  0.073100  0.926600  0.288100  1.0  -0.6757
  O  O143  1  0.278100  0.913000  0.342000  1.0  -0.5511
  O  O144  1  0.486300  0.712800  0.384800  1.0  -0.704
  O  O145  1  0.409200  0.658100  0.233200  1.0  -0.6151
  O  O146  1  0.365500  0.616900  0.370500  1.0  -0.5742
  O  O147  1  0.074200  0.076700  0.508200  1.0  -0.6973
  O  O148  1  0.886300  0.057500  0.518200  1.0  -0.6977
  O  O149  1  0.593900  0.242400  0.460400  1.0  -0.6859
  O  O150  1  0.657000  0.335000  0.418900  1.0  -0.46
  O  O151  1  0.255900  0.283200  0.543700  1.0  -0.6823
  O  O152  1  0.122700  0.375200  0.491200  1.0  -0.5434
  O  O153  1  0.185600  0.339100  0.656900  1.0  -0.6212
  O  O154  1  0.104000  0.139800  0.339600  1.0  -0.7544
  O  O155  1  0.187700  0.235800  0.349800  1.0  -0.7419
  O  O156  1  0.926900  0.426600  0.211900  1.0  -0.6776
  O  O157  1  0.721900  0.413000  0.158000  1.0  -0.5507
  O  O158  1  0.513700  0.212800  0.115200  1.0  -0.7039
  O  O159  1  0.590800  0.158100  0.266800  1.0  -0.6131
  O  O160  1  0.634500  0.116900  0.129500  1.0  -0.5741
