# generated using pymatgen
data_CoH9C8N5O2
_symmetry_space_group_name_H-M   'P 1'
_cell_length_a   15.81890000
_cell_length_b   15.81890000
_cell_length_c   15.81890000
_cell_angle_alpha   100.84500000
_cell_angle_beta   113.94900000
_cell_angle_gamma   113.94900000
_symmetry_Int_Tables_number   1
_chemical_formula_structural   CoH9C8N5O2
_chemical_formula_sum   'Co8 H72 C64 N40 O16'
_cell_volume   2996.56366512
_cell_formula_units_Z   8
loop_
 _symmetry_equiv_pos_site_id
 _symmetry_equiv_pos_as_xyz
  1  'x, y, z'
loop_
 _atom_site_type_symbol
 _atom_site_label
 _atom_site_symmetry_multiplicity
 _atom_site_fract_x
 _atom_site_fract_y
 _atom_site_fract_z
 _atom_site_occupancy
 _atom_site_charge
  Co  Co1  1  0.493150  0.591170  0.022800  1.0  0.8351
  Co  Co2  1  0.006850  0.029650  0.098020  1.0  0.8363
  Co  Co3  1  0.431630  0.022800  0.029650  1.0  0.8357
  Co  Co4  1  0.068370  0.098020  0.591170  1.0  0.8369
  Co  Co5  1  0.506850  0.408830  0.977200  1.0  0.8353
  Co  Co6  1  0.993150  0.970350  0.901980  1.0  0.8361
  Co  Co7  1  0.568370  0.977200  0.970350  1.0  0.8357
  Co  Co8  1  0.931630  0.901980  0.408830  1.0  0.8374
  H  H9  1  0.585200  0.785800  0.997200  1.0  0.0677
  H  H10  1  0.524500  0.521300  0.731800  1.0  0.1224
  H  H11  1  0.644900  0.554000  0.807500  1.0  0.1006
  H  H12  1  0.645200  0.683500  0.759700  1.0  0.1016
  H  H13  1  0.693300  0.722100  0.877200  1.0  0.0974
  H  H14  1  0.572500  0.689400  0.801700  1.0  0.1055
  H  H15  1  0.301900  0.888800  0.107900  1.0  0.039
  H  H16  1  0.292200  0.622900  0.148500  1.0  0.3563
  H  H17  1  0.364800  0.605700  0.120300  1.0  0.3311
  H  H18  1  0.914800  0.912000  0.200600  1.0  0.0683
  H  H19  1  0.975500  0.707300  0.996800  1.0  0.1219
  H  H20  1  0.855100  0.662600  0.909100  1.0  0.1043
  H  H21  1  0.854800  0.614500  0.038300  1.0  0.0997
  H  H22  1  0.806700  0.683900  0.028800  1.0  0.096
  H  H23  1  0.927500  0.729200  0.116900  1.0  0.1061
  H  H24  1  0.198100  0.306000  0.586900  1.0  0.0392
  H  H25  1  0.207800  0.356300  0.330700  1.0  0.3556
  H  H26  1  0.135200  0.255500  0.240900  1.0  0.3282
  H  H27  1  0.211400  0.997200  0.912000  1.0  0.0691
  H  H28  1  0.210500  0.731800  0.707300  1.0  0.123
  H  H29  1  0.253500  0.807500  0.662600  1.0  0.1048
  H  H30  1  0.076200  0.759700  0.614500  1.0  0.1033
  H  H31  1  0.155100  0.877200  0.683900  1.0  0.0992
  H  H32  1  0.112300  0.801700  0.729200  1.0  0.106
  H  H33  1  0.219100  0.107900  0.306000  1.0  0.04
  H  H34  1  0.525600  0.148500  0.356300  1.0  0.3571
  H  H35  1  0.514600  0.120300  0.255500  1.0  0.3307
  H  H36  1  0.288600  0.200600  0.785800  1.0  0.0685
  H  H37  1  0.289500  0.996800  0.521300  1.0  0.1239
  H  H38  1  0.246500  0.909100  0.554000  1.0  0.1048
  H  H39  1  0.423800  0.038300  0.683500  1.0  0.1005
  H  H40  1  0.344900  0.028800  0.722100  1.0  0.0993
  H  H41  1  0.387700  0.116900  0.689400  1.0  0.1077
  H  H42  1  0.280900  0.586900  0.888800  1.0  0.04
  H  H43  1  0.974400  0.330700  0.622900  1.0  0.3561
  H  H44  1  0.985400  0.240900  0.605700  1.0  0.3289
  H  H45  1  0.414800  0.214200  0.002800  1.0  0.0682
  H  H46  1  0.475500  0.478700  0.268200  1.0  0.1227
  H  H47  1  0.355100  0.446000  0.192500  1.0  0.1013
  H  H48  1  0.354800  0.316500  0.240300  1.0  0.1021
  H  H49  1  0.306700  0.277900  0.122800  1.0  0.0985
  H  H50  1  0.427500  0.310600  0.198300  1.0  0.1073
  H  H51  1  0.698100  0.111200  0.892100  1.0  0.0376
  H  H52  1  0.707800  0.377100  0.851500  1.0  0.3561
  H  H53  1  0.635200  0.394300  0.879700  1.0  0.3287
  H  H54  1  0.085200  0.088000  0.799400  1.0  0.069
  H  H55  1  0.024500  0.292700  0.003200  1.0  0.1262
  H  H56  1  0.144900  0.337400  0.090900  1.0  0.1062
  H  H57  1  0.145200  0.385500  0.961700  1.0  0.102
  H  H58  1  0.193300  0.316100  0.971200  1.0  0.096
  H  H59  1  0.072500  0.270800  0.883100  1.0  0.1047
  H  H60  1  0.801900  0.694000  0.413100  1.0  0.0397
  H  H61  1  0.792200  0.643700  0.669300  1.0  0.3546
  H  H62  1  0.864800  0.744500  0.759100  1.0  0.3304
  H  H63  1  0.788600  0.002800  0.088000  1.0  0.0684
  H  H64  1  0.789500  0.268200  0.292700  1.0  0.1233
  H  H65  1  0.746500  0.192500  0.337400  1.0  0.1031
  H  H66  1  0.923800  0.240300  0.385500  1.0  0.1015
  H  H67  1  0.844900  0.122800  0.316100  1.0  0.0972
  H  H68  1  0.887700  0.198300  0.270800  1.0  0.1052
  H  H69  1  0.780900  0.892100  0.694000  1.0  0.041
  H  H70  1  0.474400  0.851500  0.643700  1.0  0.3558
  H  H71  1  0.485400  0.879700  0.744500  1.0  0.3297
  H  H72  1  0.711400  0.799400  0.214200  1.0  0.0683
  H  H73  1  0.710500  0.003200  0.478700  1.0  0.1252
  H  H74  1  0.753500  0.090900  0.446000  1.0  0.1055
  H  H75  1  0.576200  0.961700  0.316500  1.0  0.1022
  H  H76  1  0.655100  0.971200  0.277900  1.0  0.0978
  H  H77  1  0.612300  0.883100  0.310600  1.0  0.1039
  H  H78  1  0.719100  0.413100  0.111200  1.0  0.0409
  H  H79  1  0.025600  0.669300  0.377100  1.0  0.3571
  H  H80  1  0.014600  0.759100  0.394300  1.0  0.3293
  C  C81  1  0.539450  0.790040  0.018270  1.0  0.3187
  C  C82  1  0.431750  0.757270  0.072020  1.0  -0.1065
  C  C83  1  0.360860  0.722260  0.106600  1.0  0.4974
  C  C84  1  0.558480  0.543370  0.874970  1.0  0.7196
  C  C85  1  0.588290  0.567510  0.800220  1.0  -0.2809
  C  C86  1  0.628400  0.675400  0.810600  1.0  -0.2682
  C  C87  1  0.449640  0.843540  0.054400  1.0  0.3919
  C  C88  1  0.337120  0.856210  0.099070  1.0  0.4089
  C  C89  1  0.960550  0.978820  0.250590  1.0  0.3173
  C  C90  1  0.068250  0.140270  0.325520  1.0  -0.1038
  C  C91  1  0.139140  0.245740  0.361400  1.0  0.5003
  C  C92  1  0.941520  0.816490  0.984890  1.0  0.7212
  C  C93  1  0.911710  0.711930  0.979220  1.0  -0.2784
  C  C94  1  0.871600  0.682200  0.047000  1.0  -0.27
  C  C95  1  0.050360  0.104760  0.393900  1.0  0.3943
  C  C96  1  0.162880  0.261950  0.519090  1.0  0.4093
  C  C97  1  0.228230  0.018270  0.978820  1.0  0.318
  C  C98  1  0.314750  0.072020  0.140270  1.0  -0.1036
  C  C99  1  0.384340  0.106600  0.245740  1.0  0.5005
  C  C100  1  0.331600  0.874970  0.816490  1.0  0.7182
  C  C101  1  0.232710  0.800220  0.711930  1.0  -0.2775
  C  C102  1  0.135200  0.810600  0.682200  1.0  -0.2748
  C  C103  1  0.210860  0.054400  0.104760  1.0  0.393
  C  C104  1  0.242860  0.099070  0.261950  1.0  0.4153
  C  C105  1  0.271770  0.250590  0.790040  1.0  0.3182
  C  C106  1  0.185250  0.325520  0.757270  1.0  -0.1076
  C  C107  1  0.115660  0.361400  0.722260  1.0  0.4964
  C  C108  1  0.168400  0.984890  0.543370  1.0  0.7184
  C  C109  1  0.267290  0.979220  0.567510  1.0  -0.281
  C  C110  1  0.364800  0.047000  0.675400  1.0  -0.2738
  C  C111  1  0.289140  0.393900  0.843540  1.0  0.3935
  C  C112  1  0.257140  0.519090  0.856210  1.0  0.4084
  C  C113  1  0.460550  0.209960  0.981730  1.0  0.3185
  C  C114  1  0.568250  0.242730  0.927980  1.0  -0.1052
  C  C115  1  0.639140  0.277740  0.893400  1.0  0.4951
  C  C116  1  0.441520  0.456630  0.125030  1.0  0.7177
  C  C117  1  0.411710  0.432490  0.199780  1.0  -0.2827
  C  C118  1  0.371600  0.324600  0.189400  1.0  -0.2719
  C  C119  1  0.550360  0.156460  0.945600  1.0  0.3925
  C  C120  1  0.662880  0.143790  0.900930  1.0  0.4082
  C  C121  1  0.039450  0.021180  0.749410  1.0  0.3172
  C  C122  1  0.931750  0.859730  0.674480  1.0  -0.1076
  C  C123  1  0.860860  0.754260  0.638600  1.0  0.5002
  C  C124  1  0.058480  0.183510  0.015110  1.0  0.7188
  C  C125  1  0.088290  0.288070  0.020780  1.0  -0.2796
  C  C126  1  0.128400  0.317800  0.953000  1.0  -0.2709
  C  C127  1  0.949640  0.895240  0.606100  1.0  0.3939
  C  C128  1  0.837120  0.738050  0.480910  1.0  0.4097
  C  C129  1  0.771770  0.981730  0.021180  1.0  0.3187
  C  C130  1  0.685250  0.927980  0.859730  1.0  -0.1078
  C  C131  1  0.615660  0.893400  0.754260  1.0  0.4972
  C  C132  1  0.668400  0.125030  0.183510  1.0  0.7199
  C  C133  1  0.767290  0.199780  0.288070  1.0  -0.2779
  C  C134  1  0.864800  0.189400  0.317800  1.0  -0.2702
  C  C135  1  0.789140  0.945600  0.895240  1.0  0.3928
  C  C136  1  0.757140  0.900930  0.738050  1.0  0.4108
  C  C137  1  0.728230  0.749410  0.209960  1.0  0.3192
  C  C138  1  0.814750  0.674480  0.242730  1.0  -0.1035
  C  C139  1  0.884340  0.638600  0.277740  1.0  0.4963
  C  C140  1  0.831600  0.015110  0.456630  1.0  0.7154
  C  C141  1  0.732710  0.020780  0.432490  1.0  -0.2806
  C  C142  1  0.635200  0.953000  0.324600  1.0  -0.2704
  C  C143  1  0.710860  0.606100  0.156460  1.0  0.3947
  C  C144  1  0.742860  0.480910  0.143790  1.0  0.4079
  N  N145  1  0.490480  0.722300  0.047900  1.0  -0.3967
  N  N146  1  0.336350  0.640550  0.127620  1.0  -0.6721
  N  N147  1  0.314180  0.774980  0.119260  1.0  -0.5929
  N  N148  1  0.519010  0.865030  0.020440  1.0  -0.5071
  N  N149  1  0.403800  0.897230  0.067830  1.0  -0.4928
  N  N150  1  0.009520  0.057420  0.231820  1.0  -0.3974
  N  N151  1  0.163650  0.291270  0.304200  1.0  -0.6684
  N  N152  1  0.185820  0.305080  0.460800  1.0  -0.5934
  N  N153  1  0.980990  0.001430  0.346020  1.0  -0.5086
  N  N154  1  0.096200  0.164030  0.493430  1.0  -0.4926
  N  N155  1  0.325600  0.047900  0.057420  1.0  -0.3965
  N  N156  1  0.487070  0.127620  0.291270  1.0  -0.6742
  N  N157  1  0.344280  0.119260  0.305080  1.0  -0.5927
  N  N158  1  0.155410  0.020440  0.001430  1.0  -0.5073
  N  N159  1  0.170600  0.067830  0.164030  1.0  -0.4947
  N  N160  1  0.174400  0.231820  0.722300  1.0  -0.3979
  N  N161  1  0.012930  0.304200  0.640550  1.0  -0.67
  N  N162  1  0.155720  0.460800  0.774980  1.0  -0.5938
  N  N163  1  0.344590  0.346020  0.865030  1.0  -0.5099
  N  N164  1  0.329400  0.493430  0.897230  1.0  -0.4925
  N  N165  1  0.509520  0.277700  0.952100  1.0  -0.3972
  N  N166  1  0.663650  0.359450  0.872380  1.0  -0.6717
  N  N167  1  0.685820  0.225020  0.880740  1.0  -0.5932
  N  N168  1  0.480990  0.134970  0.979560  1.0  -0.506
  N  N169  1  0.596200  0.102770  0.932170  1.0  -0.4922
  N  N170  1  0.990480  0.942580  0.768180  1.0  -0.3966
  N  N171  1  0.836350  0.708730  0.695800  1.0  -0.6684
  N  N172  1  0.814180  0.694920  0.539200  1.0  -0.5921
  N  N173  1  0.019010  0.998570  0.653980  1.0  -0.5087
  N  N174  1  0.903800  0.835970  0.506570  1.0  -0.4952
  N  N175  1  0.674400  0.952100  0.942580  1.0  -0.3981
  N  N176  1  0.512930  0.872380  0.708730  1.0  -0.6708
  N  N177  1  0.655720  0.880740  0.694920  1.0  -0.5939
  N  N178  1  0.844590  0.979560  0.998570  1.0  -0.5102
  N  N179  1  0.829400  0.932170  0.835970  1.0  -0.4937
  N  N180  1  0.825600  0.768180  0.277700  1.0  -0.3987
  N  N181  1  0.987070  0.695800  0.359450  1.0  -0.6697
  N  N182  1  0.844280  0.539200  0.225020  1.0  -0.593
  N  N183  1  0.655410  0.653980  0.134970  1.0  -0.5088
  N  N184  1  0.670600  0.506570  0.102770  1.0  -0.4966
  O  O185  1  0.536330  0.598960  0.917190  1.0  -0.5781
  O  O186  1  0.555280  0.466550  0.889330  1.0  -0.6002
  O  O187  1  0.963670  0.880860  0.062630  1.0  -0.5796
  O  O188  1  0.944720  0.834050  0.911270  1.0  -0.6012
  O  O189  1  0.318230  0.917190  0.880860  1.0  -0.5783
  O  O190  1  0.422780  0.889330  0.834050  1.0  -0.6013
  O  O191  1  0.181770  0.062630  0.598960  1.0  -0.5788
  O  O192  1  0.077220  0.911270  0.466550  1.0  -0.6027
  O  O193  1  0.463670  0.401040  0.082810  1.0  -0.5781
  O  O194  1  0.444720  0.533450  0.110670  1.0  -0.5996
  O  O195  1  0.036330  0.119140  0.937370  1.0  -0.5798
  O  O196  1  0.055280  0.165950  0.088730  1.0  -0.602
  O  O197  1  0.681770  0.082810  0.119140  1.0  -0.5791
  O  O198  1  0.577220  0.110670  0.165950  1.0  -0.6013
  O  O199  1  0.818230  0.937370  0.401040  1.0  -0.579
  O  O200  1  0.922780  0.088730  0.533450  1.0  -0.6026
