# generated using pymatgen
data_MnAg3H5C9N8
_symmetry_space_group_name_H-M   'P 1'
_cell_length_a   7.57390000
_cell_length_b   8.50280000
_cell_length_c   15.49450000
_cell_angle_alpha   99.56800000
_cell_angle_beta   103.00900000
_cell_angle_gamma   90.67100000
_symmetry_Int_Tables_number   1
_chemical_formula_structural   MnAg3H5C9N8
_chemical_formula_sum   'Mn2 Ag6 H10 C18 N16'
_cell_volume   957.44737874
_cell_formula_units_Z   2
loop_
 _symmetry_equiv_pos_site_id
 _symmetry_equiv_pos_as_xyz
  1  'x, y, z'
loop_
 _atom_site_type_symbol
 _atom_site_label
 _atom_site_symmetry_multiplicity
 _atom_site_fract_x
 _atom_site_fract_y
 _atom_site_fract_z
 _atom_site_occupancy
 _atom_site_charge
  Mn  Mn1  1  0.000000  0.000000  0.000000  1.0  0.7656
  Mn  Mn2  1  0.500000  0.000000  0.500000  1.0  1.0546
  Ag  Ag3  1  0.348300  0.515980  0.214250  1.0  0.3541
  Ag  Ag4  1  0.562460  0.637450  0.093160  1.0  0.3693
  Ag  Ag5  1  0.070200  0.352450  0.289770  1.0  0.3597
  Ag  Ag6  1  0.651700  0.484020  0.785750  1.0  0.3549
  Ag  Ag7  1  0.437540  0.362550  0.906840  1.0  0.3692
  Ag  Ag8  1  0.929800  0.647550  0.710230  1.0  0.3653
  H  H9  1  0.318300  0.938900  0.898500  1.0  0.0801
  H  H10  1  0.942200  0.131800  0.675900  1.0  0.0714
  H  H11  1  0.859400  0.122200  0.807300  1.0  0.0886
  H  H12  1  0.480000  0.933000  0.710000  1.0  0.3407
  H  H13  1  0.527000  0.904000  0.801000  1.0  0.3322
  H  H14  1  0.681700  0.061100  0.101500  1.0  0.0803
  H  H15  1  0.057800  0.868200  0.324100  1.0  0.0721
  H  H16  1  0.140600  0.877800  0.192700  1.0  0.0889
  H  H17  1  0.520000  0.067000  0.290000  1.0  0.341
  H  H18  1  0.473000  0.096000  0.199000  1.0  0.3302
  C  C19  1  0.238500  0.978200  0.853050  1.0  0.073
  C  C20  1  0.289800  0.984300  0.772080  1.0  0.5431
  C  C21  1  0.021700  0.091000  0.720830  1.0  0.129
  C  C22  1  0.971000  0.085100  0.799870  1.0  0.1241
  C  C23  1  0.342800  0.761300  0.045670  1.0  -0.0293
  C  C24  1  0.769200  0.524100  0.163800  1.0  -0.0673
  C  C25  1  0.412500  0.702800  0.320880  1.0  0.034
  C  C26  1  0.259600  0.316100  0.117870  1.0  -0.057
  C  C27  1  0.258300  0.236800  0.370170  1.0  0.0691
  C  C28  1  0.761500  0.021800  0.146950  1.0  0.0738
  C  C29  1  0.710200  0.015700  0.227920  1.0  0.544
  C  C30  1  0.978300  0.909000  0.279170  1.0  0.1314
  C  C31  1  0.029000  0.914900  0.200130  1.0  0.1246
  C  C32  1  0.657200  0.238700  0.954330  1.0  -0.0292
  C  C33  1  0.230800  0.475900  0.836200  1.0  -0.0681
  C  C34  1  0.587500  0.297200  0.679120  1.0  0.0345
  C  C35  1  0.740400  0.683900  0.882130  1.0  -0.0566
  C  C36  1  0.741700  0.763200  0.629830  1.0  0.0678
  N  N37  1  0.196200  0.202800  0.071700  1.0  -0.4087
  N  N38  1  0.220600  0.835800  0.027780  1.0  -0.4097
  N  N39  1  0.080500  0.026500  0.866750  1.0  -0.3586
  N  N40  1  0.179400  0.040900  0.705610  1.0  -0.5175
  N  N41  1  0.451400  0.932300  0.759900  1.0  -0.7063
  N  N42  1  0.442800  0.802700  0.381280  1.0  -0.443
  N  N43  1  0.359300  0.167600  0.412710  1.0  -0.4041
  N  N44  1  0.872600  0.462700  0.208800  1.0  -0.4837
  N  N45  1  0.803800  0.797200  0.928300  1.0  -0.4079
  N  N46  1  0.779400  0.164200  0.972220  1.0  -0.4104
  N  N47  1  0.919500  0.973500  0.133250  1.0  -0.3589
  N  N48  1  0.820600  0.959100  0.294390  1.0  -0.5156
  N  N49  1  0.548600  0.067700  0.240100  1.0  -0.7053
  N  N50  1  0.557200  0.197300  0.618720  1.0  -0.4437
  N  N51  1  0.640700  0.832400  0.587290  1.0  -0.4001
  N  N52  1  0.127400  0.537300  0.791200  1.0  -0.4857
