# generated using pymatgen
data_ZnH24C24(N3O2)2
_symmetry_space_group_name_H-M   'P 1'
_cell_length_a   8.70760000
_cell_length_b   15.68600000
_cell_length_c   19.36800000
_cell_angle_alpha   90.00000000
_cell_angle_beta   90.00000000
_cell_angle_gamma   90.00000000
_symmetry_Int_Tables_number   1
_chemical_formula_structural   ZnH24C24(N3O2)2
_chemical_formula_sum   'Zn4 H96 C96 N24 O16'
_cell_volume   2645.42502660
_cell_formula_units_Z   4
loop_
 _symmetry_equiv_pos_site_id
 _symmetry_equiv_pos_as_xyz
  1  'x, y, z'
loop_
 _atom_site_type_symbol
 _atom_site_label
 _atom_site_symmetry_multiplicity
 _atom_site_fract_x
 _atom_site_fract_y
 _atom_site_fract_z
 _atom_site_occupancy
 _atom_site_charge
  Zn  Zn1  1  0.442950  0.037770  0.742390  1.0  0.9
  Zn  Zn2  1  0.057050  0.962230  0.242390  1.0  0.8978
  Zn  Zn3  1  0.557050  0.537770  0.757610  1.0  0.897
  Zn  Zn4  1  0.942950  0.462230  0.257610  1.0  0.8994
  H  H5  1  0.071500  0.150900  0.861400  1.0  0.0941
  H  H6  1  0.941600  0.238400  0.936500  1.0  0.1153
  H  H7  1  0.018900  0.241900  0.051700  1.0  0.0782
  H  H8  1  0.524700  0.946000  0.155100  1.0  0.1107
  H  H9  1  0.749100  0.968900  0.094900  1.0  0.1152
  H  H10  1  0.745500  0.046300  0.995300  1.0  0.0725
  H  H11  1  0.516700  0.159700  0.611500  1.0  0.1104
  H  H12  1  0.660700  0.291500  0.620500  1.0  0.1495
  H  H13  1  0.721100  0.219400  0.850500  1.0  0.1312
  H  H14  1  0.602700  0.144100  0.849700  1.0  0.1357
  H  H15  1  0.774100  0.127800  0.828800  1.0  0.1372
  H  H16  1  0.786500  0.376400  0.720200  1.0  0.0969
  H  H17  1  0.759000  0.341200  0.795000  1.0  0.0749
  H  H18  1  0.977100  0.253600  0.784800  1.0  0.0764
  H  H19  1  0.021900  0.349600  0.776200  1.0  0.0873
  H  H20  1  0.981600  0.238500  0.666000  1.0  0.087
  H  H21  1  0.033900  0.333500  0.659300  1.0  0.0835
  H  H22  1  0.245700  0.250700  0.645300  1.0  0.081
  H  H23  1  0.211100  0.199800  0.713200  1.0  0.0976
  H  H24  1  0.324300  0.260700  0.827500  1.0  0.1354
  H  H25  1  0.474300  0.388500  0.857700  1.0  0.1027
  H  H26  1  0.415100  0.461500  0.624700  1.0  0.1477
  H  H27  1  0.336000  0.375200  0.604700  1.0  0.1353
  H  H28  1  0.237500  0.450500  0.634300  1.0  0.1308
  H  H29  1  0.428500  0.849100  0.361400  1.0  0.094
  H  H30  1  0.558400  0.761600  0.436500  1.0  0.1151
  H  H31  1  0.481100  0.758100  0.551700  1.0  0.0783
  H  H32  1  0.975300  0.054000  0.655100  1.0  0.1103
  H  H33  1  0.750900  0.031100  0.594900  1.0  0.1149
  H  H34  1  0.754500  0.953700  0.495300  1.0  0.0721
  H  H35  1  0.983300  0.840300  0.111500  1.0  0.1104
  H  H36  1  0.839300  0.708500  0.120500  1.0  0.1495
  H  H37  1  0.778900  0.780600  0.350500  1.0  0.1283
  H  H38  1  0.897300  0.855900  0.349700  1.0  0.1393
  H  H39  1  0.725900  0.872200  0.328800  1.0  0.1373
  H  H40  1  0.713500  0.623600  0.220200  1.0  0.0962
  H  H41  1  0.741000  0.658800  0.295000  1.0  0.0744
  H  H42  1  0.522900  0.746400  0.284800  1.0  0.0761
  H  H43  1  0.478100  0.650400  0.276200  1.0  0.0885
  H  H44  1  0.518400  0.761500  0.166000  1.0  0.0877
  H  H45  1  0.466100  0.666500  0.159300  1.0  0.0826
  H  H46  1  0.254300  0.749300  0.145300  1.0  0.0819
  H  H47  1  0.288900  0.800200  0.213200  1.0  0.0976
  H  H48  1  0.175700  0.739300  0.327500  1.0  0.1348
  H  H49  1  0.025700  0.611500  0.357700  1.0  0.103
  H  H50  1  0.084900  0.538500  0.124700  1.0  0.1483
  H  H51  1  0.164000  0.624800  0.104700  1.0  0.1358
  H  H52  1  0.262500  0.549500  0.134300  1.0  0.1353
  H  H53  1  0.928500  0.650900  0.638600  1.0  0.0934
  H  H54  1  0.058400  0.738400  0.563500  1.0  0.1148
  H  H55  1  0.981100  0.741900  0.448300  1.0  0.0778
  H  H56  1  0.475300  0.446000  0.344900  1.0  0.1099
  H  H57  1  0.250900  0.468900  0.405100  1.0  0.1154
  H  H58  1  0.254500  0.546300  0.504700  1.0  0.0721
  H  H59  1  0.483300  0.659700  0.888500  1.0  0.1108
  H  H60  1  0.339300  0.791500  0.879500  1.0  0.1494
  H  H61  1  0.278900  0.719400  0.649500  1.0  0.132
  H  H62  1  0.397300  0.644100  0.650300  1.0  0.1395
  H  H63  1  0.225900  0.627800  0.671200  1.0  0.1374
  H  H64  1  0.213500  0.876400  0.779800  1.0  0.0958
  H  H65  1  0.241000  0.841200  0.705000  1.0  0.0746
  H  H66  1  0.022900  0.753600  0.715200  1.0  0.0764
  H  H67  1  0.978100  0.849600  0.723800  1.0  0.0886
  H  H68  1  0.018400  0.738500  0.834000  1.0  0.0879
  H  H69  1  0.966100  0.833500  0.840700  1.0  0.0834
  H  H70  1  0.754300  0.750700  0.854700  1.0  0.0816
  H  H71  1  0.788900  0.699800  0.786800  1.0  0.0978
  H  H72  1  0.675700  0.760700  0.672500  1.0  0.1353
  H  H73  1  0.525700  0.888500  0.642300  1.0  0.1039
  H  H74  1  0.584900  0.961500  0.875300  1.0  0.1488
  H  H75  1  0.664000  0.875200  0.895300  1.0  0.1344
  H  H76  1  0.762500  0.950500  0.865700  1.0  0.1313
  H  H77  1  0.571500  0.349100  0.138600  1.0  0.0934
  H  H78  1  0.441600  0.261600  0.063500  1.0  0.1152
  H  H79  1  0.518900  0.258100  0.948300  1.0  0.078
  H  H80  1  0.024700  0.554000  0.844900  1.0  0.11
  H  H81  1  0.249100  0.531100  0.905100  1.0  0.1155
  H  H82  1  0.245500  0.453700  0.004700  1.0  0.0724
  H  H83  1  0.016700  0.340300  0.388500  1.0  0.1107
  H  H84  1  0.160700  0.208500  0.379500  1.0  0.1496
  H  H85  1  0.221100  0.280600  0.149500  1.0  0.1295
  H  H86  1  0.102700  0.355900  0.150300  1.0  0.136
  H  H87  1  0.274100  0.372200  0.171200  1.0  0.1363
  H  H88  1  0.286500  0.123600  0.279800  1.0  0.0971
  H  H89  1  0.259000  0.158800  0.205000  1.0  0.075
  H  H90  1  0.477100  0.246400  0.215200  1.0  0.077
  H  H91  1  0.521900  0.150400  0.223800  1.0  0.0882
  H  H92  1  0.481600  0.261500  0.334000  1.0  0.0867
  H  H93  1  0.533900  0.166500  0.340700  1.0  0.085
  H  H94  1  0.745700  0.249300  0.354700  1.0  0.0807
  H  H95  1  0.711100  0.300200  0.286800  1.0  0.0977
  H  H96  1  0.824300  0.239300  0.172500  1.0  0.1355
  H  H97  1  0.974300  0.111500  0.142300  1.0  0.103
  H  H98  1  0.915100  0.038500  0.375300  1.0  0.1492
  H  H99  1  0.836000  0.124800  0.395300  1.0  0.135
  H  H100  1  0.737500  0.049500  0.365700  1.0  0.1334
  C  C101  1  0.297600  0.044300  0.879300  1.0  0.6872
  C  C102  1  0.218800  0.102300  0.931000  1.0  -0.1642
  C  C103  1  0.099600  0.152700  0.907700  1.0  -0.0021
  C  C104  1  0.022900  0.204800  0.951700  1.0  -0.1789
  C  C105  1  0.070500  0.206300  0.021100  1.0  0.1699
  C  C106  1  0.258500  0.106000  0.000800  1.0  0.2186
  C  C107  1  0.392900  0.058400  0.028400  1.0  0.2196
  C  C108  1  0.386100  0.011500  0.089300  1.0  -0.1915
  C  C109  1  0.523700  0.977600  0.114500  1.0  0.0163
  C  C110  1  0.656900  0.991200  0.078700  1.0  -0.1945
  C  C111  1  0.654000  0.037600  0.019100  1.0  0.1866
  C  C112  1  0.237700  0.990600  0.125900  1.0  0.6762
  C  C113  1  0.566300  0.179400  0.651000  1.0  0.0368
  C  C114  1  0.646200  0.251800  0.655500  1.0  -0.1565
  C  C115  1  0.654200  0.187200  0.756000  1.0  0.3359
  C  C116  1  0.691100  0.168000  0.827300  1.0  -0.4261
  C  C117  1  0.797000  0.326500  0.749400  1.0  -0.0263
  C  C118  1  0.967200  0.302700  0.754700  1.0  -0.1458
  C  C119  1  0.040200  0.283200  0.688400  1.0  -0.1541
  C  C120  1  0.205500  0.255600  0.691900  1.0  -0.022
  C  C121  1  0.346500  0.306500  0.798700  1.0  -0.1427
  C  C122  1  0.429400  0.377400  0.815100  1.0  0.0375
  C  C123  1  0.360000  0.390400  0.706100  1.0  0.3439
  C  C124  1  0.335000  0.422100  0.636600  1.0  -0.4382
  C  C125  1  0.202400  0.955700  0.379300  1.0  0.6867
  C  C126  1  0.281200  0.897700  0.431000  1.0  -0.1632
  C  C127  1  0.400400  0.847300  0.407700  1.0  -0.0049
  C  C128  1  0.477100  0.795200  0.451700  1.0  -0.1787
  C  C129  1  0.429500  0.793700  0.521100  1.0  0.1689
  C  C130  1  0.241500  0.894000  0.500800  1.0  0.2192
  C  C131  1  0.107100  0.941600  0.528400  1.0  0.2185
  C  C132  1  0.113900  0.988500  0.589300  1.0  -0.1901
  C  C133  1  0.976300  0.022400  0.614500  1.0  0.0158
  C  C134  1  0.843100  0.008800  0.578700  1.0  -0.1962
  C  C135  1  0.846000  0.962400  0.519100  1.0  0.1878
  C  C136  1  0.262300  0.009400  0.625900  1.0  0.6762
  C  C137  1  0.933700  0.820600  0.151000  1.0  0.0378
  C  C138  1  0.853800  0.748200  0.155500  1.0  -0.1569
  C  C139  1  0.845800  0.812800  0.256000  1.0  0.3362
  C  C140  1  0.808900  0.832000  0.327300  1.0  -0.4273
  C  C141  1  0.703000  0.673500  0.249400  1.0  -0.0253
  C  C142  1  0.532800  0.697300  0.254700  1.0  -0.1449
  C  C143  1  0.459800  0.716800  0.188400  1.0  -0.1537
  C  C144  1  0.294500  0.744400  0.191900  1.0  -0.0225
  C  C145  1  0.153500  0.693500  0.298700  1.0  -0.1404
  C  C146  1  0.070600  0.622600  0.315100  1.0  0.036
  C  C147  1  0.140000  0.609600  0.206100  1.0  0.3439
  C  C148  1  0.165000  0.577900  0.136600  1.0  -0.438
  C  C149  1  0.702400  0.544300  0.620700  1.0  0.687
  C  C150  1  0.781200  0.602300  0.569000  1.0  -0.164
  C  C151  1  0.900400  0.652700  0.592300  1.0  -0.004
  C  C152  1  0.977100  0.704800  0.548300  1.0  -0.1789
  C  C153  1  0.929500  0.706300  0.478900  1.0  0.1692
  C  C154  1  0.741500  0.606000  0.499200  1.0  0.2192
  C  C155  1  0.607100  0.558400  0.471600  1.0  0.2202
  C  C156  1  0.613900  0.511500  0.410700  1.0  -0.1919
  C  C157  1  0.476300  0.477600  0.385500  1.0  0.0159
  C  C158  1  0.343100  0.491200  0.421300  1.0  -0.1956
  C  C159  1  0.346000  0.537600  0.480900  1.0  0.1878
  C  C160  1  0.762300  0.490600  0.374100  1.0  0.6762
  C  C161  1  0.433700  0.679400  0.849000  1.0  0.0379
  C  C162  1  0.353800  0.751800  0.844500  1.0  -0.1569
  C  C163  1  0.345800  0.687200  0.744000  1.0  0.3365
  C  C164  1  0.308900  0.668000  0.672700  1.0  -0.4285
  C  C165  1  0.203000  0.826500  0.750600  1.0  -0.0255
  C  C166  1  0.032800  0.802700  0.745300  1.0  -0.1448
  C  C167  1  0.959800  0.783200  0.811600  1.0  -0.153
  C  C168  1  0.794500  0.755600  0.808100  1.0  -0.0225
  C  C169  1  0.653500  0.806500  0.701300  1.0  -0.1422
  C  C170  1  0.570600  0.877400  0.684900  1.0  0.0365
  C  C171  1  0.640000  0.890400  0.793900  1.0  0.3433
  C  C172  1  0.665000  0.922100  0.863400  1.0  -0.4364
  C  C173  1  0.797600  0.455700  0.120700  1.0  0.6865
  C  C174  1  0.718800  0.397700  0.069000  1.0  -0.1649
  C  C175  1  0.599600  0.347300  0.092300  1.0  -0.0012
  C  C176  1  0.522900  0.295200  0.048300  1.0  -0.1789
  C  C177  1  0.570500  0.293700  0.978900  1.0  0.1693
  C  C178  1  0.758500  0.394000  0.999200  1.0  0.2176
  C  C179  1  0.892900  0.441600  0.971600  1.0  0.2188
  C  C180  1  0.886100  0.488500  0.910700  1.0  -0.1905
  C  C181  1  0.023700  0.522400  0.885500  1.0  0.0168
  C  C182  1  0.156900  0.508800  0.921300  1.0  -0.195
  C  C183  1  0.154000  0.462400  0.980900  1.0  0.1869
  C  C184  1  0.737700  0.509400  0.874100  1.0  0.6755
  C  C185  1  0.066300  0.320600  0.349000  1.0  0.0363
  C  C186  1  0.146200  0.248200  0.344500  1.0  -0.156
  C  C187  1  0.154200  0.312800  0.244000  1.0  0.3357
  C  C188  1  0.191100  0.332000  0.172700  1.0  -0.4275
  C  C189  1  0.297000  0.173500  0.250600  1.0  -0.0262
  C  C190  1  0.467200  0.197300  0.245300  1.0  -0.1449
  C  C191  1  0.540200  0.216800  0.311600  1.0  -0.1544
  C  C192  1  0.705500  0.244400  0.308100  1.0  -0.0218
  C  C193  1  0.846500  0.193500  0.201300  1.0  -0.1425
  C  C194  1  0.929400  0.122600  0.184900  1.0  0.0364
  C  C195  1  0.860000  0.109600  0.293900  1.0  0.3436
  C  C196  1  0.835000  0.077900  0.363400  1.0  -0.4366
  N  N197  1  0.568700  0.138900  0.713100  1.0  -0.4564
  N  N198  1  0.702700  0.256900  0.720900  1.0  0.0146
  N  N199  1  0.435800  0.430200  0.757800  1.0  -0.4673
  N  N200  1  0.302600  0.316000  0.731600  1.0  -0.008
  N  N201  1  0.525300  0.071000  0.993700  1.0  -0.4098
  N  N202  1  0.187300  0.158500  0.045200  1.0  -0.4162
  N  N203  1  0.931300  0.861100  0.213100  1.0  -0.4557
  N  N204  1  0.797300  0.743100  0.220900  1.0  0.0146
  N  N205  1  0.064200  0.569800  0.257800  1.0  -0.4679
  N  N206  1  0.197400  0.684000  0.231600  1.0  -0.0075
  N  N207  1  0.974700  0.929000  0.493700  1.0  -0.4099
  N  N208  1  0.312700  0.841500  0.545200  1.0  -0.4171
  N  N209  1  0.431300  0.638900  0.786900  1.0  -0.4564
  N  N210  1  0.297300  0.756900  0.779100  1.0  0.0139
  N  N211  1  0.564200  0.930200  0.742200  1.0  -0.467
  N  N212  1  0.697400  0.816000  0.768400  1.0  -0.0069
  N  N213  1  0.474700  0.571000  0.506300  1.0  -0.4094
  N  N214  1  0.812700  0.658500  0.454800  1.0  -0.4206
  N  N215  1  0.068700  0.361100  0.286900  1.0  -0.457
  N  N216  1  0.202700  0.243100  0.279100  1.0  0.0138
  N  N217  1  0.935800  0.069800  0.242200  1.0  -0.4684
  N  N218  1  0.802600  0.184000  0.268400  1.0  -0.0072
  N  N219  1  0.025300  0.429000  0.006300  1.0  -0.4105
  N  N220  1  0.687300  0.341500  0.954800  1.0  -0.4185
  O  O221  1  0.292700  0.965900  0.885800  1.0  -0.6062
  O  O222  1  0.355400  0.083100  0.828800  1.0  -0.6194
  O  O223  1  0.117100  0.983300  0.094500  1.0  -0.5728
  O  O224  1  0.249700  0.979900  0.191100  1.0  -0.6295
  O  O225  1  0.207300  0.034100  0.385800  1.0  -0.6077
  O  O226  1  0.144600  0.916900  0.328800  1.0  -0.6189
  O  O227  1  0.382900  0.016700  0.594500  1.0  -0.5724
  O  O228  1  0.250300  0.020100  0.691100  1.0  -0.6301
  O  O229  1  0.707300  0.465900  0.614200  1.0  -0.6082
  O  O230  1  0.644600  0.583100  0.671200  1.0  -0.6188
  O  O231  1  0.882900  0.483300  0.405500  1.0  -0.5712
  O  O232  1  0.750300  0.479900  0.308900  1.0  -0.6305
  O  O233  1  0.792700  0.534100  0.114200  1.0  -0.6066
  O  O234  1  0.855400  0.416900  0.171200  1.0  -0.619
  O  O235  1  0.617100  0.516700  0.905500  1.0  -0.5715
  O  O236  1  0.749700  0.520100  0.808900  1.0  -0.63
