# generated using pymatgen
data_Ni4H27C48(N4O)3
_symmetry_space_group_name_H-M   'P 1'
_cell_length_a   22.95390000
_cell_length_b   22.95390000
_cell_length_c   22.95390000
_cell_angle_alpha   60.00000000
_cell_angle_beta   60.00000000
_cell_angle_gamma   60.00000000
_symmetry_Int_Tables_number   1
_chemical_formula_structural   Ni4H27C48(N4O)3
_chemical_formula_sum   'Ni8 H54 C96 N24 O6'
_cell_volume   8551.73940011
_cell_formula_units_Z   2
loop_
 _symmetry_equiv_pos_site_id
 _symmetry_equiv_pos_as_xyz
  1  'x, y, z'
loop_
 _atom_site_type_symbol
 _atom_site_label
 _atom_site_symmetry_multiplicity
 _atom_site_fract_x
 _atom_site_fract_y
 _atom_site_fract_z
 _atom_site_occupancy
 _atom_site_charge
  Ni  Ni1  1  0.872800  0.042400  0.042400  1.0  0.7482
  Ni  Ni2  1  0.042400  0.872800  0.042400  1.0  0.7484
  Ni  Ni3  1  0.042400  0.042400  0.872800  1.0  0.7494
  Ni  Ni4  1  0.042400  0.042400  0.042400  1.0  0.7469
  Ni  Ni5  1  0.957600  0.127200  0.957600  1.0  0.7461
  Ni  Ni6  1  0.127200  0.957600  0.957600  1.0  0.7462
  Ni  Ni7  1  0.957600  0.957600  0.127200  1.0  0.749
  Ni  Ni8  1  0.957600  0.957600  0.957600  1.0  0.7518
  H  H9  1  0.906580  0.093420  0.093420  1.0  0.3621
  H  H10  1  0.093420  0.906580  0.906580  1.0  0.3638
  H  H11  1  0.906580  0.093420  0.906580  1.0  0.364
  H  H12  1  0.093420  0.906580  0.093420  1.0  0.3623
  H  H13  1  0.906580  0.906580  0.093420  1.0  0.3629
  H  H14  1  0.093420  0.093420  0.906580  1.0  0.3601
  H  H15  1  0.511450  0.613410  0.937570  1.0  0.105
  H  H16  1  0.294410  0.829050  0.938270  1.0  0.0999
  H  H17  1  0.613410  0.511450  0.937570  1.0  0.1043
  H  H18  1  0.829050  0.294410  0.938270  1.0  0.103
  H  H19  1  0.937570  0.937570  0.511450  1.0  0.1039
  H  H20  1  0.938270  0.938270  0.294410  1.0  0.0992
  H  H21  1  0.937570  0.937570  0.613410  1.0  0.1043
  H  H22  1  0.938270  0.938270  0.829050  1.0  0.0995
  H  H23  1  0.511450  0.937570  0.937570  1.0  0.1026
  H  H24  1  0.294410  0.938270  0.938270  1.0  0.1001
  H  H25  1  0.613410  0.937570  0.937570  1.0  0.1042
  H  H26  1  0.829050  0.938270  0.938270  1.0  0.0999
  H  H27  1  0.937570  0.511450  0.613410  1.0  0.1033
  H  H28  1  0.938270  0.294410  0.829050  1.0  0.1038
  H  H29  1  0.937570  0.613410  0.511450  1.0  0.1047
  H  H30  1  0.938270  0.829050  0.294410  1.0  0.0994
  H  H31  1  0.511450  0.937570  0.613410  1.0  0.103
  H  H32  1  0.294410  0.938270  0.829050  1.0  0.1001
  H  H33  1  0.613410  0.937570  0.511450  1.0  0.1037
  H  H34  1  0.829050  0.938270  0.294410  1.0  0.0992
  H  H35  1  0.937570  0.613410  0.937570  1.0  0.1053
  H  H36  1  0.938270  0.829050  0.938270  1.0  0.0999
  H  H37  1  0.937570  0.511450  0.937570  1.0  0.103
  H  H38  1  0.938270  0.294410  0.938270  1.0  0.1044
  H  H39  1  0.386590  0.488550  0.062430  1.0  0.104
  H  H40  1  0.170950  0.705590  0.061730  1.0  0.1028
  H  H41  1  0.488550  0.386590  0.062430  1.0  0.1051
  H  H42  1  0.705590  0.170950  0.061730  1.0  0.099
  H  H43  1  0.062430  0.062430  0.488550  1.0  0.1035
  H  H44  1  0.061730  0.061730  0.705590  1.0  0.1
  H  H45  1  0.062430  0.062430  0.386590  1.0  0.1042
  H  H46  1  0.061730  0.061730  0.170950  1.0  0.0982
  H  H47  1  0.062430  0.488550  0.062430  1.0  0.1031
  H  H48  1  0.061730  0.705590  0.061730  1.0  0.1038
  H  H49  1  0.062430  0.386590  0.062430  1.0  0.1051
  H  H50  1  0.061730  0.170950  0.061730  1.0  0.0981
  H  H51  1  0.488550  0.062430  0.386590  1.0  0.1018
  H  H52  1  0.705590  0.061730  0.170950  1.0  0.1005
  H  H53  1  0.386590  0.062430  0.488550  1.0  0.1039
  H  H54  1  0.170950  0.061730  0.705590  1.0  0.1003
  H  H55  1  0.062430  0.488550  0.386590  1.0  0.1029
  H  H56  1  0.061730  0.705590  0.170950  1.0  0.1035
  H  H57  1  0.062430  0.386590  0.488550  1.0  0.1053
  H  H58  1  0.061730  0.170950  0.705590  1.0  0.0996
  H  H59  1  0.386590  0.062430  0.062430  1.0  0.1036
  H  H60  1  0.170950  0.061730  0.061730  1.0  0.0981
  H  H61  1  0.488550  0.062430  0.062430  1.0  0.1025
  H  H62  1  0.705590  0.061730  0.061730  1.0  0.1001
  C  C63  1  0.439440  0.560560  0.000000  1.0  -0.0626
  C  C64  1  0.374100  0.625900  0.000000  1.0  0.0391
  C  C65  1  0.320080  0.679920  0.000000  1.0  -0.0099
  C  C66  1  0.254720  0.745280  0.000000  1.0  0.1064
  C  C67  1  0.560560  0.439440  0.000000  1.0  -0.0595
  C  C68  1  0.625900  0.374100  0.000000  1.0  0.0405
  C  C69  1  0.679920  0.320080  0.000000  1.0  -0.0106
  C  C70  1  0.745280  0.254720  0.000000  1.0  0.1061
  C  C71  1  0.000000  0.000000  0.439440  1.0  -0.0564
  C  C72  1  0.000000  0.000000  0.374100  1.0  0.0406
  C  C73  1  0.000000  0.000000  0.320080  1.0  -0.0092
  C  C74  1  0.000000  0.000000  0.254720  1.0  0.1071
  C  C75  1  0.000000  0.000000  0.560560  1.0  -0.056
  C  C76  1  0.000000  0.000000  0.625900  1.0  0.0404
  C  C77  1  0.000000  0.000000  0.679920  1.0  -0.0095
  C  C78  1  0.000000  0.000000  0.745280  1.0  0.1101
  C  C79  1  0.439440  0.000000  0.000000  1.0  -0.0606
  C  C80  1  0.374100  0.000000  0.000000  1.0  0.0412
  C  C81  1  0.320080  0.000000  0.000000  1.0  -0.0087
  C  C82  1  0.254720  0.000000  0.000000  1.0  0.1058
  C  C83  1  0.560560  0.000000  0.000000  1.0  -0.059
  C  C84  1  0.625900  0.000000  0.000000  1.0  0.04
  C  C85  1  0.679920  0.000000  0.000000  1.0  -0.0105
  C  C86  1  0.745280  0.000000  0.000000  1.0  0.1039
  C  C87  1  0.000000  0.439440  0.560560  1.0  -0.0598
  C  C88  1  0.000000  0.374100  0.625900  1.0  0.0401
  C  C89  1  0.000000  0.320080  0.679920  1.0  -0.0102
  C  C90  1  0.000000  0.254720  0.745280  1.0  0.1076
  C  C91  1  0.000000  0.560560  0.439440  1.0  -0.0617
  C  C92  1  0.000000  0.625900  0.374100  1.0  0.0405
  C  C93  1  0.000000  0.679920  0.320080  1.0  -0.0103
  C  C94  1  0.000000  0.745280  0.254720  1.0  0.1054
  C  C95  1  0.439440  0.000000  0.560560  1.0  -0.0604
  C  C96  1  0.374100  0.000000  0.625900  1.0  0.041
  C  C97  1  0.320080  0.000000  0.679920  1.0  -0.0087
  C  C98  1  0.254720  0.000000  0.745280  1.0  0.107
  C  C99  1  0.560560  0.000000  0.439440  1.0  -0.0588
  C  C100  1  0.625900  0.000000  0.374100  1.0  0.0402
  C  C101  1  0.679920  0.000000  0.320080  1.0  -0.0104
  C  C102  1  0.745280  0.000000  0.254720  1.0  0.1034
  C  C103  1  0.000000  0.560560  0.000000  1.0  -0.062
  C  C104  1  0.000000  0.625900  0.000000  1.0  0.0404
  C  C105  1  0.000000  0.679920  0.000000  1.0  -0.0097
  C  C106  1  0.000000  0.745280  0.000000  1.0  0.1058
  C  C107  1  0.000000  0.439440  0.000000  1.0  -0.0601
  C  C108  1  0.000000  0.374100  0.000000  1.0  0.0402
  C  C109  1  0.000000  0.320080  0.000000  1.0  -0.0105
  C  C110  1  0.000000  0.254720  0.000000  1.0  0.1079
  C  C111  1  0.506800  0.567360  0.962920  1.0  -0.1244
  C  C112  1  0.253790  0.813990  0.966110  1.0  -0.0096
  C  C113  1  0.567360  0.506800  0.962920  1.0  -0.1227
  C  C114  1  0.813990  0.253790  0.966110  1.0  -0.0101
  C  C115  1  0.962920  0.962920  0.506800  1.0  -0.1251
  C  C116  1  0.966110  0.966110  0.253790  1.0  -0.0114
  C  C117  1  0.962920  0.962920  0.567360  1.0  -0.125
  C  C118  1  0.966110  0.966110  0.813990  1.0  -0.0099
  C  C119  1  0.506800  0.962920  0.962920  1.0  -0.1259
  C  C120  1  0.253790  0.966110  0.966110  1.0  -0.0067
  C  C121  1  0.567360  0.962920  0.962920  1.0  -0.125
  C  C122  1  0.813990  0.966110  0.966110  1.0  -0.0077
  C  C123  1  0.962920  0.506800  0.567360  1.0  -0.1256
  C  C124  1  0.966110  0.253790  0.813990  1.0  -0.0112
  C  C125  1  0.962920  0.567360  0.506800  1.0  -0.1278
  C  C126  1  0.966110  0.813990  0.253790  1.0  -0.0097
  C  C127  1  0.506800  0.962920  0.567360  1.0  -0.1242
  C  C128  1  0.253790  0.966110  0.813990  1.0  -0.0069
  C  C129  1  0.567360  0.962920  0.506800  1.0  -0.1233
  C  C130  1  0.813990  0.966110  0.253790  1.0  -0.0073
  C  C131  1  0.962920  0.567360  0.962920  1.0  -0.1267
  C  C132  1  0.966110  0.813990  0.966110  1.0  -0.0069
  C  C133  1  0.962920  0.506800  0.962920  1.0  -0.1257
  C  C134  1  0.966110  0.253790  0.966110  1.0  -0.0108
  C  C135  1  0.432640  0.493200  0.037080  1.0  -0.1246
  C  C136  1  0.186010  0.746210  0.033890  1.0  -0.009
  C  C137  1  0.493200  0.432640  0.037080  1.0  -0.1259
  C  C138  1  0.746210  0.186010  0.033890  1.0  -0.0111
  C  C139  1  0.037080  0.037080  0.493200  1.0  -0.1239
  C  C140  1  0.033890  0.033890  0.746210  1.0  -0.0107
  C  C141  1  0.037080  0.037080  0.432640  1.0  -0.1246
  C  C142  1  0.033890  0.033890  0.186010  1.0  -0.0112
  C  C143  1  0.037080  0.493200  0.037080  1.0  -0.125
  C  C144  1  0.033890  0.746210  0.033890  1.0  -0.0088
  C  C145  1  0.037080  0.432640  0.037080  1.0  -0.1269
  C  C146  1  0.033890  0.186010  0.033890  1.0  -0.0105
  C  C147  1  0.493200  0.037080  0.432640  1.0  -0.1252
  C  C148  1  0.746210  0.033890  0.186010  1.0  -0.0091
  C  C149  1  0.432640  0.037080  0.493200  1.0  -0.1257
  C  C150  1  0.186010  0.033890  0.746210  1.0  -0.0073
  C  C151  1  0.037080  0.493200  0.432640  1.0  -0.1267
  C  C152  1  0.033890  0.746210  0.186010  1.0  -0.0082
  C  C153  1  0.037080  0.432640  0.493200  1.0  -0.1272
  C  C154  1  0.033890  0.186010  0.746210  1.0  -0.0098
  C  C155  1  0.432640  0.037080  0.037080  1.0  -0.1239
  C  C156  1  0.186010  0.033890  0.033890  1.0  -0.0079
  C  C157  1  0.493200  0.037080  0.037080  1.0  -0.1238
  C  C158  1  0.746210  0.033890  0.033890  1.0  -0.0092
  N  N159  1  0.184510  0.857390  0.979050  1.0  -0.2589
  N  N160  1  0.857390  0.184510  0.979050  1.0  -0.2604
  N  N161  1  0.979050  0.979050  0.184510  1.0  -0.2589
  N  N162  1  0.979050  0.979050  0.857390  1.0  -0.2595
  N  N163  1  0.184510  0.979050  0.979050  1.0  -0.2581
  N  N164  1  0.857390  0.979050  0.979050  1.0  -0.26
  N  N165  1  0.979050  0.184510  0.857390  1.0  -0.2585
  N  N166  1  0.979050  0.857390  0.184510  1.0  -0.2592
  N  N167  1  0.184510  0.979050  0.857390  1.0  -0.2593
  N  N168  1  0.857390  0.979050  0.184510  1.0  -0.2585
  N  N169  1  0.979050  0.857390  0.979050  1.0  -0.2597
  N  N170  1  0.979050  0.184510  0.979050  1.0  -0.2576
  N  N171  1  0.142610  0.815490  0.020950  1.0  -0.2593
  N  N172  1  0.815490  0.142610  0.020950  1.0  -0.259
  N  N173  1  0.020950  0.020950  0.815490  1.0  -0.2591
  N  N174  1  0.020950  0.020950  0.142610  1.0  -0.2583
  N  N175  1  0.020950  0.815490  0.020950  1.0  -0.258
  N  N176  1  0.020950  0.142610  0.020950  1.0  -0.259
  N  N177  1  0.815490  0.020950  0.142610  1.0  -0.2591
  N  N178  1  0.142610  0.020950  0.815490  1.0  -0.2577
  N  N179  1  0.020950  0.815490  0.142610  1.0  -0.2574
  N  N180  1  0.020950  0.142610  0.815490  1.0  -0.2591
  N  N181  1  0.142610  0.020950  0.020950  1.0  -0.2586
  N  N182  1  0.815490  0.020950  0.020950  1.0  -0.2596
  O  O183  1  0.935840  0.064160  0.064160  1.0  -0.7592
  O  O184  1  0.064160  0.935840  0.935840  1.0  -0.7596
  O  O185  1  0.935840  0.064160  0.935840  1.0  -0.7578
  O  O186  1  0.064160  0.935840  0.064160  1.0  -0.7594
  O  O187  1  0.935840  0.935840  0.064160  1.0  -0.7594
  O  O188  1  0.064160  0.064160  0.935840  1.0  -0.7572
