# generated using pymatgen
data_Ni4H27C36(N4O)3
_symmetry_space_group_name_H-M   'P 1'
_cell_length_a   17.94650000
_cell_length_b   17.94650000
_cell_length_c   17.94650000
_cell_angle_alpha   60.00000000
_cell_angle_beta   60.00000000
_cell_angle_gamma   60.00000000
_symmetry_Int_Tables_number   1
_chemical_formula_structural   Ni4H27C36(N4O)3
_chemical_formula_sum   'Ni8 H54 C72 N24 O6'
_cell_volume   4087.18496425
_cell_formula_units_Z   2
loop_
 _symmetry_equiv_pos_site_id
 _symmetry_equiv_pos_as_xyz
  1  'x, y, z'
loop_
 _atom_site_type_symbol
 _atom_site_label
 _atom_site_symmetry_multiplicity
 _atom_site_fract_x
 _atom_site_fract_y
 _atom_site_fract_z
 _atom_site_occupancy
 _atom_site_charge
  Ni  Ni1  1  0.828730  0.057090  0.057090  1.0  0.703
  Ni  Ni2  1  0.057090  0.828730  0.057090  1.0  0.7012
  Ni  Ni3  1  0.057090  0.057090  0.828730  1.0  0.7024
  Ni  Ni4  1  0.057090  0.057090  0.057090  1.0  0.7012
  Ni  Ni5  1  0.942910  0.171270  0.942910  1.0  0.6997
  Ni  Ni6  1  0.171270  0.942910  0.942910  1.0  0.7017
  Ni  Ni7  1  0.942910  0.942910  0.171270  1.0  0.7025
  Ni  Ni8  1  0.942910  0.942910  0.942910  1.0  0.7031
  H  H9  1  0.875640  0.124360  0.124360  1.0  0.4214
  H  H10  1  0.124360  0.875640  0.875640  1.0  0.4215
  H  H11  1  0.875640  0.124360  0.875640  1.0  0.4223
  H  H12  1  0.124360  0.875640  0.124360  1.0  0.4209
  H  H13  1  0.875640  0.875640  0.124360  1.0  0.4234
  H  H14  1  0.124360  0.124360  0.875640  1.0  0.4211
  H  H15  1  0.514650  0.645050  0.920150  1.0  0.1142
  H  H16  1  0.392510  0.765390  0.921050  1.0  0.1009
  H  H17  1  0.645050  0.514650  0.920150  1.0  0.1128
  H  H18  1  0.765390  0.392510  0.921050  1.0  0.1008
  H  H19  1  0.920150  0.920150  0.514650  1.0  0.1152
  H  H20  1  0.921050  0.921050  0.392510  1.0  0.1005
  H  H21  1  0.920150  0.920150  0.645050  1.0  0.1152
  H  H22  1  0.921050  0.921050  0.765390  1.0  0.1003
  H  H23  1  0.514650  0.920150  0.920150  1.0  0.1162
  H  H24  1  0.392510  0.921050  0.921050  1.0  0.1005
  H  H25  1  0.645050  0.920150  0.920150  1.0  0.1148
  H  H26  1  0.765390  0.921050  0.921050  1.0  0.101
  H  H27  1  0.920150  0.514650  0.645050  1.0  0.1168
  H  H28  1  0.921050  0.392510  0.765390  1.0  0.1006
  H  H29  1  0.920150  0.645050  0.514650  1.0  0.1153
  H  H30  1  0.921050  0.765390  0.392510  1.0  0.1012
  H  H31  1  0.514650  0.920150  0.645050  1.0  0.1164
  H  H32  1  0.392510  0.921050  0.765390  1.0  0.1
  H  H33  1  0.645050  0.920150  0.514650  1.0  0.1156
  H  H34  1  0.765390  0.921050  0.392510  1.0  0.1008
  H  H35  1  0.920150  0.645050  0.920150  1.0  0.1152
  H  H36  1  0.921050  0.765390  0.921050  1.0  0.1012
  H  H37  1  0.920150  0.514650  0.920150  1.0  0.1165
  H  H38  1  0.921050  0.392510  0.921050  1.0  0.101
  H  H39  1  0.354950  0.485350  0.079850  1.0  0.1144
  H  H40  1  0.234610  0.607490  0.078950  1.0  0.1009
  H  H41  1  0.485350  0.354950  0.079850  1.0  0.1158
  H  H42  1  0.607490  0.234610  0.078950  1.0  0.1008
  H  H43  1  0.079850  0.079850  0.485350  1.0  0.1141
  H  H44  1  0.078950  0.078950  0.607490  1.0  0.1004
  H  H45  1  0.079850  0.079850  0.354950  1.0  0.1142
  H  H46  1  0.078950  0.078950  0.234610  1.0  0.1003
  H  H47  1  0.079850  0.485350  0.079850  1.0  0.1166
  H  H48  1  0.078950  0.607490  0.078950  1.0  0.1002
  H  H49  1  0.079850  0.354950  0.079850  1.0  0.1161
  H  H50  1  0.078950  0.234610  0.078950  1.0  0.1011
  H  H51  1  0.485350  0.079850  0.354950  1.0  0.1158
  H  H52  1  0.607490  0.078950  0.234610  1.0  0.1006
  H  H53  1  0.354950  0.079850  0.485350  1.0  0.1145
  H  H54  1  0.234610  0.078950  0.607490  1.0  0.1013
  H  H55  1  0.079850  0.485350  0.354950  1.0  0.1161
  H  H56  1  0.078950  0.607490  0.234610  1.0  0.1007
  H  H57  1  0.079850  0.354950  0.485350  1.0  0.1157
  H  H58  1  0.078950  0.234610  0.607490  1.0  0.1012
  H  H59  1  0.354950  0.079850  0.079850  1.0  0.1146
  H  H60  1  0.234610  0.078950  0.078950  1.0  0.1011
  H  H61  1  0.485350  0.079850  0.079850  1.0  0.116
  H  H62  1  0.607490  0.078950  0.078950  1.0  0.1002
  C  C63  1  0.422540  0.577460  0.000000  1.0  0.0785
  C  C64  1  0.341760  0.658240  0.000000  1.0  -0.0995
  C  C65  1  0.577460  0.422540  0.000000  1.0  0.0793
  C  C66  1  0.658240  0.341760  0.000000  1.0  -0.0988
  C  C67  1  0.000000  0.000000  0.422540  1.0  0.0789
  C  C68  1  0.000000  0.000000  0.341760  1.0  -0.0977
  C  C69  1  0.000000  0.000000  0.577460  1.0  0.079
  C  C70  1  0.000000  0.000000  0.658240  1.0  -0.0977
  C  C71  1  0.422540  0.000000  0.000000  1.0  0.0777
  C  C72  1  0.341760  0.000000  0.000000  1.0  -0.0976
  C  C73  1  0.577460  0.000000  0.000000  1.0  0.0778
  C  C74  1  0.658240  0.000000  0.000000  1.0  -0.0991
  C  C75  1  0.000000  0.422540  0.577460  1.0  0.0795
  C  C76  1  0.000000  0.341760  0.658240  1.0  -0.0986
  C  C77  1  0.000000  0.577460  0.422540  1.0  0.0788
  C  C78  1  0.000000  0.658240  0.341760  1.0  -0.0989
  C  C79  1  0.422540  0.000000  0.577460  1.0  0.0779
  C  C80  1  0.341760  0.000000  0.658240  1.0  -0.0976
  C  C81  1  0.577460  0.000000  0.422540  1.0  0.0777
  C  C82  1  0.658240  0.000000  0.341760  1.0  -0.099
  C  C83  1  0.000000  0.577460  0.000000  1.0  0.0789
  C  C84  1  0.000000  0.658240  0.000000  1.0  -0.0991
  C  C85  1  0.000000  0.422540  0.000000  1.0  0.0793
  C  C86  1  0.000000  0.341760  0.000000  1.0  -0.0985
  C  C87  1  0.508710  0.586150  0.952570  1.0  -0.129
  C  C88  1  0.340550  0.746150  0.956650  1.0  0.0101
  C  C89  1  0.586150  0.508710  0.952570  1.0  -0.1294
  C  C90  1  0.746150  0.340550  0.956650  1.0  0.0127
  C  C91  1  0.952570  0.952570  0.508710  1.0  -0.1264
  C  C92  1  0.956650  0.956650  0.340550  1.0  0.0174
  C  C93  1  0.952570  0.952570  0.586150  1.0  -0.1287
  C  C94  1  0.956650  0.956650  0.746150  1.0  0.0143
  C  C95  1  0.508710  0.952570  0.952570  1.0  -0.1271
  C  C96  1  0.340550  0.956650  0.956650  1.0  0.0181
  C  C97  1  0.586150  0.952570  0.952570  1.0  -0.129
  C  C98  1  0.746150  0.956650  0.956650  1.0  0.0139
  C  C99  1  0.952570  0.508710  0.586150  1.0  -0.1271
  C  C100  1  0.956650  0.340550  0.746150  1.0  0.0139
  C  C101  1  0.952570  0.586150  0.508710  1.0  -0.1288
  C  C102  1  0.956650  0.746150  0.340550  1.0  0.0111
  C  C103  1  0.508710  0.952570  0.586150  1.0  -0.1279
  C  C104  1  0.340550  0.956650  0.746150  1.0  0.0197
  C  C105  1  0.586150  0.952570  0.508710  1.0  -0.1294
  C  C106  1  0.746150  0.956650  0.340550  1.0  0.0144
  C  C107  1  0.952570  0.586150  0.952570  1.0  -0.1285
  C  C108  1  0.956650  0.746150  0.956650  1.0  0.0118
  C  C109  1  0.952570  0.508710  0.952570  1.0  -0.1274
  C  C110  1  0.956650  0.340550  0.956650  1.0  0.0134
  C  C111  1  0.413850  0.491290  0.047430  1.0  -0.1299
  C  C112  1  0.253850  0.659450  0.043350  1.0  0.014
  C  C113  1  0.491290  0.413850  0.047430  1.0  -0.1285
  C  C114  1  0.659450  0.253850  0.043350  1.0  0.0165
  C  C115  1  0.047430  0.047430  0.491290  1.0  -0.125
  C  C116  1  0.043350  0.043350  0.659450  1.0  0.0136
  C  C117  1  0.047430  0.047430  0.413850  1.0  -0.1267
  C  C118  1  0.043350  0.043350  0.253850  1.0  0.0128
  C  C119  1  0.047430  0.491290  0.047430  1.0  -0.126
  C  C120  1  0.043350  0.659450  0.043350  1.0  0.0147
  C  C121  1  0.047430  0.413850  0.047430  1.0  -0.1283
  C  C122  1  0.043350  0.253850  0.043350  1.0  0.0129
  C  C123  1  0.491290  0.047430  0.413850  1.0  -0.127
  C  C124  1  0.659450  0.043350  0.253850  1.0  0.0141
  C  C125  1  0.413850  0.047430  0.491290  1.0  -0.127
  C  C126  1  0.253850  0.043350  0.659450  1.0  0.0128
  C  C127  1  0.047430  0.491290  0.413850  1.0  -0.1267
  C  C128  1  0.043350  0.659450  0.253850  1.0  0.0131
  C  C129  1  0.047430  0.413850  0.491290  1.0  -0.128
  C  C130  1  0.043350  0.253850  0.659450  1.0  0.0129
  C  C131  1  0.413850  0.047430  0.047430  1.0  -0.1274
  C  C132  1  0.253850  0.043350  0.043350  1.0  0.0128
  C  C133  1  0.491290  0.047430  0.047430  1.0  -0.1272
  C  C134  1  0.659450  0.043350  0.043350  1.0  0.0146
  N  N135  1  0.251930  0.801650  0.973210  1.0  -0.236
  N  N136  1  0.801650  0.251930  0.973210  1.0  -0.2375
  N  N137  1  0.973210  0.973210  0.251930  1.0  -0.2367
  N  N138  1  0.973210  0.973210  0.801650  1.0  -0.2369
  N  N139  1  0.251930  0.973210  0.973210  1.0  -0.2352
  N  N140  1  0.801650  0.973210  0.973210  1.0  -0.2373
  N  N141  1  0.973210  0.251930  0.801650  1.0  -0.2349
  N  N142  1  0.973210  0.801650  0.251930  1.0  -0.2364
  N  N143  1  0.251930  0.973210  0.801650  1.0  -0.2346
  N  N144  1  0.801650  0.973210  0.251930  1.0  -0.237
  N  N145  1  0.973210  0.801650  0.973210  1.0  -0.2366
  N  N146  1  0.973210  0.251930  0.973210  1.0  -0.2349
  N  N147  1  0.198350  0.748070  0.026790  1.0  -0.2352
  N  N148  1  0.748070  0.198350  0.026790  1.0  -0.2371
  N  N149  1  0.026790  0.026790  0.748070  1.0  -0.236
  N  N150  1  0.026790  0.026790  0.198350  1.0  -0.2368
  N  N151  1  0.026790  0.748070  0.026790  1.0  -0.235
  N  N152  1  0.026790  0.198350  0.026790  1.0  -0.2368
  N  N153  1  0.748070  0.026790  0.198350  1.0  -0.236
  N  N154  1  0.198350  0.026790  0.748070  1.0  -0.2347
  N  N155  1  0.026790  0.748070  0.198350  1.0  -0.236
  N  N156  1  0.026790  0.198350  0.748070  1.0  -0.2367
  N  N157  1  0.198350  0.026790  0.026790  1.0  -0.2347
  N  N158  1  0.748070  0.026790  0.026790  1.0  -0.2358
  O  O159  1  0.913070  0.086930  0.086930  1.0  -0.7822
  O  O160  1  0.086930  0.913070  0.913070  1.0  -0.7829
  O  O161  1  0.913070  0.086930  0.913070  1.0  -0.7823
  O  O162  1  0.086930  0.913070  0.086930  1.0  -0.7827
  O  O163  1  0.913070  0.913070  0.086930  1.0  -0.7834
  O  O164  1  0.086930  0.086930  0.913070  1.0  -0.7831
