# generated using pymatgen
data_Al4P4O16F
_symmetry_space_group_name_H-M   'P 1'
_cell_length_a   21.75900000
_cell_length_b   13.82140000
_cell_length_c   14.22370000
_cell_angle_alpha   90.00000000
_cell_angle_beta   98.84900000
_cell_angle_gamma   90.00000000
_symmetry_Int_Tables_number   1
_chemical_formula_structural   Al4P4O16F
_chemical_formula_sum   'Al32 P32 O128 F8'
_cell_volume   4226.71742076
_cell_formula_units_Z   8
loop_
 _symmetry_equiv_pos_site_id
 _symmetry_equiv_pos_as_xyz
  1  'x, y, z'
loop_
 _atom_site_type_symbol
 _atom_site_label
 _atom_site_symmetry_multiplicity
 _atom_site_fract_x
 _atom_site_fract_y
 _atom_site_fract_z
 _atom_site_occupancy
 _atom_site_charge
  Al  Al1  1  0.161670  0.203480  0.908920  1.0  1.9798
  Al  Al2  1  0.083740  0.899730  0.007920  1.0  1.9258
  Al  Al3  1  0.246080  0.891400  0.059530  1.0  1.857
  Al  Al4  1  0.160150  0.108720  0.196670  1.0  2.0414
  Al  Al5  1  0.661670  0.703480  0.908920  1.0  1.9798
  Al  Al6  1  0.583740  0.399730  0.007920  1.0  1.9258
  Al  Al7  1  0.746080  0.391400  0.059530  1.0  1.857
  Al  Al8  1  0.660150  0.608720  0.196670  1.0  2.0414
  Al  Al9  1  0.838330  0.203480  0.591080  1.0  1.9805
  Al  Al10  1  0.916260  0.899730  0.492080  1.0  1.9289
  Al  Al11  1  0.753920  0.891400  0.440470  1.0  1.8571
  Al  Al12  1  0.839850  0.108720  0.303330  1.0  2.0397
  Al  Al13  1  0.338330  0.703480  0.591080  1.0  1.9805
  Al  Al14  1  0.416260  0.399730  0.492080  1.0  1.9289
  Al  Al15  1  0.253920  0.391400  0.440470  1.0  1.8571
  Al  Al16  1  0.339850  0.608720  0.303330  1.0  2.0397
  Al  Al17  1  0.838330  0.796520  0.091080  1.0  1.9806
  Al  Al18  1  0.916260  0.100270  0.992080  1.0  1.9296
  Al  Al19  1  0.753920  0.108600  0.940470  1.0  1.8574
  Al  Al20  1  0.839850  0.891280  0.803330  1.0  2.0406
  Al  Al21  1  0.338330  0.296520  0.091080  1.0  1.9806
  Al  Al22  1  0.416260  0.600270  0.992080  1.0  1.9296
  Al  Al23  1  0.253920  0.608600  0.940470  1.0  1.8574
  Al  Al24  1  0.339850  0.391280  0.803330  1.0  2.0406
  Al  Al25  1  0.161670  0.796520  0.408920  1.0  1.9801
  Al  Al26  1  0.083740  0.100270  0.507920  1.0  1.927
  Al  Al27  1  0.246080  0.108600  0.559530  1.0  1.8573
  Al  Al28  1  0.160150  0.891280  0.696670  1.0  2.0423
  Al  Al29  1  0.661670  0.296520  0.408920  1.0  1.9801
  Al  Al30  1  0.583740  0.600270  0.507920  1.0  1.927
  Al  Al31  1  0.746080  0.608600  0.559530  1.0  1.8573
  Al  Al32  1  0.660150  0.391280  0.696670  1.0  2.0423
  P  P33  1  0.059590  0.120510  0.014650  1.0  2.0309
  P  P34  1  0.171640  0.784640  0.894090  1.0  1.8535
  P  P35  1  0.262410  0.110920  0.062190  1.0  1.8946
  P  P36  1  0.157970  0.114350  0.704930  1.0  1.9617
  P  P37  1  0.559590  0.620510  0.014650  1.0  2.0309
  P  P38  1  0.671640  0.284640  0.894090  1.0  1.8535
  P  P39  1  0.762410  0.610920  0.062190  1.0  1.8946
  P  P40  1  0.657970  0.614350  0.704930  1.0  1.9617
  P  P41  1  0.940410  0.120510  0.485350  1.0  2.0335
  P  P42  1  0.828360  0.784640  0.605910  1.0  1.855
  P  P43  1  0.737590  0.110920  0.437810  1.0  1.8884
  P  P44  1  0.842030  0.114350  0.795070  1.0  1.9637
  P  P45  1  0.440410  0.620510  0.485350  1.0  2.0335
  P  P46  1  0.328360  0.284640  0.605910  1.0  1.855
  P  P47  1  0.237590  0.610920  0.437810  1.0  1.8884
  P  P48  1  0.342030  0.614350  0.795070  1.0  1.9637
  P  P49  1  0.940410  0.879490  0.985350  1.0  2.0311
  P  P50  1  0.828360  0.215360  0.105910  1.0  1.8548
  P  P51  1  0.737590  0.889080  0.937810  1.0  1.8883
  P  P52  1  0.842030  0.885650  0.295070  1.0  1.9631
  P  P53  1  0.440410  0.379490  0.985350  1.0  2.0311
  P  P54  1  0.328360  0.715360  0.105910  1.0  1.8548
  P  P55  1  0.237590  0.389080  0.937810  1.0  1.8883
  P  P56  1  0.342030  0.385650  0.295070  1.0  1.9631
  P  P57  1  0.059590  0.879490  0.514650  1.0  2.0286
  P  P58  1  0.171640  0.215360  0.394090  1.0  1.8534
  P  P59  1  0.262410  0.889080  0.562190  1.0  1.8945
  P  P60  1  0.157970  0.885650  0.204930  1.0  1.9616
  P  P61  1  0.559590  0.379490  0.514650  1.0  2.0286
  P  P62  1  0.671640  0.715360  0.394090  1.0  1.8534
  P  P63  1  0.762410  0.389080  0.562190  1.0  1.8945
  P  P64  1  0.657970  0.385650  0.204930  1.0  1.9616
  O  O65  1  0.228970  0.837400  0.945000  1.0  -0.8757
  O  O66  1  0.061860  0.018000  0.975200  1.0  -0.9355
  O  O67  1  0.223390  0.135500  0.966300  1.0  -1.0098
  O  O68  1  0.113180  0.812900  0.935200  1.0  -0.9467
  O  O69  1  0.225350  0.131700  0.142400  1.0  -1.0076
  O  O70  1  0.098760  0.127200  0.632600  1.0  -0.8433
  O  O71  1  0.992820  0.154100  0.010400  1.0  -0.9213
  O  O72  1  0.284470  0.005700  0.063600  1.0  -0.8713
  O  O73  1  0.151950  0.178800  0.789300  1.0  -0.9841
  O  O74  1  0.321180  0.173380  0.076400  1.0  -0.9146
  O  O75  1  0.180420  0.674700  0.905500  1.0  -0.8437
  O  O76  1  0.093180  0.188600  0.955100  1.0  -0.9974
  O  O77  1  0.161960  0.808500  0.788100  1.0  -0.9816
  O  O78  1  0.215510  0.144900  0.663400  1.0  -0.8724
  O  O79  1  0.092220  0.125200  0.117200  1.0  -1.019
  O  O80  1  0.164780  0.009000  0.740000  1.0  -0.9569
  O  O81  1  0.728970  0.337400  0.945000  1.0  -0.8757
  O  O82  1  0.561860  0.518000  0.975200  1.0  -0.9355
  O  O83  1  0.723390  0.635500  0.966300  1.0  -1.0098
  O  O84  1  0.613180  0.312900  0.935200  1.0  -0.9467
  O  O85  1  0.725350  0.631700  0.142400  1.0  -1.0076
  O  O86  1  0.598760  0.627200  0.632600  1.0  -0.8433
  O  O87  1  0.492820  0.654100  0.010400  1.0  -0.9213
  O  O88  1  0.784470  0.505700  0.063600  1.0  -0.8713
  O  O89  1  0.651950  0.678800  0.789300  1.0  -0.9841
  O  O90  1  0.821180  0.673380  0.076400  1.0  -0.9146
  O  O91  1  0.680420  0.174700  0.905500  1.0  -0.8437
  O  O92  1  0.593180  0.688600  0.955100  1.0  -0.9974
  O  O93  1  0.661960  0.308500  0.788100  1.0  -0.9816
  O  O94  1  0.715510  0.644900  0.663400  1.0  -0.8724
  O  O95  1  0.592220  0.625200  0.117200  1.0  -1.019
  O  O96  1  0.664780  0.509000  0.740000  1.0  -0.9569
  O  O97  1  0.771030  0.837400  0.555000  1.0  -0.8768
  O  O98  1  0.938140  0.018000  0.524800  1.0  -0.9356
  O  O99  1  0.776610  0.135500  0.533700  1.0  -1.011
  O  O100  1  0.886820  0.812900  0.564800  1.0  -0.9484
  O  O101  1  0.774650  0.131700  0.357600  1.0  -1.0071
  O  O102  1  0.901240  0.127200  0.867400  1.0  -0.8424
  O  O103  1  0.007180  0.154100  0.489600  1.0  -0.9214
  O  O104  1  0.715530  0.005700  0.436400  1.0  -0.8746
  O  O105  1  0.848050  0.178800  0.710700  1.0  -0.9825
  O  O106  1  0.678820  0.173380  0.423600  1.0  -0.9173
  O  O107  1  0.819580  0.674700  0.594500  1.0  -0.8439
  O  O108  1  0.906820  0.188600  0.544900  1.0  -0.9994
  O  O109  1  0.838040  0.808500  0.711900  1.0  -0.9822
  O  O110  1  0.784490  0.144900  0.836600  1.0  -0.871
  O  O111  1  0.907780  0.125200  0.382800  1.0  -1.019
  O  O112  1  0.835220  0.009000  0.760000  1.0  -0.9554
  O  O113  1  0.271030  0.337400  0.555000  1.0  -0.8768
  O  O114  1  0.438140  0.518000  0.524800  1.0  -0.9356
  O  O115  1  0.276610  0.635500  0.533700  1.0  -1.011
  O  O116  1  0.386820  0.312900  0.564800  1.0  -0.9484
  O  O117  1  0.274650  0.631700  0.357600  1.0  -1.0071
  O  O118  1  0.401240  0.627200  0.867400  1.0  -0.8424
  O  O119  1  0.507180  0.654100  0.489600  1.0  -0.9214
  O  O120  1  0.215530  0.505700  0.436400  1.0  -0.8746
  O  O121  1  0.348050  0.678800  0.710700  1.0  -0.9825
  O  O122  1  0.178820  0.673380  0.423600  1.0  -0.9173
  O  O123  1  0.319580  0.174700  0.594500  1.0  -0.8439
  O  O124  1  0.406820  0.688600  0.544900  1.0  -0.9994
  O  O125  1  0.338040  0.308500  0.711900  1.0  -0.9822
  O  O126  1  0.284490  0.644900  0.836600  1.0  -0.871
  O  O127  1  0.407780  0.625200  0.382800  1.0  -1.019
  O  O128  1  0.335220  0.509000  0.760000  1.0  -0.9554
  O  O129  1  0.771030  0.162600  0.055000  1.0  -0.8767
  O  O130  1  0.938140  0.982000  0.024800  1.0  -0.9351
  O  O131  1  0.776610  0.864500  0.033700  1.0  -1.0111
  O  O132  1  0.886820  0.187100  0.064800  1.0  -0.9481
  O  O133  1  0.774650  0.868300  0.857600  1.0  -1.0066
  O  O134  1  0.901240  0.872800  0.367400  1.0  -0.8417
  O  O135  1  0.007180  0.845900  0.989600  1.0  -0.9205
  O  O136  1  0.715530  0.994300  0.936400  1.0  -0.8742
  O  O137  1  0.848050  0.821200  0.210700  1.0  -0.9813
  O  O138  1  0.678820  0.826620  0.923600  1.0  -0.9168
  O  O139  1  0.819580  0.325300  0.094500  1.0  -0.8433
  O  O140  1  0.906820  0.811400  0.044900  1.0  -0.9995
  O  O141  1  0.838040  0.191500  0.211900  1.0  -0.9806
  O  O142  1  0.784490  0.855100  0.336600  1.0  -0.8711
  O  O143  1  0.907780  0.874800  0.882800  1.0  -1.0168
  O  O144  1  0.835220  0.991000  0.260000  1.0  -0.9556
  O  O145  1  0.271030  0.662600  0.055000  1.0  -0.8767
  O  O146  1  0.438140  0.482000  0.024800  1.0  -0.9351
  O  O147  1  0.276610  0.364500  0.033700  1.0  -1.0111
  O  O148  1  0.386820  0.687100  0.064800  1.0  -0.9481
  O  O149  1  0.274650  0.368300  0.857600  1.0  -1.0066
  O  O150  1  0.401240  0.372800  0.367400  1.0  -0.8417
  O  O151  1  0.507180  0.345900  0.989600  1.0  -0.9205
  O  O152  1  0.215530  0.494300  0.936400  1.0  -0.8742
  O  O153  1  0.348050  0.321200  0.210700  1.0  -0.9813
  O  O154  1  0.178820  0.326620  0.923600  1.0  -0.9168
  O  O155  1  0.319580  0.825300  0.094500  1.0  -0.8433
  O  O156  1  0.406820  0.311400  0.044900  1.0  -0.9995
  O  O157  1  0.338040  0.691500  0.211900  1.0  -0.9806
  O  O158  1  0.284490  0.355100  0.336600  1.0  -0.8711
  O  O159  1  0.407780  0.374800  0.882800  1.0  -1.0168
  O  O160  1  0.335220  0.491000  0.260000  1.0  -0.9556
  O  O161  1  0.228970  0.162600  0.445000  1.0  -0.8756
  O  O162  1  0.061860  0.982000  0.475200  1.0  -0.9349
  O  O163  1  0.223390  0.864500  0.466300  1.0  -1.0094
  O  O164  1  0.113180  0.187100  0.435200  1.0  -0.947
  O  O165  1  0.225350  0.868300  0.642400  1.0  -1.0069
  O  O166  1  0.098760  0.872800  0.132600  1.0  -0.8419
  O  O167  1  0.992820  0.845900  0.510400  1.0  -0.9213
  O  O168  1  0.284470  0.994300  0.563600  1.0  -0.8712
  O  O169  1  0.151950  0.821200  0.289300  1.0  -0.9823
  O  O170  1  0.321180  0.826620  0.576400  1.0  -0.9147
  O  O171  1  0.180420  0.325300  0.405500  1.0  -0.8422
  O  O172  1  0.093180  0.811400  0.455100  1.0  -0.9969
  O  O173  1  0.161960  0.191500  0.288100  1.0  -0.9808
  O  O174  1  0.215510  0.855100  0.163400  1.0  -0.8713
  O  O175  1  0.092220  0.874800  0.617200  1.0  -1.0175
  O  O176  1  0.164780  0.991000  0.240000  1.0  -0.9575
  O  O177  1  0.728970  0.662600  0.445000  1.0  -0.8756
  O  O178  1  0.561860  0.482000  0.475200  1.0  -0.9349
  O  O179  1  0.723390  0.364500  0.466300  1.0  -1.0094
  O  O180  1  0.613180  0.687100  0.435200  1.0  -0.947
  O  O181  1  0.725350  0.368300  0.642400  1.0  -1.0069
  O  O182  1  0.598760  0.372800  0.132600  1.0  -0.8419
  O  O183  1  0.492820  0.345900  0.510400  1.0  -0.9213
  O  O184  1  0.784470  0.494300  0.563600  1.0  -0.8712
  O  O185  1  0.651950  0.321200  0.289300  1.0  -0.9823
  O  O186  1  0.821180  0.326620  0.576400  1.0  -0.9147
  O  O187  1  0.680420  0.825300  0.405500  1.0  -0.8422
  O  O188  1  0.593180  0.311400  0.455100  1.0  -0.9969
  O  O189  1  0.661960  0.691500  0.288100  1.0  -0.9808
  O  O190  1  0.715510  0.355100  0.163400  1.0  -0.8713
  O  O191  1  0.592220  0.374800  0.617200  1.0  -1.0175
  O  O192  1  0.664780  0.491000  0.240000  1.0  -0.9575
  F  F193  1  0.167880  0.955300  0.026800  1.0  -0.5646
  F  F194  1  0.667880  0.455300  0.026800  1.0  -0.5646
  F  F195  1  0.832120  0.955300  0.473200  1.0  -0.5645
  F  F196  1  0.332120  0.455300  0.473200  1.0  -0.5645
  F  F197  1  0.832120  0.044700  0.973200  1.0  -0.5666
  F  F198  1  0.332120  0.544700  0.973200  1.0  -0.5666
  F  F199  1  0.167880  0.044700  0.526800  1.0  -0.5666
  F  F200  1  0.667880  0.544700  0.526800  1.0  -0.5666
