# generated using pymatgen
data_Yb3H36C66O13
_symmetry_space_group_name_H-M   'P 1'
_cell_length_a   19.84800000
_cell_length_b   19.84800000
_cell_length_c   27.85300000
_cell_angle_alpha   90.00000000
_cell_angle_beta   90.00000000
_cell_angle_gamma   120.00000000
_symmetry_Int_Tables_number   1
_chemical_formula_structural   Yb3H36C66O13
_chemical_formula_sum   'Yb6 H72 C132 O26'
_cell_volume   9502.46138372
_cell_formula_units_Z   2
loop_
 _symmetry_equiv_pos_site_id
 _symmetry_equiv_pos_as_xyz
  1  'x, y, z'
loop_
 _atom_site_type_symbol
 _atom_site_label
 _atom_site_symmetry_multiplicity
 _atom_site_fract_x
 _atom_site_fract_y
 _atom_site_fract_z
 _atom_site_occupancy
 _atom_site_charge
  Yb  Yb1  1  0.580330  0.214600  0.750000  1.0  1.5371
  Yb  Yb2  1  0.634270  0.419670  0.750000  1.0  1.5377
  Yb  Yb3  1  0.785400  0.365730  0.750000  1.0  1.5385
  Yb  Yb4  1  0.365730  0.785400  0.250000  1.0  1.5368
  Yb  Yb5  1  0.214600  0.580330  0.250000  1.0  1.5382
  Yb  Yb6  1  0.419670  0.634270  0.250000  1.0  1.5383
  H  H7  1  0.840800  0.246300  0.866400  1.0  0.0976
  H  H8  1  0.865500  0.179400  0.924000  1.0  0.1176
  H  H9  1  0.642400  0.015400  0.922100  1.0  0.1081
  H  H10  1  0.619200  0.083900  0.863700  1.0  0.0978
  H  H11  1  0.879900  0.075200  0.945000  1.0  0.0987
  H  H12  1  0.405500  0.159200  0.866400  1.0  0.0971
  H  H13  1  0.313900  0.134500  0.924000  1.0  0.116
  H  H14  1  0.373000  0.357600  0.922100  1.0  0.1087
  H  H15  1  0.464700  0.380800  0.863700  1.0  0.0985
  H  H16  1  0.195300  0.120100  0.945000  1.0  0.0987
  H  H17  1  0.753700  0.594500  0.866400  1.0  0.0972
  H  H18  1  0.820600  0.686100  0.924000  1.0  0.1169
  H  H19  1  0.984600  0.627000  0.922100  1.0  0.1085
  H  H20  1  0.916100  0.535300  0.863700  1.0  0.0978
  H  H21  1  0.924800  0.804700  0.945000  1.0  0.099
  H  H22  1  0.840800  0.246300  0.633600  1.0  0.0972
  H  H23  1  0.865500  0.179400  0.576000  1.0  0.1178
  H  H24  1  0.642400  0.015400  0.577900  1.0  0.1082
  H  H25  1  0.619200  0.083900  0.636300  1.0  0.098
  H  H26  1  0.879900  0.075200  0.555000  1.0  0.0993
  H  H27  1  0.405500  0.159200  0.633600  1.0  0.0972
  H  H28  1  0.313900  0.134500  0.576000  1.0  0.1163
  H  H29  1  0.373000  0.357600  0.577900  1.0  0.1084
  H  H30  1  0.464700  0.380800  0.636300  1.0  0.0991
  H  H31  1  0.195300  0.120100  0.555000  1.0  0.0992
  H  H32  1  0.753700  0.594500  0.633600  1.0  0.097
  H  H33  1  0.820600  0.686100  0.576000  1.0  0.1173
  H  H34  1  0.984600  0.627000  0.577900  1.0  0.1091
  H  H35  1  0.916100  0.535300  0.636300  1.0  0.0977
  H  H36  1  0.924800  0.804700  0.555000  1.0  0.0992
  H  H37  1  0.594500  0.753700  0.133600  1.0  0.0971
  H  H38  1  0.686100  0.820600  0.076000  1.0  0.1173
  H  H39  1  0.627000  0.984600  0.077900  1.0  0.1098
  H  H40  1  0.535300  0.916100  0.136300  1.0  0.0975
  H  H41  1  0.804700  0.924800  0.055000  1.0  0.0996
  H  H42  1  0.246300  0.840800  0.133600  1.0  0.0973
  H  H43  1  0.179400  0.865500  0.076000  1.0  0.1166
  H  H44  1  0.015400  0.642400  0.077900  1.0  0.1078
  H  H45  1  0.083900  0.619200  0.136300  1.0  0.0973
  H  H46  1  0.075200  0.879900  0.055000  1.0  0.0986
  H  H47  1  0.159200  0.405500  0.133600  1.0  0.0973
  H  H48  1  0.134500  0.313900  0.076000  1.0  0.1172
  H  H49  1  0.357600  0.373000  0.077900  1.0  0.1075
  H  H50  1  0.380800  0.464700  0.136300  1.0  0.0992
  H  H51  1  0.120100  0.195300  0.055000  1.0  0.0995
  H  H52  1  0.594500  0.753700  0.366400  1.0  0.0974
  H  H53  1  0.686100  0.820600  0.424000  1.0  0.1172
  H  H54  1  0.627000  0.984600  0.422100  1.0  0.1094
  H  H55  1  0.535300  0.916100  0.363700  1.0  0.0981
  H  H56  1  0.804700  0.924800  0.445000  1.0  0.099
  H  H57  1  0.246300  0.840800  0.366400  1.0  0.0975
  H  H58  1  0.179400  0.865500  0.424000  1.0  0.1164
  H  H59  1  0.015400  0.642400  0.422100  1.0  0.1073
  H  H60  1  0.083900  0.619200  0.363700  1.0  0.0973
  H  H61  1  0.075200  0.879900  0.445000  1.0  0.0983
  H  H62  1  0.159200  0.405500  0.366400  1.0  0.0975
  H  H63  1  0.134500  0.313900  0.424000  1.0  0.1172
  H  H64  1  0.357600  0.373000  0.422100  1.0  0.1071
  H  H65  1  0.380800  0.464700  0.363700  1.0  0.0998
  H  H66  1  0.120100  0.195300  0.445000  1.0  0.099
  H  H67  1  0.668400  0.000000  0.000000  1.0  0.0999
  H  H68  1  0.331600  0.331600  0.000000  1.0  0.0989
  H  H69  1  0.000000  0.668400  0.000000  1.0  0.0996
  H  H70  1  0.668400  0.000000  0.500000  1.0  0.0999
  H  H71  1  0.331600  0.331600  0.500000  1.0  0.0989
  H  H72  1  0.000000  0.668400  0.500000  1.0  0.0996
  H  H73  1  0.000000  0.116800  0.000000  1.0  0.1045
  H  H74  1  0.116800  0.000000  0.000000  1.0  0.1035
  H  H75  1  0.883200  0.883200  0.000000  1.0  0.1044
  H  H76  1  0.000000  0.116800  0.500000  1.0  0.1045
  H  H77  1  0.116800  0.000000  0.500000  1.0  0.1035
  H  H78  1  0.883200  0.883200  0.500000  1.0  0.1044
  C  C79  1  0.711500  0.214300  0.819500  1.0  0.7218
  C  C80  1  0.727400  0.170800  0.858500  1.0  -0.1361
  C  C81  1  0.800400  0.199000  0.877400  1.0  -0.0547
  C  C82  1  0.815300  0.159400  0.912100  1.0  -0.1624
  C  C83  1  0.756800  0.090800  0.929100  1.0  0.0656
  C  C84  1  0.683100  0.062300  0.910800  1.0  -0.1545
  C  C85  1  0.669300  0.103300  0.875600  1.0  -0.031
  C  C86  1  0.771600  0.044300  0.965800  1.0  0.0087
  C  C87  1  0.841100  0.044600  0.966900  1.0  -0.1029
  C  C88  1  0.502800  0.288500  0.819500  1.0  0.7217
  C  C89  1  0.443400  0.272600  0.858500  1.0  -0.1372
  C  C90  1  0.398600  0.199600  0.877400  1.0  -0.0534
  C  C91  1  0.344100  0.184700  0.912100  1.0  -0.1612
  C  C92  1  0.334000  0.243200  0.929100  1.0  0.0651
  C  C93  1  0.379200  0.316900  0.910800  1.0  -0.1554
  C  C94  1  0.434000  0.330700  0.875600  1.0  -0.033
  C  C95  1  0.272700  0.228400  0.965800  1.0  0.0074
  C  C96  1  0.203500  0.158900  0.966900  1.0  -0.1018
  C  C97  1  0.785700  0.497200  0.819500  1.0  0.7224
  C  C98  1  0.829200  0.556600  0.858500  1.0  -0.1368
  C  C99  1  0.801000  0.601400  0.877400  1.0  -0.0472
  C  C100  1  0.840600  0.655900  0.912100  1.0  -0.1605
  C  C101  1  0.909200  0.666000  0.929100  1.0  0.0664
  C  C102  1  0.937700  0.620800  0.910800  1.0  -0.1526
  C  C103  1  0.896700  0.566000  0.875600  1.0  -0.0316
  C  C104  1  0.955700  0.727300  0.965800  1.0  0.0088
  C  C105  1  0.955400  0.796500  0.966900  1.0  -0.1034
  C  C106  1  0.711500  0.214300  0.680500  1.0  0.7223
  C  C107  1  0.727400  0.170800  0.641500  1.0  -0.1362
  C  C108  1  0.800400  0.199000  0.622600  1.0  -0.0544
  C  C109  1  0.815300  0.159400  0.587900  1.0  -0.162
  C  C110  1  0.756800  0.090800  0.570900  1.0  0.0655
  C  C111  1  0.683100  0.062300  0.589200  1.0  -0.1542
  C  C112  1  0.669300  0.103300  0.624400  1.0  -0.0305
  C  C113  1  0.771600  0.044300  0.534200  1.0  0.0085
  C  C114  1  0.841100  0.044600  0.533100  1.0  -0.1024
  C  C115  1  0.502800  0.288500  0.680500  1.0  0.7223
  C  C116  1  0.443400  0.272600  0.641500  1.0  -0.1371
  C  C117  1  0.398600  0.199600  0.622600  1.0  -0.0531
  C  C118  1  0.344100  0.184700  0.587900  1.0  -0.1607
  C  C119  1  0.334000  0.243200  0.570900  1.0  0.0652
  C  C120  1  0.379200  0.316900  0.589200  1.0  -0.1556
  C  C121  1  0.434000  0.330700  0.624400  1.0  -0.0327
  C  C122  1  0.272700  0.228400  0.534200  1.0  0.0072
  C  C123  1  0.203500  0.158900  0.533100  1.0  -0.1016
  C  C124  1  0.785700  0.497200  0.680500  1.0  0.7233
  C  C125  1  0.829200  0.556600  0.641500  1.0  -0.1356
  C  C126  1  0.801000  0.601400  0.622600  1.0  -0.0469
  C  C127  1  0.840600  0.655900  0.587900  1.0  -0.1599
  C  C128  1  0.909200  0.666000  0.570900  1.0  0.0667
  C  C129  1  0.937700  0.620800  0.589200  1.0  -0.1529
  C  C130  1  0.896700  0.566000  0.624400  1.0  -0.0311
  C  C131  1  0.955700  0.727300  0.534200  1.0  0.0087
  C  C132  1  0.955400  0.796500  0.533100  1.0  -0.1037
  C  C133  1  0.497200  0.785700  0.180500  1.0  0.723
  C  C134  1  0.556600  0.829200  0.141500  1.0  -0.1353
  C  C135  1  0.601400  0.801000  0.122600  1.0  -0.0539
  C  C136  1  0.655900  0.840600  0.087900  1.0  -0.161
  C  C137  1  0.666000  0.909200  0.070900  1.0  0.0658
  C  C138  1  0.620800  0.937700  0.089200  1.0  -0.1539
  C  C139  1  0.566000  0.896700  0.124400  1.0  -0.0304
  C  C140  1  0.727300  0.955700  0.034200  1.0  0.0084
  C  C141  1  0.796500  0.955400  0.033100  1.0  -0.1023
  C  C142  1  0.214300  0.711500  0.180500  1.0  0.7223
  C  C143  1  0.170800  0.727400  0.141500  1.0  -0.1371
  C  C144  1  0.199000  0.800400  0.122600  1.0  -0.0539
  C  C145  1  0.159400  0.815300  0.087900  1.0  -0.1618
  C  C146  1  0.090800  0.756800  0.070900  1.0  0.0654
  C  C147  1  0.062300  0.683100  0.089200  1.0  -0.1551
  C  C148  1  0.103300  0.669300  0.124400  1.0  -0.0332
  C  C149  1  0.044300  0.771600  0.034200  1.0  0.0073
  C  C150  1  0.044600  0.841100  0.033100  1.0  -0.102
  C  C151  1  0.288500  0.502800  0.180500  1.0  0.7221
  C  C152  1  0.272600  0.443400  0.141500  1.0  -0.136
  C  C153  1  0.199600  0.398600  0.122600  1.0  -0.0468
  C  C154  1  0.184700  0.344100  0.087900  1.0  -0.1599
  C  C155  1  0.243200  0.334000  0.070900  1.0  0.0664
  C  C156  1  0.316900  0.379200  0.089200  1.0  -0.153
  C  C157  1  0.330700  0.434000  0.124400  1.0  -0.0309
  C  C158  1  0.228400  0.272700  0.034200  1.0  0.0086
  C  C159  1  0.158900  0.203500  0.033100  1.0  -0.1037
  C  C160  1  0.497200  0.785700  0.319500  1.0  0.7223
  C  C161  1  0.556600  0.829200  0.358500  1.0  -0.1368
  C  C162  1  0.601400  0.801000  0.377400  1.0  -0.0542
  C  C163  1  0.655900  0.840600  0.412100  1.0  -0.1612
  C  C164  1  0.666000  0.909200  0.429100  1.0  0.0656
  C  C165  1  0.620800  0.937700  0.410800  1.0  -0.1538
  C  C166  1  0.566000  0.896700  0.375600  1.0  -0.0307
  C  C167  1  0.727300  0.955700  0.465800  1.0  0.0086
  C  C168  1  0.796500  0.955400  0.466900  1.0  -0.1027
  C  C169  1  0.214300  0.711500  0.319500  1.0  0.7216
  C  C170  1  0.170800  0.727400  0.358500  1.0  -0.1373
  C  C171  1  0.199000  0.800400  0.377400  1.0  -0.0542
  C  C172  1  0.159400  0.815300  0.412100  1.0  -0.1618
  C  C173  1  0.090800  0.756800  0.429100  1.0  0.0653
  C  C174  1  0.062300  0.683100  0.410800  1.0  -0.1553
  C  C175  1  0.103300  0.669300  0.375600  1.0  -0.0333
  C  C176  1  0.044300  0.771600  0.465800  1.0  0.0075
  C  C177  1  0.044600  0.841100  0.466900  1.0  -0.1023
  C  C178  1  0.288500  0.502800  0.319500  1.0  0.722
  C  C179  1  0.272600  0.443400  0.358500  1.0  -0.1359
  C  C180  1  0.199600  0.398600  0.377400  1.0  -0.047
  C  C181  1  0.184700  0.344100  0.412100  1.0  -0.1603
  C  C182  1  0.243200  0.334000  0.429100  1.0  0.0666
  C  C183  1  0.316900  0.379200  0.410800  1.0  -0.1524
  C  C184  1  0.330700  0.434000  0.375600  1.0  -0.0312
  C  C185  1  0.228400  0.272700  0.465800  1.0  0.009
  C  C186  1  0.158900  0.203500  0.466900  1.0  -0.1038
  C  C187  1  0.715200  0.000000  0.000000  1.0  -0.1094
  C  C188  1  0.854500  0.000000  0.000000  1.0  0.0461
  C  C189  1  0.930100  0.000000  0.000000  1.0  0.0436
  C  C190  1  0.284800  0.284800  0.000000  1.0  -0.1067
  C  C191  1  0.145500  0.145500  0.000000  1.0  0.0458
  C  C192  1  0.069900  0.069900  0.000000  1.0  0.0447
  C  C193  1  0.000000  0.715200  0.000000  1.0  -0.1082
  C  C194  1  0.000000  0.854500  0.000000  1.0  0.0466
  C  C195  1  0.000000  0.930100  0.000000  1.0  0.0446
  C  C196  1  0.715200  0.000000  0.500000  1.0  -0.1094
  C  C197  1  0.854500  0.000000  0.500000  1.0  0.0461
  C  C198  1  0.930100  0.000000  0.500000  1.0  0.0436
  C  C199  1  0.284800  0.284800  0.500000  1.0  -0.1067
  C  C200  1  0.145500  0.145500  0.500000  1.0  0.0458
  C  C201  1  0.069900  0.069900  0.500000  1.0  0.0447
  C  C202  1  0.000000  0.715200  0.500000  1.0  -0.1082
  C  C203  1  0.000000  0.854500  0.500000  1.0  0.0466
  C  C204  1  0.000000  0.930100  0.500000  1.0  0.0446
  C  C205  1  0.000000  0.069900  0.000000  1.0  -0.0757
  C  C206  1  0.069900  0.000000  0.000000  1.0  -0.0805
  C  C207  1  0.930100  0.930100  0.000000  1.0  -0.076
  C  C208  1  0.000000  0.069900  0.500000  1.0  -0.0757
  C  C209  1  0.069900  0.000000  0.500000  1.0  -0.0805
  C  C210  1  0.930100  0.930100  0.500000  1.0  -0.076
  O  O211  1  0.643800  0.186400  0.804900  1.0  -0.6662
  O  O212  1  0.768900  0.278700  0.805400  1.0  -0.6796
  O  O213  1  0.542600  0.356200  0.804900  1.0  -0.6664
  O  O214  1  0.509800  0.231100  0.805400  1.0  -0.6786
  O  O215  1  0.813600  0.457400  0.804900  1.0  -0.6681
  O  O216  1  0.721300  0.490200  0.805400  1.0  -0.6813
  O  O217  1  0.643800  0.186400  0.695100  1.0  -0.6665
  O  O218  1  0.768900  0.278700  0.694600  1.0  -0.6799
  O  O219  1  0.542600  0.356200  0.695100  1.0  -0.6667
  O  O220  1  0.509800  0.231100  0.694600  1.0  -0.6787
  O  O221  1  0.813600  0.457400  0.695100  1.0  -0.6685
  O  O222  1  0.721300  0.490200  0.694600  1.0  -0.6813
  O  O223  1  0.457400  0.813600  0.195100  1.0  -0.6659
  O  O224  1  0.490200  0.721300  0.194600  1.0  -0.6808
  O  O225  1  0.186400  0.643800  0.195100  1.0  -0.6664
  O  O226  1  0.278700  0.768900  0.194600  1.0  -0.6777
  O  O227  1  0.356200  0.542600  0.195100  1.0  -0.6689
  O  O228  1  0.231100  0.509800  0.194600  1.0  -0.6811
  O  O229  1  0.457400  0.813600  0.304900  1.0  -0.666
  O  O230  1  0.490200  0.721300  0.305400  1.0  -0.6805
  O  O231  1  0.186400  0.643800  0.304900  1.0  -0.6667
  O  O232  1  0.278700  0.768900  0.305400  1.0  -0.6777
  O  O233  1  0.356200  0.542600  0.304900  1.0  -0.6685
  O  O234  1  0.231100  0.509800  0.305400  1.0  -0.6812
  O  O235  1  0.666667  0.333333  0.750000  1.0  -0.9284
  O  O236  1  0.333333  0.666667  0.250000  1.0  -0.9284
