# generated using pymatgen
data_CuH9C17O4
_symmetry_space_group_name_H-M   'P 1'
_cell_length_a   18.67770000
_cell_length_b   18.67770000
_cell_length_c   54.44300000
_cell_angle_alpha   90.00000000
_cell_angle_beta   90.00000000
_cell_angle_gamma   120.00000000
_symmetry_Int_Tables_number   1
_chemical_formula_structural   CuH9C17O4
_chemical_formula_sum   'Cu18 H162 C306 O72'
_cell_volume   16448.24139405
_cell_formula_units_Z   18
loop_
 _symmetry_equiv_pos_site_id
 _symmetry_equiv_pos_as_xyz
  1  'x, y, z'
loop_
 _atom_site_type_symbol
 _atom_site_label
 _atom_site_symmetry_multiplicity
 _atom_site_fract_x
 _atom_site_fract_y
 _atom_site_fract_z
 _atom_site_occupancy
 _atom_site_charge
  Cu  Cu1  1  0.476410  0.952750  0.019950  1.0  0.8525
  Cu  Cu2  1  0.143080  0.286080  0.353280  1.0  0.8531
  Cu  Cu3  1  0.809740  0.619420  0.686610  1.0  0.8524
  Cu  Cu4  1  0.047250  0.523660  0.019950  1.0  0.8545
  Cu  Cu5  1  0.713920  0.856990  0.353280  1.0  0.8551
  Cu  Cu6  1  0.380580  0.190330  0.686610  1.0  0.8544
  Cu  Cu7  1  0.476340  0.523590  0.019950  1.0  0.8526
  Cu  Cu8  1  0.143010  0.856920  0.353280  1.0  0.8532
  Cu  Cu9  1  0.809670  0.190260  0.686610  1.0  0.8525
  Cu  Cu10  1  0.523590  0.047250  0.980050  1.0  0.8542
  Cu  Cu11  1  0.190260  0.380580  0.313390  1.0  0.8541
  Cu  Cu12  1  0.856920  0.713920  0.646720  1.0  0.8548
  Cu  Cu13  1  0.952750  0.476340  0.980050  1.0  0.8535
  Cu  Cu14  1  0.619420  0.809670  0.313390  1.0  0.8534
  Cu  Cu15  1  0.286080  0.143010  0.646720  1.0  0.8541
  Cu  Cu16  1  0.523660  0.476410  0.980050  1.0  0.8531
  Cu  Cu17  1  0.190330  0.809740  0.313390  1.0  0.853
  Cu  Cu18  1  0.856990  0.143080  0.646720  1.0  0.8537
  H  H19  1  0.306100  0.909500  0.936300  1.0  0.0896
  H  H20  1  0.234200  0.766600  0.996700  1.0  0.0872
  H  H21  1  0.090900  0.694100  0.936200  1.0  0.0878
  H  H22  1  0.277200  0.978700  0.792400  1.0  0.1206
  H  H23  1  0.399700  0.081000  0.812100  1.0  0.0911
  H  H24  1  0.416300  0.062700  0.853800  1.0  0.0897
  H  H25  1  0.315300  0.942300  0.873600  1.0  0.1174
  H  H26  1  0.279300  0.933800  0.854100  1.0  0.2136
  H  H27  1  0.264600  0.949700  0.813300  1.0  0.2243
  H  H28  1  0.972770  0.242830  0.269630  1.0  0.0888
  H  H29  1  0.900870  0.099930  0.330030  1.0  0.0869
  H  H30  1  0.757570  0.027430  0.269530  1.0  0.0878
  H  H31  1  0.943870  0.312030  0.125730  1.0  0.1206
  H  H32  1  0.066370  0.414330  0.145430  1.0  0.0911
  H  H33  1  0.082970  0.396030  0.187130  1.0  0.0897
  H  H34  1  0.981970  0.275630  0.206930  1.0  0.1174
  H  H35  1  0.945970  0.267130  0.187430  1.0  0.2136
  H  H36  1  0.931270  0.283030  0.146630  1.0  0.2243
  H  H37  1  0.639430  0.576170  0.602970  1.0  0.0888
  H  H38  1  0.567530  0.433270  0.663370  1.0  0.0872
  H  H39  1  0.424230  0.360770  0.602870  1.0  0.0878
  H  H40  1  0.610530  0.645370  0.459070  1.0  0.1214
  H  H41  1  0.733030  0.747670  0.478770  1.0  0.0916
  H  H42  1  0.749630  0.729370  0.520470  1.0  0.0897
  H  H43  1  0.648630  0.608970  0.540270  1.0  0.1172
  H  H44  1  0.612630  0.600470  0.520770  1.0  0.2137
  H  H45  1  0.597930  0.616370  0.479970  1.0  0.2242
  H  H46  1  0.090500  0.396600  0.936300  1.0  0.0896
  H  H47  1  0.233400  0.467600  0.996700  1.0  0.0873
  H  H48  1  0.305900  0.396800  0.936200  1.0  0.0882
  H  H49  1  0.021300  0.298500  0.792400  1.0  0.1208
  H  H50  1  0.919000  0.318700  0.812100  1.0  0.0919
  H  H51  1  0.937300  0.353600  0.853800  1.0  0.0897
  H  H52  1  0.057700  0.373000  0.873600  1.0  0.119
  H  H53  1  0.066200  0.345500  0.854100  1.0  0.2151
  H  H54  1  0.050300  0.314900  0.813300  1.0  0.2289
  H  H55  1  0.757170  0.729930  0.269630  1.0  0.089
  H  H56  1  0.900070  0.800930  0.330030  1.0  0.0866
  H  H57  1  0.972570  0.730130  0.269530  1.0  0.0882
  H  H58  1  0.687970  0.631830  0.125730  1.0  0.1208
  H  H59  1  0.585670  0.652030  0.145430  1.0  0.0919
  H  H60  1  0.603970  0.686930  0.187130  1.0  0.0897
  H  H61  1  0.724370  0.706330  0.206930  1.0  0.119
  H  H62  1  0.732870  0.678830  0.187430  1.0  0.2151
  H  H63  1  0.716970  0.648230  0.146630  1.0  0.2289
  H  H64  1  0.423830  0.063270  0.602970  1.0  0.089
  H  H65  1  0.566730  0.134270  0.663370  1.0  0.0873
  H  H66  1  0.639230  0.063470  0.602870  1.0  0.0882
  H  H67  1  0.354630  0.965170  0.459070  1.0  0.1219
  H  H68  1  0.252330  0.985370  0.478770  1.0  0.0904
  H  H69  1  0.270630  0.020270  0.520470  1.0  0.0896
  H  H70  1  0.391030  0.039670  0.540270  1.0  0.1197
  H  H71  1  0.399530  0.012170  0.520770  1.0  0.2151
  H  H72  1  0.383630  0.981570  0.479970  1.0  0.2289
  H  H73  1  0.603400  0.693900  0.936300  1.0  0.0882
  H  H74  1  0.532400  0.765800  0.996700  1.0  0.0872
  H  H75  1  0.603200  0.909100  0.936200  1.0  0.089
  H  H76  1  0.701500  0.722800  0.792400  1.0  0.1225
  H  H77  1  0.681300  0.600300  0.812100  1.0  0.0918
  H  H78  1  0.646400  0.583700  0.853800  1.0  0.0897
  H  H79  1  0.627000  0.684700  0.873600  1.0  0.1167
  H  H80  1  0.654500  0.720700  0.854100  1.0  0.2151
  H  H81  1  0.685100  0.735400  0.813300  1.0  0.2258
  H  H82  1  0.270070  0.027230  0.269630  1.0  0.0882
  H  H83  1  0.199070  0.099130  0.330030  1.0  0.0874
  H  H84  1  0.269870  0.242430  0.269530  1.0  0.089
  H  H85  1  0.368170  0.056130  0.125730  1.0  0.1225
  H  H86  1  0.347970  0.933630  0.145430  1.0  0.0918
  H  H87  1  0.313070  0.917030  0.187130  1.0  0.0897
  H  H88  1  0.293670  0.018030  0.206930  1.0  0.1167
  H  H89  1  0.321170  0.054030  0.187430  1.0  0.2151
  H  H90  1  0.351770  0.068730  0.146630  1.0  0.2258
  H  H91  1  0.936730  0.360570  0.602970  1.0  0.0882
  H  H92  1  0.865730  0.432470  0.663370  1.0  0.0872
  H  H93  1  0.936530  0.575770  0.602870  1.0  0.089
  H  H94  1  0.034830  0.389470  0.459070  1.0  0.1214
  H  H95  1  0.014630  0.266970  0.478770  1.0  0.0909
  H  H96  1  0.979730  0.250370  0.520470  1.0  0.0896
  H  H97  1  0.960330  0.351370  0.540270  1.0  0.1171
  H  H98  1  0.987830  0.387370  0.520770  1.0  0.2152
  H  H99  1  0.018430  0.402070  0.479970  1.0  0.2258
  H  H100  1  0.693900  0.090500  0.063700  1.0  0.0897
  H  H101  1  0.765800  0.233400  0.003300  1.0  0.0872
  H  H102  1  0.909100  0.305900  0.063800  1.0  0.0877
  H  H103  1  0.722800  0.021300  0.207600  1.0  0.119
  H  H104  1  0.600300  0.919000  0.187900  1.0  0.092
  H  H105  1  0.583700  0.937300  0.146200  1.0  0.0898
  H  H106  1  0.684700  0.057700  0.126400  1.0  0.1172
  H  H107  1  0.720700  0.066200  0.145900  1.0  0.2202
  H  H108  1  0.735400  0.050300  0.186700  1.0  0.222
  H  H109  1  0.360570  0.423830  0.397030  1.0  0.0889
  H  H110  1  0.432470  0.566730  0.336630  1.0  0.0872
  H  H111  1  0.575770  0.639230  0.397130  1.0  0.0877
  H  H112  1  0.389470  0.354630  0.540930  1.0  0.1195
  H  H113  1  0.266970  0.252330  0.521230  1.0  0.0917
  H  H114  1  0.250370  0.270630  0.479530  1.0  0.0898
  H  H115  1  0.351370  0.391030  0.459730  1.0  0.1185
  H  H116  1  0.387370  0.399530  0.479230  1.0  0.2202
  H  H117  1  0.402070  0.383630  0.520030  1.0  0.222
  H  H118  1  0.027230  0.757170  0.730370  1.0  0.0889
  H  H119  1  0.099130  0.900070  0.669970  1.0  0.0866
  H  H120  1  0.242430  0.972570  0.730470  1.0  0.0877
  H  H121  1  0.056130  0.687970  0.874270  1.0  0.119
  H  H122  1  0.933630  0.585670  0.854570  1.0  0.092
  H  H123  1  0.917030  0.603970  0.812870  1.0  0.0898
  H  H124  1  0.018030  0.724370  0.793070  1.0  0.1172
  H  H125  1  0.054030  0.732870  0.812570  1.0  0.2202
  H  H126  1  0.068730  0.716970  0.853370  1.0  0.222
  H  H127  1  0.909500  0.603400  0.063700  1.0  0.0895
  H  H128  1  0.766600  0.532400  0.003300  1.0  0.0872
  H  H129  1  0.694100  0.603200  0.063800  1.0  0.0884
  H  H130  1  0.978700  0.701500  0.207600  1.0  0.1175
  H  H131  1  0.081000  0.681300  0.187900  1.0  0.0924
  H  H132  1  0.062700  0.646400  0.146200  1.0  0.09
  H  H133  1  0.942300  0.627000  0.126400  1.0  0.1174
  H  H134  1  0.933800  0.654500  0.145900  1.0  0.2185
  H  H135  1  0.949700  0.685100  0.186700  1.0  0.2235
  H  H136  1  0.576170  0.936730  0.397030  1.0  0.089
  H  H137  1  0.433270  0.865730  0.336630  1.0  0.0872
  H  H138  1  0.360770  0.936530  0.397130  1.0  0.0884
  H  H139  1  0.645370  0.034830  0.540930  1.0  0.1188
  H  H140  1  0.747670  0.014630  0.521230  1.0  0.0918
  H  H141  1  0.729370  0.979730  0.479530  1.0  0.09
  H  H142  1  0.608970  0.960330  0.459730  1.0  0.119
  H  H143  1  0.600470  0.987830  0.479230  1.0  0.2185
  H  H144  1  0.616370  0.018430  0.520030  1.0  0.2235
  H  H145  1  0.242830  0.270070  0.730370  1.0  0.089
  H  H146  1  0.099930  0.199070  0.669970  1.0  0.0871
  H  H147  1  0.027430  0.269870  0.730470  1.0  0.0884
  H  H148  1  0.312030  0.368170  0.874270  1.0  0.1175
  H  H149  1  0.414330  0.347970  0.854570  1.0  0.0924
  H  H150  1  0.396030  0.313070  0.812870  1.0  0.09
  H  H151  1  0.275630  0.293670  0.793070  1.0  0.1174
  H  H152  1  0.267130  0.321170  0.812570  1.0  0.2185
  H  H153  1  0.283030  0.351770  0.853370  1.0  0.2235
  H  H154  1  0.396600  0.306100  0.063700  1.0  0.0887
  H  H155  1  0.467600  0.234200  0.003300  1.0  0.0867
  H  H156  1  0.396800  0.090900  0.063800  1.0  0.089
  H  H157  1  0.298500  0.277200  0.207600  1.0  0.1214
  H  H158  1  0.318700  0.399700  0.187900  1.0  0.0935
  H  H159  1  0.353600  0.416300  0.146200  1.0  0.0902
  H  H160  1  0.373000  0.315300  0.126400  1.0  0.1184
  H  H161  1  0.345500  0.279300  0.145900  1.0  0.2176
  H  H162  1  0.314900  0.264600  0.186700  1.0  0.2245
  H  H163  1  0.063270  0.639430  0.397030  1.0  0.0887
  H  H164  1  0.134270  0.567530  0.336630  1.0  0.0867
  H  H165  1  0.063470  0.424230  0.397130  1.0  0.0889
  H  H166  1  0.965170  0.610530  0.540930  1.0  0.12
  H  H167  1  0.985370  0.733030  0.521230  1.0  0.0927
  H  H168  1  0.020270  0.749630  0.479530  1.0  0.0902
  H  H169  1  0.039670  0.648630  0.459730  1.0  0.1199
  H  H170  1  0.012170  0.612630  0.479230  1.0  0.2176
  H  H171  1  0.981570  0.597930  0.520030  1.0  0.2244
  H  H172  1  0.729930  0.972770  0.730370  1.0  0.0887
  H  H173  1  0.800930  0.900870  0.669970  1.0  0.0871
  H  H174  1  0.730130  0.757570  0.730470  1.0  0.089
  H  H175  1  0.631830  0.943870  0.874270  1.0  0.1214
  H  H176  1  0.652030  0.066370  0.854570  1.0  0.0935
  H  H177  1  0.686930  0.082970  0.812870  1.0  0.0902
  H  H178  1  0.706330  0.981970  0.793070  1.0  0.1184
  H  H179  1  0.678830  0.945970  0.812570  1.0  0.2176
  H  H180  1  0.648230  0.931270  0.853370  1.0  0.2245
  C  C181  1  0.361500  0.906900  0.980670  1.0  0.67
  C  C182  1  0.282600  0.847300  0.968280  1.0  -0.173
  C  C183  1  0.268500  0.861000  0.944290  1.0  -0.0989
  C  C184  1  0.197600  0.802000  0.931950  1.0  0.0032
  C  C185  1  0.183500  0.816600  0.884350  1.0  0.0858
  C  C186  1  0.186900  0.813500  0.905980  1.0  -0.0666
  C  C187  1  0.236800  0.891400  0.845300  1.0  -0.064
  C  C188  1  0.175700  0.824400  0.858830  1.0  -0.0162
  C  C189  1  0.225300  0.901600  0.821030  1.0  -0.1166
  C  C190  1  0.224900  0.775700  0.980560  1.0  0.0104
  C  C191  1  0.152500  0.717300  0.968350  1.0  -0.1923
  C  C192  1  0.139200  0.731800  0.944190  1.0  -0.0302
  C  C193  1  0.093000  0.638600  0.980710  1.0  0.6728
  C  C194  1  0.285500  0.972000  0.808840  1.0  0.0679
  C  C195  1  0.360200  0.035100  0.820670  1.0  -0.1846
  C  C196  1  0.370200  0.023700  0.845240  1.0  -0.1688
  C  C197  1  0.307900  0.950500  0.857180  1.0  -0.0108
  C  C198  1  0.028170  0.240230  0.314000  1.0  0.67
  C  C199  1  0.949270  0.180630  0.301610  1.0  -0.173
  C  C200  1  0.935170  0.194330  0.277620  1.0  -0.0947
  C  C201  1  0.864270  0.135330  0.265280  1.0  0.0023
  C  C202  1  0.850170  0.149930  0.217680  1.0  0.0858
  C  C203  1  0.853570  0.146830  0.239310  1.0  -0.0654
  C  C204  1  0.903470  0.224730  0.178630  1.0  -0.064
  C  C205  1  0.842370  0.157730  0.192160  1.0  -0.0162
  C  C206  1  0.891970  0.234930  0.154360  1.0  -0.1166
  C  C207  1  0.891570  0.109030  0.313890  1.0  0.0092
  C  C208  1  0.819170  0.050630  0.301680  1.0  -0.1926
  C  C209  1  0.805870  0.065130  0.277520  1.0  -0.0284
  C  C210  1  0.759670  0.971930  0.314040  1.0  0.6728
  C  C211  1  0.952170  0.305330  0.142170  1.0  0.0679
  C  C212  1  0.026870  0.368430  0.154000  1.0  -0.1846
  C  C213  1  0.036870  0.357030  0.178570  1.0  -0.1688
  C  C214  1  0.974570  0.283830  0.190510  1.0  -0.0108
  C  C215  1  0.694830  0.573570  0.647340  1.0  0.67
  C  C216  1  0.615930  0.513970  0.634950  1.0  -0.173
  C  C217  1  0.601830  0.527670  0.610960  1.0  -0.0947
  C  C218  1  0.530930  0.468670  0.598620  1.0  0.0023
  C  C219  1  0.516830  0.483270  0.551020  1.0  0.0858
  C  C220  1  0.520230  0.480170  0.572650  1.0  -0.0654
  C  C221  1  0.570130  0.558070  0.511970  1.0  -0.065
  C  C222  1  0.509030  0.491070  0.525500  1.0  -0.0234
  C  C223  1  0.558630  0.568270  0.487700  1.0  -0.1159
  C  C224  1  0.558230  0.442370  0.647230  1.0  0.0092
  C  C225  1  0.485830  0.383970  0.635020  1.0  -0.1926
  C  C226  1  0.472530  0.398470  0.610860  1.0  -0.0284
  C  C227  1  0.426330  0.305270  0.647380  1.0  0.6728
  C  C228  1  0.618830  0.638670  0.475510  1.0  0.0662
  C  C229  1  0.693530  0.701770  0.487340  1.0  -0.1843
  C  C230  1  0.703530  0.690370  0.511910  1.0  -0.1692
  C  C231  1  0.641230  0.617170  0.523850  1.0  -0.017
  C  C232  1  0.093100  0.454600  0.980670  1.0  0.6703
  C  C233  1  0.152700  0.435300  0.968280  1.0  -0.1726
  C  C234  1  0.139000  0.407500  0.944290  1.0  -0.0988
  C  C235  1  0.198000  0.395600  0.931950  1.0  0.0042
  C  C236  1  0.183400  0.366900  0.884350  1.0  0.0868
  C  C237  1  0.186500  0.373400  0.905980  1.0  -0.0663
  C  C238  1  0.108600  0.345400  0.845300  1.0  -0.0637
  C  C239  1  0.175600  0.351300  0.858830  1.0  -0.02
  C  C240  1  0.098400  0.323700  0.821030  1.0  -0.1078
  C  C241  1  0.224300  0.449200  0.980560  1.0  0.0097
  C  C242  1  0.282700  0.435200  0.968350  1.0  -0.1918
  C  C243  1  0.268200  0.407400  0.944190  1.0  -0.0274
  C  C244  1  0.361400  0.454400  0.980710  1.0  0.6728
  C  C245  1  0.028000  0.313500  0.808840  1.0  0.0724
  C  C246  1  0.964900  0.325100  0.820670  1.0  -0.1779
  C  C247  1  0.976300  0.346500  0.845240  1.0  -0.1661
  C  C248  1  0.049500  0.357400  0.857180  1.0  -0.009
  C  C249  1  0.759770  0.787930  0.314000  1.0  0.6703
  C  C250  1  0.819370  0.768630  0.301610  1.0  -0.1726
  C  C251  1  0.805670  0.740830  0.277620  1.0  -0.0947
  C  C252  1  0.864670  0.728930  0.265280  1.0  0.0038
  C  C253  1  0.850070  0.700230  0.217680  1.0  0.0868
  C  C254  1  0.853170  0.706730  0.239310  1.0  -0.0652
  C  C255  1  0.775270  0.678730  0.178630  1.0  -0.0637
  C  C256  1  0.842270  0.684630  0.192160  1.0  -0.02
  C  C257  1  0.765070  0.657030  0.154360  1.0  -0.1078
  C  C258  1  0.890970  0.782530  0.313890  1.0  0.0089
  C  C259  1  0.949370  0.768530  0.301680  1.0  -0.1918
  C  C260  1  0.934870  0.740730  0.277520  1.0  -0.0274
  C  C261  1  0.028070  0.787730  0.314040  1.0  0.6728
  C  C262  1  0.694670  0.646830  0.142170  1.0  0.0724
  C  C263  1  0.631570  0.658430  0.154000  1.0  -0.1779
  C  C264  1  0.642970  0.679830  0.178570  1.0  -0.1661
  C  C265  1  0.716170  0.690730  0.190510  1.0  -0.009
  C  C266  1  0.426430  0.121270  0.647340  1.0  0.6703
  C  C267  1  0.486030  0.101970  0.634950  1.0  -0.1726
  C  C268  1  0.472330  0.074170  0.610960  1.0  -0.0947
  C  C269  1  0.531330  0.062270  0.598620  1.0  0.0038
  C  C270  1  0.516730  0.033570  0.551020  1.0  0.0867
  C  C271  1  0.519830  0.040070  0.572650  1.0  -0.0652
  C  C272  1  0.441930  0.012070  0.511970  1.0  -0.0641
  C  C273  1  0.508930  0.017970  0.525500  1.0  -0.0165
  C  C274  1  0.431730  0.990370  0.487700  1.0  -0.1071
  C  C275  1  0.557630  0.115870  0.647230  1.0  0.0089
  C  C276  1  0.616030  0.101870  0.635020  1.0  -0.1918
  C  C277  1  0.601530  0.074070  0.610860  1.0  -0.029
  C  C278  1  0.694730  0.121070  0.647380  1.0  0.6728
  C  C279  1  0.361330  0.980170  0.475510  1.0  0.0703
  C  C280  1  0.298230  0.991770  0.487340  1.0  -0.1776
  C  C281  1  0.309630  0.013170  0.511910  1.0  -0.1666
  C  C282  1  0.382830  0.024070  0.523850  1.0  -0.0149
  C  C283  1  0.545400  0.638500  0.980670  1.0  0.6705
  C  C284  1  0.564700  0.717400  0.968280  1.0  -0.1727
  C  C285  1  0.592500  0.731500  0.944290  1.0  -0.0934
  C  C286  1  0.604400  0.802400  0.931950  1.0  0.0053
  C  C287  1  0.633100  0.816500  0.884350  1.0  0.0863
  C  C288  1  0.626600  0.813100  0.905980  1.0  -0.0661
  C  C289  1  0.654600  0.763200  0.845300  1.0  -0.0677
  C  C290  1  0.648700  0.824300  0.858830  1.0  -0.0167
  C  C291  1  0.676300  0.774700  0.821030  1.0  -0.1146
  C  C292  1  0.550800  0.775100  0.980560  1.0  0.0086
  C  C293  1  0.564800  0.847500  0.968350  1.0  -0.1918
  C  C294  1  0.592600  0.860800  0.944190  1.0  -0.0299
  C  C295  1  0.545600  0.907000  0.980710  1.0  0.6725
  C  C296  1  0.686500  0.714500  0.808840  1.0  0.0692
  C  C297  1  0.674900  0.639800  0.820670  1.0  -0.188
  C  C298  1  0.653500  0.629800  0.845240  1.0  -0.1707
  C  C299  1  0.642600  0.692100  0.857180  1.0  -0.0109
  C  C300  1  0.212070  0.971830  0.314000  1.0  0.6705
  C  C301  1  0.231370  0.050730  0.301610  1.0  -0.1727
  C  C302  1  0.259170  0.064830  0.277620  1.0  -0.0934
  C  C303  1  0.271070  0.135730  0.265280  1.0  0.0031
  C  C304  1  0.299770  0.149830  0.217680  1.0  0.0863
  C  C305  1  0.293270  0.146430  0.239310  1.0  -0.0661
  C  C306  1  0.321270  0.096530  0.178630  1.0  -0.0677
  C  C307  1  0.315370  0.157630  0.192160  1.0  -0.0167
  C  C308  1  0.342970  0.108030  0.154360  1.0  -0.1146
  C  C309  1  0.217470  0.108430  0.313890  1.0  0.0082
  C  C310  1  0.231470  0.180830  0.301680  1.0  -0.1923
  C  C311  1  0.259270  0.194130  0.277520  1.0  -0.0295
  C  C312  1  0.212270  0.240330  0.314040  1.0  0.6725
  C  C313  1  0.353170  0.047830  0.142170  1.0  0.0692
  C  C314  1  0.341570  0.973130  0.154000  1.0  -0.188
  C  C315  1  0.320170  0.963130  0.178570  1.0  -0.1707
  C  C316  1  0.309270  0.025430  0.190510  1.0  -0.0109
  C  C317  1  0.878730  0.305170  0.647340  1.0  0.6705
  C  C318  1  0.898030  0.384070  0.634950  1.0  -0.1727
  C  C319  1  0.925830  0.398170  0.610960  1.0  -0.0934
  C  C320  1  0.937730  0.469070  0.598620  1.0  0.0031
  C  C321  1  0.966430  0.483170  0.551020  1.0  0.0866
  C  C322  1  0.959930  0.479770  0.572650  1.0  -0.0661
  C  C323  1  0.987930  0.429870  0.511970  1.0  -0.0671
  C  C324  1  0.982030  0.490970  0.525500  1.0  -0.0153
  C  C325  1  0.009630  0.441370  0.487700  1.0  -0.115
  C  C326  1  0.884130  0.441770  0.647230  1.0  0.0082
  C  C327  1  0.898130  0.514170  0.635020  1.0  -0.1923
  C  C328  1  0.925930  0.527470  0.610860  1.0  -0.0311
  C  C329  1  0.878930  0.573670  0.647380  1.0  0.6725
  C  C330  1  0.019830  0.381170  0.475510  1.0  0.0681
  C  C331  1  0.008230  0.306470  0.487340  1.0  -0.1877
  C  C332  1  0.986830  0.296470  0.511910  1.0  -0.1712
  C  C333  1  0.975930  0.358770  0.523850  1.0  -0.0173
  C  C334  1  0.638500  0.093100  0.019330  1.0  0.6701
  C  C335  1  0.717400  0.152700  0.031720  1.0  -0.1728
  C  C336  1  0.731500  0.139000  0.055710  1.0  -0.0991
  C  C337  1  0.802400  0.198000  0.068050  1.0  0.0023
  C  C338  1  0.816500  0.183400  0.115650  1.0  0.0879
  C  C339  1  0.813100  0.186500  0.094020  1.0  -0.0674
  C  C340  1  0.763200  0.108600  0.154700  1.0  -0.0698
  C  C341  1  0.824300  0.175600  0.141170  1.0  -0.0147
  C  C342  1  0.774700  0.098400  0.178970  1.0  -0.1163
  C  C343  1  0.775100  0.224300  0.019440  1.0  0.0073
  C  C344  1  0.847500  0.282700  0.031650  1.0  -0.1919
  C  C345  1  0.860800  0.268200  0.055810  1.0  -0.0294
  C  C346  1  0.907000  0.361400  0.019290  1.0  0.6729
  C  C347  1  0.714500  0.028000  0.191160  1.0  0.0695
  C  C348  1  0.639800  0.964900  0.179330  1.0  -0.1883
  C  C349  1  0.629800  0.976300  0.154760  1.0  -0.1705
  C  C350  1  0.692100  0.049500  0.142820  1.0  -0.007
  C  C351  1  0.305170  0.426430  0.352660  1.0  0.6701
  C  C352  1  0.384070  0.486030  0.365050  1.0  -0.1728
  C  C353  1  0.398170  0.472330  0.389040  1.0  -0.0946
  C  C354  1  0.469070  0.531330  0.401380  1.0  0.0016
  C  C355  1  0.483170  0.516730  0.448980  1.0  0.0879
  C  C356  1  0.479770  0.519830  0.427350  1.0  -0.0661
  C  C357  1  0.429870  0.441930  0.488030  1.0  -0.0697
  C  C358  1  0.490970  0.508930  0.474500  1.0  -0.0223
  C  C359  1  0.441370  0.431730  0.512300  1.0  -0.1158
  C  C360  1  0.441770  0.557630  0.352770  1.0  0.006
  C  C361  1  0.514170  0.616030  0.364980  1.0  -0.1922
  C  C362  1  0.527470  0.601530  0.389140  1.0  -0.0281
  C  C363  1  0.573670  0.694730  0.352620  1.0  0.673
  C  C364  1  0.381170  0.361330  0.524490  1.0  0.0681
  C  C365  1  0.306470  0.298230  0.512660  1.0  -0.188
  C  C366  1  0.296470  0.309630  0.488090  1.0  -0.171
  C  C367  1  0.358770  0.382830  0.476150  1.0  -0.0128
  C  C368  1  0.971830  0.759770  0.686000  1.0  0.6701
  C  C369  1  0.050730  0.819370  0.698390  1.0  -0.1728
  C  C370  1  0.064830  0.805670  0.722380  1.0  -0.0946
  C  C371  1  0.135730  0.864670  0.734720  1.0  0.0016
  C  C372  1  0.149830  0.850070  0.782320  1.0  0.0879
  C  C373  1  0.146430  0.853170  0.760690  1.0  -0.0661
  C  C374  1  0.096530  0.775270  0.821370  1.0  -0.0698
  C  C375  1  0.157630  0.842270  0.807840  1.0  -0.0147
  C  C376  1  0.108030  0.765070  0.845640  1.0  -0.1163
  C  C377  1  0.108430  0.890970  0.686110  1.0  0.006
  C  C378  1  0.180830  0.949370  0.698320  1.0  -0.1922
  C  C379  1  0.194130  0.934870  0.722480  1.0  -0.0281
  C  C380  1  0.240330  0.028070  0.685960  1.0  0.6729
  C  C381  1  0.047830  0.694670  0.857830  1.0  0.0695
  C  C382  1  0.973130  0.631570  0.846000  1.0  -0.1883
  C  C383  1  0.963130  0.642970  0.821430  1.0  -0.1705
  C  C384  1  0.025430  0.716170  0.809490  1.0  -0.007
  C  C385  1  0.906900  0.545400  0.019330  1.0  0.67
  C  C386  1  0.847300  0.564700  0.031720  1.0  -0.1723
  C  C387  1  0.861000  0.592500  0.055710  1.0  -0.0982
  C  C388  1  0.802000  0.604400  0.068050  1.0  0.0031
  C  C389  1  0.816600  0.633100  0.115650  1.0  0.0869
  C  C390  1  0.813500  0.626600  0.094020  1.0  -0.0667
  C  C391  1  0.891400  0.654600  0.154700  1.0  -0.0626
  C  C392  1  0.824400  0.648700  0.141170  1.0  -0.0196
  C  C393  1  0.901600  0.676300  0.178970  1.0  -0.1088
  C  C394  1  0.775700  0.550800  0.019440  1.0  0.0084
  C  C395  1  0.717300  0.564800  0.031650  1.0  -0.192
  C  C396  1  0.731800  0.592600  0.055810  1.0  -0.0284
  C  C397  1  0.638600  0.545600  0.019290  1.0  0.6723
  C  C398  1  0.972000  0.686500  0.191160  1.0  0.0704
  C  C399  1  0.035100  0.674900  0.179330  1.0  -0.177
  C  C400  1  0.023700  0.653500  0.154760  1.0  -0.1636
  C  C401  1  0.950500  0.642600  0.142820  1.0  -0.0069
  C  C402  1  0.573570  0.878730  0.352660  1.0  0.67
  C  C403  1  0.513970  0.898030  0.365050  1.0  -0.1723
  C  C404  1  0.527670  0.925830  0.389040  1.0  -0.0935
  C  C405  1  0.468670  0.937730  0.401380  1.0  0.0023
  C  C406  1  0.483270  0.966430  0.448980  1.0  0.0869
  C  C407  1  0.480170  0.959930  0.427350  1.0  -0.0655
  C  C408  1  0.558070  0.987930  0.488030  1.0  -0.0631
  C  C409  1  0.491070  0.982030  0.474500  1.0  -0.0166
  C  C410  1  0.568270  0.009630  0.512300  1.0  -0.1088
  C  C411  1  0.442370  0.884130  0.352770  1.0  0.0077
  C  C412  1  0.383970  0.898130  0.364980  1.0  -0.192
  C  C413  1  0.398470  0.925930  0.389140  1.0  -0.0297
  C  C414  1  0.305270  0.878930  0.352620  1.0  0.6723
  C  C415  1  0.638670  0.019830  0.524490  1.0  0.0685
  C  C416  1  0.701770  0.008230  0.512660  1.0  -0.177
  C  C417  1  0.690370  0.986830  0.488090  1.0  -0.164
  C  C418  1  0.617170  0.975930  0.476150  1.0  -0.0135
  C  C419  1  0.240230  0.212070  0.686000  1.0  0.67
  C  C420  1  0.180630  0.231370  0.698390  1.0  -0.1723
  C  C421  1  0.194330  0.259170  0.722380  1.0  -0.0935
  C  C422  1  0.135330  0.271070  0.734720  1.0  0.0023
  C  C423  1  0.149930  0.299770  0.782320  1.0  0.0869
  C  C424  1  0.146830  0.293270  0.760690  1.0  -0.0655
  C  C425  1  0.224730  0.321270  0.821370  1.0  -0.0626
  C  C426  1  0.157730  0.315370  0.807840  1.0  -0.0196
  C  C427  1  0.234930  0.342970  0.845640  1.0  -0.1088
  C  C428  1  0.109030  0.217470  0.686110  1.0  0.0077
  C  C429  1  0.050630  0.231470  0.698320  1.0  -0.192
  C  C430  1  0.065130  0.259270  0.722480  1.0  -0.0284
  C  C431  1  0.971930  0.212270  0.685960  1.0  0.6723
  C  C432  1  0.305330  0.353170  0.857830  1.0  0.0704
  C  C433  1  0.368430  0.341570  0.846000  1.0  -0.177
  C  C434  1  0.357030  0.320170  0.821430  1.0  -0.1636
  C  C435  1  0.283830  0.309270  0.809490  1.0  -0.0069
  C  C436  1  0.454600  0.361500  0.019330  1.0  0.6702
  C  C437  1  0.435300  0.282600  0.031720  1.0  -0.1732
  C  C438  1  0.407500  0.268500  0.055710  1.0  -0.0951
  C  C439  1  0.395600  0.197600  0.068050  1.0  0.0031
  C  C440  1  0.366900  0.183500  0.115650  1.0  0.0867
  C  C441  1  0.373400  0.186900  0.094020  1.0  -0.0655
  C  C442  1  0.345400  0.236800  0.154700  1.0  -0.0626
  C  C443  1  0.351300  0.175700  0.141170  1.0  -0.0176
  C  C444  1  0.323700  0.225300  0.178970  1.0  -0.1104
  C  C445  1  0.449200  0.224900  0.019440  1.0  0.0071
  C  C446  1  0.435200  0.152500  0.031650  1.0  -0.1921
  C  C447  1  0.407400  0.139200  0.055810  1.0  -0.0274
  C  C448  1  0.454400  0.093000  0.019290  1.0  0.6721
  C  C449  1  0.313500  0.285500  0.191160  1.0  0.0695
  C  C450  1  0.325100  0.360200  0.179330  1.0  -0.1872
  C  C451  1  0.346500  0.370200  0.154760  1.0  -0.1691
  C  C452  1  0.357400  0.307900  0.142820  1.0  -0.0115
  C  C453  1  0.121270  0.694830  0.352660  1.0  0.6702
  C  C454  1  0.101970  0.615930  0.365050  1.0  -0.1732
  C  C455  1  0.074170  0.601830  0.389040  1.0  -0.0951
  C  C456  1  0.062270  0.530930  0.401380  1.0  0.0007
  C  C457  1  0.033570  0.516830  0.448980  1.0  0.0869
  C  C458  1  0.040070  0.520230  0.427350  1.0  -0.0655
  C  C459  1  0.012070  0.570130  0.488030  1.0  -0.0628
  C  C460  1  0.017970  0.509030  0.474500  1.0  -0.0162
  C  C461  1  0.990370  0.558630  0.512300  1.0  -0.1106
  C  C462  1  0.115870  0.558230  0.352770  1.0  0.0067
  C  C463  1  0.101870  0.485830  0.364980  1.0  -0.1925
  C  C464  1  0.074070  0.472530  0.389140  1.0  -0.0292
  C  C465  1  0.121070  0.426330  0.352620  1.0  0.6721
  C  C466  1  0.980170  0.618830  0.524490  1.0  0.0683
  C  C467  1  0.991770  0.693530  0.512660  1.0  -0.1869
  C  C468  1  0.013170  0.703530  0.488090  1.0  -0.1696
  C  C469  1  0.024070  0.641230  0.476150  1.0  -0.017
  C  C470  1  0.787930  0.028170  0.686000  1.0  0.6702
  C  C471  1  0.768630  0.949270  0.698390  1.0  -0.1732
  C  C472  1  0.740830  0.935170  0.722380  1.0  -0.0951
  C  C473  1  0.728930  0.864270  0.734720  1.0  0.0007
  C  C474  1  0.700230  0.850170  0.782320  1.0  0.0867
  C  C475  1  0.706730  0.853570  0.760690  1.0  -0.0655
  C  C476  1  0.678730  0.903470  0.821370  1.0  -0.0626
  C  C477  1  0.684630  0.842370  0.807840  1.0  -0.0176
  C  C478  1  0.657030  0.891970  0.845640  1.0  -0.1104
  C  C479  1  0.782530  0.891570  0.686110  1.0  0.0067
  C  C480  1  0.768530  0.819170  0.698320  1.0  -0.1925
  C  C481  1  0.740730  0.805870  0.722480  1.0  -0.028
  C  C482  1  0.787730  0.759670  0.685960  1.0  0.6721
  C  C483  1  0.646830  0.952170  0.857830  1.0  0.0695
  C  C484  1  0.658430  0.026870  0.846000  1.0  -0.1872
  C  C485  1  0.679830  0.036870  0.821430  1.0  -0.1691
  C  C486  1  0.690730  0.974570  0.809490  1.0  -0.0115
  O  O487  1  0.371410  0.889490  0.002160  1.0  -0.5916
  O  O488  1  0.110370  0.628490  0.002130  1.0  -0.5927
  O  O489  1  0.031720  0.588460  0.968610  1.0  -0.5953
  O  O490  1  0.411640  0.968330  0.968610  1.0  -0.596
  O  O491  1  0.038080  0.222820  0.335490  1.0  -0.5916
  O  O492  1  0.777040  0.961820  0.335460  1.0  -0.5927
  O  O493  1  0.698390  0.921790  0.301940  1.0  -0.5953
  O  O494  1  0.078310  0.301660  0.301940  1.0  -0.596
  O  O495  1  0.704740  0.556160  0.668830  1.0  -0.5914
  O  O496  1  0.443700  0.295160  0.668800  1.0  -0.5928
  O  O497  1  0.365050  0.255130  0.635280  1.0  -0.5954
  O  O498  1  0.744970  0.635000  0.635280  1.0  -0.596
  O  O499  1  0.110510  0.481920  0.002160  1.0  -0.5901
  O  O500  1  0.371510  0.481880  0.002130  1.0  -0.5934
  O  O501  1  0.411540  0.443260  0.968610  1.0  -0.5954
  O  O502  1  0.031670  0.443310  0.968610  1.0  -0.5949
  O  O503  1  0.777180  0.815250  0.335490  1.0  -0.5901
  O  O504  1  0.038180  0.815210  0.335460  1.0  -0.5934
  O  O505  1  0.078210  0.776590  0.301940  1.0  -0.5953
  O  O506  1  0.698340  0.776640  0.301940  1.0  -0.5949
  O  O507  1  0.443840  0.148590  0.668830  1.0  -0.59
  O  O508  1  0.704840  0.148550  0.668800  1.0  -0.5935
  O  O509  1  0.744870  0.109930  0.635280  1.0  -0.5954
  O  O510  1  0.365000  0.109980  0.635280  1.0  -0.5949
  O  O511  1  0.518080  0.628590  0.002160  1.0  -0.5904
  O  O512  1  0.518120  0.889630  0.002130  1.0  -0.594
  O  O513  1  0.556740  0.968280  0.968610  1.0  -0.5963
  O  O514  1  0.556690  0.588360  0.968610  1.0  -0.5952
  O  O515  1  0.184750  0.961920  0.335490  1.0  -0.5904
  O  O516  1  0.184790  0.222960  0.335460  1.0  -0.594
  O  O517  1  0.223410  0.301610  0.301940  1.0  -0.5963
  O  O518  1  0.223360  0.921690  0.301940  1.0  -0.5952
  O  O519  1  0.851410  0.295260  0.668830  1.0  -0.5902
  O  O520  1  0.851450  0.556300  0.668800  1.0  -0.594
  O  O521  1  0.890070  0.634950  0.635280  1.0  -0.5964
  O  O522  1  0.890020  0.255030  0.635280  1.0  -0.5952
  O  O523  1  0.628590  0.110510  0.997840  1.0  -0.5932
  O  O524  1  0.889630  0.371510  0.997870  1.0  -0.5933
  O  O525  1  0.968280  0.411540  0.031390  1.0  -0.5954
  O  O526  1  0.588360  0.031670  0.031390  1.0  -0.5952
  O  O527  1  0.295260  0.443840  0.331170  1.0  -0.593
  O  O528  1  0.556300  0.704840  0.331200  1.0  -0.5934
  O  O529  1  0.634950  0.744870  0.364720  1.0  -0.5954
  O  O530  1  0.255030  0.365000  0.364720  1.0  -0.5952
  O  O531  1  0.961920  0.777180  0.664510  1.0  -0.5932
  O  O532  1  0.222960  0.038180  0.664540  1.0  -0.5933
  O  O533  1  0.301610  0.078210  0.698060  1.0  -0.5954
  O  O534  1  0.921690  0.698340  0.698060  1.0  -0.5952
  O  O535  1  0.889490  0.518080  0.997840  1.0  -0.5915
  O  O536  1  0.628490  0.518120  0.997870  1.0  -0.5936
  O  O537  1  0.588460  0.556740  0.031390  1.0  -0.595
  O  O538  1  0.968330  0.556690  0.031390  1.0  -0.5948
  O  O539  1  0.556160  0.851410  0.331170  1.0  -0.5914
  O  O540  1  0.295160  0.851450  0.331200  1.0  -0.5937
  O  O541  1  0.255130  0.890070  0.364720  1.0  -0.595
  O  O542  1  0.635000  0.890020  0.364720  1.0  -0.5948
  O  O543  1  0.222820  0.184750  0.664510  1.0  -0.5915
  O  O544  1  0.961820  0.184790  0.664540  1.0  -0.5936
  O  O545  1  0.921790  0.223410  0.698060  1.0  -0.595
  O  O546  1  0.301660  0.223360  0.698060  1.0  -0.5948
  O  O547  1  0.481920  0.371410  0.997840  1.0  -0.5914
  O  O548  1  0.481880  0.110370  0.997870  1.0  -0.5945
  O  O549  1  0.443260  0.031720  0.031390  1.0  -0.5957
  O  O550  1  0.443310  0.411640  0.031390  1.0  -0.5946
  O  O551  1  0.148590  0.704740  0.331170  1.0  -0.5913
  O  O552  1  0.148550  0.443700  0.331200  1.0  -0.5946
  O  O553  1  0.109930  0.365050  0.364720  1.0  -0.5958
  O  O554  1  0.109980  0.744970  0.364720  1.0  -0.5946
  O  O555  1  0.815250  0.038080  0.664510  1.0  -0.5914
  O  O556  1  0.815210  0.777040  0.664540  1.0  -0.5945
  O  O557  1  0.776590  0.698390  0.698060  1.0  -0.5956
  O  O558  1  0.776640  0.078310  0.698060  1.0  -0.5946
