# generated using pymatgen
data_K3Cu14H96C72I16(N2O3)6
_symmetry_space_group_name_H-M   'P 1'
_cell_length_a   19.27500000
_cell_length_b   19.27500000
_cell_length_c   13.12300000
_cell_angle_alpha   90.00000000
_cell_angle_beta   90.00000000
_cell_angle_gamma   120.00000000
_symmetry_Int_Tables_number   1
_chemical_formula_structural   K3Cu14H96C72I16(N2O3)6
_chemical_formula_sum   'K3 Cu14 H96 C72 I16 N12 O18'
_cell_volume   4222.33350971
_cell_formula_units_Z   1
loop_
 _symmetry_equiv_pos_site_id
 _symmetry_equiv_pos_as_xyz
  1  'x, y, z'
loop_
 _atom_site_type_symbol
 _atom_site_label
 _atom_site_symmetry_multiplicity
 _atom_site_fract_x
 _atom_site_fract_y
 _atom_site_fract_z
 _atom_site_occupancy
 _atom_site_charge
  K  K1  1  0.500000  0.500000  0.000000  1.0  0.9384
  K  K2  1  0.500000  0.000000  0.000000  1.0  0.9384
  K  K3  1  0.000000  0.500000  0.000000  1.0  0.9384
  Cu  Cu4  1  0.400340  0.645650  0.576220  1.0  0.1289
  Cu  Cu5  1  0.451600  0.689400  0.849500  1.0  0.2791
  Cu  Cu6  1  0.354350  0.754690  0.576220  1.0  0.1289
  Cu  Cu7  1  0.310600  0.762200  0.849500  1.0  0.2768
  Cu  Cu8  1  0.245310  0.599660  0.576220  1.0  0.1282
  Cu  Cu9  1  0.237800  0.548400  0.849500  1.0  0.2796
  Cu  Cu10  1  0.599660  0.354350  0.423780  1.0  0.1304
  Cu  Cu11  1  0.548400  0.310600  0.150500  1.0  0.2773
  Cu  Cu12  1  0.645650  0.245310  0.423780  1.0  0.1282
  Cu  Cu13  1  0.689400  0.237800  0.150500  1.0  0.2757
  Cu  Cu14  1  0.754690  0.400340  0.423780  1.0  0.1279
  Cu  Cu15  1  0.762200  0.451600  0.150500  1.0  0.2763
  Cu  Cu16  1  0.333333  0.666667  0.749130  1.0  0.1653
  Cu  Cu17  1  0.666667  0.333333  0.250870  1.0  0.1659
  H  H18  1  0.564100  0.674400  0.631400  1.0  0.0719
  H  H19  1  0.423900  0.566400  0.398400  1.0  0.0815
  H  H20  1  0.665600  0.662300  0.560600  1.0  0.1092
  H  H21  1  0.555900  0.519000  0.264200  1.0  0.1203
  H  H22  1  0.463200  0.491900  0.273700  1.0  0.1117
  H  H23  1  0.478800  0.653800  0.126500  1.0  0.1031
  H  H24  1  0.471100  0.647700  0.247700  1.0  0.076
  H  H25  1  0.367800  0.517400  0.236300  1.0  0.0515
  H  H26  1  0.347300  0.575400  0.171600  1.0  0.0567
  H  H27  1  0.646900  0.601800  0.397700  1.0  0.1046
  H  H28  1  0.672200  0.610900  0.208500  1.0  0.0697
  H  H29  1  0.722400  0.698100  0.158000  1.0  0.0942
  H  H30  1  0.701400  0.540700  0.082400  1.0  0.0737
  H  H31  1  0.766600  0.629800  0.048800  1.0  0.0606
  H  H32  1  0.255600  0.460400  0.085400  1.0  0.0605
  H  H33  1  0.283500  0.398000  0.119700  1.0  0.0763
  H  H34  1  0.325600  0.889700  0.631400  1.0  0.0729
  H  H35  1  0.433600  0.857500  0.398400  1.0  0.0812
  H  H36  1  0.337700  0.003300  0.560600  1.0  0.1088
  H  H37  1  0.481000  0.036900  0.264200  1.0  0.1131
  H  H38  1  0.508100  0.971300  0.273700  1.0  0.1078
  H  H39  1  0.346200  0.825000  0.126500  1.0  0.1029
  H  H40  1  0.352300  0.823400  0.247700  1.0  0.0784
  H  H41  1  0.482600  0.850400  0.236300  1.0  0.0518
  H  H42  1  0.424600  0.771900  0.171600  1.0  0.0611
  H  H43  1  0.398200  0.045100  0.397700  1.0  0.1055
  H  H44  1  0.389100  0.061300  0.208500  1.0  0.0714
  H  H45  1  0.301900  0.024300  0.158000  1.0  0.0903
  H  H46  1  0.459300  0.160700  0.082400  1.0  0.0735
  H  H47  1  0.370200  0.136800  0.048800  1.0  0.0631
  H  H48  1  0.539600  0.795200  0.085400  1.0  0.0679
  H  H49  1  0.602000  0.885500  0.119700  1.0  0.0744
  H  H50  1  0.110300  0.435900  0.631400  1.0  0.0714
  H  H51  1  0.142500  0.576100  0.398400  1.0  0.0819
  H  H52  1  0.996700  0.334400  0.560600  1.0  0.109
  H  H53  1  0.963100  0.444100  0.264200  1.0  0.1152
  H  H54  1  0.028700  0.536800  0.273700  1.0  0.1106
  H  H55  1  0.175000  0.521200  0.126500  1.0  0.1031
  H  H56  1  0.176600  0.528900  0.247700  1.0  0.078
  H  H57  1  0.149600  0.632200  0.236300  1.0  0.0496
  H  H58  1  0.228100  0.652700  0.171600  1.0  0.0624
  H  H59  1  0.954900  0.353100  0.397700  1.0  0.1047
  H  H60  1  0.938700  0.327800  0.208500  1.0  0.0715
  H  H61  1  0.975700  0.277600  0.158000  1.0  0.0942
  H  H62  1  0.839300  0.298600  0.082400  1.0  0.0726
  H  H63  1  0.863200  0.233400  0.048800  1.0  0.0577
  H  H64  1  0.204800  0.744400  0.085400  1.0  0.0661
  H  H65  1  0.114500  0.716500  0.119700  1.0  0.073
  H  H66  1  0.435900  0.325600  0.368600  1.0  0.0726
  H  H67  1  0.576100  0.433600  0.601600  1.0  0.0825
  H  H68  1  0.334400  0.337700  0.439400  1.0  0.1093
  H  H69  1  0.444100  0.481000  0.735800  1.0  0.1203
  H  H70  1  0.536800  0.508100  0.726300  1.0  0.1105
  H  H71  1  0.521200  0.346200  0.873500  1.0  0.1026
  H  H72  1  0.528900  0.352300  0.752300  1.0  0.077
  H  H73  1  0.632200  0.482600  0.763700  1.0  0.0513
  H  H74  1  0.652700  0.424600  0.828400  1.0  0.0549
  H  H75  1  0.353100  0.398200  0.602300  1.0  0.1044
  H  H76  1  0.327800  0.389100  0.791500  1.0  0.0709
  H  H77  1  0.277600  0.301900  0.842000  1.0  0.0926
  H  H78  1  0.298600  0.459300  0.917600  1.0  0.0748
  H  H79  1  0.233400  0.370200  0.951200  1.0  0.0595
  H  H80  1  0.744400  0.539600  0.914600  1.0  0.055
  H  H81  1  0.716500  0.602000  0.880300  1.0  0.0762
  H  H82  1  0.674400  0.110300  0.368600  1.0  0.0723
  H  H83  1  0.566400  0.142500  0.601600  1.0  0.0813
  H  H84  1  0.662300  0.996700  0.439400  1.0  0.1089
  H  H85  1  0.519000  0.963100  0.735800  1.0  0.1143
  H  H86  1  0.491900  0.028700  0.726300  1.0  0.108
  H  H87  1  0.653800  0.175000  0.873500  1.0  0.1015
  H  H88  1  0.647700  0.176600  0.752300  1.0  0.0787
  H  H89  1  0.517400  0.149600  0.763700  1.0  0.0519
  H  H90  1  0.575400  0.228100  0.828400  1.0  0.0632
  H  H91  1  0.601800  0.954900  0.602300  1.0  0.1043
  H  H92  1  0.610900  0.938700  0.791500  1.0  0.0713
  H  H93  1  0.698100  0.975700  0.842000  1.0  0.0904
  H  H94  1  0.540700  0.839300  0.917600  1.0  0.0743
  H  H95  1  0.629800  0.863200  0.951200  1.0  0.0612
  H  H96  1  0.460400  0.204800  0.914600  1.0  0.0681
  H  H97  1  0.398000  0.114500  0.880300  1.0  0.0759
  H  H98  1  0.889700  0.564100  0.368600  1.0  0.0722
  H  H99  1  0.857500  0.423900  0.601600  1.0  0.0833
  H  H100  1  0.003300  0.665600  0.439400  1.0  0.1106
  H  H101  1  0.036900  0.555900  0.735800  1.0  0.1158
  H  H102  1  0.971300  0.463200  0.726300  1.0  0.1099
  H  H103  1  0.825000  0.478800  0.873500  1.0  0.1017
  H  H104  1  0.823400  0.471100  0.752300  1.0  0.0791
  H  H105  1  0.850400  0.367800  0.763700  1.0  0.0507
  H  H106  1  0.771900  0.347300  0.828400  1.0  0.0604
  H  H107  1  0.045100  0.646900  0.602300  1.0  0.1045
  H  H108  1  0.061300  0.672200  0.791500  1.0  0.0698
  H  H109  1  0.024300  0.722400  0.842000  1.0  0.0955
  H  H110  1  0.160700  0.701400  0.917600  1.0  0.0722
  H  H111  1  0.136800  0.766600  0.951200  1.0  0.0596
  H  H112  1  0.795200  0.255600  0.914600  1.0  0.0678
  H  H113  1  0.885500  0.283500  0.880300  1.0  0.0733
  C  C114  1  0.555700  0.649200  0.566800  1.0  0.15
  C  C115  1  0.533200  0.577000  0.382200  1.0  0.0852
  C  C116  1  0.474200  0.586500  0.431400  1.0  0.1371
  C  C117  1  0.616200  0.642600  0.525500  1.0  -0.1777
  C  C118  1  0.518000  0.538900  0.275100  1.0  -0.1429
  C  C119  1  0.466300  0.617000  0.185000  1.0  0.0145
  C  C120  1  0.383100  0.552500  0.175500  1.0  0.0855
  C  C121  1  0.604800  0.606000  0.429100  1.0  -0.0762
  C  C122  1  0.607200  0.663600  0.181600  1.0  -0.0271
  C  C123  1  0.670300  0.647500  0.156900  1.0  -0.0087
  C  C124  1  0.711700  0.585100  0.035700  1.0  0.0779
  C  C125  1  0.294700  0.442300  0.072200  1.0  0.0748
  C  C126  1  0.350800  0.906500  0.566800  1.0  0.149
  C  C127  1  0.423000  0.956200  0.382200  1.0  0.0869
  C  C128  1  0.413500  0.887700  0.431400  1.0  0.1363
  C  C129  1  0.357400  0.973600  0.525500  1.0  -0.1821
  C  C130  1  0.461100  0.979100  0.275100  1.0  -0.1407
  C  C131  1  0.383000  0.849300  0.185000  1.0  0.0149
  C  C132  1  0.447500  0.830600  0.175500  1.0  0.0848
  C  C133  1  0.394000  0.998800  0.429100  1.0  -0.0798
  C  C134  1  0.336400  0.943600  0.181600  1.0  -0.0278
  C  C135  1  0.352500  0.022800  0.156900  1.0  -0.0115
  C  C136  1  0.414900  0.126600  0.035700  1.0  0.0779
  C  C137  1  0.557700  0.852400  0.072200  1.0  0.0765
  C  C138  1  0.093500  0.444300  0.566800  1.0  0.1498
  C  C139  1  0.043800  0.466800  0.382200  1.0  0.0865
  C  C140  1  0.112300  0.525800  0.431400  1.0  0.1371
  C  C141  1  0.026400  0.383800  0.525500  1.0  -0.1729
  C  C142  1  0.020900  0.482000  0.275100  1.0  -0.1402
  C  C143  1  0.150700  0.533700  0.185000  1.0  0.0168
  C  C144  1  0.169400  0.616900  0.175500  1.0  0.0856
  C  C145  1  0.001200  0.395200  0.429100  1.0  -0.0753
  C  C146  1  0.056400  0.392800  0.181600  1.0  -0.0265
  C  C147  1  0.977200  0.329700  0.156900  1.0  -0.0067
  C  C148  1  0.873400  0.288300  0.035700  1.0  0.0783
  C  C149  1  0.147600  0.705300  0.072200  1.0  0.0757
  C  C150  1  0.444300  0.350800  0.433200  1.0  0.151
  C  C151  1  0.466800  0.423000  0.617800  1.0  0.0864
  C  C152  1  0.525800  0.413500  0.568600  1.0  0.1376
  C  C153  1  0.383800  0.357400  0.474500  1.0  -0.178
  C  C154  1  0.482000  0.461100  0.724900  1.0  -0.1422
  C  C155  1  0.533700  0.383000  0.815000  1.0  0.0158
  C  C156  1  0.616900  0.447500  0.824500  1.0  0.0855
  C  C157  1  0.395200  0.394000  0.570900  1.0  -0.0753
  C  C158  1  0.392800  0.336400  0.818400  1.0  -0.0284
  C  C159  1  0.329700  0.352500  0.843100  1.0  -0.0061
  C  C160  1  0.288300  0.414900  0.964300  1.0  0.0787
  C  C161  1  0.705300  0.557700  0.927800  1.0  0.0749
  C  C162  1  0.649200  0.093500  0.433200  1.0  0.1484
  C  C163  1  0.577000  0.043800  0.617800  1.0  0.0869
  C  C164  1  0.586500  0.112300  0.568600  1.0  0.1354
  C  C165  1  0.642600  0.026400  0.474500  1.0  -0.1836
  C  C166  1  0.538900  0.020900  0.724900  1.0  -0.1411
  C  C167  1  0.617000  0.150700  0.815000  1.0  0.0128
  C  C168  1  0.552500  0.169400  0.824500  1.0  0.0845
  C  C169  1  0.606000  0.001200  0.570900  1.0  -0.0793
  C  C170  1  0.663600  0.056400  0.818400  1.0  -0.0256
  C  C171  1  0.647500  0.977200  0.843100  1.0  -0.0127
  C  C172  1  0.585100  0.873400  0.964300  1.0  0.0758
  C  C173  1  0.442300  0.147600  0.927800  1.0  0.0767
  C  C174  1  0.906500  0.555700  0.433200  1.0  0.1499
  C  C175  1  0.956200  0.533200  0.617800  1.0  0.0862
  C  C176  1  0.887700  0.474200  0.568600  1.0  0.1347
  C  C177  1  0.973600  0.616200  0.474500  1.0  -0.1741
  C  C178  1  0.979100  0.518000  0.724900  1.0  -0.1382
  C  C179  1  0.849300  0.466300  0.815000  1.0  0.0123
  C  C180  1  0.830600  0.383100  0.824500  1.0  0.0841
  C  C181  1  0.998800  0.604800  0.570900  1.0  -0.0763
  C  C182  1  0.943600  0.607200  0.818400  1.0  -0.0292
  C  C183  1  0.022800  0.670300  0.843100  1.0  -0.0067
  C  C184  1  0.126600  0.711700  0.964300  1.0  0.0768
  C  C185  1  0.852400  0.294700  0.927800  1.0  0.0749
  I  I186  1  0.299470  0.520210  0.685350  1.0  -0.2313
  I  I187  1  0.568900  0.676500  0.872000  1.0  -0.2035
  I  I188  1  0.479790  0.779260  0.685350  1.0  -0.2304
  I  I189  1  0.323500  0.892400  0.872000  1.0  -0.1989
  I  I190  1  0.220740  0.700530  0.685350  1.0  -0.2315
  I  I191  1  0.107600  0.431100  0.872000  1.0  -0.1977
  I  I192  1  0.700530  0.479790  0.314650  1.0  -0.2317
  I  I193  1  0.431100  0.323500  0.128000  1.0  -0.1962
  I  I194  1  0.520210  0.220740  0.314650  1.0  -0.2318
  I  I195  1  0.676500  0.107600  0.128000  1.0  -0.2028
  I  I196  1  0.779260  0.299470  0.314650  1.0  -0.2302
  I  I197  1  0.892400  0.568900  0.128000  1.0  -0.1941
  I  I198  1  0.333333  0.666667  0.406930  1.0  -0.2667
  I  I199  1  0.333333  0.666667  0.948720  1.0  -0.1447
  I  I200  1  0.666667  0.333333  0.593070  1.0  -0.2671
  I  I201  1  0.666667  0.333333  0.051280  1.0  -0.1452
  N  N202  1  0.484000  0.621700  0.521400  1.0  -0.3234
  N  N203  1  0.526100  0.592100  0.189000  1.0  -0.1885
  N  N204  1  0.378300  0.862300  0.521400  1.0  -0.3166
  N  N205  1  0.407900  0.934000  0.189000  1.0  -0.1905
  N  N206  1  0.137700  0.516000  0.521400  1.0  -0.3201
  N  N207  1  0.066000  0.473900  0.189000  1.0  -0.1921
  N  N208  1  0.516000  0.378300  0.478600  1.0  -0.324
  N  N209  1  0.473900  0.407900  0.811000  1.0  -0.1893
  N  N210  1  0.621700  0.137700  0.478600  1.0  -0.3164
  N  N211  1  0.592100  0.066000  0.811000  1.0  -0.1889
  N  N212  1  0.862300  0.484000  0.478600  1.0  -0.322
  N  N213  1  0.934000  0.526100  0.811000  1.0  -0.1894
  O  O214  1  0.374100  0.506700  0.086100  1.0  -0.379
  O  O215  1  0.656700  0.610400  0.054600  1.0  -0.3846
  O  O216  1  0.502400  0.632000  0.899000  1.0  -0.6018
  O  O217  1  0.493300  0.867400  0.086100  1.0  -0.3809
  O  O218  1  0.389600  0.046300  0.054600  1.0  -0.3848
  O  O219  1  0.368000  0.870400  0.899000  1.0  -0.6022
  O  O220  1  0.132600  0.625900  0.086100  1.0  -0.3821
  O  O221  1  0.953700  0.343300  0.054600  1.0  -0.3852
  O  O222  1  0.129600  0.497600  0.899000  1.0  -0.6047
  O  O223  1  0.625900  0.493300  0.913900  1.0  -0.3801
  O  O224  1  0.343300  0.389600  0.945400  1.0  -0.3825
  O  O225  1  0.497600  0.368000  0.101000  1.0  -0.6023
  O  O226  1  0.506700  0.132600  0.913900  1.0  -0.3825
  O  O227  1  0.610400  0.953700  0.945400  1.0  -0.3863
  O  O228  1  0.632000  0.129600  0.101000  1.0  -0.6036
  O  O229  1  0.867400  0.374100  0.913900  1.0  -0.3803
  O  O230  1  0.046300  0.656700  0.945400  1.0  -0.3839
  O  O231  1  0.870400  0.502400  0.101000  1.0  -0.6034
