# generated using pymatgen
data_Cu3H23C29N10Cl3O
_symmetry_space_group_name_H-M   'P 1'
_cell_length_a   12.28700000
_cell_length_b   12.91600000
_cell_length_c   18.19900000
_cell_angle_alpha   86.73300000
_cell_angle_beta   70.44300000
_cell_angle_gamma   80.14600000
_symmetry_Int_Tables_number   1
_chemical_formula_structural   Cu3H23C29N10Cl3O
_chemical_formula_sum   'Cu6 H46 C58 N20 Cl6 O2'
_cell_volume   2681.38915681
_cell_formula_units_Z   2
loop_
 _symmetry_equiv_pos_site_id
 _symmetry_equiv_pos_as_xyz
  1  'x, y, z'
loop_
 _atom_site_type_symbol
 _atom_site_label
 _atom_site_symmetry_multiplicity
 _atom_site_fract_x
 _atom_site_fract_y
 _atom_site_fract_z
 _atom_site_occupancy
 _atom_site_charge
  Cu  Cu1  1  0.470700  0.368550  0.838540  1.0  0.5676
  Cu  Cu2  1  0.724280  0.222620  0.837460  1.0  0.5062
  Cu  Cu3  1  0.644410  0.254280  0.675210  1.0  0.5639
  Cu  Cu4  1  0.529300  0.631450  0.161460  1.0  0.566
  Cu  Cu5  1  0.275720  0.777380  0.162540  1.0  0.5055
  Cu  Cu6  1  0.355590  0.745720  0.324790  1.0  0.5671
  H  H7  1  0.254300  0.271900  0.899700  1.0  0.0919
  H  H8  1  0.056200  0.323400  0.965200  1.0  0.1069
  H  H9  1  0.111100  0.619000  0.976800  1.0  0.1081
  H  H10  1  0.309200  0.567500  0.911200  1.0  0.0739
  H  H11  1  0.484700  0.109000  0.694800  1.0  0.0926
  H  H12  1  0.420500  0.001100  0.625800  1.0  0.1159
  H  H13  1  0.641200  0.094100  0.424800  1.0  0.116
  H  H14  1  0.705400  0.202100  0.493800  1.0  0.0846
  H  H15  1  0.913500  0.225400  0.562000  1.0  0.0826
  H  H16  1  0.059300  0.325100  0.501700  1.0  0.1186
  H  H17  1  0.819600  0.587900  0.548000  1.0  0.117
  H  H18  1  0.673800  0.488200  0.608300  1.0  0.0903
  H  H19  1  0.812200  0.040400  0.587000  1.0  0.1129
  H  H20  1  0.944700  0.030200  0.764800  1.0  0.1185
  H  H21  1  0.694300  0.268200  0.020600  1.0  0.1307
  H  H22  1  0.373700  0.421200  0.025800  1.0  0.1204
  H  H23  1  0.674000  0.380000  0.763000  1.0  0.3612
  H  H24  1  0.292500  0.512200  0.766500  1.0  0.0838
  H  H25  1  0.507300  0.398900  0.561300  1.0  0.1022
  H  H26  1  0.730300  0.042900  0.929000  1.0  0.0743
  H  H27  1  0.822300  0.952600  0.013700  1.0  0.1184
  H  H28  1  0.075100  0.120700  0.916900  1.0  0.0985
  H  H29  1  0.934400  0.240200  0.880500  1.0  0.0613
  H  H30  1  0.745700  0.728100  0.100300  1.0  0.0918
  H  H31  1  0.943800  0.676600  0.034800  1.0  0.1067
  H  H32  1  0.888900  0.381000  0.023200  1.0  0.1094
  H  H33  1  0.690800  0.432500  0.088800  1.0  0.0733
  H  H34  1  0.515300  0.891000  0.305200  1.0  0.0917
  H  H35  1  0.579500  0.998900  0.374200  1.0  0.1154
  H  H36  1  0.358800  0.905900  0.575200  1.0  0.1165
  H  H37  1  0.294600  0.797900  0.506200  1.0  0.0851
  H  H38  1  0.086500  0.774600  0.438000  1.0  0.0832
  H  H39  1  0.940700  0.674900  0.498300  1.0  0.1176
  H  H40  1  0.180400  0.412100  0.452000  1.0  0.1183
  H  H41  1  0.326200  0.511800  0.391700  1.0  0.0911
  H  H42  1  0.187800  0.959600  0.413000  1.0  0.1104
  H  H43  1  0.055300  0.969800  0.235200  1.0  0.1188
  H  H44  1  0.305700  0.731800  0.979400  1.0  0.1294
  H  H45  1  0.626300  0.578800  0.974200  1.0  0.1198
  H  H46  1  0.326000  0.620000  0.237000  1.0  0.3612
  H  H47  1  0.707500  0.487800  0.233500  1.0  0.0846
  H  H48  1  0.492700  0.601100  0.438700  1.0  0.0998
  H  H49  1  0.269700  0.957100  0.071000  1.0  0.0712
  H  H50  1  0.177700  0.047400  0.986300  1.0  0.1186
  H  H51  1  0.924900  0.879300  0.083100  1.0  0.0993
  H  H52  1  0.065600  0.759800  0.119500  1.0  0.0606
  C  C53  1  0.225600  0.341500  0.915100  1.0  0.1212
  C  C54  1  0.106900  0.372300  0.954400  1.0  -0.1859
  C  C55  1  0.064000  0.476300  0.977500  1.0  0.0418
  C  C56  1  0.139800  0.549500  0.961300  1.0  -0.1909
  C  C57  1  0.258500  0.518600  0.922000  1.0  0.1227
  C  C58  1  0.516100  0.106000  0.640700  1.0  0.1269
  C  C59  1  0.477600  0.041400  0.599300  1.0  -0.1879
  C  C60  1  0.524500  0.036900  0.518500  1.0  0.0511
  C  C61  1  0.609800  0.097100  0.478900  1.0  -0.1896
  C  C62  1  0.648300  0.161800  0.520300  1.0  0.1252
  C  C63  1  0.894700  0.298000  0.559200  1.0  0.1465
  C  C64  1  0.982000  0.357800  0.523100  1.0  -0.185
  C  C65  1  0.953900  0.466400  0.518800  1.0  0.065
  C  C66  1  0.838400  0.515200  0.550800  1.0  -0.1962
  C  C67  1  0.751100  0.455500  0.586900  1.0  0.1392
  C  C68  1  0.825100  0.056900  0.632200  1.0  -0.0313
  C  C69  1  0.908800  0.999500  0.663600  1.0  -0.0055
  C  C70  1  0.900000  0.051200  0.732600  1.0  -0.04
  C  C71  1  0.630500  0.297200  0.005400  1.0  0.0068
  C  C72  1  0.522800  0.352700  0.054300  1.0  -0.0218
  C  C73  1  0.449400  0.383700  0.008300  1.0  -0.0016
  C  C74  1  0.358100  0.480700  0.727000  1.0  -0.0037
  C  C75  1  0.375300  0.496000  0.643300  1.0  -0.0358
  C  C76  1  0.472000  0.415000  0.613900  1.0  -0.0282
  C  C77  1  0.795200  0.066000  0.933800  1.0  0.1136
  C  C78  1  0.853900  0.007000  0.982400  1.0  -0.2282
  C  C79  1  0.963500  0.033600  0.981300  1.0  0.0617
  C  C80  1  0.998000  0.109000  0.931600  1.0  -0.1987
  C  C81  1  0.917700  0.174000  0.900000  1.0  0.1063
  C  C82  1  0.774400  0.658500  0.084900  1.0  0.1213
  C  C83  1  0.893100  0.627700  0.045600  1.0  -0.1838
  C  C84  1  0.936000  0.523700  0.022500  1.0  0.0412
  C  C85  1  0.860200  0.450500  0.038700  1.0  -0.1892
  C  C86  1  0.741500  0.481400  0.078000  1.0  0.1223
  C  C87  1  0.483900  0.894000  0.359300  1.0  0.1275
  C  C88  1  0.522400  0.958600  0.400700  1.0  -0.1884
  C  C89  1  0.475500  0.963100  0.481500  1.0  0.0511
  C  C90  1  0.390200  0.902900  0.521100  1.0  -0.1927
  C  C91  1  0.351700  0.838200  0.479700  1.0  0.1251
  C  C92  1  0.105300  0.702000  0.440800  1.0  0.1468
  C  C93  1  0.018000  0.642200  0.476900  1.0  -0.1862
  C  C94  1  0.046100  0.533600  0.481200  1.0  0.0648
  C  C95  1  0.161600  0.484800  0.449200  1.0  -0.1949
  C  C96  1  0.248900  0.544500  0.413100  1.0  0.1391
  C  C97  1  0.174900  0.943100  0.367800  1.0  -0.0336
  C  C98  1  0.091200  0.000500  0.336400  1.0  -0.0076
  C  C99  1  0.100000  0.948800  0.267400  1.0  -0.0388
  C  C100  1  0.369500  0.702800  0.994600  1.0  0.0004
  C  C101  1  0.477200  0.647300  0.945700  1.0  -0.0221
  C  C102  1  0.550600  0.616300  0.991700  1.0  -0.0013
  C  C103  1  0.641900  0.519300  0.273000  1.0  -0.0035
  C  C104  1  0.624700  0.504000  0.356700  1.0  -0.0381
  C  C105  1  0.528000  0.585000  0.386100  1.0  -0.0277
  C  C106  1  0.204800  0.934000  0.066200  1.0  0.1138
  C  C107  1  0.146100  0.993000  0.017600  1.0  -0.227
  C  C108  1  0.036500  0.966400  0.018700  1.0  0.0615
  C  C109  1  0.002000  0.891000  0.068400  1.0  -0.2
  C  C110  1  0.082300  0.826000  0.100000  1.0  0.1089
  N  N111  1  0.301400  0.414600  0.899000  1.0  -0.3223
  N  N112  1  0.601400  0.166200  0.601200  1.0  -0.3173
  N  N113  1  0.779200  0.346900  0.591100  1.0  -0.3699
  N  N114  1  0.810800  0.140500  0.743900  1.0  -0.2564
  N  N115  1  0.764600  0.144100  0.681900  1.0  -0.1977
  N  N116  1  0.511700  0.347400  0.931100  1.0  -0.2455
  N  N117  1  0.623700  0.293900  0.929300  1.0  -0.2322
  N  N118  1  0.512400  0.359200  0.676500  1.0  -0.2514
  N  N119  1  0.444600  0.418100  0.739700  1.0  -0.2184
  N  N120  1  0.826200  0.147200  0.897500  1.0  -0.2503
  N  N121  1  0.698600  0.585400  0.101000  1.0  -0.3221
  N  N122  1  0.398600  0.833800  0.398800  1.0  -0.3168
  N  N123  1  0.220800  0.653100  0.408900  1.0  -0.3691
  N  N124  1  0.189200  0.859500  0.256100  1.0  -0.2585
  N  N125  1  0.235400  0.855900  0.318100  1.0  -0.1985
  N  N126  1  0.488300  0.652600  0.068900  1.0  -0.2437
  N  N127  1  0.376300  0.706100  0.070700  1.0  -0.2319
  N  N128  1  0.487600  0.640800  0.323500  1.0  -0.252
  N  N129  1  0.555400  0.581900  0.260300  1.0  -0.2173
  N  N130  1  0.173800  0.852800  0.102500  1.0  -0.251
  Cl  Cl131  1  0.489000  0.368500  0.150800  1.0  -0.0966
  Cl  Cl132  1  0.007000  0.900600  0.617800  1.0  -0.1074
  Cl  Cl133  1  0.299400  0.558300  0.595700  1.0  -0.0565
  Cl  Cl134  1  0.511000  0.631500  0.849200  1.0  -0.0975
  Cl  Cl135  1  0.993000  0.099400  0.382200  1.0  -0.1071
  Cl  Cl136  1  0.700600  0.441700  0.404300  1.0  -0.0578
  O  O137  1  0.635700  0.317700  0.777000  1.0  -0.7851
  O  O138  1  0.364300  0.682300  0.223000  1.0  -0.7867
