# generated using pymatgen
data_Cr3Ag3H24C36N6O13
_symmetry_space_group_name_H-M   'P 1'
_cell_length_a   44.39100000
_cell_length_b   44.39100000
_cell_length_c   23.25800000
_cell_angle_alpha   90.00000000
_cell_angle_beta   90.00000000
_cell_angle_gamma   120.00000000
_symmetry_Int_Tables_number   1
_chemical_formula_structural   Cr3Ag3H24C36N6O13
_chemical_formula_sum   'Cr18 Ag18 H144 C216 N36 O78'
_cell_volume   39691.07439287
_cell_formula_units_Z   6
loop_
 _symmetry_equiv_pos_site_id
 _symmetry_equiv_pos_as_xyz
  1  'x, y, z'
loop_
 _atom_site_type_symbol
 _atom_site_label
 _atom_site_symmetry_multiplicity
 _atom_site_fract_x
 _atom_site_fract_y
 _atom_site_fract_z
 _atom_site_occupancy
 _atom_site_charge
  Cr  Cr1  1  0.831560  0.168440  0.250000  1.0  1.4301
  Cr  Cr2  1  0.831560  0.663120  0.250000  1.0  1.4408
  Cr  Cr3  1  0.336880  0.168440  0.250000  1.0  1.4268
  Cr  Cr4  1  0.168440  0.831560  0.750000  1.0  1.4274
  Cr  Cr5  1  0.168440  0.336880  0.750000  1.0  1.4262
  Cr  Cr6  1  0.663120  0.831560  0.750000  1.0  1.4433
  Cr  Cr7  1  0.794870  0.205130  0.179800  1.0  1.3567
  Cr  Cr8  1  0.794870  0.589740  0.179800  1.0  1.3642
  Cr  Cr9  1  0.410260  0.205130  0.179800  1.0  1.3542
  Cr  Cr10  1  0.205130  0.794870  0.679800  1.0  1.3545
  Cr  Cr11  1  0.205130  0.410260  0.679800  1.0  1.3564
  Cr  Cr12  1  0.589740  0.794870  0.679800  1.0  1.3646
  Cr  Cr13  1  0.205130  0.794870  0.820200  1.0  1.3561
  Cr  Cr14  1  0.589740  0.794870  0.820200  1.0  1.3641
  Cr  Cr15  1  0.205130  0.410260  0.820200  1.0  1.3569
  Cr  Cr16  1  0.794870  0.205130  0.320200  1.0  1.3557
  Cr  Cr17  1  0.410260  0.205130  0.320200  1.0  1.3556
  Cr  Cr18  1  0.794870  0.589740  0.320200  1.0  1.3652
  Ag  Ag19  1  0.852530  0.426260  0.250000  1.0  0.2932
  Ag  Ag20  1  0.573740  0.426260  0.250000  1.0  0.2878
  Ag  Ag21  1  0.573740  0.147470  0.250000  1.0  0.2866
  Ag  Ag22  1  0.147470  0.573740  0.750000  1.0  0.2933
  Ag  Ag23  1  0.426260  0.573730  0.750000  1.0  0.2942
  Ag  Ag24  1  0.426260  0.852530  0.750000  1.0  0.291
  Ag  Ag25  1  0.702640  0.000000  0.000000  1.0  0.2487
  Ag  Ag26  1  0.000000  0.702640  0.000000  1.0  0.2484
  Ag  Ag27  1  0.297360  0.297360  0.000000  1.0  0.2485
  Ag  Ag28  1  0.297360  0.000000  0.500000  1.0  0.2494
  Ag  Ag29  1  0.000000  0.297360  0.500000  1.0  0.2484
  Ag  Ag30  1  0.702640  0.702640  0.500000  1.0  0.2483
  Ag  Ag31  1  0.297360  0.000000  0.000000  1.0  0.2494
  Ag  Ag32  1  0.000000  0.297360  0.000000  1.0  0.2484
  Ag  Ag33  1  0.702640  0.702640  0.000000  1.0  0.2483
  Ag  Ag34  1  0.702640  0.000000  0.500000  1.0  0.2487
  Ag  Ag35  1  0.000000  0.702640  0.500000  1.0  0.2484
  Ag  Ag36  1  0.297360  0.297360  0.500000  1.0  0.2485
  H  H37  1  0.826200  0.309000  0.336400  1.0  0.1076
  H  H38  1  0.840400  0.367500  0.335900  1.0  0.1003
  H  H39  1  0.735700  0.121600  0.075500  1.0  0.1062
  H  H40  1  0.705400  0.072100  0.017800  1.0  0.1016
  H  H41  1  0.754700  0.028900  0.096900  1.0  0.0919
  H  H42  1  0.786300  0.079000  0.154400  1.0  0.0972
  H  H43  1  0.691000  0.517200  0.336400  1.0  0.1074
  H  H44  1  0.632500  0.472900  0.335900  1.0  0.1015
  H  H45  1  0.878400  0.614100  0.075500  1.0  0.1073
  H  H46  1  0.927900  0.633300  0.017800  1.0  0.101
  H  H47  1  0.971100  0.725800  0.096900  1.0  0.089
  H  H48  1  0.921000  0.707300  0.154400  1.0  0.0989
  H  H49  1  0.482800  0.173800  0.336400  1.0  0.1057
  H  H50  1  0.527100  0.159600  0.335900  1.0  0.1012
  H  H51  1  0.385900  0.264300  0.075500  1.0  0.1052
  H  H52  1  0.366700  0.294600  0.017800  1.0  0.102
  H  H53  1  0.274200  0.245300  0.096900  1.0  0.0928
  H  H54  1  0.292700  0.213700  0.154400  1.0  0.0972
  H  H55  1  0.173800  0.691000  0.836400  1.0  0.1042
  H  H56  1  0.159600  0.632500  0.835900  1.0  0.1036
  H  H57  1  0.264300  0.878400  0.575500  1.0  0.1069
  H  H58  1  0.294600  0.927900  0.517800  1.0  0.0984
  H  H59  1  0.245300  0.971100  0.596900  1.0  0.0902
  H  H60  1  0.213700  0.921000  0.654400  1.0  0.0962
  H  H61  1  0.309000  0.482800  0.836400  1.0  0.1045
  H  H62  1  0.367500  0.527100  0.835900  1.0  0.1033
  H  H63  1  0.121600  0.385900  0.575500  1.0  0.1075
  H  H64  1  0.072100  0.366700  0.517800  1.0  0.1011
  H  H65  1  0.028900  0.274200  0.596900  1.0  0.0915
  H  H66  1  0.079000  0.292700  0.654400  1.0  0.0985
  H  H67  1  0.517200  0.826200  0.836400  1.0  0.1057
  H  H68  1  0.472900  0.840400  0.835900  1.0  0.1039
  H  H69  1  0.614100  0.735700  0.575500  1.0  0.1054
  H  H70  1  0.633300  0.705400  0.517800  1.0  0.1009
  H  H71  1  0.725800  0.754700  0.596900  1.0  0.0925
  H  H72  1  0.707300  0.786300  0.654400  1.0  0.0971
  H  H73  1  0.309000  0.826200  0.663600  1.0  0.1054
  H  H74  1  0.367500  0.840400  0.664100  1.0  0.1039
  H  H75  1  0.121600  0.735700  0.924500  1.0  0.1046
  H  H76  1  0.072100  0.705400  0.982200  1.0  0.1026
  H  H77  1  0.028900  0.754700  0.903100  1.0  0.091
  H  H78  1  0.079000  0.786300  0.845600  1.0  0.097
  H  H79  1  0.517200  0.691000  0.663600  1.0  0.1043
  H  H80  1  0.472900  0.632500  0.664100  1.0  0.1005
  H  H81  1  0.614100  0.878400  0.924500  1.0  0.1066
  H  H82  1  0.633300  0.927900  0.982200  1.0  0.1032
  H  H83  1  0.725800  0.971100  0.903100  1.0  0.0883
  H  H84  1  0.707300  0.921000  0.845600  1.0  0.0977
  H  H85  1  0.173800  0.482800  0.663600  1.0  0.1054
  H  H86  1  0.159600  0.527100  0.664100  1.0  0.1018
  H  H87  1  0.264300  0.385900  0.924500  1.0  0.107
  H  H88  1  0.294600  0.366700  0.982200  1.0  0.1022
  H  H89  1  0.245300  0.274200  0.903100  1.0  0.0935
  H  H90  1  0.213700  0.292700  0.845600  1.0  0.0983
  H  H91  1  0.691000  0.173800  0.163600  1.0  0.1051
  H  H92  1  0.632500  0.159600  0.164100  1.0  0.1021
  H  H93  1  0.878400  0.264300  0.424500  1.0  0.1046
  H  H94  1  0.927900  0.294600  0.482200  1.0  0.1013
  H  H95  1  0.971100  0.245300  0.403100  1.0  0.0898
  H  H96  1  0.921000  0.213700  0.345600  1.0  0.098
  H  H97  1  0.482800  0.309000  0.163600  1.0  0.1048
  H  H98  1  0.527100  0.367500  0.164100  1.0  0.1014
  H  H99  1  0.385900  0.121600  0.424500  1.0  0.1065
  H  H100  1  0.366700  0.072100  0.482200  1.0  0.1009
  H  H101  1  0.274200  0.028900  0.403100  1.0  0.0903
  H  H102  1  0.292700  0.079000  0.345600  1.0  0.0971
  H  H103  1  0.826200  0.517200  0.163600  1.0  0.105
  H  H104  1  0.840400  0.472900  0.164100  1.0  0.1032
  H  H105  1  0.735700  0.614100  0.424500  1.0  0.1075
  H  H106  1  0.705400  0.633300  0.482200  1.0  0.1004
  H  H107  1  0.754700  0.725800  0.403100  1.0  0.0946
  H  H108  1  0.786300  0.707300  0.345600  1.0  0.0981
  H  H109  1  0.173800  0.691000  0.663600  1.0  0.1045
  H  H110  1  0.159600  0.632500  0.664100  1.0  0.102
  H  H111  1  0.264300  0.878400  0.924500  1.0  0.1063
  H  H112  1  0.294600  0.927900  0.982200  1.0  0.1025
  H  H113  1  0.245300  0.971100  0.903100  1.0  0.0898
  H  H114  1  0.213700  0.921000  0.845600  1.0  0.0965
  H  H115  1  0.309000  0.482800  0.663600  1.0  0.105
  H  H116  1  0.367500  0.527100  0.664100  1.0  0.1008
  H  H117  1  0.121600  0.385900  0.924500  1.0  0.107
  H  H118  1  0.072100  0.366700  0.982200  1.0  0.1026
  H  H119  1  0.028900  0.274200  0.903100  1.0  0.0924
  H  H120  1  0.079000  0.292700  0.845600  1.0  0.0986
  H  H121  1  0.517200  0.826200  0.663600  1.0  0.1053
  H  H122  1  0.472900  0.840400  0.664100  1.0  0.104
  H  H123  1  0.614100  0.735700  0.924500  1.0  0.1049
  H  H124  1  0.633300  0.705400  0.982200  1.0  0.103
  H  H125  1  0.725800  0.754700  0.903100  1.0  0.0906
  H  H126  1  0.707300  0.786300  0.845600  1.0  0.0977
  H  H127  1  0.826200  0.309000  0.163600  1.0  0.1046
  H  H128  1  0.840400  0.367500  0.164100  1.0  0.1024
  H  H129  1  0.735700  0.121600  0.424500  1.0  0.1063
  H  H130  1  0.705400  0.072100  0.482200  1.0  0.1015
  H  H131  1  0.754700  0.028900  0.403100  1.0  0.092
  H  H132  1  0.786300  0.079000  0.345600  1.0  0.098
  H  H133  1  0.691000  0.517200  0.163600  1.0  0.1051
  H  H134  1  0.632500  0.472900  0.164100  1.0  0.1019
  H  H135  1  0.878400  0.614100  0.424500  1.0  0.1071
  H  H136  1  0.927900  0.633300  0.482200  1.0  0.1007
  H  H137  1  0.971100  0.725800  0.403100  1.0  0.0897
  H  H138  1  0.921000  0.707300  0.345600  1.0  0.0992
  H  H139  1  0.482800  0.173800  0.163600  1.0  0.1057
  H  H140  1  0.527100  0.159600  0.164100  1.0  0.1022
  H  H141  1  0.385900  0.264300  0.424500  1.0  0.1053
  H  H142  1  0.366700  0.294600  0.482200  1.0  0.1011
  H  H143  1  0.274200  0.245300  0.403100  1.0  0.0924
  H  H144  1  0.292700  0.213700  0.345600  1.0  0.097
  H  H145  1  0.691000  0.173800  0.336400  1.0  0.1088
  H  H146  1  0.632500  0.159600  0.335900  1.0  0.1012
  H  H147  1  0.878400  0.264300  0.075500  1.0  0.1042
  H  H148  1  0.927900  0.294600  0.017800  1.0  0.1022
  H  H149  1  0.971100  0.245300  0.096900  1.0  0.0896
  H  H150  1  0.921000  0.213700  0.154400  1.0  0.0977
  H  H151  1  0.482800  0.309000  0.336400  1.0  0.1065
  H  H152  1  0.527100  0.367500  0.335900  1.0  0.1005
  H  H153  1  0.385900  0.121600  0.075500  1.0  0.1062
  H  H154  1  0.366700  0.072100  0.017800  1.0  0.1024
  H  H155  1  0.274200  0.028900  0.096900  1.0  0.0908
  H  H156  1  0.292700  0.079000  0.154400  1.0  0.0968
  H  H157  1  0.826200  0.517200  0.336400  1.0  0.1051
  H  H158  1  0.840400  0.472900  0.335900  1.0  0.1012
  H  H159  1  0.735700  0.614100  0.075500  1.0  0.1076
  H  H160  1  0.705400  0.633300  0.017800  1.0  0.101
  H  H161  1  0.754700  0.725800  0.096900  1.0  0.0928
  H  H162  1  0.786300  0.707300  0.154400  1.0  0.0978
  H  H163  1  0.309000  0.826200  0.836400  1.0  0.1052
  H  H164  1  0.367500  0.840400  0.835900  1.0  0.1037
  H  H165  1  0.121600  0.735700  0.575500  1.0  0.1056
  H  H166  1  0.072100  0.705400  0.517800  1.0  0.1013
  H  H167  1  0.028900  0.754700  0.596900  1.0  0.0913
  H  H168  1  0.079000  0.786300  0.654400  1.0  0.0964
  H  H169  1  0.517200  0.691000  0.836400  1.0  0.1042
  H  H170  1  0.472900  0.632500  0.835900  1.0  0.1036
  H  H171  1  0.614100  0.878400  0.575500  1.0  0.1065
  H  H172  1  0.633300  0.927900  0.517800  1.0  0.0977
  H  H173  1  0.725800  0.971100  0.596900  1.0  0.0898
  H  H174  1  0.707300  0.921000  0.654400  1.0  0.0974
  H  H175  1  0.173800  0.482800  0.836400  1.0  0.1052
  H  H176  1  0.159600  0.527100  0.835900  1.0  0.1033
  H  H177  1  0.264300  0.385900  0.575500  1.0  0.1073
  H  H178  1  0.294600  0.366700  0.517800  1.0  0.1008
  H  H179  1  0.245300  0.274200  0.596900  1.0  0.0938
  H  H180  1  0.213700  0.292700  0.654400  1.0  0.0983
  C  C181  1  0.829300  0.321000  0.301200  1.0  -0.0816
  C  C182  1  0.838000  0.355500  0.300900  1.0  0.0527
  C  C183  1  0.782000  0.134900  0.151400  1.0  0.7147
  C  C184  1  0.761500  0.102000  0.117800  1.0  -0.0836
  C  C185  1  0.739100  0.102200  0.079400  1.0  -0.1231
  C  C186  1  0.721400  0.073200  0.046000  1.0  0.0715
  C  C187  1  0.750700  0.047900  0.092800  1.0  0.0794
  C  C188  1  0.769500  0.077000  0.127100  1.0  -0.1133
  C  C189  1  0.679000  0.508300  0.301200  1.0  -0.082
  C  C190  1  0.644500  0.482500  0.300900  1.0  0.0517
  C  C191  1  0.865100  0.647100  0.151400  1.0  0.7126
  C  C192  1  0.898000  0.659500  0.117800  1.0  -0.0857
  C  C193  1  0.897800  0.636900  0.079400  1.0  -0.1267
  C  C194  1  0.926800  0.648200  0.046000  1.0  0.0739
  C  C195  1  0.952100  0.702800  0.092800  1.0  0.0768
  C  C196  1  0.923000  0.692500  0.127100  1.0  -0.1154
  C  C197  1  0.491700  0.170700  0.301200  1.0  -0.0836
  C  C198  1  0.517500  0.162000  0.300900  1.0  0.0539
  C  C199  1  0.352900  0.218000  0.151400  1.0  0.7121
  C  C200  1  0.340500  0.238500  0.117800  1.0  -0.0853
  C  C201  1  0.363100  0.260900  0.079400  1.0  -0.1202
  C  C202  1  0.351800  0.278600  0.046000  1.0  0.0715
  C  C203  1  0.297200  0.249300  0.092800  1.0  0.0796
  C  C204  1  0.307500  0.230500  0.127100  1.0  -0.1154
  C  C205  1  0.170700  0.679000  0.801200  1.0  -0.0823
  C  C206  1  0.162000  0.644500  0.800900  1.0  0.0526
  C  C207  1  0.218000  0.865100  0.651400  1.0  0.7139
  C  C208  1  0.238500  0.898000  0.617800  1.0  -0.0835
  C  C209  1  0.260900  0.897800  0.579400  1.0  -0.1223
  C  C210  1  0.278600  0.926800  0.546000  1.0  0.0739
  C  C211  1  0.249300  0.952100  0.592800  1.0  0.0763
  C  C212  1  0.230500  0.923000  0.627100  1.0  -0.1133
  C  C213  1  0.321000  0.491700  0.801200  1.0  -0.083
  C  C214  1  0.355500  0.517500  0.800900  1.0  0.0525
  C  C215  1  0.134900  0.352900  0.651400  1.0  0.7136
  C  C216  1  0.102000  0.340500  0.617800  1.0  -0.085
  C  C217  1  0.102200  0.363100  0.579400  1.0  -0.124
  C  C218  1  0.073200  0.351800  0.546000  1.0  0.0746
  C  C219  1  0.047900  0.297200  0.592800  1.0  0.0773
  C  C220  1  0.077000  0.307500  0.627100  1.0  -0.117
  C  C221  1  0.508300  0.829300  0.801200  1.0  -0.083
  C  C222  1  0.482500  0.838000  0.800900  1.0  0.0511
  C  C223  1  0.647100  0.782000  0.651400  1.0  0.7128
  C  C224  1  0.659500  0.761500  0.617800  1.0  -0.0854
  C  C225  1  0.636900  0.739100  0.579400  1.0  -0.1223
  C  C226  1  0.648200  0.721400  0.546000  1.0  0.0721
  C  C227  1  0.702800  0.750700  0.592800  1.0  0.0815
  C  C228  1  0.692500  0.769500  0.627100  1.0  -0.114
  C  C229  1  0.321000  0.829300  0.698800  1.0  -0.0817
  C  C230  1  0.355500  0.838000  0.699100  1.0  0.0528
  C  C231  1  0.134900  0.782000  0.848600  1.0  0.7128
  C  C232  1  0.102000  0.761500  0.882200  1.0  -0.0853
  C  C233  1  0.102200  0.739100  0.920600  1.0  -0.1202
  C  C234  1  0.073200  0.721400  0.954000  1.0  0.0733
  C  C235  1  0.047900  0.750700  0.907200  1.0  0.0796
  C  C236  1  0.077000  0.769500  0.872900  1.0  -0.115
  C  C237  1  0.508300  0.679000  0.698800  1.0  -0.0797
  C  C238  1  0.482500  0.644500  0.699100  1.0  0.0517
  C  C239  1  0.647100  0.865100  0.848600  1.0  0.7118
  C  C240  1  0.659500  0.898000  0.882200  1.0  -0.0839
  C  C241  1  0.636900  0.897800  0.920600  1.0  -0.1239
  C  C242  1  0.648200  0.926800  0.954000  1.0  0.071
  C  C243  1  0.702800  0.952100  0.907200  1.0  0.0776
  C  C244  1  0.692500  0.923000  0.872900  1.0  -0.1139
  C  C245  1  0.170700  0.491700  0.698800  1.0  -0.0812
  C  C246  1  0.162000  0.517500  0.699100  1.0  0.0518
  C  C247  1  0.218000  0.352900  0.848600  1.0  0.7156
  C  C248  1  0.238500  0.340500  0.882200  1.0  -0.0856
  C  C249  1  0.260900  0.363100  0.920600  1.0  -0.1254
  C  C250  1  0.278600  0.351800  0.954000  1.0  0.0755
  C  C251  1  0.249300  0.297200  0.907200  1.0  0.0777
  C  C252  1  0.230500  0.307500  0.872900  1.0  -0.1169
  C  C253  1  0.679000  0.170700  0.198800  1.0  -0.0816
  C  C254  1  0.644500  0.162000  0.199100  1.0  0.0518
  C  C255  1  0.865100  0.218000  0.348600  1.0  0.7129
  C  C256  1  0.898000  0.238500  0.382200  1.0  -0.0861
  C  C257  1  0.897800  0.260900  0.420600  1.0  -0.1229
  C  C258  1  0.926800  0.278600  0.454000  1.0  0.0719
  C  C259  1  0.952100  0.249300  0.407200  1.0  0.0817
  C  C260  1  0.923000  0.230500  0.372900  1.0  -0.1154
  C  C261  1  0.491700  0.321000  0.198800  1.0  -0.0812
  C  C262  1  0.517500  0.355500  0.199100  1.0  0.0523
  C  C263  1  0.352900  0.134900  0.348600  1.0  0.7148
  C  C264  1  0.340500  0.102000  0.382200  1.0  -0.0841
  C  C265  1  0.363100  0.102200  0.420600  1.0  -0.1217
  C  C266  1  0.351800  0.073200  0.454000  1.0  0.0756
  C  C267  1  0.297200  0.047900  0.407200  1.0  0.0784
  C  C268  1  0.307500  0.077000  0.372900  1.0  -0.1138
  C  C269  1  0.829300  0.508300  0.198800  1.0  -0.0809
  C  C270  1  0.838000  0.482500  0.199100  1.0  0.0513
  C  C271  1  0.782000  0.647100  0.348600  1.0  0.7134
  C  C272  1  0.761500  0.659500  0.382200  1.0  -0.0858
  C  C273  1  0.739100  0.636900  0.420600  1.0  -0.1242
  C  C274  1  0.721400  0.648200  0.454000  1.0  0.0739
  C  C275  1  0.750700  0.702800  0.407200  1.0  0.0769
  C  C276  1  0.769500  0.692500  0.372900  1.0  -0.1166
  C  C277  1  0.170700  0.679000  0.698800  1.0  -0.0799
  C  C278  1  0.162000  0.644500  0.699100  1.0  0.0525
  C  C279  1  0.218000  0.865100  0.848600  1.0  0.7142
  C  C280  1  0.238500  0.898000  0.882200  1.0  -0.0839
  C  C281  1  0.260900  0.897800  0.920600  1.0  -0.1224
  C  C282  1  0.278600  0.926800  0.954000  1.0  0.0752
  C  C283  1  0.249300  0.952100  0.907200  1.0  0.0765
  C  C284  1  0.230500  0.923000  0.872900  1.0  -0.114
  C  C285  1  0.321000  0.491700  0.698800  1.0  -0.0813
  C  C286  1  0.355500  0.517500  0.699100  1.0  0.053
  C  C287  1  0.134900  0.352900  0.848600  1.0  0.7142
  C  C288  1  0.102000  0.340500  0.882200  1.0  -0.0855
  C  C289  1  0.102200  0.363100  0.920600  1.0  -0.1238
  C  C290  1  0.073200  0.351800  0.954000  1.0  0.0733
  C  C291  1  0.047900  0.297200  0.907200  1.0  0.0772
  C  C292  1  0.077000  0.307500  0.872900  1.0  -0.1174
  C  C293  1  0.508300  0.829300  0.698800  1.0  -0.0814
  C  C294  1  0.482500  0.838000  0.699100  1.0  0.0539
  C  C295  1  0.647100  0.782000  0.848600  1.0  0.713
  C  C296  1  0.659500  0.761500  0.882200  1.0  -0.0856
  C  C297  1  0.636900  0.739100  0.920600  1.0  -0.1224
  C  C298  1  0.648200  0.721400  0.954000  1.0  0.073
  C  C299  1  0.702800  0.750700  0.907200  1.0  0.0814
  C  C300  1  0.692500  0.769500  0.872900  1.0  -0.115
  C  C301  1  0.829300  0.321000  0.198800  1.0  -0.0804
  C  C302  1  0.838000  0.355500  0.199100  1.0  0.0546
  C  C303  1  0.782000  0.134900  0.348600  1.0  0.715
  C  C304  1  0.761500  0.102000  0.382200  1.0  -0.0842
  C  C305  1  0.739100  0.102200  0.420600  1.0  -0.1234
  C  C306  1  0.721400  0.073200  0.454000  1.0  0.0717
  C  C307  1  0.750700  0.047900  0.407200  1.0  0.0793
  C  C308  1  0.769500  0.077000  0.372900  1.0  -0.1139
  C  C309  1  0.679000  0.508300  0.198800  1.0  -0.0802
  C  C310  1  0.644500  0.482500  0.199100  1.0  0.054
  C  C311  1  0.865100  0.647100  0.348600  1.0  0.7133
  C  C312  1  0.898000  0.659500  0.382200  1.0  -0.0858
  C  C313  1  0.897800  0.636900  0.420600  1.0  -0.1268
  C  C314  1  0.926800  0.648200  0.454000  1.0  0.0763
  C  C315  1  0.952100  0.702800  0.407200  1.0  0.0767
  C  C316  1  0.923000  0.692500  0.372900  1.0  -0.1163
  C  C317  1  0.491700  0.170700  0.198800  1.0  -0.0812
  C  C318  1  0.517500  0.162000  0.199100  1.0  0.0541
  C  C319  1  0.352900  0.218000  0.348600  1.0  0.7124
  C  C320  1  0.340500  0.238500  0.382200  1.0  -0.0857
  C  C321  1  0.363100  0.260900  0.420600  1.0  -0.1201
  C  C322  1  0.351800  0.278600  0.454000  1.0  0.0733
  C  C323  1  0.297200  0.249300  0.407200  1.0  0.0796
  C  C324  1  0.307500  0.230500  0.372900  1.0  -0.1157
  C  C325  1  0.679000  0.170700  0.301200  1.0  -0.0827
  C  C326  1  0.644500  0.162000  0.300900  1.0  0.0529
  C  C327  1  0.865100  0.218000  0.151400  1.0  0.7127
  C  C328  1  0.898000  0.238500  0.117800  1.0  -0.0859
  C  C329  1  0.897800  0.260900  0.079400  1.0  -0.1226
  C  C330  1  0.926800  0.278600  0.046000  1.0  0.0712
  C  C331  1  0.952100  0.249300  0.092800  1.0  0.0817
  C  C332  1  0.923000  0.230500  0.127100  1.0  -0.1148
  C  C333  1  0.491700  0.321000  0.301200  1.0  -0.0823
  C  C334  1  0.517500  0.355500  0.300900  1.0  0.0556
  C  C335  1  0.352900  0.134900  0.151400  1.0  0.7144
  C  C336  1  0.340500  0.102000  0.117800  1.0  -0.0835
  C  C337  1  0.363100  0.102200  0.079400  1.0  -0.1221
  C  C338  1  0.351800  0.073200  0.046000  1.0  0.0737
  C  C339  1  0.297200  0.047900  0.092800  1.0  0.0786
  C  C340  1  0.307500  0.077000  0.127100  1.0  -0.1136
  C  C341  1  0.829300  0.508300  0.301200  1.0  -0.0825
  C  C342  1  0.838000  0.482500  0.300900  1.0  0.0552
  C  C343  1  0.782000  0.647100  0.151400  1.0  0.713
  C  C344  1  0.761500  0.659500  0.117800  1.0  -0.0854
  C  C345  1  0.739100  0.636900  0.079400  1.0  -0.1242
  C  C346  1  0.721400  0.648200  0.046000  1.0  0.0748
  C  C347  1  0.750700  0.702800  0.092800  1.0  0.0768
  C  C348  1  0.769500  0.692500  0.127100  1.0  -0.1157
  C  C349  1  0.321000  0.829300  0.801200  1.0  -0.0834
  C  C350  1  0.355500  0.838000  0.800900  1.0  0.0562
  C  C351  1  0.134900  0.782000  0.651400  1.0  0.7126
  C  C352  1  0.102000  0.761500  0.617800  1.0  -0.0848
  C  C353  1  0.102200  0.739100  0.579400  1.0  -0.1206
  C  C354  1  0.073200  0.721400  0.546000  1.0  0.0717
  C  C355  1  0.047900  0.750700  0.592800  1.0  0.0797
  C  C356  1  0.077000  0.769500  0.627100  1.0  -0.1143
  C  C357  1  0.508300  0.679000  0.801200  1.0  -0.0812
  C  C358  1  0.482500  0.644500  0.800900  1.0  0.0541
  C  C359  1  0.647100  0.865100  0.651400  1.0  0.7114
  C  C360  1  0.659500  0.898000  0.617800  1.0  -0.0834
  C  C361  1  0.636900  0.897800  0.579400  1.0  -0.1233
  C  C362  1  0.648200  0.926800  0.546000  1.0  0.072
  C  C363  1  0.702800  0.952100  0.592800  1.0  0.0777
  C  C364  1  0.692500  0.923000  0.627100  1.0  -0.1129
  C  C365  1  0.170700  0.491700  0.801200  1.0  -0.0819
  C  C366  1  0.162000  0.517500  0.800900  1.0  0.0532
  C  C367  1  0.218000  0.352900  0.651400  1.0  0.7151
  C  C368  1  0.238500  0.340500  0.617800  1.0  -0.0854
  C  C369  1  0.260900  0.363100  0.579400  1.0  -0.1258
  C  C370  1  0.278600  0.351800  0.546000  1.0  0.0736
  C  C371  1  0.249300  0.297200  0.592800  1.0  0.078
  C  C372  1  0.230500  0.307500  0.627100  1.0  -0.1169
  C  C373  1  0.813400  0.266000  0.250000  1.0  0.6772
  C  C374  1  0.825400  0.304500  0.250000  1.0  -0.1326
  C  C375  1  0.734000  0.547400  0.250000  1.0  0.6783
  C  C376  1  0.695500  0.520900  0.250000  1.0  -0.1336
  C  C377  1  0.452600  0.186600  0.250000  1.0  0.6805
  C  C378  1  0.479100  0.174600  0.250000  1.0  -0.1329
  C  C379  1  0.186600  0.734000  0.750000  1.0  0.6782
  C  C380  1  0.174600  0.695500  0.750000  1.0  -0.1334
  C  C381  1  0.266000  0.452600  0.750000  1.0  0.6777
  C  C382  1  0.304500  0.479100  0.750000  1.0  -0.133
  C  C383  1  0.547400  0.813400  0.750000  1.0  0.6801
  C  C384  1  0.520900  0.825400  0.750000  1.0  -0.1335
  C  C385  1  0.266000  0.813400  0.750000  1.0  0.6806
  C  C386  1  0.304500  0.825400  0.750000  1.0  -0.133
  C  C387  1  0.547400  0.734000  0.750000  1.0  0.6782
  C  C388  1  0.520900  0.695500  0.750000  1.0  -0.1326
  C  C389  1  0.186600  0.452600  0.750000  1.0  0.6776
  C  C390  1  0.174600  0.479100  0.750000  1.0  -0.133
  C  C391  1  0.734000  0.186600  0.250000  1.0  0.68
  C  C392  1  0.695500  0.174600  0.250000  1.0  -0.1335
  C  C393  1  0.452600  0.266000  0.250000  1.0  0.6772
  C  C394  1  0.479100  0.304500  0.250000  1.0  -0.1335
  C  C395  1  0.813400  0.547400  0.250000  1.0  0.6788
  C  C396  1  0.825400  0.520900  0.250000  1.0  -0.1333
  N  N397  1  0.726800  0.045400  0.053400  1.0  -0.2837
  N  N398  1  0.954600  0.681400  0.053400  1.0  -0.2868
  N  N399  1  0.318600  0.273200  0.053400  1.0  -0.2856
  N  N400  1  0.273200  0.954600  0.553400  1.0  -0.2851
  N  N401  1  0.045400  0.318600  0.553400  1.0  -0.2847
  N  N402  1  0.681400  0.726800  0.553400  1.0  -0.2844
  N  N403  1  0.045400  0.726800  0.946600  1.0  -0.2808
  N  N404  1  0.681400  0.954600  0.946600  1.0  -0.282
  N  N405  1  0.273200  0.318600  0.946600  1.0  -0.285
  N  N406  1  0.954600  0.273200  0.446600  1.0  -0.2839
  N  N407  1  0.318600  0.045400  0.446600  1.0  -0.2802
  N  N408  1  0.726800  0.681400  0.446600  1.0  -0.2817
  N  N409  1  0.273200  0.954600  0.946600  1.0  -0.2822
  N  N410  1  0.045400  0.318600  0.946600  1.0  -0.2813
  N  N411  1  0.681400  0.726800  0.946600  1.0  -0.2818
  N  N412  1  0.726800  0.045400  0.446600  1.0  -0.2805
  N  N413  1  0.954600  0.681400  0.446600  1.0  -0.2849
  N  N414  1  0.318600  0.273200  0.446600  1.0  -0.2824
  N  N415  1  0.954600  0.273200  0.053400  1.0  -0.2864
  N  N416  1  0.318600  0.045400  0.053400  1.0  -0.2828
  N  N417  1  0.726800  0.681400  0.053400  1.0  -0.2845
  N  N418  1  0.045400  0.726800  0.553400  1.0  -0.2842
  N  N419  1  0.681400  0.954600  0.553400  1.0  -0.285
  N  N420  1  0.273200  0.318600  0.553400  1.0  -0.2876
  N  N421  1  0.843000  0.371800  0.250000  1.0  -0.3793
  N  N422  1  0.628200  0.471200  0.250000  1.0  -0.3747
  N  N423  1  0.528800  0.157000  0.250000  1.0  -0.3828
  N  N424  1  0.157000  0.628200  0.750000  1.0  -0.376
  N  N425  1  0.371800  0.528800  0.750000  1.0  -0.3823
  N  N426  1  0.471200  0.843000  0.750000  1.0  -0.378
  N  N427  1  0.371800  0.843000  0.750000  1.0  -0.3827
  N  N428  1  0.471200  0.628200  0.750000  1.0  -0.3767
  N  N429  1  0.157000  0.528800  0.750000  1.0  -0.3753
  N  N430  1  0.628200  0.157000  0.250000  1.0  -0.3787
  N  N431  1  0.528800  0.371800  0.250000  1.0  -0.3786
  N  N432  1  0.843000  0.471200  0.250000  1.0  -0.3815
  O  O433  1  0.808700  0.253700  0.201000  1.0  -0.6193
  O  O434  1  0.801300  0.134700  0.190800  1.0  -0.6341
  O  O435  1  0.776400  0.159100  0.142800  1.0  -0.6328
  O  O436  1  0.746300  0.555000  0.201000  1.0  -0.6197
  O  O437  1  0.865300  0.666667  0.190800  1.0  -0.6371
  O  O438  1  0.840900  0.617300  0.142800  1.0  -0.632
  O  O439  1  0.445000  0.191300  0.201000  1.0  -0.6198
  O  O440  1  0.333400  0.198700  0.190800  1.0  -0.6339
  O  O441  1  0.382700  0.223600  0.142800  1.0  -0.632
  O  O442  1  0.191300  0.746300  0.701000  1.0  -0.619
  O  O443  1  0.198700  0.865300  0.690800  1.0  -0.6321
  O  O444  1  0.223600  0.840900  0.642800  1.0  -0.6338
  O  O445  1  0.253700  0.445000  0.701000  1.0  -0.6197
  O  O446  1  0.134700  0.333400  0.690800  1.0  -0.6351
  O  O447  1  0.159100  0.382700  0.642800  1.0  -0.6343
  O  O448  1  0.555000  0.808700  0.701000  1.0  -0.6213
  O  O449  1  0.666667  0.801300  0.690800  1.0  -0.6372
  O  O450  1  0.617300  0.776400  0.642800  1.0  -0.6295
  O  O451  1  0.253700  0.808700  0.799000  1.0  -0.6203
  O  O452  1  0.134700  0.801300  0.809200  1.0  -0.6335
  O  O453  1  0.159100  0.776400  0.857200  1.0  -0.6313
  O  O454  1  0.555000  0.746300  0.799000  1.0  -0.6196
  O  O455  1  0.666667  0.865300  0.809200  1.0  -0.637
  O  O456  1  0.617300  0.840900  0.857200  1.0  -0.6316
  O  O457  1  0.191300  0.445000  0.799000  1.0  -0.6202
  O  O458  1  0.198700  0.333400  0.809200  1.0  -0.634
  O  O459  1  0.223600  0.382700  0.857200  1.0  -0.6331
  O  O460  1  0.746300  0.191300  0.299000  1.0  -0.621
  O  O461  1  0.865300  0.198700  0.309200  1.0  -0.6334
  O  O462  1  0.840900  0.223600  0.357200  1.0  -0.6309
  O  O463  1  0.445000  0.253700  0.299000  1.0  -0.6195
  O  O464  1  0.333400  0.134700  0.309200  1.0  -0.6318
  O  O465  1  0.382700  0.159100  0.357200  1.0  -0.6331
  O  O466  1  0.808700  0.555000  0.299000  1.0  -0.6196
  O  O467  1  0.801300  0.666667  0.309200  1.0  -0.6366
  O  O468  1  0.776400  0.617300  0.357200  1.0  -0.6304
  O  O469  1  0.191300  0.746300  0.799000  1.0  -0.6192
  O  O470  1  0.198700  0.865300  0.809200  1.0  -0.6309
  O  O471  1  0.223600  0.840900  0.857200  1.0  -0.6333
  O  O472  1  0.253700  0.445000  0.799000  1.0  -0.6195
  O  O473  1  0.134700  0.333400  0.809200  1.0  -0.6341
  O  O474  1  0.159100  0.382700  0.857200  1.0  -0.6342
  O  O475  1  0.555000  0.808700  0.799000  1.0  -0.6214
  O  O476  1  0.666667  0.801300  0.809200  1.0  -0.6359
  O  O477  1  0.617300  0.776400  0.857200  1.0  -0.6283
  O  O478  1  0.808700  0.253700  0.299000  1.0  -0.6198
  O  O479  1  0.801300  0.134700  0.309200  1.0  -0.6329
  O  O480  1  0.776400  0.159100  0.357200  1.0  -0.6325
  O  O481  1  0.746300  0.555000  0.299000  1.0  -0.6199
  O  O482  1  0.865300  0.666667  0.309200  1.0  -0.6364
  O  O483  1  0.840900  0.617300  0.357200  1.0  -0.6313
  O  O484  1  0.445000  0.191300  0.299000  1.0  -0.62
  O  O485  1  0.333400  0.198700  0.309200  1.0  -0.6328
  O  O486  1  0.382700  0.223600  0.357200  1.0  -0.6315
  O  O487  1  0.746300  0.191300  0.201000  1.0  -0.621
  O  O488  1  0.865300  0.198700  0.190800  1.0  -0.6339
  O  O489  1  0.840900  0.223600  0.142800  1.0  -0.6306
  O  O490  1  0.445000  0.253700  0.201000  1.0  -0.6191
  O  O491  1  0.333400  0.134700  0.190800  1.0  -0.632
  O  O492  1  0.382700  0.159100  0.142800  1.0  -0.6342
  O  O493  1  0.808700  0.555000  0.201000  1.0  -0.6195
  O  O494  1  0.801300  0.666667  0.190800  1.0  -0.6369
  O  O495  1  0.776400  0.617300  0.142800  1.0  -0.6308
  O  O496  1  0.253700  0.808700  0.701000  1.0  -0.6203
  O  O497  1  0.134700  0.801300  0.690800  1.0  -0.6338
  O  O498  1  0.159100  0.776400  0.642800  1.0  -0.6322
  O  O499  1  0.555000  0.746300  0.701000  1.0  -0.6189
  O  O500  1  0.666667  0.865300  0.690800  1.0  -0.6375
  O  O501  1  0.617300  0.840900  0.642800  1.0  -0.6319
  O  O502  1  0.191300  0.445000  0.701000  1.0  -0.6201
  O  O503  1  0.198700  0.333400  0.690800  1.0  -0.6343
  O  O504  1  0.223600  0.382700  0.642800  1.0  -0.6336
  O  O505  1  0.807900  0.192100  0.250000  1.0  -1.0625
  O  O506  1  0.807900  0.615800  0.250000  1.0  -1.0626
  O  O507  1  0.384200  0.192100  0.250000  1.0  -1.0624
  O  O508  1  0.192100  0.807900  0.750000  1.0  -1.0626
  O  O509  1  0.192100  0.384200  0.750000  1.0  -1.0624
  O  O510  1  0.615800  0.807900  0.750000  1.0  -1.0626
