# generated using pymatgen
data_Cr3Ag3H24C36N6O13
_symmetry_space_group_name_H-M   'P 1'
_cell_length_a   24.62000000
_cell_length_b   24.62000000
_cell_length_c   83.68000000
_cell_angle_alpha   90.00000000
_cell_angle_beta   90.00000000
_cell_angle_gamma   90.00000000
_symmetry_Int_Tables_number   1
_chemical_formula_structural   Cr3Ag3H24C36N6O13
_chemical_formula_sum   'Cr24 Ag24 H192 C288 N48 O104'
_cell_volume   50722.16339200
_cell_formula_units_Z   8
loop_
 _symmetry_equiv_pos_site_id
 _symmetry_equiv_pos_as_xyz
  1  'x, y, z'
loop_
 _atom_site_type_symbol
 _atom_site_label
 _atom_site_symmetry_multiplicity
 _atom_site_fract_x
 _atom_site_fract_y
 _atom_site_fract_z
 _atom_site_occupancy
 _atom_site_charge
  Cr  Cr1  1  0.787350  0.291200  0.018200  1.0  1.4268
  Cr  Cr2  1  0.844100  0.274630  0.053950  1.0  1.3256
  Cr  Cr3  1  0.713800  0.296500  0.050300  1.0  1.3894
  Cr  Cr4  1  0.212650  0.708800  0.518200  1.0  1.4269
  Cr  Cr5  1  0.155900  0.725370  0.553950  1.0  1.3247
  Cr  Cr6  1  0.286200  0.703500  0.550300  1.0  1.3822
  Cr  Cr7  1  0.208800  0.287350  0.268200  1.0  1.4265
  Cr  Cr8  1  0.225370  0.344100  0.303950  1.0  1.3301
  Cr  Cr9  1  0.203500  0.213800  0.300300  1.0  1.3888
  Cr  Cr10  1  0.791200  0.712650  0.768200  1.0  1.4275
  Cr  Cr11  1  0.774630  0.655900  0.803950  1.0  1.33
  Cr  Cr12  1  0.796500  0.786200  0.800300  1.0  1.3894
  Cr  Cr13  1  0.712650  0.791200  0.231800  1.0  1.4237
  Cr  Cr14  1  0.655900  0.774630  0.196050  1.0  1.3281
  Cr  Cr15  1  0.786200  0.796500  0.199700  1.0  1.3842
  Cr  Cr16  1  0.287350  0.208800  0.731800  1.0  1.4238
  Cr  Cr17  1  0.344100  0.225370  0.696050  1.0  1.3267
  Cr  Cr18  1  0.213800  0.203500  0.699700  1.0  1.3909
  Cr  Cr19  1  0.291200  0.787350  0.981800  1.0  1.4242
  Cr  Cr20  1  0.274630  0.844100  0.946050  1.0  1.33
  Cr  Cr21  1  0.296500  0.713800  0.949700  1.0  1.3882
  Cr  Cr22  1  0.708800  0.212650  0.481800  1.0  1.4234
  Cr  Cr23  1  0.725370  0.155900  0.446050  1.0  1.3325
  Cr  Cr24  1  0.703500  0.286200  0.449700  1.0  1.3925
  Ag  Ag25  1  0.790510  0.517510  0.130780  1.0  0.2497
  Ag  Ag26  1  0.069670  0.519080  0.010790  1.0  0.2638
  Ag  Ag27  1  0.209490  0.482490  0.630780  1.0  0.2497
  Ag  Ag28  1  0.930330  0.480920  0.510790  1.0  0.263
  Ag  Ag29  1  0.982490  0.290510  0.380780  1.0  0.2476
  Ag  Ag30  1  0.980920  0.569670  0.260790  1.0  0.2637
  Ag  Ag31  1  0.017510  0.709490  0.880780  1.0  0.2184
  Ag  Ag32  1  0.019080  0.430330  0.760790  1.0  0.2637
  Ag  Ag33  1  0.709490  0.017510  0.119220  1.0  0.2193
  Ag  Ag34  1  0.430330  0.019080  0.239210  1.0  0.263
  Ag  Ag35  1  0.290510  0.982490  0.619220  1.0  0.2493
  Ag  Ag36  1  0.569670  0.980920  0.739210  1.0  0.263
  Ag  Ag37  1  0.517510  0.790510  0.869220  1.0  0.2507
  Ag  Ag38  1  0.519080  0.069670  0.989210  1.0  0.2636
  Ag  Ag39  1  0.482490  0.209490  0.369220  1.0  0.2513
  Ag  Ag40  1  0.480920  0.930330  0.489210  1.0  0.263
  Ag  Ag41  1  0.004560  0.004560  0.000000  1.0  0.2975
  Ag  Ag42  1  0.995440  0.995440  0.500000  1.0  0.2978
  Ag  Ag43  1  0.495440  0.504560  0.250000  1.0  0.2951
  Ag  Ag44  1  0.504560  0.495440  0.750000  1.0  0.2943
  Ag  Ag45  1  0.593760  0.593760  0.000000  1.0  0.2564
  Ag  Ag46  1  0.406240  0.406240  0.500000  1.0  0.2614
  Ag  Ag47  1  0.906240  0.093760  0.250000  1.0  0.2569
  Ag  Ag48  1  0.093760  0.906240  0.750000  1.0  0.2586
  H  H49  1  0.629400  0.442400  0.039100  1.0  0.1038
  H  H50  1  0.590100  0.522100  0.029600  1.0  0.0838
  H  H51  1  0.682600  0.519300  0.991300  1.0  0.0891
  H  H52  1  0.721300  0.437500  0.999100  1.0  0.109
  H  H53  1  0.706200  0.423400  0.081900  1.0  0.1108
  H  H54  1  0.709400  0.486800  0.102500  1.0  0.0901
  H  H55  1  0.857700  0.441600  0.113800  1.0  0.0897
  H  H56  1  0.860100  0.380100  0.092800  1.0  0.1131
  H  H57  1  0.975100  0.383200  0.044800  1.0  0.1034
  H  H58  1  0.037200  0.448000  0.036100  1.0  0.0925
  H  H59  1  0.959800  0.463900  0.995200  1.0  0.0853
  H  H60  1  0.893300  0.402800  0.003300  1.0  0.1094
  H  H61  1  0.668100  0.166300  0.082000  1.0  0.108
  H  H62  1  0.660300  0.092000  0.099000  1.0  0.1006
  H  H63  1  0.816900  0.062400  0.095500  1.0  0.0914
  H  H64  1  0.829600  0.138300  0.079400  1.0  0.1035
  H  H65  1  0.681700  0.183800  0.993700  1.0  0.1036
  H  H66  1  0.614600  0.128200  0.982900  1.0  0.0941
  H  H67  1  0.531400  0.133600  0.023000  1.0  0.0848
  H  H68  1  0.594000  0.192600  0.034400  1.0  0.1069
  H  H69  1  0.939100  0.142600  0.038500  1.0  0.1091
  H  H70  1  0.991200  0.072700  0.027800  1.0  0.09
  H  H71  1  0.905200  0.074300  0.988200  1.0  0.0892
  H  H72  1  0.853500  0.146900  0.997300  1.0  0.1061
  H  H73  1  0.370600  0.557600  0.539100  1.0  0.1034
  H  H74  1  0.409900  0.477900  0.529600  1.0  0.0837
  H  H75  1  0.317400  0.480700  0.491300  1.0  0.0889
  H  H76  1  0.278700  0.562500  0.499100  1.0  0.1093
  H  H77  1  0.293800  0.576600  0.581900  1.0  0.1109
  H  H78  1  0.290600  0.513200  0.602500  1.0  0.0898
  H  H79  1  0.142300  0.558400  0.613800  1.0  0.0892
  H  H80  1  0.139900  0.619900  0.592800  1.0  0.1125
  H  H81  1  0.024900  0.616800  0.544800  1.0  0.1037
  H  H82  1  0.962800  0.552000  0.536100  1.0  0.0932
  H  H83  1  0.040200  0.536100  0.495200  1.0  0.0856
  H  H84  1  0.106700  0.597200  0.503300  1.0  0.1084
  H  H85  1  0.331900  0.833700  0.582000  1.0  0.1075
  H  H86  1  0.339700  0.908000  0.599000  1.0  0.0997
  H  H87  1  0.183100  0.937600  0.595500  1.0  0.0909
  H  H88  1  0.170400  0.861700  0.579400  1.0  0.1033
  H  H89  1  0.318300  0.816200  0.493700  1.0  0.1036
  H  H90  1  0.385400  0.871800  0.482900  1.0  0.0944
  H  H91  1  0.468600  0.866400  0.523000  1.0  0.0841
  H  H92  1  0.406000  0.807400  0.534400  1.0  0.1061
  H  H93  1  0.060900  0.857400  0.538500  1.0  0.1095
  H  H94  1  0.008800  0.927300  0.527800  1.0  0.0902
  H  H95  1  0.094800  0.925700  0.488200  1.0  0.0889
  H  H96  1  0.146500  0.853100  0.497300  1.0  0.1058
  H  H97  1  0.057600  0.129400  0.289100  1.0  0.1041
  H  H98  1  0.977900  0.090100  0.279600  1.0  0.0833
  H  H99  1  0.980700  0.182600  0.241300  1.0  0.0887
  H  H100  1  0.062500  0.221300  0.249100  1.0  0.1091
  H  H101  1  0.076600  0.206200  0.331900  1.0  0.1099
  H  H102  1  0.013200  0.209400  0.352500  1.0  0.0906
  H  H103  1  0.058400  0.357700  0.363800  1.0  0.0881
  H  H104  1  0.119900  0.360100  0.342800  1.0  0.1136
  H  H105  1  0.116800  0.475100  0.294800  1.0  0.1047
  H  H106  1  0.052000  0.537200  0.286100  1.0  0.093
  H  H107  1  0.036100  0.459800  0.245200  1.0  0.0858
  H  H108  1  0.097200  0.393300  0.253300  1.0  0.1072
  H  H109  1  0.333700  0.168100  0.332000  1.0  0.1115
  H  H110  1  0.408000  0.160300  0.349000  1.0  0.1018
  H  H111  1  0.437600  0.316900  0.345500  1.0  0.0918
  H  H112  1  0.361700  0.329600  0.329400  1.0  0.1042
  H  H113  1  0.316200  0.181700  0.243700  1.0  0.1028
  H  H114  1  0.371800  0.114600  0.232900  1.0  0.0952
  H  H115  1  0.366400  0.031400  0.273000  1.0  0.0862
  H  H116  1  0.307400  0.094000  0.284400  1.0  0.1073
  H  H117  1  0.357400  0.439100  0.288500  1.0  0.1088
  H  H118  1  0.427300  0.491200  0.277800  1.0  0.09
  H  H119  1  0.425700  0.405200  0.238200  1.0  0.0888
  H  H120  1  0.353100  0.353500  0.247300  1.0  0.1061
  H  H121  1  0.942400  0.870600  0.789100  1.0  0.1035
  H  H122  1  0.022100  0.909900  0.779600  1.0  0.0831
  H  H123  1  0.019300  0.817400  0.741300  1.0  0.0889
  H  H124  1  0.937500  0.778700  0.749100  1.0  0.1091
  H  H125  1  0.923400  0.793800  0.831900  1.0  0.1107
  H  H126  1  0.986800  0.790600  0.852500  1.0  0.0898
  H  H127  1  0.941600  0.642300  0.863800  1.0  0.0882
  H  H128  1  0.880100  0.639900  0.842800  1.0  0.1139
  H  H129  1  0.883200  0.524900  0.794800  1.0  0.1045
  H  H130  1  0.948000  0.462800  0.786100  1.0  0.0929
  H  H131  1  0.963900  0.540200  0.745200  1.0  0.0861
  H  H132  1  0.902800  0.606700  0.753300  1.0  0.1079
  H  H133  1  0.666300  0.831900  0.832000  1.0  0.112
  H  H134  1  0.592000  0.839700  0.849000  1.0  0.1012
  H  H135  1  0.562400  0.683100  0.845500  1.0  0.0914
  H  H136  1  0.638300  0.670400  0.829400  1.0  0.1038
  H  H137  1  0.683800  0.818300  0.743700  1.0  0.1026
  H  H138  1  0.628200  0.885400  0.732900  1.0  0.0948
  H  H139  1  0.633600  0.968600  0.773000  1.0  0.0852
  H  H140  1  0.692600  0.906000  0.784400  1.0  0.1074
  H  H141  1  0.642600  0.560900  0.788500  1.0  0.1094
  H  H142  1  0.572700  0.508800  0.777800  1.0  0.0908
  H  H143  1  0.574300  0.594800  0.738200  1.0  0.0888
  H  H144  1  0.646900  0.646500  0.747300  1.0  0.1063
  H  H145  1  0.870600  0.942400  0.210900  1.0  0.1044
  H  H146  1  0.909900  0.022100  0.220400  1.0  0.0845
  H  H147  1  0.817400  0.019300  0.258700  1.0  0.0893
  H  H148  1  0.778700  0.937500  0.250900  1.0  0.1092
  H  H149  1  0.793800  0.923400  0.168100  1.0  0.1104
  H  H150  1  0.790600  0.986800  0.147500  1.0  0.0907
  H  H151  1  0.642300  0.941600  0.136200  1.0  0.0889
  H  H152  1  0.639900  0.880100  0.157200  1.0  0.1125
  H  H153  1  0.524900  0.883200  0.205200  1.0  0.1045
  H  H154  1  0.462800  0.948000  0.213900  1.0  0.093
  H  H155  1  0.540200  0.963900  0.254800  1.0  0.0859
  H  H156  1  0.606700  0.902800  0.246700  1.0  0.1083
  H  H157  1  0.831900  0.666300  0.168000  1.0  0.1116
  H  H158  1  0.839700  0.592000  0.151000  1.0  0.0995
  H  H159  1  0.683100  0.562400  0.154500  1.0  0.0921
  H  H160  1  0.670400  0.638300  0.170600  1.0  0.103
  H  H161  1  0.818300  0.683800  0.256300  1.0  0.104
  H  H162  1  0.885400  0.628200  0.267100  1.0  0.0944
  H  H163  1  0.968600  0.633600  0.227000  1.0  0.0847
  H  H164  1  0.906000  0.692600  0.215600  1.0  0.1067
  H  H165  1  0.560900  0.642600  0.211500  1.0  0.1088
  H  H166  1  0.508800  0.572700  0.222200  1.0  0.0899
  H  H167  1  0.594800  0.574300  0.261800  1.0  0.0873
  H  H168  1  0.646500  0.646900  0.252700  1.0  0.1056
  H  H169  1  0.129400  0.057600  0.710900  1.0  0.1034
  H  H170  1  0.090100  0.977900  0.720400  1.0  0.0841
  H  H171  1  0.182600  0.980700  0.758700  1.0  0.0895
  H  H172  1  0.221300  0.062500  0.750900  1.0  0.1103
  H  H173  1  0.206200  0.076600  0.668100  1.0  0.1105
  H  H174  1  0.209400  0.013200  0.647500  1.0  0.0906
  H  H175  1  0.357700  0.058400  0.636200  1.0  0.0896
  H  H176  1  0.360100  0.119900  0.657200  1.0  0.1126
  H  H177  1  0.475100  0.116800  0.705200  1.0  0.1047
  H  H178  1  0.537200  0.052000  0.713900  1.0  0.0931
  H  H179  1  0.459800  0.036100  0.754800  1.0  0.0873
  H  H180  1  0.393300  0.097200  0.746700  1.0  0.108
  H  H181  1  0.168100  0.333700  0.668000  1.0  0.1115
  H  H182  1  0.160300  0.408000  0.651000  1.0  0.1
  H  H183  1  0.316900  0.437600  0.654500  1.0  0.0937
  H  H184  1  0.329600  0.361700  0.670600  1.0  0.1027
  H  H185  1  0.181700  0.316200  0.756300  1.0  0.1034
  H  H186  1  0.114600  0.371800  0.767100  1.0  0.0936
  H  H187  1  0.031400  0.366400  0.727000  1.0  0.0838
  H  H188  1  0.094000  0.307400  0.715600  1.0  0.1063
  H  H189  1  0.439100  0.357400  0.711500  1.0  0.109
  H  H190  1  0.491200  0.427300  0.722200  1.0  0.0904
  H  H191  1  0.405200  0.425700  0.761800  1.0  0.0875
  H  H192  1  0.353500  0.353100  0.752700  1.0  0.1061
  H  H193  1  0.442400  0.629400  0.960900  1.0  0.1039
  H  H194  1  0.522100  0.590100  0.970400  1.0  0.0837
  H  H195  1  0.519300  0.682600  0.008700  1.0  0.0887
  H  H196  1  0.437500  0.721300  0.000900  1.0  0.1093
  H  H197  1  0.423400  0.706200  0.918100  1.0  0.1097
  H  H198  1  0.486800  0.709400  0.897500  1.0  0.0908
  H  H199  1  0.441600  0.857700  0.886200  1.0  0.0891
  H  H200  1  0.380100  0.860100  0.907200  1.0  0.1131
  H  H201  1  0.383200  0.975100  0.955200  1.0  0.1036
  H  H202  1  0.448000  0.037200  0.963900  1.0  0.0935
  H  H203  1  0.463900  0.959800  0.004800  1.0  0.0845
  H  H204  1  0.402800  0.893300  0.996700  1.0  0.1099
  H  H205  1  0.166300  0.668100  0.918000  1.0  0.1071
  H  H206  1  0.092000  0.660300  0.901000  1.0  0.1018
  H  H207  1  0.062400  0.816900  0.904500  1.0  0.0921
  H  H208  1  0.138300  0.829600  0.920600  1.0  0.1037
  H  H209  1  0.183800  0.681700  0.006300  1.0  0.1031
  H  H210  1  0.128200  0.614600  0.017100  1.0  0.0956
  H  H211  1  0.133600  0.531400  0.977000  1.0  0.0853
  H  H212  1  0.192600  0.594000  0.965600  1.0  0.107
  H  H213  1  0.142600  0.939100  0.961500  1.0  0.1093
  H  H214  1  0.072700  0.991200  0.972200  1.0  0.0908
  H  H215  1  0.074300  0.905200  0.011800  1.0  0.0889
  H  H216  1  0.146900  0.853500  0.002700  1.0  0.1064
  H  H217  1  0.557600  0.370600  0.460900  1.0  0.1039
  H  H218  1  0.477900  0.409900  0.470400  1.0  0.0842
  H  H219  1  0.480700  0.317400  0.508700  1.0  0.089
  H  H220  1  0.562500  0.278700  0.500900  1.0  0.1096
  H  H221  1  0.576600  0.293800  0.418100  1.0  0.11
  H  H222  1  0.513200  0.290600  0.397500  1.0  0.0897
  H  H223  1  0.558400  0.142300  0.386200  1.0  0.0887
  H  H224  1  0.619900  0.139900  0.407200  1.0  0.1131
  H  H225  1  0.616800  0.024900  0.455200  1.0  0.1039
  H  H226  1  0.552000  0.962800  0.463900  1.0  0.0937
  H  H227  1  0.536100  0.040200  0.504800  1.0  0.0844
  H  H228  1  0.597200  0.106700  0.496700  1.0  0.1078
  H  H229  1  0.833700  0.331900  0.418000  1.0  0.107
  H  H230  1  0.908000  0.339700  0.401000  1.0  0.1021
  H  H231  1  0.937600  0.183100  0.404500  1.0  0.0923
  H  H232  1  0.861700  0.170400  0.420600  1.0  0.1036
  H  H233  1  0.816200  0.318300  0.506300  1.0  0.1031
  H  H234  1  0.871800  0.385400  0.517100  1.0  0.0958
  H  H235  1  0.866400  0.468600  0.477000  1.0  0.0857
  H  H236  1  0.807400  0.406000  0.465600  1.0  0.1072
  H  H237  1  0.857400  0.060900  0.461500  1.0  0.1089
  H  H238  1  0.927300  0.008800  0.472200  1.0  0.0906
  H  H239  1  0.925700  0.094800  0.511800  1.0  0.0881
  H  H240  1  0.853100  0.146500  0.502700  1.0  0.106
  C  C241  1  0.705500  0.379500  0.025800  1.0  0.7079
  C  C242  1  0.679300  0.430200  0.019850  1.0  -0.1049
  C  C243  1  0.640300  0.456900  0.029040  1.0  -0.1222
  C  C244  1  0.617500  0.505000  0.023500  1.0  0.0881
  C  C245  1  0.671000  0.503000  0.001030  1.0  0.0867
  C  C246  1  0.694700  0.454200  0.005660  1.0  -0.1647
  C  C247  1  0.782800  0.349500  0.073450  1.0  0.7104
  C  C248  1  0.783700  0.395200  0.084840  1.0  -0.1602
  C  C249  1  0.738200  0.427100  0.088130  1.0  -0.1576
  C  C250  1  0.740100  0.464400  0.100600  1.0  0.0977
  C  C251  1  0.826800  0.438500  0.107090  1.0  0.0883
  C  C252  1  0.828400  0.401300  0.094600  1.0  -0.1441
  C  C253  1  0.885300  0.345200  0.030500  1.0  0.6965
  C  C254  1  0.926300  0.386600  0.025000  1.0  -0.0928
  C  C255  1  0.970500  0.400100  0.034620  1.0  -0.132
  C  C256  1  0.007900  0.438300  0.029300  1.0  0.0765
  C  C257  1  0.962400  0.447900  0.005530  1.0  0.0963
  C  C258  1  0.922700  0.411000  0.010220  1.0  -0.1215
  C  C259  1  0.756500  0.209700  0.069020  1.0  0.7365
  C  C260  1  0.750400  0.161300  0.079030  1.0  -0.1478
  C  C261  1  0.699500  0.146100  0.084800  1.0  -0.1591
  C  C262  1  0.695000  0.101200  0.094800  1.0  0.0951
  C  C263  1  0.786400  0.084400  0.092900  1.0  0.0944
  C  C264  1  0.794200  0.129500  0.083200  1.0  -0.1329
  C  C265  1  0.686000  0.232000  0.022100  1.0  0.7202
  C  C266  1  0.644600  0.195500  0.015280  1.0  -0.1369
  C  C267  1  0.650500  0.174800  0.999860  1.0  -0.1606
  C  C268  1  0.610700  0.141000  0.993580  1.0  0.0878
  C  C269  1  0.561900  0.144700  0.016900  1.0  0.0982
  C  C270  1  0.599400  0.179700  0.023840  1.0  -0.1481
  C  C271  1  0.859000  0.200200  0.025400  1.0  0.7293
  C  C272  1  0.890900  0.153500  0.018880  1.0  -0.1099
  C  C273  1  0.932000  0.129900  0.028010  1.0  -0.1558
  C  C274  1  0.962500  0.087700  0.021600  1.0  0.0857
  C  C275  1  0.912700  0.089000  0.998470  1.0  0.0787
  C  C276  1  0.881300  0.132200  0.003900  1.0  -0.1494
  C  C277  1  0.294500  0.620500  0.525800  1.0  0.7066
  C  C278  1  0.320700  0.569800  0.519850  1.0  -0.1033
  C  C279  1  0.359700  0.543100  0.529040  1.0  -0.1204
  C  C280  1  0.382500  0.495000  0.523500  1.0  0.0908
  C  C281  1  0.329000  0.497000  0.501030  1.0  0.0869
  C  C282  1  0.305300  0.545800  0.505660  1.0  -0.1636
  C  C283  1  0.217200  0.650500  0.573450  1.0  0.7109
  C  C284  1  0.216300  0.604800  0.584840  1.0  -0.1602
  C  C285  1  0.261800  0.572900  0.588130  1.0  -0.1577
  C  C286  1  0.259900  0.535600  0.600600  1.0  0.0986
  C  C287  1  0.173200  0.561500  0.607090  1.0  0.0874
  C  C288  1  0.171600  0.598700  0.594600  1.0  -0.1445
  C  C289  1  0.114700  0.654800  0.530500  1.0  0.6968
  C  C290  1  0.073700  0.613400  0.525000  1.0  -0.0935
  C  C291  1  0.029500  0.599900  0.534620  1.0  -0.1339
  C  C292  1  0.992100  0.561700  0.529300  1.0  0.0769
  C  C293  1  0.037600  0.552100  0.505530  1.0  0.0966
  C  C294  1  0.077300  0.589000  0.510220  1.0  -0.1202
  C  C295  1  0.243500  0.790300  0.569020  1.0  0.7358
  C  C296  1  0.249600  0.838700  0.579030  1.0  -0.1474
  C  C297  1  0.300500  0.853900  0.584800  1.0  -0.1584
  C  C298  1  0.305000  0.898800  0.594800  1.0  0.0951
  C  C299  1  0.213600  0.915600  0.592900  1.0  0.0932
  C  C300  1  0.205800  0.870500  0.583200  1.0  -0.1334
  C  C301  1  0.314000  0.768000  0.522100  1.0  0.7185
  C  C302  1  0.355400  0.804500  0.515280  1.0  -0.1364
  C  C303  1  0.349500  0.825200  0.499860  1.0  -0.1601
  C  C304  1  0.389300  0.859000  0.493580  1.0  0.0877
  C  C305  1  0.438100  0.855300  0.516900  1.0  0.0991
  C  C306  1  0.400600  0.820300  0.523840  1.0  -0.1474
  C  C307  1  0.141000  0.799800  0.525400  1.0  0.7292
  C  C308  1  0.109100  0.846500  0.518880  1.0  -0.1109
  C  C309  1  0.068000  0.870100  0.528010  1.0  -0.1581
  C  C310  1  0.037500  0.912300  0.521600  1.0  0.083
  C  C311  1  0.087300  0.911000  0.498470  1.0  0.0784
  C  C312  1  0.118700  0.867800  0.503900  1.0  -0.1511
  C  C313  1  0.120500  0.205500  0.275800  1.0  0.7053
  C  C314  1  0.069800  0.179300  0.269850  1.0  -0.1062
  C  C315  1  0.043100  0.140300  0.279040  1.0  -0.1193
  C  C316  1  0.995000  0.117500  0.273500  1.0  0.0887
  C  C317  1  0.997000  0.171000  0.251030  1.0  0.0875
  C  C318  1  0.045800  0.194700  0.255660  1.0  -0.164
  C  C319  1  0.150500  0.282800  0.323450  1.0  0.7087
  C  C320  1  0.104800  0.283700  0.334840  1.0  -0.1611
  C  C321  1  0.072900  0.238200  0.338130  1.0  -0.1572
  C  C322  1  0.035600  0.240100  0.350600  1.0  0.097
  C  C323  1  0.061500  0.326800  0.357090  1.0  0.0852
  C  C324  1  0.098700  0.328400  0.344600  1.0  -0.1465
  C  C325  1  0.154800  0.385300  0.280500  1.0  0.6949
  C  C326  1  0.113400  0.426300  0.275000  1.0  -0.0927
  C  C327  1  0.099900  0.470500  0.284620  1.0  -0.132
  C  C328  1  0.061700  0.507900  0.279300  1.0  0.0743
  C  C329  1  0.052100  0.462400  0.255530  1.0  0.0975
  C  C330  1  0.089000  0.422700  0.260220  1.0  -0.1221
  C  C331  1  0.290300  0.256500  0.319020  1.0  0.7326
  C  C332  1  0.338700  0.250400  0.329030  1.0  -0.1506
  C  C333  1  0.353900  0.199500  0.334800  1.0  -0.1597
  C  C334  1  0.398800  0.195000  0.344800  1.0  0.0944
  C  C335  1  0.415600  0.286400  0.342900  1.0  0.0936
  C  C336  1  0.370500  0.294200  0.333200  1.0  -0.1355
  C  C337  1  0.268000  0.186000  0.272100  1.0  0.7186
  C  C338  1  0.304500  0.144600  0.265280  1.0  -0.1362
  C  C339  1  0.325200  0.150500  0.249860  1.0  -0.161
  C  C340  1  0.359000  0.110700  0.243580  1.0  0.0878
  C  C341  1  0.355300  0.061900  0.266900  1.0  0.0984
  C  C342  1  0.320300  0.099400  0.273840  1.0  -0.1485
  C  C343  1  0.299800  0.359000  0.275400  1.0  0.7282
  C  C344  1  0.346500  0.390900  0.268880  1.0  -0.1116
  C  C345  1  0.370100  0.432000  0.278010  1.0  -0.1565
  C  C346  1  0.412300  0.462500  0.271600  1.0  0.0835
  C  C347  1  0.411000  0.412700  0.248470  1.0  0.0803
  C  C348  1  0.367800  0.381300  0.253900  1.0  -0.1519
  C  C349  1  0.879500  0.794500  0.775800  1.0  0.7045
  C  C350  1  0.930200  0.820700  0.769850  1.0  -0.1043
  C  C351  1  0.956900  0.859700  0.779040  1.0  -0.1198
  C  C352  1  0.005000  0.882500  0.773500  1.0  0.0878
  C  C353  1  0.003000  0.829000  0.751030  1.0  0.0883
  C  C354  1  0.954200  0.805300  0.755660  1.0  -0.1655
  C  C355  1  0.849500  0.717200  0.823450  1.0  0.7083
  C  C356  1  0.895200  0.716300  0.834840  1.0  -0.1619
  C  C357  1  0.927100  0.761800  0.838130  1.0  -0.1585
  C  C358  1  0.964400  0.759900  0.850600  1.0  0.0976
  C  C359  1  0.938500  0.673200  0.857090  1.0  0.0848
  C  C360  1  0.901300  0.671600  0.844600  1.0  -0.1461
  C  C361  1  0.845200  0.614700  0.780500  1.0  0.6952
  C  C362  1  0.886600  0.573700  0.775000  1.0  -0.0933
  C  C363  1  0.900100  0.529500  0.784620  1.0  -0.132
  C  C364  1  0.938300  0.492100  0.779300  1.0  0.0743
  C  C365  1  0.947900  0.537600  0.755530  1.0  0.0984
  C  C366  1  0.911000  0.577300  0.760220  1.0  -0.1227
  C  C367  1  0.709700  0.743500  0.819020  1.0  0.7347
  C  C368  1  0.661300  0.749600  0.829030  1.0  -0.151
  C  C369  1  0.646100  0.800500  0.834800  1.0  -0.1587
  C  C370  1  0.601200  0.805000  0.844800  1.0  0.0946
  C  C371  1  0.584400  0.713600  0.842900  1.0  0.0926
  C  C372  1  0.629500  0.705800  0.833200  1.0  -0.1339
  C  C373  1  0.732000  0.814000  0.772100  1.0  0.7197
  C  C374  1  0.695500  0.855400  0.765280  1.0  -0.1353
  C  C375  1  0.674800  0.849500  0.749860  1.0  -0.1596
  C  C376  1  0.641000  0.889300  0.743580  1.0  0.0876
  C  C377  1  0.644700  0.938100  0.766900  1.0  0.0981
  C  C378  1  0.679700  0.900600  0.773840  1.0  -0.1472
  C  C379  1  0.700200  0.641000  0.775400  1.0  0.7292
  C  C380  1  0.653500  0.609100  0.768880  1.0  -0.1118
  C  C381  1  0.629900  0.568000  0.778010  1.0  -0.1554
  C  C382  1  0.587700  0.537500  0.771600  1.0  0.0824
  C  C383  1  0.589000  0.587300  0.748470  1.0  0.08
  C  C384  1  0.632200  0.618700  0.753900  1.0  -0.1503
  C  C385  1  0.794500  0.879500  0.224200  1.0  0.7065
  C  C386  1  0.820700  0.930200  0.230150  1.0  -0.1029
  C  C387  1  0.859700  0.956900  0.220960  1.0  -0.1219
  C  C388  1  0.882500  0.005000  0.226500  1.0  0.0885
  C  C389  1  0.829000  0.003000  0.248970  1.0  0.0847
  C  C390  1  0.805300  0.954200  0.244340  1.0  -0.1646
  C  C391  1  0.717200  0.849500  0.176550  1.0  0.7098
  C  C392  1  0.716300  0.895200  0.165160  1.0  -0.1603
  C  C393  1  0.761800  0.927100  0.161870  1.0  -0.155
  C  C394  1  0.759900  0.964400  0.149400  1.0  0.0983
  C  C395  1  0.673200  0.938500  0.142910  1.0  0.0872
  C  C396  1  0.671600  0.901300  0.155400  1.0  -0.1443
  C  C397  1  0.614700  0.845200  0.219500  1.0  0.6962
  C  C398  1  0.573700  0.886600  0.225000  1.0  -0.0937
  C  C399  1  0.529500  0.900100  0.215380  1.0  -0.1315
  C  C400  1  0.492100  0.938300  0.220700  1.0  0.0764
  C  C401  1  0.537600  0.947900  0.244470  1.0  0.096
  C  C402  1  0.577300  0.911000  0.239780  1.0  -0.1201
  C  C403  1  0.743500  0.709700  0.180980  1.0  0.7367
  C  C404  1  0.749600  0.661300  0.170970  1.0  -0.1475
  C  C405  1  0.800500  0.646100  0.165200  1.0  -0.1582
  C  C406  1  0.805000  0.601200  0.155200  1.0  0.0946
  C  C407  1  0.713600  0.584400  0.157100  1.0  0.0924
  C  C408  1  0.705800  0.629500  0.166800  1.0  -0.1342
  C  C409  1  0.814000  0.732000  0.227900  1.0  0.7182
  C  C410  1  0.855400  0.695500  0.234720  1.0  -0.1365
  C  C411  1  0.849500  0.674800  0.250140  1.0  -0.1604
  C  C412  1  0.889300  0.641000  0.256420  1.0  0.0876
  C  C413  1  0.938100  0.644700  0.233100  1.0  0.0969
  C  C414  1  0.900600  0.679700  0.226160  1.0  -0.1488
  C  C415  1  0.641000  0.700200  0.224600  1.0  0.7296
  C  C416  1  0.609100  0.653500  0.231120  1.0  -0.1108
  C  C417  1  0.568000  0.629900  0.221990  1.0  -0.1581
  C  C418  1  0.537500  0.587700  0.228400  1.0  0.0827
  C  C419  1  0.587300  0.589000  0.251530  1.0  0.0793
  C  C420  1  0.618700  0.632200  0.246100  1.0  -0.1504
  C  C421  1  0.205500  0.120500  0.724200  1.0  0.7077
  C  C422  1  0.179300  0.069800  0.730150  1.0  -0.1054
  C  C423  1  0.140300  0.043100  0.720960  1.0  -0.1228
  C  C424  1  0.117500  0.995000  0.726500  1.0  0.088
  C  C425  1  0.171000  0.997000  0.748970  1.0  0.0882
  C  C426  1  0.194700  0.045800  0.744340  1.0  -0.1641
  C  C427  1  0.282800  0.150500  0.676550  1.0  0.7109
  C  C428  1  0.283700  0.104800  0.665160  1.0  -0.1603
  C  C429  1  0.238200  0.072900  0.661870  1.0  -0.157
  C  C430  1  0.240100  0.035600  0.649400  1.0  0.0964
  C  C431  1  0.326800  0.061500  0.642910  1.0  0.0876
  C  C432  1  0.328400  0.098700  0.655400  1.0  -0.1442
  C  C433  1  0.385300  0.154800  0.719500  1.0  0.6967
  C  C434  1  0.426300  0.113400  0.725000  1.0  -0.0927
  C  C435  1  0.470500  0.099900  0.715380  1.0  -0.1328
  C  C436  1  0.507900  0.061700  0.720700  1.0  0.0751
  C  C437  1  0.462400  0.052100  0.744470  1.0  0.0973
  C  C438  1  0.422700  0.089000  0.739780  1.0  -0.1222
  C  C439  1  0.256500  0.290300  0.680980  1.0  0.7362
  C  C440  1  0.250400  0.338700  0.670970  1.0  -0.1477
  C  C441  1  0.199500  0.353900  0.665200  1.0  -0.1594
  C  C442  1  0.195000  0.398800  0.655200  1.0  0.0943
  C  C443  1  0.286400  0.415600  0.657100  1.0  0.0936
  C  C444  1  0.294200  0.370500  0.666800  1.0  -0.1332
  C  C445  1  0.186000  0.268000  0.727900  1.0  0.7208
  C  C446  1  0.144600  0.304500  0.734720  1.0  -0.1372
  C  C447  1  0.150500  0.325200  0.750140  1.0  -0.1585
  C  C448  1  0.110700  0.359000  0.756420  1.0  0.0865
  C  C449  1  0.061900  0.355300  0.733100  1.0  0.0974
  C  C450  1  0.099400  0.320300  0.726160  1.0  -0.1483
  C  C451  1  0.359000  0.299800  0.724600  1.0  0.7291
  C  C452  1  0.390900  0.346500  0.731120  1.0  -0.1096
  C  C453  1  0.432000  0.370100  0.721990  1.0  -0.1587
  C  C454  1  0.462500  0.412300  0.728400  1.0  0.085
  C  C455  1  0.412700  0.411000  0.751530  1.0  0.077
  C  C456  1  0.381300  0.367800  0.746100  1.0  -0.1514
  C  C457  1  0.379500  0.705500  0.974200  1.0  0.7044
  C  C458  1  0.430200  0.679300  0.980150  1.0  -0.1038
  C  C459  1  0.456900  0.640300  0.970960  1.0  -0.1213
  C  C460  1  0.505000  0.617500  0.976500  1.0  0.0877
  C  C461  1  0.503000  0.671000  0.998970  1.0  0.0885
  C  C462  1  0.454200  0.694700  0.994340  1.0  -0.1651
  C  C463  1  0.349500  0.782800  0.926550  1.0  0.7083
  C  C464  1  0.395200  0.783700  0.915160  1.0  -0.1619
  C  C465  1  0.427100  0.738200  0.911870  1.0  -0.1565
  C  C466  1  0.464400  0.740100  0.899400  1.0  0.097
  C  C467  1  0.438500  0.826800  0.892910  1.0  0.0847
  C  C468  1  0.401300  0.828400  0.905400  1.0  -0.1474
  C  C469  1  0.345200  0.885300  0.969500  1.0  0.695
  C  C470  1  0.386600  0.926300  0.975000  1.0  -0.0925
  C  C471  1  0.400100  0.970500  0.965380  1.0  -0.1311
  C  C472  1  0.438300  0.007900  0.970700  1.0  0.0696
  C  C473  1  0.447900  0.962400  0.994470  1.0  0.0988
  C  C474  1  0.411000  0.922700  0.989780  1.0  -0.1231
  C  C475  1  0.209700  0.756500  0.930980  1.0  0.735
  C  C476  1  0.161300  0.750400  0.920970  1.0  -0.1514
  C  C477  1  0.146100  0.699500  0.915200  1.0  -0.1585
  C  C478  1  0.101200  0.695000  0.905200  1.0  0.0944
  C  C479  1  0.084400  0.786400  0.907100  1.0  0.0922
  C  C480  1  0.129500  0.794200  0.916800  1.0  -0.1357
  C  C481  1  0.232000  0.686000  0.977900  1.0  0.72
  C  C482  1  0.195500  0.644600  0.984720  1.0  -0.1358
  C  C483  1  0.174800  0.650500  0.000140  1.0  -0.1598
  C  C484  1  0.141000  0.610700  0.006420  1.0  0.0866
  C  C485  1  0.144700  0.561900  0.983100  1.0  0.0968
  C  C486  1  0.179700  0.599400  0.976160  1.0  -0.1476
  C  C487  1  0.200200  0.859000  0.974600  1.0  0.7286
  C  C488  1  0.153500  0.890900  0.981120  1.0  -0.1114
  C  C489  1  0.129900  0.932000  0.971990  1.0  -0.1572
  C  C490  1  0.087700  0.962500  0.978400  1.0  0.0824
  C  C491  1  0.089000  0.912700  0.001530  1.0  0.0796
  C  C492  1  0.132200  0.881300  0.996100  1.0  -0.151
  C  C493  1  0.620500  0.294500  0.474200  1.0  0.7054
  C  C494  1  0.569800  0.320700  0.480150  1.0  -0.1062
  C  C495  1  0.543100  0.359700  0.470960  1.0  -0.1208
  C  C496  1  0.495000  0.382500  0.476500  1.0  0.0872
  C  C497  1  0.497000  0.329000  0.498970  1.0  0.0859
  C  C498  1  0.545800  0.305300  0.494340  1.0  -0.1642
  C  C499  1  0.650500  0.217200  0.426550  1.0  0.7083
  C  C500  1  0.604800  0.216300  0.415160  1.0  -0.1614
  C  C501  1  0.572900  0.261800  0.411870  1.0  -0.1582
  C  C502  1  0.535600  0.259900  0.399400  1.0  0.0964
  C  C503  1  0.561500  0.173200  0.392910  1.0  0.0839
  C  C504  1  0.598700  0.171600  0.405400  1.0  -0.1463
  C  C505  1  0.654800  0.114700  0.469500  1.0  0.6948
  C  C506  1  0.613400  0.073700  0.475000  1.0  -0.0931
  C  C507  1  0.599900  0.029500  0.465380  1.0  -0.1325
  C  C508  1  0.561700  0.992100  0.470700  1.0  0.0734
  C  C509  1  0.552100  0.037600  0.494470  1.0  0.0976
  C  C510  1  0.589000  0.077300  0.489780  1.0  -0.122
  C  C511  1  0.790300  0.243500  0.430980  1.0  0.7328
  C  C512  1  0.838700  0.249600  0.420970  1.0  -0.1506
  C  C513  1  0.853900  0.300500  0.415200  1.0  -0.1605
  C  C514  1  0.898800  0.305000  0.405200  1.0  0.0944
  C  C515  1  0.915600  0.213600  0.407100  1.0  0.0937
  C  C516  1  0.870500  0.205800  0.416800  1.0  -0.1358
  C  C517  1  0.768000  0.314000  0.477900  1.0  0.7192
  C  C518  1  0.804500  0.355400  0.484720  1.0  -0.136
  C  C519  1  0.825200  0.349500  0.500140  1.0  -0.1601
  C  C520  1  0.859000  0.389300  0.506420  1.0  0.0884
  C  C521  1  0.855300  0.438100  0.483100  1.0  0.0976
  C  C522  1  0.820300  0.400600  0.476160  1.0  -0.1491
  C  C523  1  0.799800  0.141000  0.474600  1.0  0.7291
  C  C524  1  0.846500  0.109100  0.481120  1.0  -0.1121
  C  C525  1  0.870100  0.068000  0.471990  1.0  -0.1584
  C  C526  1  0.912300  0.037500  0.478400  1.0  0.0817
  C  C527  1  0.911000  0.087300  0.501530  1.0  0.0802
  C  C528  1  0.867800  0.118700  0.496100  1.0  -0.1517
  N  N529  1  0.632700  0.527900  0.009700  1.0  -0.3467
  N  N530  1  0.783700  0.469900  0.110000  1.0  -0.2779
  N  N531  1  0.004100  0.461700  0.014900  1.0  -0.2888
  N  N532  1  0.737800  0.070600  0.098760  1.0  -0.3517
  N  N533  1  0.567000  0.125900  0.002000  1.0  -0.2875
  N  N534  1  0.952900  0.067300  0.007100  1.0  -0.3305
  N  N535  1  0.367300  0.472100  0.509700  1.0  -0.3439
  N  N536  1  0.216300  0.530100  0.610000  1.0  -0.2771
  N  N537  1  0.995900  0.538300  0.514900  1.0  -0.2871
  N  N538  1  0.262200  0.929400  0.598760  1.0  -0.3535
  N  N539  1  0.433000  0.874100  0.502000  1.0  -0.2936
  N  N540  1  0.047100  0.932700  0.507100  1.0  -0.332
  N  N541  1  0.972100  0.132700  0.259700  1.0  -0.3483
  N  N542  1  0.030100  0.283700  0.360000  1.0  -0.277
  N  N543  1  0.038300  0.504100  0.264900  1.0  -0.2863
  N  N544  1  0.429400  0.237800  0.348760  1.0  -0.3555
  N  N545  1  0.374100  0.067000  0.252000  1.0  -0.2913
  N  N546  1  0.432700  0.452900  0.257100  1.0  -0.338
  N  N547  1  0.027900  0.867300  0.759700  1.0  -0.3529
  N  N548  1  0.969900  0.716300  0.860000  1.0  -0.2826
  N  N549  1  0.961700  0.495900  0.764900  1.0  -0.2881
  N  N550  1  0.570600  0.762200  0.848760  1.0  -0.3514
  N  N551  1  0.625900  0.933000  0.752000  1.0  -0.2896
  N  N552  1  0.567300  0.547100  0.757100  1.0  -0.3357
  N  N553  1  0.867300  0.027900  0.240300  1.0  -0.3438
  N  N554  1  0.716300  0.969900  0.140000  1.0  -0.2823
  N  N555  1  0.495900  0.961700  0.235100  1.0  -0.2855
  N  N556  1  0.762200  0.570600  0.151240  1.0  -0.3515
  N  N557  1  0.933000  0.625900  0.248000  1.0  -0.2932
  N  N558  1  0.547100  0.567300  0.242900  1.0  -0.3318
  N  N559  1  0.132700  0.972100  0.740300  1.0  -0.342
  N  N560  1  0.283700  0.030100  0.640000  1.0  -0.2816
  N  N561  1  0.504100  0.038300  0.735100  1.0  -0.2864
  N  N562  1  0.237800  0.429400  0.651240  1.0  -0.3544
  N  N563  1  0.067000  0.374100  0.748000  1.0  -0.2893
  N  N564  1  0.452900  0.432700  0.742900  1.0  -0.3311
  N  N565  1  0.527900  0.632700  0.990300  1.0  -0.3535
  N  N566  1  0.469900  0.783700  0.890000  1.0  -0.2767
  N  N567  1  0.461700  0.004100  0.985100  1.0  -0.2856
  N  N568  1  0.070600  0.737800  0.901240  1.0  -0.3524
  N  N569  1  0.125900  0.567000  0.998000  1.0  -0.2857
  N  N570  1  0.067300  0.952900  0.992900  1.0  -0.3327
  N  N571  1  0.472100  0.367300  0.490300  1.0  -0.3485
  N  N572  1  0.530100  0.216300  0.390000  1.0  -0.2722
  N  N573  1  0.538300  0.995900  0.485100  1.0  -0.2854
  N  N574  1  0.929400  0.262200  0.401240  1.0  -0.3557
  N  N575  1  0.874100  0.433000  0.498000  1.0  -0.2899
  N  N576  1  0.932700  0.047100  0.492900  1.0  -0.3356
  O  O577  1  0.774200  0.288600  0.040000  1.0  -0.9533
  O  O578  1  0.744700  0.359200  0.018560  1.0  -0.6109
  O  O579  1  0.690200  0.360400  0.038520  1.0  -0.6007
  O  O580  1  0.741300  0.334300  0.067600  1.0  -0.636
  O  O581  1  0.829100  0.330100  0.070750  1.0  -0.6001
  O  O582  1  0.889100  0.326100  0.043990  1.0  -0.5861
  O  O583  1  0.848600  0.333100  0.020130  1.0  -0.6419
  O  O584  1  0.718700  0.234100  0.064260  1.0  -0.583
  O  O585  1  0.802900  0.220800  0.065200  1.0  -0.6256
  O  O586  1  0.724500  0.248000  0.014000  1.0  -0.6076
  O  O587  1  0.681200  0.246300  0.036100  1.0  -0.591
  O  O588  1  0.827200  0.224100  0.016150  1.0  -0.6119
  O  O589  1  0.866200  0.212900  0.039430  1.0  -0.6075
  O  O590  1  0.225800  0.711400  0.540000  1.0  -0.9534
  O  O591  1  0.255300  0.640800  0.518560  1.0  -0.6098
  O  O592  1  0.309800  0.639600  0.538520  1.0  -0.6015
  O  O593  1  0.258700  0.665700  0.567600  1.0  -0.6333
  O  O594  1  0.170900  0.669900  0.570750  1.0  -0.5991
  O  O595  1  0.110900  0.673900  0.543990  1.0  -0.5843
  O  O596  1  0.151400  0.666900  0.520130  1.0  -0.6401
  O  O597  1  0.281300  0.765900  0.564260  1.0  -0.5842
  O  O598  1  0.197100  0.779200  0.565200  1.0  -0.6274
  O  O599  1  0.275500  0.752000  0.514000  1.0  -0.607
  O  O600  1  0.318800  0.753700  0.536100  1.0  -0.5888
  O  O601  1  0.172800  0.775900  0.516150  1.0  -0.6131
  O  O602  1  0.133800  0.787100  0.539430  1.0  -0.6072
  O  O603  1  0.211400  0.274200  0.290000  1.0  -0.9531
  O  O604  1  0.140800  0.244700  0.268560  1.0  -0.613
  O  O605  1  0.139600  0.190200  0.288520  1.0  -0.6022
  O  O606  1  0.165700  0.241300  0.317600  1.0  -0.6353
  O  O607  1  0.169900  0.329100  0.320750  1.0  -0.5963
  O  O608  1  0.173900  0.389100  0.293990  1.0  -0.5853
  O  O609  1  0.166900  0.348600  0.270130  1.0  -0.6412
  O  O610  1  0.265900  0.218700  0.314260  1.0  -0.5841
  O  O611  1  0.279200  0.302900  0.315200  1.0  -0.6306
  O  O612  1  0.252000  0.224500  0.264000  1.0  -0.6095
  O  O613  1  0.253700  0.181200  0.286100  1.0  -0.5906
  O  O614  1  0.275900  0.327200  0.266150  1.0  -0.6144
  O  O615  1  0.287100  0.366200  0.289430  1.0  -0.6075
  O  O616  1  0.788600  0.725800  0.790000  1.0  -0.9534
  O  O617  1  0.859200  0.755300  0.768560  1.0  -0.613
  O  O618  1  0.860400  0.809800  0.788520  1.0  -0.6014
  O  O619  1  0.834300  0.758700  0.817600  1.0  -0.6398
  O  O620  1  0.830100  0.670900  0.820750  1.0  -0.5986
  O  O621  1  0.826100  0.610900  0.793990  1.0  -0.584
  O  O622  1  0.833100  0.651400  0.770130  1.0  -0.6405
  O  O623  1  0.734100  0.781300  0.814260  1.0  -0.5824
  O  O624  1  0.720800  0.697100  0.815200  1.0  -0.6295
  O  O625  1  0.748000  0.775500  0.764000  1.0  -0.6085
  O  O626  1  0.746300  0.818800  0.786100  1.0  -0.5902
  O  O627  1  0.724100  0.672800  0.766150  1.0  -0.6138
  O  O628  1  0.712900  0.633800  0.789430  1.0  -0.6083
  O  O629  1  0.725800  0.788600  0.210000  1.0  -0.9529
  O  O630  1  0.755300  0.859200  0.231440  1.0  -0.6112
  O  O631  1  0.809800  0.860400  0.211480  1.0  -0.6023
  O  O632  1  0.758700  0.834300  0.182400  1.0  -0.6334
  O  O633  1  0.670900  0.830100  0.179250  1.0  -0.5985
  O  O634  1  0.610900  0.826100  0.206010  1.0  -0.5848
  O  O635  1  0.651400  0.833100  0.229870  1.0  -0.6432
  O  O636  1  0.781300  0.734100  0.185740  1.0  -0.584
  O  O637  1  0.697100  0.720800  0.184800  1.0  -0.6275
  O  O638  1  0.775500  0.748000  0.236000  1.0  -0.607
  O  O639  1  0.818800  0.746300  0.213900  1.0  -0.5889
  O  O640  1  0.672800  0.724100  0.233850  1.0  -0.6117
  O  O641  1  0.633800  0.712900  0.210570  1.0  -0.6091
  O  O642  1  0.274200  0.211400  0.710000  1.0  -0.9528
  O  O643  1  0.244700  0.140800  0.731440  1.0  -0.6116
  O  O644  1  0.190200  0.139600  0.711480  1.0  -0.6014
  O  O645  1  0.241300  0.165700  0.682400  1.0  -0.6359
  O  O646  1  0.329100  0.169900  0.679250  1.0  -0.5992
  O  O647  1  0.389100  0.173900  0.706010  1.0  -0.5845
  O  O648  1  0.348600  0.166900  0.729870  1.0  -0.6438
  O  O649  1  0.218700  0.265900  0.685740  1.0  -0.5834
  O  O650  1  0.302900  0.279200  0.684800  1.0  -0.6254
  O  O651  1  0.224500  0.252000  0.736000  1.0  -0.6074
  O  O652  1  0.181200  0.253700  0.713900  1.0  -0.5918
  O  O653  1  0.327200  0.275900  0.733850  1.0  -0.6117
  O  O654  1  0.366200  0.287100  0.710570  1.0  -0.607
  O  O655  1  0.288600  0.774200  0.960000  1.0  -0.9526
  O  O656  1  0.359200  0.744700  0.981440  1.0  -0.614
  O  O657  1  0.360400  0.690200  0.961480  1.0  -0.602
  O  O658  1  0.334300  0.741300  0.932400  1.0  -0.6344
  O  O659  1  0.330100  0.829100  0.929250  1.0  -0.596
  O  O660  1  0.326100  0.889100  0.956010  1.0  -0.584
  O  O661  1  0.333100  0.848600  0.979870  1.0  -0.6427
  O  O662  1  0.234100  0.718700  0.935740  1.0  -0.5832
  O  O663  1  0.220800  0.802900  0.934800  1.0  -0.631
  O  O664  1  0.248000  0.724500  0.986000  1.0  -0.6085
  O  O665  1  0.246300  0.681200  0.963900  1.0  -0.5911
  O  O666  1  0.224100  0.827200  0.983850  1.0  -0.6138
  O  O667  1  0.212900  0.866200  0.960570  1.0  -0.6086
  O  O668  1  0.711400  0.225800  0.460000  1.0  -0.953
  O  O669  1  0.640800  0.255300  0.481440  1.0  -0.6158
  O  O670  1  0.639600  0.309800  0.461480  1.0  -0.6027
  O  O671  1  0.665700  0.258700  0.432400  1.0  -0.6404
  O  O672  1  0.669900  0.170900  0.429250  1.0  -0.5983
  O  O673  1  0.673900  0.110900  0.456010  1.0  -0.5842
  O  O674  1  0.666900  0.151400  0.479870  1.0  -0.6434
  O  O675  1  0.765900  0.281300  0.435740  1.0  -0.5829
  O  O676  1  0.779200  0.197100  0.434800  1.0  -0.6281
  O  O677  1  0.752000  0.275500  0.486000  1.0  -0.6087
  O  O678  1  0.753700  0.318800  0.463900  1.0  -0.5905
  O  O679  1  0.775900  0.172800  0.483850  1.0  -0.6131
  O  O680  1  0.787100  0.133800  0.460570  1.0  -0.6071
