# generated using pymatgen
data_Co3H32C52(N5O8)2
_symmetry_space_group_name_H-M   'P 1'
_cell_length_a   10.04060000
_cell_length_b   11.21420000
_cell_length_c   14.31000000
_cell_angle_alpha   87.45400000
_cell_angle_beta   84.29600000
_cell_angle_gamma   68.86700000
_symmetry_Int_Tables_number   1
_chemical_formula_structural   Co3H32C52(N5O8)2
_chemical_formula_sum   'Co3 H32 C52 N10 O16'
_cell_volume   1495.39775141
_cell_formula_units_Z   1
loop_
 _symmetry_equiv_pos_site_id
 _symmetry_equiv_pos_as_xyz
  1  'x, y, z'
loop_
 _atom_site_type_symbol
 _atom_site_label
 _atom_site_symmetry_multiplicity
 _atom_site_fract_x
 _atom_site_fract_y
 _atom_site_fract_z
 _atom_site_occupancy
 _atom_site_charge
  Co  Co1  1  0.828730  0.063910  0.420170  1.0  0.9586
  Co  Co2  1  0.171270  0.936090  0.579830  1.0  0.9607
  Co  Co3  1  0.000000  0.500000  0.000000  1.0  0.7946
  H  H4  1  0.621300  0.953000  0.589500  1.0  0.0997
  H  H5  1  0.527200  0.730600  0.792500  1.0  0.1062
  H  H6  1  0.918000  0.758100  0.763900  1.0  0.103
  H  H7  1  0.095500  0.212900  0.977900  1.0  0.0801
  H  H8  1  0.258900  0.041300  0.896300  1.0  0.1247
  H  H9  1  0.432100  0.074400  0.788900  1.0  0.1198
  H  H10  1  0.243400  0.448800  0.837100  1.0  0.0944
  H  H11  1  0.614300  0.194700  0.581400  1.0  0.0855
  H  H12  1  0.853400  0.337600  0.416200  1.0  0.0903
  H  H13  1  0.591800  0.549100  0.625700  1.0  0.1093
  H  H14  1  0.048600  0.543700  0.275300  1.0  0.1208
  H  H15  1  0.138000  0.694000  0.208200  1.0  0.1252
  H  H16  1  0.052100  0.898400  0.265100  1.0  0.086
  H  H17  1  0.789700  0.810400  0.451200  1.0  0.0829
  H  H18  1  0.528500  0.215100  0.715900  1.0  0.3023
  H  H19  1  0.871000  0.505300  0.377800  1.0  0.2983
  H  H20  1  0.378700  0.047000  0.410500  1.0  0.1001
  H  H21  1  0.472800  0.269400  0.207500  1.0  0.1074
  H  H22  1  0.082000  0.241900  0.236100  1.0  0.1023
  H  H23  1  0.904500  0.787100  0.022100  1.0  0.082
  H  H24  1  0.741100  0.958700  0.103700  1.0  0.1244
  H  H25  1  0.567900  0.925600  0.211100  1.0  0.1192
  H  H26  1  0.756600  0.551200  0.162900  1.0  0.0966
  H  H27  1  0.385700  0.805300  0.418600  1.0  0.0858
  H  H28  1  0.146600  0.662400  0.583800  1.0  0.0903
  H  H29  1  0.408200  0.450900  0.374300  1.0  0.1093
  H  H30  1  0.951400  0.456300  0.724700  1.0  0.1202
  H  H31  1  0.862000  0.306000  0.791800  1.0  0.125
  H  H32  1  0.947900  0.101600  0.734900  1.0  0.0858
  H  H33  1  0.210300  0.189600  0.548800  1.0  0.0835
  H  H34  1  0.471500  0.784900  0.284100  1.0  0.3039
  H  H35  1  0.129000  0.494700  0.622200  1.0  0.2968
  C  C36  1  0.890700  0.916800  0.618600  1.0  0.6686
  C  C37  1  0.786500  0.865100  0.669000  1.0  -0.1643
  C  C38  1  0.648500  0.897300  0.640100  1.0  0.002
  C  C39  1  0.552300  0.847300  0.685800  1.0  -0.1477
  C  C40  1  0.406500  0.880700  0.651100  1.0  0.621
  C  C41  1  0.592600  0.763200  0.761200  1.0  0.0038
  C  C42  1  0.729300  0.727600  0.789800  1.0  -0.1616
  C  C43  1  0.777000  0.633000  0.869100  1.0  0.671
  C  C44  1  0.826700  0.780200  0.744000  1.0  0.0042
  C  C45  1  0.160800  0.227100  0.932100  1.0  0.1329
  C  C46  1  0.260200  0.123100  0.884600  1.0  -0.12
  C  C47  1  0.361100  0.142900  0.819600  1.0  -0.1106
  C  C48  1  0.354600  0.265900  0.801200  1.0  0.1471
  C  C49  1  0.248500  0.365400  0.850400  1.0  0.1125
  C  C50  1  0.468800  0.387500  0.693800  1.0  0.548
  C  C51  1  0.586000  0.373000  0.616200  1.0  -0.1809
  C  C52  1  0.644300  0.262700  0.564300  1.0  0.166
  C  C53  1  0.785100  0.346500  0.466900  1.0  0.1715
  C  C54  1  0.732000  0.461800  0.515000  1.0  -0.1508
  C  C55  1  0.629600  0.473600  0.591700  1.0  0.0225
  C  C56  1  0.782900  0.569000  0.488700  1.0  0.3668
  C  C57  1  0.909000  0.662400  0.371700  1.0  0.1185
  C  C58  1  0.014200  0.626900  0.297900  1.0  -0.1244
  C  C59  1  0.067200  0.716100  0.258100  1.0  -0.1319
  C  C60  1  0.015300  0.838600  0.292500  1.0  0.1565
  C  C61  1  0.861600  0.785900  0.402000  1.0  0.1423
  C  C62  1  0.109300  0.083200  0.381400  1.0  0.6671
  C  C63  1  0.213500  0.134900  0.331000  1.0  -0.1703
  C  C64  1  0.351500  0.102700  0.359900  1.0  0.002
  C  C65  1  0.447700  0.152700  0.314200  1.0  -0.144
  C  C66  1  0.593500  0.119300  0.348900  1.0  0.6239
  C  C67  1  0.407400  0.236800  0.238800  1.0  -0.0057
  C  C68  1  0.270700  0.272400  0.210200  1.0  -0.1611
  C  C69  1  0.223000  0.367000  0.130900  1.0  0.671
  C  C70  1  0.173300  0.219800  0.256000  1.0  0.0054
  C  C71  1  0.839200  0.772900  0.067900  1.0  0.1329
  C  C72  1  0.739800  0.876900  0.115400  1.0  -0.1243
  C  C73  1  0.638900  0.857100  0.180400  1.0  -0.1129
  C  C74  1  0.645400  0.734100  0.198800  1.0  0.1491
  C  C75  1  0.751500  0.634600  0.149600  1.0  0.1114
  C  C76  1  0.531200  0.612500  0.306200  1.0  0.5472
  C  C77  1  0.414000  0.627000  0.383800  1.0  -0.1825
  C  C78  1  0.355700  0.737300  0.435700  1.0  0.166
  C  C79  1  0.214900  0.653500  0.533100  1.0  0.1717
  C  C80  1  0.268000  0.538200  0.485000  1.0  -0.1512
  C  C81  1  0.370400  0.526400  0.408300  1.0  0.0241
  C  C82  1  0.217100  0.431000  0.511300  1.0  0.3663
  C  C83  1  0.091000  0.337600  0.628300  1.0  0.1184
  C  C84  1  0.985800  0.373100  0.702100  1.0  -0.1193
  C  C85  1  0.932800  0.283900  0.741900  1.0  -0.1334
  C  C86  1  0.984700  0.161400  0.707500  1.0  0.1597
  C  C87  1  0.138400  0.214100  0.598000  1.0  0.1417
  N  N88  1  0.154500  0.346100  0.915400  1.0  -0.309
  N  N89  1  0.459500  0.284300  0.733500  1.0  -0.3605
  N  N90  1  0.742900  0.247800  0.489800  1.0  -0.3192
  N  N91  1  0.853300  0.571200  0.412100  1.0  -0.3018
  N  N92  1  0.914300  0.874200  0.363700  1.0  -0.33
  N  N93  1  0.845500  0.653900  0.084600  1.0  -0.309
  N  N94  1  0.540500  0.715700  0.266500  1.0  -0.3616
  N  N95  1  0.257100  0.752200  0.510200  1.0  -0.319
  N  N96  1  0.146700  0.428800  0.587900  1.0  -0.3021
  N  N97  1  0.085700  0.125800  0.636300  1.0  -0.3296
  O  O98  1  0.852700  0.992800  0.551900  1.0  -0.6304
  O  O99  1  0.014500  0.881700  0.647100  1.0  -0.5917
  O  O100  1  0.907100  0.595700  0.883000  1.0  -0.6031
  O  O101  1  0.684500  0.599400  0.916500  1.0  -0.5929
  O  O102  1  0.381100  0.940100  0.574600  1.0  -0.5367
  O  O103  1  0.310000  0.849600  0.697700  1.0  -0.5571
  O  O104  1  0.656600  0.690300  0.492600  1.0  -0.4981
  O  O105  1  0.365400  0.492200  0.704500  1.0  -0.5131
  O  O106  1  0.147300  0.007200  0.448100  1.0  -0.6298
  O  O107  1  0.985500  0.118300  0.352900  1.0  -0.5942
  O  O108  1  0.092900  0.404300  0.117000  1.0  -0.6009
  O  O109  1  0.315500  0.400600  0.083500  1.0  -0.5939
  O  O110  1  0.618900  0.059900  0.425400  1.0  -0.5381
  O  O111  1  0.690000  0.150400  0.302300  1.0  -0.558
  O  O112  1  0.343400  0.309700  0.507400  1.0  -0.4984
  O  O113  1  0.634600  0.507800  0.295500  1.0  -0.5133
