# generated using pymatgen
data_Ti4Cd3H160C136BrN12O19
_symmetry_space_group_name_H-M   'P 1'
_cell_length_a   16.76220000
_cell_length_b   34.44190000
_cell_length_c   18.44730000
_cell_angle_alpha   90.00000000
_cell_angle_beta   90.00000000
_cell_angle_gamma   90.00000000
_symmetry_Int_Tables_number   1
_chemical_formula_structural   Ti4Cd3H160C136BrN12O19
_chemical_formula_sum   'Ti8 Cd6 H320 C272 Br2 N24 O38'
_cell_volume   10650.03242908
_cell_formula_units_Z   2
loop_
 _symmetry_equiv_pos_site_id
 _symmetry_equiv_pos_as_xyz
  1  'x, y, z'
loop_
 _atom_site_type_symbol
 _atom_site_label
 _atom_site_symmetry_multiplicity
 _atom_site_fract_x
 _atom_site_fract_y
 _atom_site_fract_z
 _atom_site_occupancy
 _atom_site_charge
  Ti  Ti1  1  0.346910  0.177750  0.829960  1.0  1.6635
  Ti  Ti2  1  0.224860  0.161740  0.672040  1.0  1.6889
  Ti  Ti3  1  0.653090  0.822250  0.829960  1.0  1.6713
  Ti  Ti4  1  0.775140  0.838260  0.672040  1.0  1.6828
  Ti  Ti5  1  0.846910  0.322250  0.170040  1.0  1.6635
  Ti  Ti6  1  0.724860  0.338260  0.327960  1.0  1.686
  Ti  Ti7  1  0.153090  0.677750  0.170040  1.0  1.6693
  Ti  Ti8  1  0.275140  0.661740  0.327960  1.0  1.686
  Cd  Cd9  1  0.377310  0.005810  0.250160  1.0  0.9982
  Cd  Cd10  1  0.622690  0.994190  0.250160  1.0  0.9983
  Cd  Cd11  1  0.877310  0.494190  0.749840  1.0  0.998
  Cd  Cd12  1  0.122690  0.505810  0.749840  1.0  0.9984
  Cd  Cd13  1  0.500000  0.000000  0.410600  1.0  0.9018
  Cd  Cd14  1  0.000000  0.500000  0.589400  1.0  0.8995
  H  H15  1  0.341300  0.052600  0.006800  1.0  0.1162
  H  H16  1  0.452800  0.126700  0.141100  1.0  0.106
  H  H17  1  0.522100  0.217200  0.147100  1.0  0.1108
  H  H18  1  0.534300  0.172100  0.151100  1.0  0.1164
  H  H19  1  0.450400  0.190100  0.167500  1.0  0.1039
  H  H20  1  0.576600  0.215800  0.018200  1.0  0.1038
  H  H21  1  0.535200  0.190000  0.959200  1.0  0.1038
  H  H22  1  0.585400  0.170500  0.020900  1.0  0.1109
  H  H23  1  0.446500  0.247200  0.050000  1.0  0.1092
  H  H24  1  0.371900  0.221400  0.067400  1.0  0.1108
  H  H25  1  0.406200  0.222700  0.988400  1.0  0.1046
  H  H26  1  0.377900  0.094600  0.849900  1.0  0.1176
  H  H27  1  0.307400  0.071000  0.884500  1.0  0.086
  H  H28  1  0.238400  0.138400  0.961100  1.0  0.0762
  H  H29  1  0.181100  0.079200  0.940600  1.0  0.0764
  H  H30  1  0.132700  0.095300  0.874400  1.0  0.0883
  H  H31  1  0.043100  0.093100  0.972000  1.0  0.0853
  H  H32  1  0.103400  0.114800  0.023000  1.0  0.0881
  H  H33  1  0.007400  0.158200  0.987400  1.0  0.0786
  H  H34  1  0.022000  0.148200  0.905500  1.0  0.0783
  H  H35  1  0.085200  0.207900  0.931900  1.0  0.0854
  H  H36  1  0.134200  0.188400  0.994800  1.0  0.0825
  H  H37  1  0.149600  0.169800  0.846300  1.0  0.0846
  H  H38  1  0.164200  0.246900  0.876700  1.0  0.07
  H  H39  1  0.190700  0.228400  0.803200  1.0  0.0779
  H  H40  1  0.179000  0.309700  0.836200  1.0  0.1068
  H  H41  1  0.396700  0.355200  0.802700  1.0  0.1064
  H  H42  1  0.582200  0.269500  0.873100  1.0  0.1092
  H  H43  1  0.501900  0.246800  0.883000  1.0  0.1047
  H  H44  1  0.513700  0.287200  0.920600  1.0  0.112
  H  H45  1  0.592400  0.326800  0.798400  1.0  0.1064
  H  H46  1  0.527400  0.347100  0.846500  1.0  0.1065
  H  H47  1  0.517200  0.345700  0.762000  1.0  0.1018
  H  H48  1  0.563100  0.268000  0.735700  1.0  0.1111
  H  H49  1  0.484600  0.284900  0.701900  1.0  0.1106
  H  H50  1  0.482300  0.245700  0.745100  1.0  0.1091
  H  H51  1  0.086200  0.428200  0.834400  1.0  0.0992
  H  H52  1  0.147200  0.369900  0.863900  1.0  0.1081
  H  H53  1  0.331400  0.396600  0.733700  1.0  0.1088
  H  H54  1  0.270400  0.454900  0.704200  1.0  0.1022
  H  H55  1  0.174900  0.077600  0.373800  1.0  0.1067
  H  H56  1  0.360400  0.050700  0.502300  1.0  0.1116
  H  H57  1  0.050500  0.185400  0.452000  1.0  0.1136
  H  H58  1  0.139000  0.181800  0.425300  1.0  0.1165
  H  H59  1  0.119500  0.179600  0.508300  1.0  0.1008
  H  H60  1  0.982300  0.125100  0.506700  1.0  0.1091
  H  H61  1  0.054200  0.120200  0.560300  1.0  0.0988
  H  H62  1  0.028800  0.085600  0.510000  1.0  0.1038
  H  H63  1  0.005100  0.127500  0.370100  1.0  0.1004
  H  H64  1  0.048100  0.087300  0.377400  1.0  0.1008
  H  H65  1  0.091800  0.122200  0.340000  1.0  0.1024
  H  H66  1  0.359500  0.156400  0.536500  1.0  0.0856
  H  H67  1  0.497800  0.153900  0.629400  1.0  0.0832
  H  H68  1  0.482000  0.124300  0.566000  1.0  0.0797
  H  H69  1  0.492300  0.173500  0.481700  1.0  0.0763
  H  H70  1  0.570700  0.171600  0.527800  1.0  0.0804
  H  H71  1  0.531900  0.236000  0.512500  1.0  0.0765
  H  H72  1  0.528800  0.225200  0.595400  1.0  0.0723
  H  H73  1  0.394100  0.225400  0.501800  1.0  0.0886
  H  H74  1  0.408700  0.256200  0.563200  1.0  0.0946
  H  H75  1  0.395300  0.206500  0.653400  1.0  0.0866
  H  H76  1  0.290100  0.246500  0.697200  1.0  0.093
  H  H77  1  0.301500  0.268500  0.623500  1.0  0.0948
  H  H78  1  0.208500  0.317800  0.630300  1.0  0.1113
  H  H79  1  0.976900  0.296500  0.670500  1.0  0.1392
  H  H80  1  0.000200  0.215400  0.801600  1.0  0.1117
  H  H81  1  0.040900  0.182500  0.756000  1.0  0.0989
  H  H82  1  0.949300  0.180400  0.772900  1.0  0.1004
  H  H83  1  0.924400  0.173600  0.639500  1.0  0.104
  H  H84  1  0.016100  0.177100  0.624200  1.0  0.1052
  H  H85  1  0.955900  0.205000  0.585000  1.0  0.1038
  H  H86  1  0.899400  0.258900  0.738300  1.0  0.1096
  H  H87  1  0.855900  0.221400  0.710900  1.0  0.1014
  H  H88  1  0.882800  0.253300  0.655400  1.0  0.1106
  H  H89  1  0.137000  0.434700  0.556200  1.0  0.1046
  H  H90  1  0.169700  0.370400  0.579500  1.0  0.1154
  H  H91  1  0.963400  0.356800  0.687400  1.0  0.1089
  H  H92  1  0.930700  0.421000  0.664200  1.0  0.0915
  H  H93  1  0.299700  0.081900  0.654100  1.0  0.1243
  H  H94  1  0.381500  0.082900  0.613100  1.0  0.0928
  H  H95  1  0.658700  0.947400  0.006800  1.0  0.1163
  H  H96  1  0.547200  0.873300  0.141100  1.0  0.1053
  H  H97  1  0.477900  0.782800  0.147100  1.0  0.1113
  H  H98  1  0.465700  0.827900  0.151100  1.0  0.1158
  H  H99  1  0.549600  0.809900  0.167500  1.0  0.1044
  H  H100  1  0.423400  0.784200  0.018200  1.0  0.1037
  H  H101  1  0.464800  0.810000  0.959200  1.0  0.1024
  H  H102  1  0.414600  0.829500  0.020900  1.0  0.1124
  H  H103  1  0.553500  0.752800  0.050000  1.0  0.1086
  H  H104  1  0.628100  0.778600  0.067400  1.0  0.1089
  H  H105  1  0.593800  0.777300  0.988400  1.0  0.1041
  H  H106  1  0.622100  0.905400  0.849900  1.0  0.1179
  H  H107  1  0.692600  0.929000  0.884500  1.0  0.0886
  H  H108  1  0.761600  0.861600  0.961100  1.0  0.0754
  H  H109  1  0.818900  0.920800  0.940600  1.0  0.0773
  H  H110  1  0.867300  0.904700  0.874400  1.0  0.0891
  H  H111  1  0.956900  0.906900  0.972000  1.0  0.0861
  H  H112  1  0.896600  0.885200  0.023000  1.0  0.0861
  H  H113  1  0.992600  0.841800  0.987400  1.0  0.0786
  H  H114  1  0.978000  0.851800  0.905500  1.0  0.0783
  H  H115  1  0.914800  0.792100  0.931900  1.0  0.0868
  H  H116  1  0.865800  0.811600  0.994800  1.0  0.0829
  H  H117  1  0.850400  0.830200  0.846300  1.0  0.0846
  H  H118  1  0.835800  0.753100  0.876700  1.0  0.0689
  H  H119  1  0.809300  0.771600  0.803200  1.0  0.0774
  H  H120  1  0.821000  0.690300  0.836200  1.0  0.1061
  H  H121  1  0.603300  0.644800  0.802700  1.0  0.1066
  H  H122  1  0.417800  0.730500  0.873100  1.0  0.1088
  H  H123  1  0.498100  0.753200  0.883000  1.0  0.1032
  H  H124  1  0.486300  0.712800  0.920600  1.0  0.1126
  H  H125  1  0.407600  0.673200  0.798400  1.0  0.1071
  H  H126  1  0.472600  0.652900  0.846500  1.0  0.1074
  H  H127  1  0.482800  0.654300  0.762000  1.0  0.1019
  H  H128  1  0.436900  0.732000  0.735700  1.0  0.1102
  H  H129  1  0.515400  0.715100  0.701900  1.0  0.11
  H  H130  1  0.517700  0.754300  0.745100  1.0  0.1069
  H  H131  1  0.913800  0.571800  0.834400  1.0  0.0992
  H  H132  1  0.852800  0.630100  0.863900  1.0  0.1082
  H  H133  1  0.668600  0.603400  0.733700  1.0  0.1095
  H  H134  1  0.729600  0.545100  0.704200  1.0  0.1013
  H  H135  1  0.825100  0.922400  0.373800  1.0  0.107
  H  H136  1  0.639600  0.949300  0.502300  1.0  0.1104
  H  H137  1  0.949500  0.814600  0.452000  1.0  0.114
  H  H138  1  0.861000  0.818200  0.425300  1.0  0.1144
  H  H139  1  0.880500  0.820400  0.508300  1.0  0.1006
  H  H140  1  0.017700  0.874900  0.506700  1.0  0.1079
  H  H141  1  0.945800  0.879800  0.560300  1.0  0.0985
  H  H142  1  0.971200  0.914400  0.510000  1.0  0.1047
  H  H143  1  0.994900  0.872500  0.370100  1.0  0.1026
  H  H144  1  0.951900  0.912700  0.377400  1.0  0.1009
  H  H145  1  0.908200  0.877800  0.340000  1.0  0.1035
  H  H146  1  0.640500  0.843600  0.536500  1.0  0.085
  H  H147  1  0.502200  0.846100  0.629400  1.0  0.0841
  H  H148  1  0.518000  0.875700  0.566000  1.0  0.0785
  H  H149  1  0.507700  0.826500  0.481700  1.0  0.0768
  H  H150  1  0.429300  0.828400  0.527800  1.0  0.0815
  H  H151  1  0.468100  0.764000  0.512500  1.0  0.0761
  H  H152  1  0.471200  0.774800  0.595400  1.0  0.0738
  H  H153  1  0.605900  0.774600  0.501800  1.0  0.0873
  H  H154  1  0.591300  0.743800  0.563200  1.0  0.0928
  H  H155  1  0.604700  0.793500  0.653400  1.0  0.086
  H  H156  1  0.709900  0.753500  0.697200  1.0  0.0933
  H  H157  1  0.698500  0.731500  0.623500  1.0  0.0943
  H  H158  1  0.791500  0.682200  0.630300  1.0  0.1098
  H  H159  1  0.023100  0.703500  0.670500  1.0  0.1409
  H  H160  1  0.999800  0.784600  0.801600  1.0  0.1103
  H  H161  1  0.959100  0.817500  0.756000  1.0  0.0996
  H  H162  1  0.050700  0.819600  0.772900  1.0  0.0978
  H  H163  1  0.075600  0.826400  0.639500  1.0  0.104
  H  H164  1  0.983900  0.822900  0.624200  1.0  0.1049
  H  H165  1  0.044100  0.795000  0.585000  1.0  0.1042
  H  H166  1  0.100600  0.741100  0.738300  1.0  0.1093
  H  H167  1  0.144100  0.778600  0.710900  1.0  0.1009
  H  H168  1  0.117200  0.746700  0.655400  1.0  0.1108
  H  H169  1  0.863000  0.565300  0.556200  1.0  0.1037
  H  H170  1  0.830300  0.629600  0.579500  1.0  0.1144
  H  H171  1  0.036600  0.643200  0.687400  1.0  0.1092
  H  H172  1  0.069300  0.579000  0.664200  1.0  0.0917
  H  H173  1  0.700300  0.918100  0.654100  1.0  0.124
  H  H174  1  0.618500  0.917100  0.613100  1.0  0.096
  H  H175  1  0.841300  0.447400  0.993200  1.0  0.1166
  H  H176  1  0.952800  0.373300  0.858900  1.0  0.1064
  H  H177  1  0.022100  0.282800  0.852900  1.0  0.1095
  H  H178  1  0.034300  0.327900  0.848900  1.0  0.1162
  H  H179  1  0.950400  0.309900  0.832500  1.0  0.1051
  H  H180  1  0.076600  0.284200  0.981800  1.0  0.1036
  H  H181  1  0.035200  0.310000  0.040800  1.0  0.1027
  H  H182  1  0.085400  0.329500  0.979100  1.0  0.11
  H  H183  1  0.946500  0.252800  0.950000  1.0  0.1079
  H  H184  1  0.871900  0.278600  0.932600  1.0  0.108
  H  H185  1  0.906200  0.277300  0.011600  1.0  0.1047
  H  H186  1  0.877900  0.405400  0.150100  1.0  0.1174
  H  H187  1  0.807400  0.429000  0.115500  1.0  0.0878
  H  H188  1  0.738400  0.361600  0.038900  1.0  0.0764
  H  H189  1  0.681100  0.420800  0.059400  1.0  0.0785
  H  H190  1  0.632700  0.404700  0.125600  1.0  0.0876
  H  H191  1  0.543100  0.406900  0.028000  1.0  0.0854
  H  H192  1  0.603400  0.385200  0.977000  1.0  0.0879
  H  H193  1  0.507400  0.341800  0.012600  1.0  0.0793
  H  H194  1  0.522000  0.351800  0.094500  1.0  0.0779
  H  H195  1  0.585200  0.292100  0.068100  1.0  0.085
  H  H196  1  0.634200  0.311600  0.005200  1.0  0.0821
  H  H197  1  0.649600  0.330200  0.153700  1.0  0.0842
  H  H198  1  0.664200  0.253100  0.123300  1.0  0.0691
  H  H199  1  0.690700  0.271600  0.196800  1.0  0.0775
  H  H200  1  0.679000  0.190300  0.163800  1.0  0.106
  H  H201  1  0.896700  0.144800  0.197300  1.0  0.1066
  H  H202  1  0.082200  0.230500  0.126900  1.0  0.1099
  H  H203  1  0.001900  0.253200  0.117000  1.0  0.1043
  H  H204  1  0.013700  0.212800  0.079400  1.0  0.1123
  H  H205  1  0.092400  0.173200  0.201600  1.0  0.1059
  H  H206  1  0.027400  0.152900  0.153500  1.0  0.1066
  H  H207  1  0.017200  0.154300  0.238000  1.0  0.102
  H  H208  1  0.063100  0.232000  0.264300  1.0  0.1114
  H  H209  1  0.984600  0.215100  0.298100  1.0  0.1099
  H  H210  1  0.982300  0.254300  0.254900  1.0  0.1057
  H  H211  1  0.586200  0.071800  0.165600  1.0  0.099
  H  H212  1  0.647200  0.130100  0.136100  1.0  0.1076
  H  H213  1  0.831400  0.103400  0.266300  1.0  0.1091
  H  H214  1  0.770400  0.045100  0.295800  1.0  0.1017
  H  H215  1  0.674900  0.422400  0.626200  1.0  0.1061
  H  H216  1  0.860400  0.449300  0.497700  1.0  0.1105
  H  H217  1  0.550500  0.314600  0.548000  1.0  0.1139
  H  H218  1  0.639000  0.318200  0.574700  1.0  0.1148
  H  H219  1  0.619500  0.320400  0.491700  1.0  0.1009
  H  H220  1  0.482300  0.374900  0.493300  1.0  0.1081
  H  H221  1  0.554200  0.379800  0.439700  1.0  0.1001
  H  H222  1  0.528800  0.414400  0.490000  1.0  0.1068
  H  H223  1  0.505100  0.372500  0.629900  1.0  0.1007
  H  H224  1  0.548100  0.412700  0.622600  1.0  0.1006
  H  H225  1  0.591800  0.377800  0.660000  1.0  0.1028
  H  H226  1  0.859500  0.343600  0.463500  1.0  0.0844
  H  H227  1  0.997800  0.346100  0.370600  1.0  0.0847
  H  H228  1  0.982000  0.375700  0.434000  1.0  0.0788
  H  H229  1  0.992300  0.326500  0.518300  1.0  0.075
  H  H230  1  0.070700  0.328400  0.472200  1.0  0.0818
  H  H231  1  0.031900  0.264000  0.487500  1.0  0.0759
  H  H232  1  0.028800  0.274800  0.404600  1.0  0.0726
  H  H233  1  0.894100  0.274600  0.498200  1.0  0.0891
  H  H234  1  0.908700  0.243800  0.436800  1.0  0.0928
  H  H235  1  0.895300  0.293500  0.346600  1.0  0.0865
  H  H236  1  0.790100  0.253500  0.302800  1.0  0.0928
  H  H237  1  0.801500  0.231500  0.376500  1.0  0.0943
  H  H238  1  0.708500  0.182200  0.369700  1.0  0.1112
  H  H239  1  0.476900  0.203500  0.329500  1.0  0.1391
  H  H240  1  0.500200  0.284600  0.198400  1.0  0.1122
  H  H241  1  0.540900  0.317500  0.244000  1.0  0.0988
  H  H242  1  0.449300  0.319600  0.227100  1.0  0.1001
  H  H243  1  0.424400  0.326400  0.360500  1.0  0.1047
  H  H244  1  0.516100  0.322900  0.375800  1.0  0.105
  H  H245  1  0.455900  0.295000  0.415000  1.0  0.1041
  H  H246  1  0.399400  0.241100  0.261700  1.0  0.1094
  H  H247  1  0.355900  0.278600  0.289100  1.0  0.1014
  H  H248  1  0.382800  0.246700  0.344600  1.0  0.1117
  H  H249  1  0.637000  0.065300  0.443800  1.0  0.1042
  H  H250  1  0.669700  0.129600  0.420500  1.0  0.1148
  H  H251  1  0.463400  0.143200  0.312600  1.0  0.1085
  H  H252  1  0.430700  0.079000  0.335800  1.0  0.092
  H  H253  1  0.799700  0.418100  0.345900  1.0  0.123
  H  H254  1  0.881500  0.417100  0.386900  1.0  0.0951
  H  H255  1  0.158700  0.552600  0.993200  1.0  0.1169
  H  H256  1  0.047200  0.626700  0.858900  1.0  0.1061
  H  H257  1  0.977900  0.717200  0.852900  1.0  0.11
  H  H258  1  0.965700  0.672100  0.848900  1.0  0.1155
  H  H259  1  0.049600  0.690100  0.832500  1.0  0.1058
  H  H260  1  0.923400  0.715800  0.981800  1.0  0.1044
  H  H261  1  0.964800  0.690000  0.040800  1.0  0.1036
  H  H262  1  0.914600  0.670500  0.979100  1.0  0.1119
  H  H263  1  0.053500  0.747200  0.950000  1.0  0.1095
  H  H264  1  0.128100  0.721400  0.932600  1.0  0.1103
  H  H265  1  0.093800  0.722700  0.011600  1.0  0.1037
  H  H266  1  0.122100  0.594600  0.150100  1.0  0.1174
  H  H267  1  0.192600  0.571000  0.115500  1.0  0.0851
  H  H268  1  0.261600  0.638400  0.038900  1.0  0.0753
  H  H269  1  0.318900  0.579200  0.059400  1.0  0.0778
  H  H270  1  0.367300  0.595300  0.125600  1.0  0.0873
  H  H271  1  0.456900  0.593100  0.028000  1.0  0.0866
  H  H272  1  0.396600  0.614800  0.977000  1.0  0.0886
  H  H273  1  0.492600  0.658200  0.012600  1.0  0.08
  H  H274  1  0.478000  0.648200  0.094500  1.0  0.0765
  H  H275  1  0.414800  0.707900  0.068100  1.0  0.0844
  H  H276  1  0.365800  0.688400  0.005200  1.0  0.0814
  H  H277  1  0.350400  0.669800  0.153700  1.0  0.0836
  H  H278  1  0.335800  0.746900  0.123300  1.0  0.0687
  H  H279  1  0.309300  0.728400  0.196800  1.0  0.0768
  H  H280  1  0.321000  0.809700  0.163800  1.0  0.105
  H  H281  1  0.103300  0.855200  0.197300  1.0  0.1071
  H  H282  1  0.917800  0.769500  0.126900  1.0  0.1089
  H  H283  1  0.998100  0.746800  0.117000  1.0  0.1032
  H  H284  1  0.986300  0.787200  0.079400  1.0  0.113
  H  H285  1  0.907600  0.826800  0.201600  1.0  0.1073
  H  H286  1  0.972600  0.847100  0.153500  1.0  0.1065
  H  H287  1  0.982800  0.845700  0.238000  1.0  0.1024
  H  H288  1  0.936900  0.768000  0.264300  1.0  0.1092
  H  H289  1  0.015400  0.784900  0.298100  1.0  0.1091
  H  H290  1  0.017700  0.745700  0.254900  1.0  0.1057
  H  H291  1  0.413800  0.928200  0.165600  1.0  0.0985
  H  H292  1  0.352800  0.869900  0.136100  1.0  0.1077
  H  H293  1  0.168600  0.896600  0.266300  1.0  0.1091
  H  H294  1  0.229600  0.954900  0.295800  1.0  0.1015
  H  H295  1  0.325100  0.577600  0.626200  1.0  0.1064
  H  H296  1  0.139600  0.550700  0.497700  1.0  0.111
  H  H297  1  0.449500  0.685400  0.548000  1.0  0.1145
  H  H298  1  0.361000  0.681800  0.574700  1.0  0.1151
  H  H299  1  0.380500  0.679600  0.491700  1.0  0.1005
  H  H300  1  0.517700  0.625100  0.493300  1.0  0.107
  H  H301  1  0.445800  0.620200  0.439700  1.0  0.1001
  H  H302  1  0.471200  0.585600  0.490000  1.0  0.1053
  H  H303  1  0.494900  0.627500  0.629900  1.0  0.1014
  H  H304  1  0.451900  0.587300  0.622600  1.0  0.1021
  H  H305  1  0.408200  0.622200  0.660000  1.0  0.1038
  H  H306  1  0.140500  0.656400  0.463500  1.0  0.0848
  H  H307  1  0.002200  0.653900  0.370600  1.0  0.0839
  H  H308  1  0.018000  0.624300  0.434000  1.0  0.0792
  H  H309  1  0.007700  0.673500  0.518300  1.0  0.0755
  H  H310  1  0.929300  0.671600  0.472200  1.0  0.0796
  H  H311  1  0.968100  0.736000  0.487500  1.0  0.076
  H  H312  1  0.971200  0.725200  0.404600  1.0  0.0743
  H  H313  1  0.105900  0.725400  0.498200  1.0  0.0878
  H  H314  1  0.091300  0.756200  0.436800  1.0  0.0942
  H  H315  1  0.104700  0.706500  0.346600  1.0  0.0867
  H  H316  1  0.209900  0.746500  0.302800  1.0  0.0937
  H  H317  1  0.198500  0.768500  0.376500  1.0  0.0927
  H  H318  1  0.291500  0.817800  0.369700  1.0  0.1113
  H  H319  1  0.523100  0.796500  0.329500  1.0  0.1407
  H  H320  1  0.499800  0.715400  0.198400  1.0  0.111
  H  H321  1  0.459100  0.682500  0.244000  1.0  0.1001
  H  H322  1  0.550700  0.680400  0.227100  1.0  0.0978
  H  H323  1  0.575600  0.673600  0.360500  1.0  0.1032
  H  H324  1  0.483900  0.677100  0.375800  1.0  0.1057
  H  H325  1  0.544100  0.705000  0.415000  1.0  0.1047
  H  H326  1  0.600600  0.758900  0.261700  1.0  0.1089
  H  H327  1  0.644100  0.721400  0.289100  1.0  0.101
  H  H328  1  0.617200  0.753300  0.344600  1.0  0.1112
  H  H329  1  0.363000  0.934700  0.443800  1.0  0.1047
  H  H330  1  0.330300  0.870400  0.420500  1.0  0.1147
  H  H331  1  0.536600  0.856800  0.312600  1.0  0.1094
  H  H332  1  0.569300  0.921000  0.335800  1.0  0.0918
  H  H333  1  0.200300  0.581900  0.345900  1.0  0.1226
  H  H334  1  0.118500  0.582900  0.386900  1.0  0.0964
  C  C335  1  0.393000  0.056100  0.141700  1.0  0.6935
  C  C336  1  0.396600  0.085130  0.083000  1.0  -0.1597
  C  C337  1  0.364700  0.076680  0.015300  1.0  -0.0884
  C  C338  1  0.367700  0.104200  0.960200  1.0  0.0568
  C  C339  1  0.402700  0.140170  0.973000  1.0  0.2379
  C  C340  1  0.434500  0.148610  0.040700  1.0  -0.0009
  C  C341  1  0.431500  0.121100  0.095700  1.0  -0.1559
  C  C342  1  0.475100  0.188900  0.056800  1.0  0.1111
  C  C343  1  0.497600  0.192400  0.138500  1.0  -0.3894
  C  C344  1  0.550100  0.191500  0.009300  1.0  -0.3785
  C  C345  1  0.419700  0.223300  0.038900  1.0  -0.3751
  C  C346  1  0.334400  0.095900  0.884400  1.0  -0.0261
  C  C347  1  0.213800  0.134700  0.913400  1.0  0.0211
  C  C348  1  0.154100  0.101900  0.921600  1.0  -0.157
  C  C349  1  0.083700  0.113200  0.973600  1.0  -0.1093
  C  C350  1  0.047900  0.151100  0.952300  1.0  -0.1217
  C  C351  1  0.110600  0.184000  0.947500  1.0  -0.1562
  C  C352  1  0.174500  0.172600  0.894100  1.0  0.0218
  C  C353  1  0.209800  0.236800  0.850300  1.0  -0.1239
  C  C354  1  0.267500  0.269870  0.838500  1.0  0.0756
  C  C355  1  0.233900  0.306600  0.831700  1.0  -0.1401
  C  C356  1  0.282300  0.338560  0.818300  1.0  0.0233
  C  C357  1  0.364300  0.333820  0.811600  1.0  -0.1338
  C  C358  1  0.397900  0.297100  0.818400  1.0  0.0025
  C  C359  1  0.349600  0.265130  0.831800  1.0  0.277
  C  C360  1  0.490800  0.292600  0.810400  1.0  0.1492
  C  C361  1  0.525400  0.272100  0.878200  1.0  -0.396
  C  C362  1  0.536300  0.331800  0.803700  1.0  -0.3867
  C  C363  1  0.506600  0.270900  0.742200  1.0  -0.381
  C  C364  1  0.135400  0.421900  0.814200  1.0  0.1715
  C  C365  1  0.171900  0.386900  0.831900  1.0  -0.1238
  C  C366  1  0.245400  0.377400  0.801700  1.0  0.0297
  C  C367  1  0.282300  0.402900  0.753900  1.0  -0.1218
  C  C368  1  0.245700  0.437900  0.736200  1.0  0.1485
  C  C369  1  0.307400  0.033600  0.371000  1.0  0.6525
  C  C370  1  0.272200  0.059860  0.429500  1.0  -0.1481
  C  C371  1  0.202900  0.081000  0.416900  1.0  -0.1145
  C  C372  1  0.175500  0.107100  0.468600  1.0  -0.0042
  C  C373  1  0.217300  0.112110  0.533000  1.0  0.2632
  C  C374  1  0.286600  0.091000  0.545600  1.0  0.0923
  C  C375  1  0.314000  0.064900  0.493900  1.0  -0.0616
  C  C376  1  0.091000  0.128000  0.454600  1.0  0.0509
  C  C377  1  0.101000  0.173100  0.460600  1.0  -0.3682
  C  C378  1  0.033700  0.113300  0.513400  1.0  -0.372
  C  C379  1  0.055400  0.115000  0.377800  1.0  -0.3505
  C  C380  1  0.383000  0.160800  0.584400  1.0  -0.0165
  C  C381  1  0.474500  0.151000  0.581500  1.0  -0.1283
  C  C382  1  0.514300  0.177900  0.529700  1.0  -0.1365
  C  C383  1  0.505200  0.220000  0.548400  1.0  -0.1392
  C  C384  1  0.416400  0.229200  0.549800  1.0  -0.1737
  C  C385  1  0.371900  0.202500  0.605300  1.0  -0.0207
  C  C386  1  0.270400  0.248700  0.648000  1.0  -0.1184
  C  C387  1  0.184800  0.261180  0.650000  1.0  0.0733
  C  C388  1  0.167800  0.300400  0.641300  1.0  -0.0797
  C  C389  1  0.089900  0.313640  0.648900  1.0  0.0034
  C  C390  1  0.029000  0.287660  0.665300  1.0  -0.1124
  C  C391  1  0.046100  0.248440  0.674100  1.0  0.008
  C  C392  1  0.124000  0.235200  0.666400  1.0  0.236
  C  C393  1  0.975000  0.220400  0.691400  1.0  0.1412
  C  C394  1  0.993100  0.197500  0.762200  1.0  -0.3931
  C  C395  1  0.967100  0.191300  0.629300  1.0  -0.3794
  C  C396  1  0.896200  0.240300  0.699800  1.0  -0.3648
  C  C397  1  0.102200  0.419070  0.582500  1.0  0.1622
  C  C398  1  0.121800  0.380600  0.596500  1.0  -0.0858
  C  C399  1  0.069800  0.357230  0.635800  1.0  -0.0089
  C  C400  1  0.998200  0.372400  0.661100  1.0  -0.0823
  C  C401  1  0.978600  0.410900  0.647200  1.0  0.1556
  C  C402  1  0.329600  0.095200  0.616700  1.0  -0.058
  C  C403  1  0.607000  0.943900  0.141700  1.0  0.6941
  C  C404  1  0.603400  0.914870  0.083000  1.0  -0.1609
  C  C405  1  0.635300  0.923320  0.015300  1.0  -0.0854
  C  C406  1  0.632300  0.895800  0.960200  1.0  0.0556
  C  C407  1  0.597300  0.859830  0.973000  1.0  0.2382
  C  C408  1  0.565500  0.851390  0.040700  1.0  -0.0017
  C  C409  1  0.568500  0.878900  0.095700  1.0  -0.1559
  C  C410  1  0.524900  0.811100  0.056800  1.0  0.1118
  C  C411  1  0.502400  0.807600  0.138500  1.0  -0.3876
  C  C412  1  0.449900  0.808500  0.009300  1.0  -0.3791
  C  C413  1  0.580300  0.776700  0.038900  1.0  -0.3735
  C  C414  1  0.665600  0.904100  0.884400  1.0  -0.0249
  C  C415  1  0.786200  0.865300  0.913400  1.0  0.0198
  C  C416  1  0.845900  0.898100  0.921600  1.0  -0.1619
  C  C417  1  0.916300  0.886800  0.973600  1.0  -0.118
  C  C418  1  0.952100  0.848900  0.952300  1.0  -0.1213
  C  C419  1  0.889400  0.816000  0.947500  1.0  -0.1561
  C  C420  1  0.825500  0.827400  0.894100  1.0  0.0216
  C  C421  1  0.790200  0.763200  0.850300  1.0  -0.124
  C  C422  1  0.732500  0.730130  0.838500  1.0  0.0732
  C  C423  1  0.766100  0.693400  0.831700  1.0  -0.1394
  C  C424  1  0.717700  0.661440  0.818300  1.0  0.0241
  C  C425  1  0.635700  0.666180  0.811600  1.0  -0.1349
  C  C426  1  0.602100  0.702900  0.818400  1.0  0.0054
  C  C427  1  0.650400  0.734870  0.831800  1.0  0.2765
  C  C428  1  0.509200  0.707400  0.810400  1.0  0.1492
  C  C429  1  0.474600  0.727900  0.878200  1.0  -0.3953
  C  C430  1  0.463700  0.668200  0.803700  1.0  -0.386
  C  C431  1  0.493400  0.729100  0.742200  1.0  -0.3803
  C  C432  1  0.864600  0.578100  0.814200  1.0  0.1718
  C  C433  1  0.828100  0.613100  0.831900  1.0  -0.1257
  C  C434  1  0.754600  0.622600  0.801700  1.0  0.0301
  C  C435  1  0.717700  0.597100  0.753900  1.0  -0.122
  C  C436  1  0.754300  0.562100  0.736200  1.0  0.1496
  C  C437  1  0.692600  0.966400  0.371000  1.0  0.6529
  C  C438  1  0.727800  0.940140  0.429500  1.0  -0.1468
  C  C439  1  0.797100  0.919000  0.416900  1.0  -0.1146
  C  C440  1  0.824500  0.892900  0.468600  1.0  -0.0035
  C  C441  1  0.782700  0.887890  0.533000  1.0  0.2642
  C  C442  1  0.713400  0.909000  0.545600  1.0  0.0933
  C  C443  1  0.686000  0.935100  0.493900  1.0  -0.0653
  C  C444  1  0.909000  0.872000  0.454600  1.0  0.0501
  C  C445  1  0.899000  0.826900  0.460600  1.0  -0.3663
  C  C446  1  0.966300  0.886700  0.513400  1.0  -0.3707
  C  C447  1  0.944600  0.885000  0.377800  1.0  -0.3498
  C  C448  1  0.617000  0.839200  0.584400  1.0  -0.0143
  C  C449  1  0.525500  0.849000  0.581500  1.0  -0.1296
  C  C450  1  0.485700  0.822100  0.529700  1.0  -0.1355
  C  C451  1  0.494800  0.780000  0.548400  1.0  -0.1376
  C  C452  1  0.583600  0.770800  0.549800  1.0  -0.1738
  C  C453  1  0.628100  0.797500  0.605300  1.0  -0.0196
  C  C454  1  0.729600  0.751300  0.648000  1.0  -0.1181
  C  C455  1  0.815200  0.738820  0.650000  1.0  0.0713
  C  C456  1  0.832200  0.699600  0.641300  1.0  -0.0821
  C  C457  1  0.910100  0.686360  0.648900  1.0  0.002
  C  C458  1  0.971000  0.712340  0.665300  1.0  -0.1113
  C  C459  1  0.953900  0.751560  0.674100  1.0  0.0091
  C  C460  1  0.876000  0.764800  0.666400  1.0  0.2362
  C  C461  1  0.025000  0.779600  0.691400  1.0  0.1431
  C  C462  1  0.006900  0.802500  0.762200  1.0  -0.3923
  C  C463  1  0.032900  0.808700  0.629300  1.0  -0.3813
  C  C464  1  0.103800  0.759700  0.699800  1.0  -0.3634
  C  C465  1  0.897800  0.580930  0.582500  1.0  0.1628
  C  C466  1  0.878200  0.619400  0.596500  1.0  -0.0859
  C  C467  1  0.930200  0.642770  0.635800  1.0  -0.0092
  C  C468  1  0.001800  0.627600  0.661100  1.0  -0.0825
  C  C469  1  0.021400  0.589100  0.647200  1.0  0.155
  C  C470  1  0.670400  0.904800  0.616700  1.0  -0.0631
  C  C471  1  0.893000  0.443900  0.858300  1.0  0.6929
  C  C472  1  0.896600  0.414870  0.917000  1.0  -0.1586
  C  C473  1  0.864700  0.423320  0.984700  1.0  -0.087
  C  C474  1  0.867700  0.395800  0.039800  1.0  0.0559
  C  C475  1  0.902700  0.359830  0.027000  1.0  0.2386
  C  C476  1  0.934500  0.351390  0.959300  1.0  -0.0008
  C  C477  1  0.931500  0.378900  0.904300  1.0  -0.1561
  C  C478  1  0.975100  0.311100  0.943200  1.0  0.1112
  C  C479  1  0.997600  0.307600  0.861500  1.0  -0.3891
  C  C480  1  0.050100  0.308500  0.990700  1.0  -0.3777
  C  C481  1  0.919700  0.276700  0.961100  1.0  -0.3752
  C  C482  1  0.834400  0.404100  0.115600  1.0  -0.0273
  C  C483  1  0.713800  0.365300  0.086600  1.0  0.0248
  C  C484  1  0.654100  0.398100  0.078400  1.0  -0.1623
  C  C485  1  0.583700  0.386800  0.026400  1.0  -0.1148
  C  C486  1  0.547900  0.348900  0.047700  1.0  -0.1218
  C  C487  1  0.610600  0.316000  0.052500  1.0  -0.156
  C  C488  1  0.674500  0.327400  0.105900  1.0  0.0216
  C  C489  1  0.709800  0.263200  0.149700  1.0  -0.1229
  C  C490  1  0.767500  0.230130  0.161500  1.0  0.0745
  C  C491  1  0.733900  0.193400  0.168300  1.0  -0.1403
  C  C492  1  0.782300  0.161440  0.181700  1.0  0.0241
  C  C493  1  0.864300  0.166180  0.188400  1.0  -0.1341
  C  C494  1  0.897900  0.202900  0.181600  1.0  0.0016
  C  C495  1  0.849600  0.234870  0.168200  1.0  0.2769
  C  C496  1  0.990800  0.207400  0.189600  1.0  0.1493
  C  C497  1  0.025400  0.227900  0.121800  1.0  -0.3954
  C  C498  1  0.036300  0.168200  0.196300  1.0  -0.3869
  C  C499  1  0.006600  0.229100  0.257800  1.0  -0.3839
  C  C500  1  0.635400  0.078100  0.185800  1.0  0.1727
  C  C501  1  0.671900  0.113100  0.168100  1.0  -0.1243
  C  C502  1  0.745400  0.122600  0.198300  1.0  0.0292
  C  C503  1  0.782300  0.097100  0.246100  1.0  -0.1211
  C  C504  1  0.745700  0.062100  0.263800  1.0  0.1484
  C  C505  1  0.807400  0.466400  0.629000  1.0  0.6536
  C  C506  1  0.772200  0.440140  0.570500  1.0  -0.1465
  C  C507  1  0.702900  0.419000  0.583100  1.0  -0.1143
  C  C508  1  0.675500  0.392900  0.531400  1.0  -0.0042
  C  C509  1  0.717300  0.387890  0.467000  1.0  0.2636
  C  C510  1  0.786600  0.409000  0.454400  1.0  0.0922
  C  C511  1  0.814000  0.435100  0.506100  1.0  -0.0624
  C  C512  1  0.591000  0.372000  0.545400  1.0  0.0503
  C  C513  1  0.601000  0.326900  0.539400  1.0  -0.3667
  C  C514  1  0.533700  0.386700  0.486600  1.0  -0.3705
  C  C515  1  0.555400  0.385000  0.622200  1.0  -0.3506
  C  C516  1  0.883000  0.339200  0.415600  1.0  -0.0156
  C  C517  1  0.974500  0.349000  0.418500  1.0  -0.1289
  C  C518  1  0.014300  0.322100  0.470300  1.0  -0.1378
  C  C519  1  0.005200  0.280000  0.451600  1.0  -0.1394
  C  C520  1  0.916400  0.270800  0.450200  1.0  -0.1732
  C  C521  1  0.871900  0.297500  0.394700  1.0  -0.0201
  C  C522  1  0.770400  0.251300  0.352000  1.0  -0.1209
  C  C523  1  0.684800  0.238820  0.350000  1.0  0.0738
  C  C524  1  0.667800  0.199600  0.358700  1.0  -0.0803
  C  C525  1  0.589900  0.186360  0.351100  1.0  0.0032
  C  C526  1  0.529000  0.212340  0.334700  1.0  -0.1115
  C  C527  1  0.546100  0.251560  0.325900  1.0  0.008
  C  C528  1  0.624000  0.264800  0.333600  1.0  0.2357
  C  C529  1  0.475000  0.279600  0.308600  1.0  0.1411
  C  C530  1  0.493100  0.302500  0.237800  1.0  -0.3929
  C  C531  1  0.467100  0.308700  0.370700  1.0  -0.3801
  C  C532  1  0.396200  0.259700  0.300200  1.0  -0.3651
  C  C533  1  0.602200  0.080930  0.417500  1.0  0.1617
  C  C534  1  0.621800  0.119400  0.403500  1.0  -0.0863
  C  C535  1  0.569800  0.142770  0.364200  1.0  -0.0066
  C  C536  1  0.498200  0.127600  0.338900  1.0  -0.0822
  C  C537  1  0.478600  0.089100  0.352800  1.0  0.1559
  C  C538  1  0.829600  0.404800  0.383300  1.0  -0.0582
  C  C539  1  0.107000  0.556100  0.858300  1.0  0.6934
  C  C540  1  0.103400  0.585130  0.917000  1.0  -0.1601
  C  C541  1  0.135300  0.576680  0.984700  1.0  -0.0881
  C  C542  1  0.132300  0.604200  0.039800  1.0  0.0536
  C  C543  1  0.097300  0.640170  0.027000  1.0  0.2387
  C  C544  1  0.065500  0.648610  0.959300  1.0  -0.0014
  C  C545  1  0.068500  0.621100  0.904300  1.0  -0.1545
  C  C546  1  0.024900  0.688900  0.943200  1.0  0.1112
  C  C547  1  0.002400  0.692400  0.861500  1.0  -0.3874
  C  C548  1  0.949900  0.691500  0.990700  1.0  -0.38
  C  C549  1  0.080300  0.723300  0.961100  1.0  -0.3736
  C  C550  1  0.165600  0.595900  0.115600  1.0  -0.0264
  C  C551  1  0.286200  0.634700  0.086600  1.0  0.0235
  C  C552  1  0.345900  0.601900  0.078400  1.0  -0.1561
  C  C553  1  0.416300  0.613200  0.026400  1.0  -0.113
  C  C554  1  0.452100  0.651100  0.047700  1.0  -0.1219
  C  C555  1  0.389400  0.684000  0.052500  1.0  -0.1562
  C  C556  1  0.325500  0.672600  0.105900  1.0  0.022
  C  C557  1  0.290200  0.736800  0.149700  1.0  -0.1215
  C  C558  1  0.232500  0.769870  0.161500  1.0  0.0732
  C  C559  1  0.266100  0.806600  0.168300  1.0  -0.1388
  C  C560  1  0.217700  0.838560  0.181700  1.0  0.0228
  C  C561  1  0.135700  0.833820  0.188400  1.0  -0.1351
  C  C562  1  0.102100  0.797100  0.181600  1.0  0.0051
  C  C563  1  0.150400  0.765130  0.168200  1.0  0.2762
  C  C564  1  0.009200  0.792600  0.189600  1.0  0.1485
  C  C565  1  0.974600  0.772100  0.121800  1.0  -0.3946
  C  C566  1  0.963700  0.831800  0.196300  1.0  -0.3868
  C  C567  1  0.993400  0.770900  0.257800  1.0  -0.3818
  C  C568  1  0.364600  0.921900  0.185800  1.0  0.1715
  C  C569  1  0.328100  0.886900  0.168100  1.0  -0.1255
  C  C570  1  0.254600  0.877400  0.198300  1.0  0.0299
  C  C571  1  0.217700  0.902900  0.246100  1.0  -0.1237
  C  C572  1  0.254300  0.937900  0.263800  1.0  0.1488
  C  C573  1  0.192600  0.533600  0.629000  1.0  0.6531
  C  C574  1  0.227800  0.559860  0.570500  1.0  -0.1482
  C  C575  1  0.297100  0.581000  0.583100  1.0  -0.1141
  C  C576  1  0.324500  0.607100  0.531400  1.0  -0.0029
  C  C577  1  0.282700  0.612110  0.467000  1.0  0.2641
  C  C578  1  0.213400  0.591000  0.454400  1.0  0.0932
  C  C579  1  0.186000  0.564900  0.506100  1.0  -0.0624
  C  C580  1  0.409000  0.628000  0.545400  1.0  0.051
  C  C581  1  0.399000  0.673100  0.539400  1.0  -0.3677
  C  C582  1  0.466300  0.613300  0.486600  1.0  -0.371
  C  C583  1  0.444600  0.615000  0.622200  1.0  -0.3506
  C  C584  1  0.117000  0.660800  0.415600  1.0  -0.015
  C  C585  1  0.025500  0.651000  0.418500  1.0  -0.1278
  C  C586  1  0.985700  0.677900  0.470300  1.0  -0.1368
  C  C587  1  0.994800  0.720000  0.451600  1.0  -0.1379
  C  C588  1  0.083600  0.729200  0.450200  1.0  -0.1745
  C  C589  1  0.128100  0.702500  0.394700  1.0  -0.0189
  C  C590  1  0.229600  0.748700  0.352000  1.0  -0.1207
  C  C591  1  0.315200  0.761180  0.350000  1.0  0.0733
  C  C592  1  0.332200  0.800400  0.358700  1.0  -0.0819
  C  C593  1  0.410100  0.813640  0.351100  1.0  0.0036
  C  C594  1  0.471000  0.787660  0.334700  1.0  -0.1117
  C  C595  1  0.453900  0.748440  0.325900  1.0  0.0103
  C  C596  1  0.376000  0.735200  0.333600  1.0  0.2364
  C  C597  1  0.525000  0.720400  0.308600  1.0  0.1425
  C  C598  1  0.506900  0.697500  0.237800  1.0  -0.3905
  C  C599  1  0.532900  0.691300  0.370700  1.0  -0.3816
  C  C600  1  0.603800  0.740300  0.300200  1.0  -0.3623
  C  C601  1  0.397800  0.919070  0.417500  1.0  0.1592
  C  C602  1  0.378200  0.880600  0.403500  1.0  -0.0862
  C  C603  1  0.430200  0.857230  0.364200  1.0  -0.0081
  C  C604  1  0.501800  0.872400  0.338900  1.0  -0.0824
  C  C605  1  0.521400  0.910900  0.352800  1.0  0.1559
  C  C606  1  0.170400  0.595200  0.383300  1.0  -0.0578
  Br  Br607  1  0.500000  0.000000  0.550570  1.0  -0.4335
  Br  Br608  1  0.000000  0.500000  0.449430  1.0  -0.4341
  N  N609  1  0.279000  0.126000  0.862900  1.0  -0.4461
  N  N610  1  0.238900  0.203400  0.888300  1.0  -0.4197
  N  N611  1  0.340700  0.136800  0.638500  1.0  -0.5044
  N  N612  1  0.282300  0.210600  0.609900  1.0  -0.4485
  N  N613  1  0.172300  0.447400  0.766400  1.0  -0.3278
  N  N614  1  0.030600  0.434220  0.607900  1.0  -0.3644
  N  N615  1  0.721000  0.874000  0.862900  1.0  -0.4471
  N  N616  1  0.761100  0.796600  0.888300  1.0  -0.4193
  N  N617  1  0.659300  0.863200  0.638500  1.0  -0.5063
  N  N618  1  0.717700  0.789400  0.609900  1.0  -0.4502
  N  N619  1  0.827700  0.552600  0.766400  1.0  -0.3263
  N  N620  1  0.969400  0.565780  0.607900  1.0  -0.364
  N  N621  1  0.779000  0.374000  0.137100  1.0  -0.448
  N  N622  1  0.738900  0.296600  0.111700  1.0  -0.4214
  N  N623  1  0.840700  0.363200  0.361500  1.0  -0.5007
  N  N624  1  0.782300  0.289400  0.390100  1.0  -0.4511
  N  N625  1  0.672300  0.052600  0.233600  1.0  -0.3284
  N  N626  1  0.530600  0.065780  0.392100  1.0  -0.3632
  N  N627  1  0.221000  0.626000  0.137100  1.0  -0.4516
  N  N628  1  0.261100  0.703400  0.111700  1.0  -0.4197
  N  N629  1  0.159300  0.636800  0.361500  1.0  -0.5023
  N  N630  1  0.217700  0.710600  0.390100  1.0  -0.4512
  N  N631  1  0.327700  0.947400  0.233600  1.0  -0.3273
  N  N632  1  0.469400  0.934220  0.392100  1.0  -0.3657
  O  O633  1  0.419900  0.064600  0.201500  1.0  -0.5988
  O  O634  1  0.360100  0.024600  0.131700  1.0  -0.5872
  O  O635  1  0.400000  0.167300  0.920100  1.0  -0.6235
  O  O636  1  0.379500  0.229300  0.831300  1.0  -0.6357
  O  O637  1  0.281900  0.178960  0.750200  1.0  -0.8467
  O  O638  1  0.367600  0.012900  0.383500  1.0  -0.7322
  O  O639  1  0.274800  0.034300  0.307300  1.0  -0.5985
  O  O640  1  0.192300  0.138100  0.581600  1.0  -0.6154
  O  O641  1  0.139700  0.196930  0.676400  1.0  -0.6492
  O  O642  1  0.580100  0.935400  0.201500  1.0  -0.5994
  O  O643  1  0.639900  0.975400  0.131700  1.0  -0.5859
  O  O644  1  0.600000  0.832700  0.920100  1.0  -0.6236
  O  O645  1  0.620500  0.770700  0.831300  1.0  -0.6367
  O  O646  1  0.718100  0.821040  0.750200  1.0  -0.8443
  O  O647  1  0.632400  0.987100  0.383500  1.0  -0.7316
  O  O648  1  0.725200  0.965700  0.307300  1.0  -0.5996
  O  O649  1  0.807700  0.861900  0.581600  1.0  -0.6165
  O  O650  1  0.860300  0.803070  0.676400  1.0  -0.649
  O  O651  1  0.919900  0.435400  0.798500  1.0  -0.5979
  O  O652  1  0.860100  0.475400  0.868300  1.0  -0.5871
  O  O653  1  0.900000  0.332700  0.079900  1.0  -0.6231
  O  O654  1  0.879500  0.270700  0.168700  1.0  -0.6358
  O  O655  1  0.781900  0.321040  0.249800  1.0  -0.8449
  O  O656  1  0.867600  0.487100  0.616500  1.0  -0.7323
  O  O657  1  0.774800  0.465700  0.692700  1.0  -0.5992
  O  O658  1  0.692300  0.361900  0.418400  1.0  -0.6149
  O  O659  1  0.639700  0.303070  0.323600  1.0  -0.6485
  O  O660  1  0.080100  0.564600  0.798500  1.0  -0.5984
  O  O661  1  0.139900  0.524600  0.868300  1.0  -0.5878
  O  O662  1  0.100000  0.667300  0.079900  1.0  -0.6224
  O  O663  1  0.120500  0.729300  0.168700  1.0  -0.6366
  O  O664  1  0.218100  0.678960  0.249800  1.0  -0.8465
  O  O665  1  0.132400  0.512900  0.616500  1.0  -0.7333
  O  O666  1  0.225200  0.534300  0.692700  1.0  -0.5998
  O  O667  1  0.307700  0.638100  0.418400  1.0  -0.6145
  O  O668  1  0.360300  0.696930  0.323600  1.0  -0.648
  O  O669  1  0.500000  0.000000  0.281800  1.0  -0.7531
  O  O670  1  0.000000  0.500000  0.718200  1.0  -0.7521
