# generated using pymatgen
data_CuH6C7O4
_symmetry_space_group_name_H-M   'P 1'
_cell_length_a   8.46710000
_cell_length_b   8.46710000
_cell_length_c   14.44370000
_cell_angle_alpha   90.00000000
_cell_angle_beta   90.00000000
_cell_angle_gamma   90.00000000
_symmetry_Int_Tables_number   1
_chemical_formula_structural   CuH6C7O4
_chemical_formula_sum   'Cu4 H24 C28 O16'
_cell_volume   1035.49459760
_cell_formula_units_Z   4
loop_
 _symmetry_equiv_pos_site_id
 _symmetry_equiv_pos_as_xyz
  1  'x, y, z'
loop_
 _atom_site_type_symbol
 _atom_site_label
 _atom_site_symmetry_multiplicity
 _atom_site_fract_x
 _atom_site_fract_y
 _atom_site_fract_z
 _atom_site_occupancy
 _atom_site_charge
  Cu  Cu1  1  0.500000  0.853000  0.000000  1.0  0.8972
  Cu  Cu2  1  0.500000  0.147000  0.000000  1.0  0.8972
  Cu  Cu3  1  0.147000  0.500000  0.500000  1.0  0.8986
  Cu  Cu4  1  0.853000  0.500000  0.500000  1.0  0.8967
  H  H5  1  0.755900  0.850000  0.710500  1.0  0.1116
  H  H6  1  0.244100  0.150000  0.710500  1.0  0.1119
  H  H7  1  0.150000  0.755900  0.210500  1.0  0.1115
  H  H8  1  0.850000  0.244100  0.210500  1.0  0.111
  H  H9  1  0.244100  0.850000  0.289500  1.0  0.1116
  H  H10  1  0.755900  0.150000  0.289500  1.0  0.1114
  H  H11  1  0.850000  0.755900  0.789500  1.0  0.112
  H  H12  1  0.150000  0.244100  0.789500  1.0  0.11
  H  H13  1  0.244100  0.150000  0.289500  1.0  0.112
  H  H14  1  0.755900  0.850000  0.289500  1.0  0.1113
  H  H15  1  0.850000  0.244100  0.789500  1.0  0.1102
  H  H16  1  0.150000  0.755900  0.789500  1.0  0.1121
  H  H17  1  0.755900  0.150000  0.710500  1.0  0.1118
  H  H18  1  0.244100  0.850000  0.710500  1.0  0.1118
  H  H19  1  0.150000  0.244100  0.210500  1.0  0.1112
  H  H20  1  0.850000  0.755900  0.210500  1.0  0.1108
  H  H21  1  0.000000  0.094700  0.913200  1.0  0.1021
  H  H22  1  0.000000  0.905300  0.913200  1.0  0.1038
  H  H23  1  0.905300  0.000000  0.413200  1.0  0.1032
  H  H24  1  0.094700  0.000000  0.413200  1.0  0.1022
  H  H25  1  0.000000  0.094700  0.086800  1.0  0.1031
  H  H26  1  0.000000  0.905300  0.086800  1.0  0.1028
  H  H27  1  0.094700  0.000000  0.586800  1.0  0.1019
  H  H28  1  0.905300  0.000000  0.586800  1.0  0.1038
  C  C29  1  0.712300  0.000000  0.878300  1.0  0.6464
  C  C30  1  0.850900  0.000000  0.811100  1.0  0.0319
  C  C31  1  0.287700  0.000000  0.878300  1.0  0.6456
  C  C32  1  0.149100  0.000000  0.811100  1.0  0.0321
  C  C33  1  0.000000  0.712300  0.378300  1.0  0.6471
  C  C34  1  0.000000  0.850900  0.311100  1.0  0.0319
  C  C35  1  0.000000  0.287700  0.378300  1.0  0.6484
  C  C36  1  0.000000  0.149100  0.311100  1.0  0.0326
  C  C37  1  0.287700  0.000000  0.121700  1.0  0.6451
  C  C38  1  0.149100  0.000000  0.188900  1.0  0.0319
  C  C39  1  0.712300  0.000000  0.121700  1.0  0.6467
  C  C40  1  0.850900  0.000000  0.188900  1.0  0.031
  C  C41  1  0.000000  0.712300  0.621700  1.0  0.6468
  C  C42  1  0.000000  0.850900  0.688900  1.0  0.0309
  C  C43  1  0.000000  0.287700  0.621700  1.0  0.6483
  C  C44  1  0.000000  0.149100  0.688900  1.0  0.0315
  C  C45  1  0.851400  0.851400  0.750000  1.0  -0.2201
  C  C46  1  0.148600  0.148600  0.750000  1.0  -0.2213
  C  C47  1  0.148600  0.851400  0.250000  1.0  -0.2211
  C  C48  1  0.851400  0.148600  0.250000  1.0  -0.2206
  C  C49  1  0.148600  0.148600  0.250000  1.0  -0.2213
  C  C50  1  0.851400  0.851400  0.250000  1.0  -0.2201
  C  C51  1  0.851400  0.148600  0.750000  1.0  -0.2206
  C  C52  1  0.148600  0.851400  0.750000  1.0  -0.2211
  C  C53  1  0.000000  0.000000  0.873000  1.0  -0.2187
  C  C54  1  0.000000  0.000000  0.373000  1.0  -0.2187
  C  C55  1  0.000000  0.000000  0.127000  1.0  -0.2192
  C  C56  1  0.000000  0.000000  0.627000  1.0  -0.2192
  O  O57  1  0.661800  0.868300  0.905800  1.0  -0.5616
  O  O58  1  0.338200  0.131700  0.905800  1.0  -0.5629
  O  O59  1  0.131700  0.661800  0.405800  1.0  -0.5617
  O  O60  1  0.868300  0.338200  0.405800  1.0  -0.5599
  O  O61  1  0.338200  0.868300  0.094200  1.0  -0.5622
  O  O62  1  0.661800  0.131700  0.094200  1.0  -0.5622
  O  O63  1  0.868300  0.661800  0.594200  1.0  -0.5606
  O  O64  1  0.131700  0.338200  0.594200  1.0  -0.5605
  O  O65  1  0.338200  0.131700  0.094200  1.0  -0.5616
  O  O66  1  0.661800  0.868300  0.094200  1.0  -0.5616
  O  O67  1  0.868300  0.338200  0.594200  1.0  -0.5603
  O  O68  1  0.131700  0.661800  0.594200  1.0  -0.5613
  O  O69  1  0.661800  0.131700  0.905800  1.0  -0.5623
  O  O70  1  0.338200  0.868300  0.905800  1.0  -0.5624
  O  O71  1  0.131700  0.338200  0.405800  1.0  -0.5603
  O  O72  1  0.868300  0.661800  0.405800  1.0  -0.5601
