# generated using pymatgen
data_CuH6C7O4
_symmetry_space_group_name_H-M   'P 1'
_cell_length_a   8.57320000
_cell_length_b   8.57320000
_cell_length_c   14.33590000
_cell_angle_alpha   87.08440000
_cell_angle_beta   87.08440000
_cell_angle_gamma   81.74280000
_symmetry_Int_Tables_number   1
_chemical_formula_structural   CuH6C7O4
_chemical_formula_sum   'Cu4 H24 C28 O16'
_cell_volume   1040.40025389
_cell_formula_units_Z   4
loop_
 _symmetry_equiv_pos_site_id
 _symmetry_equiv_pos_as_xyz
  1  'x, y, z'
loop_
 _atom_site_type_symbol
 _atom_site_label
 _atom_site_symmetry_multiplicity
 _atom_site_fract_x
 _atom_site_fract_y
 _atom_site_fract_z
 _atom_site_occupancy
 _atom_site_charge
  Cu  Cu1  1  0.977100  0.654300  0.490000  1.0  0.9064
  Cu  Cu2  1  0.345700  0.022900  0.010000  1.0  0.9043
  Cu  Cu3  1  0.022900  0.345700  0.510000  1.0  0.9052
  Cu  Cu4  1  0.654300  0.977100  0.990000  1.0  0.904
  H  H5  1  0.537700  0.375100  0.417400  1.0  0.1075
  H  H6  1  0.524300  0.563900  0.412500  1.0  0.0945
  H  H7  1  0.400600  0.236600  0.302500  1.0  0.1133
  H  H8  1  0.297900  0.335500  0.223300  1.0  0.1102
  H  H9  1  0.364100  0.723900  0.286700  1.0  0.1113
  H  H10  1  0.785500  0.301300  0.207300  1.0  0.1128
  H  H11  1  0.624900  0.462300  0.082600  1.0  0.1066
  H  H12  1  0.436100  0.475700  0.087500  1.0  0.0984
  H  H13  1  0.763400  0.599400  0.197500  1.0  0.1132
  H  H14  1  0.664500  0.702100  0.276700  1.0  0.1107
  H  H15  1  0.276100  0.635900  0.213300  1.0  0.1119
  H  H16  1  0.698700  0.214500  0.292700  1.0  0.1128
  H  H17  1  0.462300  0.624900  0.582600  1.0  0.1065
  H  H18  1  0.475700  0.436100  0.587500  1.0  0.0974
  H  H19  1  0.599400  0.763400  0.697500  1.0  0.1126
  H  H20  1  0.702100  0.664500  0.776700  1.0  0.1122
  H  H21  1  0.635900  0.276100  0.713300  1.0  0.111
  H  H22  1  0.214500  0.698700  0.792700  1.0  0.1135
  H  H23  1  0.375100  0.537700  0.917400  1.0  0.1079
  H  H24  1  0.563900  0.524300  0.912500  1.0  0.0953
  H  H25  1  0.236600  0.400600  0.802500  1.0  0.1121
  H  H26  1  0.335500  0.297900  0.723300  1.0  0.1129
  H  H27  1  0.723900  0.364100  0.786700  1.0  0.1118
  H  H28  1  0.301300  0.785500  0.707300  1.0  0.1124
  C  C29  1  0.237700  0.489100  0.385500  1.0  0.6594
  C  C30  1  0.381900  0.480700  0.316800  1.0  0.0321
  C  C31  1  0.530600  0.469800  0.374500  1.0  -0.2163
  C  C32  1  0.679500  0.459500  0.307100  1.0  0.0354
  C  C33  1  0.817700  0.457700  0.371900  1.0  0.6568
  C  C34  1  0.393700  0.331300  0.259700  1.0  -0.222
  C  C35  1  0.510900  0.762300  0.114500  1.0  0.6616
  C  C36  1  0.519300  0.618100  0.183200  1.0  0.0332
  C  C37  1  0.530200  0.469400  0.125500  1.0  -0.2184
  C  C38  1  0.540500  0.320500  0.192900  1.0  0.0335
  C  C39  1  0.542300  0.182300  0.128100  1.0  0.6574
  C  C40  1  0.668700  0.606300  0.240300  1.0  -0.2239
  C  C41  1  0.762300  0.510900  0.614500  1.0  0.6594
  C  C42  1  0.618100  0.519300  0.683200  1.0  0.0326
  C  C43  1  0.469400  0.530200  0.625500  1.0  -0.2172
  C  C44  1  0.320500  0.540500  0.692900  1.0  0.0349
  C  C45  1  0.182300  0.542300  0.628100  1.0  0.6569
  C  C46  1  0.606300  0.668700  0.740300  1.0  -0.2242
  C  C47  1  0.489100  0.237700  0.885500  1.0  0.6602
  C  C48  1  0.480700  0.381900  0.816800  1.0  0.0329
  C  C49  1  0.469800  0.530600  0.874500  1.0  -0.2169
  C  C50  1  0.459500  0.679500  0.807100  1.0  0.0351
  C  C51  1  0.457700  0.817700  0.871900  1.0  0.6578
  C  C52  1  0.331300  0.393700  0.759700  1.0  -0.2222
  C  C53  1  0.371900  0.628100  0.250000  1.0  -0.2217
  C  C54  1  0.690500  0.309500  0.250000  1.0  -0.2164
  C  C55  1  0.628100  0.371900  0.750000  1.0  -0.2223
  C  C56  1  0.309500  0.690500  0.750000  1.0  -0.217
  O  O57  1  0.168800  0.623600  0.406700  1.0  -0.5685
  O  O58  1  0.198900  0.360300  0.418100  1.0  -0.5671
  O  O59  1  0.884700  0.327900  0.404900  1.0  -0.5544
  O  O60  1  0.848300  0.590900  0.392300  1.0  -0.5912
  O  O61  1  0.376400  0.831200  0.093300  1.0  -0.5682
  O  O62  1  0.639700  0.801100  0.081900  1.0  -0.5641
  O  O63  1  0.672100  0.115300  0.095100  1.0  -0.5543
  O  O64  1  0.409100  0.151700  0.107700  1.0  -0.5921
  O  O65  1  0.831200  0.376400  0.593300  1.0  -0.5679
  O  O66  1  0.801100  0.639700  0.581900  1.0  -0.567
  O  O67  1  0.115300  0.672100  0.595100  1.0  -0.5657
  O  O68  1  0.151700  0.409100  0.607700  1.0  -0.5931
  O  O69  1  0.623600  0.168800  0.906700  1.0  -0.568
  O  O70  1  0.360300  0.198900  0.918100  1.0  -0.5644
  O  O71  1  0.327900  0.884700  0.904900  1.0  -0.5524
  O  O72  1  0.590900  0.848300  0.892300  1.0  -0.5908
