# generated using pymatgen
data_CoH26C34(N2O3)2
_symmetry_space_group_name_H-M   'P 1'
_cell_length_a   22.24900000
_cell_length_b   22.24900000
_cell_length_c   22.24900000
_cell_angle_alpha   90.00000000
_cell_angle_beta   90.00000000
_cell_angle_gamma   90.00000000
_symmetry_Int_Tables_number   1
_chemical_formula_structural   CoH26C34(N2O3)2
_chemical_formula_sum   'Co6 H156 C204 N24 O36'
_cell_volume   11013.65550425
_cell_formula_units_Z   6
loop_
 _symmetry_equiv_pos_site_id
 _symmetry_equiv_pos_as_xyz
  1  'x, y, z'
loop_
 _atom_site_type_symbol
 _atom_site_label
 _atom_site_symmetry_multiplicity
 _atom_site_fract_x
 _atom_site_fract_y
 _atom_site_fract_z
 _atom_site_occupancy
 _atom_site_charge
  Co  Co1  1  0.424270  0.000000  0.000000  1.0  0.8471
  Co  Co2  1  0.575730  0.000000  0.000000  1.0  0.8462
  Co  Co3  1  0.000000  0.424270  0.000000  1.0  0.8467
  Co  Co4  1  0.000000  0.575730  0.000000  1.0  0.847
  Co  Co5  1  0.000000  0.000000  0.424270  1.0  0.8479
  Co  Co6  1  0.000000  0.000000  0.575730  1.0  0.8478
  H  H7  1  0.351560  0.859220  0.200010  1.0  0.1123
  H  H8  1  0.262750  0.029300  0.831280  1.0  0.1061
  H  H9  1  0.352730  0.984140  0.883070  1.0  0.0865
  H  H10  1  0.648440  0.140780  0.200010  1.0  0.1106
  H  H11  1  0.737250  0.970700  0.831280  1.0  0.1071
  H  H12  1  0.647270  0.015860  0.883070  1.0  0.089
  H  H13  1  0.648440  0.859220  0.799990  1.0  0.1219
  H  H14  1  0.737250  0.029300  0.168720  1.0  0.1062
  H  H15  1  0.647270  0.984140  0.116930  1.0  0.0878
  H  H16  1  0.351560  0.140780  0.799990  1.0  0.1173
  H  H17  1  0.262750  0.970700  0.168720  1.0  0.1039
  H  H18  1  0.352730  0.015860  0.116930  1.0  0.0887
  H  H19  1  0.200010  0.351560  0.859220  1.0  0.1166
  H  H20  1  0.831280  0.262750  0.029300  1.0  0.1021
  H  H21  1  0.883070  0.352730  0.984140  1.0  0.0878
  H  H22  1  0.200010  0.648440  0.140780  1.0  0.1196
  H  H23  1  0.831280  0.737250  0.970700  1.0  0.106
  H  H24  1  0.883070  0.647270  0.015860  1.0  0.0868
  H  H25  1  0.799990  0.648440  0.859220  1.0  0.1161
  H  H26  1  0.168720  0.737250  0.029300  1.0  0.1069
  H  H27  1  0.116930  0.647270  0.984140  1.0  0.087
  H  H28  1  0.799990  0.351560  0.140780  1.0  0.1095
  H  H29  1  0.168720  0.262750  0.970700  1.0  0.1052
  H  H30  1  0.116930  0.352730  0.015860  1.0  0.0861
  H  H31  1  0.859220  0.200010  0.351560  1.0  0.1086
  H  H32  1  0.029300  0.831280  0.262750  1.0  0.1039
  H  H33  1  0.984140  0.883070  0.352730  1.0  0.0863
  H  H34  1  0.140780  0.200010  0.648440  1.0  0.1348
  H  H35  1  0.970700  0.831280  0.737250  1.0  0.1053
  H  H36  1  0.015860  0.883070  0.647270  1.0  0.0884
  H  H37  1  0.859220  0.799990  0.648440  1.0  0.1296
  H  H38  1  0.029300  0.168720  0.737250  1.0  0.1041
  H  H39  1  0.984140  0.116930  0.647270  1.0  0.0878
  H  H40  1  0.140780  0.799990  0.351560  1.0  0.1332
  H  H41  1  0.970700  0.168720  0.262750  1.0  0.1043
  H  H42  1  0.015860  0.116930  0.352730  1.0  0.088
  H  H43  1  0.859220  0.351430  0.199940  1.0  0.1107
  H  H44  1  0.029300  0.262750  0.831280  1.0  0.1031
  H  H45  1  0.984140  0.352730  0.883070  1.0  0.0893
  H  H46  1  0.140780  0.648570  0.199940  1.0  0.1357
  H  H47  1  0.970700  0.737250  0.831280  1.0  0.1046
  H  H48  1  0.015860  0.647270  0.883070  1.0  0.0898
  H  H49  1  0.859220  0.648570  0.800060  1.0  0.1312
  H  H50  1  0.029300  0.737250  0.168720  1.0  0.1037
  H  H51  1  0.984140  0.647270  0.116930  1.0  0.0874
  H  H52  1  0.140780  0.351430  0.800060  1.0  0.1354
  H  H53  1  0.970700  0.262750  0.168720  1.0  0.1035
  H  H54  1  0.015860  0.352730  0.116930  1.0  0.0885
  H  H55  1  0.351430  0.199940  0.859220  1.0  0.1135
  H  H56  1  0.262750  0.831280  0.029300  1.0  0.1071
  H  H57  1  0.352730  0.883070  0.984140  1.0  0.0883
  H  H58  1  0.648570  0.199940  0.140780  1.0  0.112
  H  H59  1  0.737250  0.831280  0.970700  1.0  0.1067
  H  H60  1  0.647270  0.883070  0.015860  1.0  0.0873
  H  H61  1  0.648570  0.800060  0.859220  1.0  0.1221
  H  H62  1  0.737250  0.168720  0.029300  1.0  0.1065
  H  H63  1  0.647270  0.116930  0.984140  1.0  0.0885
  H  H64  1  0.351430  0.800060  0.140780  1.0  0.1171
  H  H65  1  0.262750  0.168720  0.970700  1.0  0.1037
  H  H66  1  0.352730  0.116930  0.015860  1.0  0.0887
  H  H67  1  0.199940  0.859220  0.351430  1.0  0.1163
  H  H68  1  0.831280  0.029300  0.262750  1.0  0.1033
  H  H69  1  0.883070  0.984140  0.352730  1.0  0.0893
  H  H70  1  0.199940  0.140780  0.648570  1.0  0.1241
  H  H71  1  0.831280  0.970700  0.737250  1.0  0.1077
  H  H72  1  0.883070  0.015860  0.647270  1.0  0.0894
  H  H73  1  0.800060  0.859220  0.648570  1.0  0.1223
  H  H74  1  0.168720  0.029300  0.737250  1.0  0.1071
  H  H75  1  0.116930  0.984140  0.647270  1.0  0.089
  H  H76  1  0.800060  0.140780  0.351430  1.0  0.1135
  H  H77  1  0.168720  0.970700  0.262750  1.0  0.1069
  H  H78  1  0.116930  0.015860  0.352730  1.0  0.0887
  H  H79  1  0.420460  0.870560  0.129440  1.0  0.0794
  H  H80  1  0.509140  0.746090  0.253910  1.0  0.1098
  H  H81  1  0.610350  0.782310  0.217690  1.0  0.1085
  H  H82  1  0.616590  0.862310  0.137690  1.0  0.1078
  H  H83  1  0.579540  0.129440  0.129440  1.0  0.082
  H  H84  1  0.490860  0.253910  0.253910  1.0  0.1037
  H  H85  1  0.389650  0.217690  0.217690  1.0  0.1053
  H  H86  1  0.383410  0.137690  0.137690  1.0  0.1071
  H  H87  1  0.579540  0.870560  0.870560  1.0  0.0817
  H  H88  1  0.490860  0.746090  0.746090  1.0  0.107
  H  H89  1  0.389650  0.782310  0.782310  1.0  0.1086
  H  H90  1  0.383410  0.862310  0.862310  1.0  0.1073
  H  H91  1  0.420460  0.129440  0.870560  1.0  0.0821
  H  H92  1  0.509140  0.253910  0.746090  1.0  0.1116
  H  H93  1  0.610350  0.217690  0.782310  1.0  0.1088
  H  H94  1  0.616590  0.137690  0.862310  1.0  0.1075
  H  H95  1  0.129440  0.420460  0.870560  1.0  0.0834
  H  H96  1  0.253910  0.509140  0.746090  1.0  0.1066
  H  H97  1  0.217690  0.610350  0.782310  1.0  0.1077
  H  H98  1  0.137690  0.616590  0.862310  1.0  0.1093
  H  H99  1  0.129440  0.579540  0.129440  1.0  0.0802
  H  H100  1  0.253910  0.490860  0.253910  1.0  0.1078
  H  H101  1  0.217690  0.389650  0.217690  1.0  0.1076
  H  H102  1  0.137690  0.383410  0.137690  1.0  0.1089
  H  H103  1  0.870560  0.579540  0.870560  1.0  0.0819
  H  H104  1  0.746090  0.490860  0.746090  1.0  0.1085
  H  H105  1  0.782310  0.389650  0.782310  1.0  0.103
  H  H106  1  0.862310  0.383410  0.862310  1.0  0.106
  H  H107  1  0.870560  0.420460  0.129440  1.0  0.0817
  H  H108  1  0.746090  0.509140  0.253910  1.0  0.1057
  H  H109  1  0.782310  0.610350  0.217690  1.0  0.111
  H  H110  1  0.862310  0.616590  0.137690  1.0  0.1089
  H  H111  1  0.870560  0.129440  0.420460  1.0  0.0824
  H  H112  1  0.746090  0.253910  0.509140  1.0  0.1071
  H  H113  1  0.782310  0.217690  0.610350  1.0  0.1096
  H  H114  1  0.862310  0.137690  0.616590  1.0  0.1068
  H  H115  1  0.129440  0.129440  0.579540  1.0  0.0813
  H  H116  1  0.253910  0.253910  0.490860  1.0  0.11
  H  H117  1  0.217690  0.217690  0.389650  1.0  0.1067
  H  H118  1  0.137690  0.137690  0.383410  1.0  0.1073
  H  H119  1  0.870560  0.870560  0.579540  1.0  0.0811
  H  H120  1  0.746090  0.746090  0.490860  1.0  0.1093
  H  H121  1  0.782310  0.782310  0.389650  1.0  0.1025
  H  H122  1  0.862310  0.862310  0.383410  1.0  0.1044
  H  H123  1  0.129440  0.870560  0.420460  1.0  0.0836
  H  H124  1  0.253910  0.746090  0.509140  1.0  0.1071
  H  H125  1  0.217690  0.782310  0.610350  1.0  0.1053
  H  H126  1  0.137690  0.862310  0.616590  1.0  0.1071
  H  H127  1  0.281330  0.720520  0.098350  1.0  0.1177
  H  H128  1  0.291750  0.648180  0.139090  1.0  0.1154
  H  H129  1  0.352210  0.706010  0.140380  1.0  0.1118
  H  H130  1  0.676530  0.264740  0.111840  1.0  0.1147
  H  H131  1  0.735070  0.324520  0.112450  1.0  0.1178
  H  H132  1  0.663100  0.336030  0.153540  1.0  0.124
  H  H133  1  0.706610  0.647880  0.859950  1.0  0.1043
  H  H134  1  0.648070  0.707660  0.860560  1.0  0.1115
  H  H135  1  0.720040  0.719170  0.901650  1.0  0.1185
  H  H136  1  0.335530  0.337380  0.846470  1.0  0.125
  H  H137  1  0.325110  0.265040  0.887210  1.0  0.1223
  H  H138  1  0.264650  0.322870  0.888500  1.0  0.1032
  H  H139  1  0.102040  0.267070  0.698770  1.0  0.1215
  H  H140  1  0.149840  0.315630  0.650210  1.0  0.1159
  H  H141  1  0.125940  0.342590  0.725730  1.0  0.1128
  H  H142  1  0.149840  0.650210  0.315630  1.0  0.1183
  H  H143  1  0.102040  0.698770  0.267070  1.0  0.1226
  H  H144  1  0.125940  0.725730  0.342590  1.0  0.1134
  H  H145  1  0.860260  0.707140  0.647970  1.0  0.109
  H  H146  1  0.860260  0.647970  0.707140  1.0  0.1081
  H  H147  1  0.901660  0.719610  0.719610  1.0  0.1164
  H  H148  1  0.887860  0.323990  0.264830  1.0  0.1114
  H  H149  1  0.887860  0.264830  0.323990  1.0  0.1123
  H  H150  1  0.846460  0.336460  0.336460  1.0  0.1227
  H  H151  1  0.735070  0.112450  0.324520  1.0  0.1186
  H  H152  1  0.676530  0.111840  0.264740  1.0  0.1129
  H  H153  1  0.663100  0.153540  0.336030  1.0  0.1255
  H  H154  1  0.291750  0.139090  0.648180  1.0  0.1172
  H  H155  1  0.281330  0.098350  0.720520  1.0  0.1173
  H  H156  1  0.352210  0.140380  0.706010  1.0  0.1099
  H  H157  1  0.648070  0.860560  0.707660  1.0  0.1121
  H  H158  1  0.706610  0.859950  0.647880  1.0  0.1053
  H  H159  1  0.720040  0.901650  0.719170  1.0  0.1163
  H  H160  1  0.325110  0.887210  0.265040  1.0  0.1235
  H  H161  1  0.335530  0.846470  0.337380  1.0  0.1245
  H  H162  1  0.264650  0.888500  0.322870  1.0  0.1028
  C  C163  1  0.281460  0.051000  0.873760  1.0  -0.1004
  C  C164  1  0.329750  0.025410  0.902920  1.0  0.2682
  C  C165  1  0.718540  0.949000  0.873760  1.0  -0.1142
  C  C166  1  0.670250  0.974590  0.902920  1.0  0.2678
  C  C167  1  0.718540  0.051000  0.126240  1.0  -0.103
  C  C168  1  0.670250  0.025410  0.097080  1.0  0.2652
  C  C169  1  0.281460  0.949000  0.126240  1.0  -0.1045
  C  C170  1  0.329750  0.974590  0.097080  1.0  0.2651
  C  C171  1  0.873760  0.281460  0.051000  1.0  -0.1005
  C  C172  1  0.902920  0.329750  0.025410  1.0  0.2732
  C  C173  1  0.873760  0.718540  0.949000  1.0  -0.0983
  C  C174  1  0.902920  0.670250  0.974590  1.0  0.2753
  C  C175  1  0.126240  0.718540  0.051000  1.0  -0.1135
  C  C176  1  0.097080  0.670250  0.025410  1.0  0.2763
  C  C177  1  0.126240  0.281460  0.949000  1.0  -0.1034
  C  C178  1  0.097080  0.329750  0.974590  1.0  0.2714
  C  C179  1  0.051000  0.873760  0.281460  1.0  -0.1082
  C  C180  1  0.025410  0.902920  0.329750  1.0  0.2711
  C  C181  1  0.949000  0.873760  0.718540  1.0  -0.1008
  C  C182  1  0.974590  0.902920  0.670250  1.0  0.2728
  C  C183  1  0.051000  0.126240  0.718540  1.0  -0.1245
  C  C184  1  0.025410  0.097080  0.670250  1.0  0.2667
  C  C185  1  0.949000  0.126240  0.281460  1.0  -0.1048
  C  C186  1  0.974590  0.097080  0.329750  1.0  0.2696
  C  C187  1  0.051000  0.281460  0.873760  1.0  -0.1077
  C  C188  1  0.025410  0.329750  0.902920  1.0  0.2709
  C  C189  1  0.949000  0.718540  0.873760  1.0  -0.1021
  C  C190  1  0.974590  0.670250  0.902920  1.0  0.2725
  C  C191  1  0.051000  0.718540  0.126240  1.0  -0.1231
  C  C192  1  0.025410  0.670250  0.097080  1.0  0.2671
  C  C193  1  0.949000  0.281460  0.126240  1.0  -0.104
  C  C194  1  0.974590  0.329750  0.097080  1.0  0.2699
  C  C195  1  0.281460  0.873760  0.051000  1.0  -0.1009
  C  C196  1  0.329750  0.902920  0.025410  1.0  0.2756
  C  C197  1  0.718540  0.873760  0.949000  1.0  -0.1082
  C  C198  1  0.670250  0.902920  0.974590  1.0  0.2749
  C  C199  1  0.718540  0.126240  0.051000  1.0  -0.1042
  C  C200  1  0.670250  0.097080  0.025410  1.0  0.2713
  C  C201  1  0.281460  0.126240  0.949000  1.0  -0.0988
  C  C202  1  0.329750  0.097080  0.974590  1.0  0.2731
  C  C203  1  0.873760  0.051000  0.281460  1.0  -0.1072
  C  C204  1  0.902920  0.025410  0.329750  1.0  0.267
  C  C205  1  0.873760  0.949000  0.718540  1.0  -0.1082
  C  C206  1  0.902920  0.974590  0.670250  1.0  0.2685
  C  C207  1  0.126240  0.051000  0.718540  1.0  -0.115
  C  C208  1  0.097080  0.025410  0.670250  1.0  0.2695
  C  C209  1  0.126240  0.949000  0.281460  1.0  -0.1128
  C  C210  1  0.097080  0.974590  0.329750  1.0  0.2643
  C  C211  1  0.297450  0.778810  0.221190  1.0  -0.07
  C  C212  1  0.202820  0.131120  0.868880  1.0  0.4089
  C  C213  1  0.521220  0.918720  0.081280  1.0  0.6942
  C  C214  1  0.352590  0.808740  0.191260  1.0  -0.0038
  C  C215  1  0.256060  0.103290  0.896710  1.0  -0.1123
  C  C216  1  0.519480  0.870260  0.129740  1.0  -0.1133
  C  C217  1  0.463130  0.850500  0.149500  1.0  -0.1036
  C  C218  1  0.459120  0.805290  0.194710  1.0  0.2496
  C  C219  1  0.511000  0.782300  0.217700  1.0  -0.13
  C  C220  1  0.567600  0.802290  0.197710  1.0  -0.1258
  C  C221  1  0.570700  0.846200  0.153800  1.0  -0.085
  C  C222  1  0.702550  0.221190  0.221190  1.0  -0.0651
  C  C223  1  0.797180  0.868880  0.868880  1.0  0.4055
  C  C224  1  0.478780  0.081280  0.081280  1.0  0.6936
  C  C225  1  0.647410  0.191260  0.191260  1.0  -0.0089
  C  C226  1  0.743940  0.896710  0.896710  1.0  -0.112
  C  C227  1  0.480520  0.129740  0.129740  1.0  -0.1172
  C  C228  1  0.536870  0.149500  0.149500  1.0  -0.0964
  C  C229  1  0.540880  0.194710  0.194710  1.0  0.2358
  C  C230  1  0.489000  0.217700  0.217700  1.0  -0.1318
  C  C231  1  0.432400  0.197710  0.197710  1.0  -0.1329
  C  C232  1  0.429300  0.153800  0.153800  1.0  -0.0977
  C  C233  1  0.702550  0.778810  0.778810  1.0  -0.0617
  C  C234  1  0.797180  0.131120  0.131120  1.0  0.4036
  C  C235  1  0.478780  0.918720  0.918720  1.0  0.6934
  C  C236  1  0.647410  0.808740  0.808740  1.0  0.0082
  C  C237  1  0.743940  0.103290  0.103290  1.0  -0.1125
  C  C238  1  0.480520  0.870260  0.870260  1.0  -0.1121
  C  C239  1  0.536870  0.850500  0.850500  1.0  -0.1075
  C  C240  1  0.540880  0.805290  0.805290  1.0  0.2486
  C  C241  1  0.489000  0.782300  0.782300  1.0  -0.1313
  C  C242  1  0.432400  0.802290  0.802290  1.0  -0.1295
  C  C243  1  0.429300  0.846200  0.846200  1.0  -0.0846
  C  C244  1  0.297450  0.221190  0.778810  1.0  -0.0686
  C  C245  1  0.202820  0.868880  0.131120  1.0  0.4077
  C  C246  1  0.521220  0.081280  0.918720  1.0  0.6935
  C  C247  1  0.352590  0.191260  0.808740  1.0  -0.0051
  C  C248  1  0.256060  0.896710  0.103290  1.0  -0.1124
  C  C249  1  0.519480  0.129740  0.870260  1.0  -0.1128
  C  C250  1  0.463130  0.149500  0.850500  1.0  -0.103
  C  C251  1  0.459120  0.194710  0.805290  1.0  0.2503
  C  C252  1  0.511000  0.217700  0.782300  1.0  -0.134
  C  C253  1  0.567600  0.197710  0.802290  1.0  -0.1262
  C  C254  1  0.570700  0.153800  0.846200  1.0  -0.0849
  C  C255  1  0.221190  0.297450  0.778810  1.0  -0.0625
  C  C256  1  0.868880  0.202820  0.131120  1.0  0.4055
  C  C257  1  0.081280  0.521220  0.918720  1.0  0.6951
  C  C258  1  0.191260  0.352590  0.808740  1.0  -0.0267
  C  C259  1  0.896710  0.256060  0.103290  1.0  -0.1156
  C  C260  1  0.129740  0.519480  0.870260  1.0  -0.1131
  C  C261  1  0.149500  0.463130  0.850500  1.0  -0.0996
  C  C262  1  0.194710  0.459120  0.805290  1.0  0.2375
  C  C263  1  0.217700  0.511000  0.782300  1.0  -0.1293
  C  C264  1  0.197710  0.567600  0.802290  1.0  -0.1348
  C  C265  1  0.153800  0.570700  0.846200  1.0  -0.0877
  C  C266  1  0.221190  0.702550  0.221190  1.0  -0.0779
  C  C267  1  0.868880  0.797180  0.868880  1.0  0.4099
  C  C268  1  0.081280  0.478780  0.081280  1.0  0.6949
  C  C269  1  0.191260  0.647410  0.191260  1.0  -0.0002
  C  C270  1  0.896710  0.743940  0.896710  1.0  -0.1133
  C  C271  1  0.129740  0.480520  0.129740  1.0  -0.1138
  C  C272  1  0.149500  0.536870  0.149500  1.0  -0.1044
  C  C273  1  0.194710  0.540880  0.194710  1.0  0.2457
  C  C274  1  0.217700  0.489000  0.217700  1.0  -0.1356
  C  C275  1  0.197710  0.432400  0.197710  1.0  -0.1323
  C  C276  1  0.153800  0.429300  0.153800  1.0  -0.1041
  C  C277  1  0.778810  0.702550  0.778810  1.0  -0.0631
  C  C278  1  0.131120  0.797180  0.131120  1.0  0.398
  C  C279  1  0.918720  0.478780  0.918720  1.0  0.6939
  C  C280  1  0.808740  0.647410  0.808740  1.0  0.0088
  C  C281  1  0.103290  0.743940  0.103290  1.0  -0.1092
  C  C282  1  0.870260  0.480520  0.870260  1.0  -0.1121
  C  C283  1  0.850500  0.536870  0.850500  1.0  -0.1102
  C  C284  1  0.805290  0.540880  0.805290  1.0  0.2471
  C  C285  1  0.782300  0.489000  0.782300  1.0  -0.1324
  C  C286  1  0.802290  0.432400  0.802290  1.0  -0.1331
  C  C287  1  0.846200  0.429300  0.846200  1.0  -0.0947
  C  C288  1  0.778810  0.297450  0.221190  1.0  -0.0657
  C  C289  1  0.131120  0.202820  0.868880  1.0  0.4095
  C  C290  1  0.918720  0.521220  0.081280  1.0  0.6943
  C  C291  1  0.808740  0.352590  0.191260  1.0  -0.0077
  C  C292  1  0.103290  0.256060  0.896710  1.0  -0.1124
  C  C293  1  0.870260  0.519480  0.129740  1.0  -0.1148
  C  C294  1  0.850500  0.463130  0.149500  1.0  -0.0973
  C  C295  1  0.805290  0.459120  0.194710  1.0  0.2358
  C  C296  1  0.782300  0.511000  0.217700  1.0  -0.1376
  C  C297  1  0.802290  0.567600  0.197710  1.0  -0.133
  C  C298  1  0.846200  0.570700  0.153800  1.0  -0.085
  C  C299  1  0.778810  0.221190  0.297450  1.0  -0.0672
  C  C300  1  0.131120  0.868880  0.202820  1.0  0.405
  C  C301  1  0.918720  0.081280  0.521220  1.0  0.6945
  C  C302  1  0.808740  0.191260  0.352590  1.0  -0.0087
  C  C303  1  0.103290  0.896710  0.256060  1.0  -0.1129
  C  C304  1  0.870260  0.129740  0.519480  1.0  -0.1116
  C  C305  1  0.850500  0.149500  0.463130  1.0  -0.0965
  C  C306  1  0.805290  0.194710  0.459120  1.0  0.235
  C  C307  1  0.782300  0.217700  0.511000  1.0  -0.1406
  C  C308  1  0.802290  0.197710  0.567600  1.0  -0.1302
  C  C309  1  0.846200  0.153800  0.570700  1.0  -0.0786
  C  C310  1  0.221190  0.221190  0.702550  1.0  -0.0786
  C  C311  1  0.868880  0.868880  0.797180  1.0  0.402
  C  C312  1  0.081280  0.081280  0.478780  1.0  0.6948
  C  C313  1  0.191260  0.191260  0.647410  1.0  0.0004
  C  C314  1  0.896710  0.896710  0.743940  1.0  -0.1139
  C  C315  1  0.129740  0.129740  0.480520  1.0  -0.1112
  C  C316  1  0.149500  0.149500  0.536870  1.0  -0.1044
  C  C317  1  0.194710  0.194710  0.540880  1.0  0.2458
  C  C318  1  0.217700  0.217700  0.489000  1.0  -0.1385
  C  C319  1  0.197710  0.197710  0.432400  1.0  -0.1284
  C  C320  1  0.153800  0.153800  0.429300  1.0  -0.0977
  C  C321  1  0.778810  0.778810  0.702550  1.0  -0.0623
  C  C322  1  0.131120  0.131120  0.797180  1.0  0.3923
  C  C323  1  0.918720  0.918720  0.478780  1.0  0.6943
  C  C324  1  0.808740  0.808740  0.647410  1.0  0.0101
  C  C325  1  0.103290  0.103290  0.743940  1.0  -0.109
  C  C326  1  0.870260  0.870260  0.480520  1.0  -0.11
  C  C327  1  0.850500  0.850500  0.536870  1.0  -0.11
  C  C328  1  0.805290  0.805290  0.540880  1.0  0.2468
  C  C329  1  0.782300  0.782300  0.489000  1.0  -0.1336
  C  C330  1  0.802290  0.802290  0.432400  1.0  -0.1285
  C  C331  1  0.846200  0.846200  0.429300  1.0  -0.089
  C  C332  1  0.221190  0.778810  0.297450  1.0  -0.0641
  C  C333  1  0.868880  0.131120  0.202820  1.0  0.4008
  C  C334  1  0.081280  0.918720  0.521220  1.0  0.6958
  C  C335  1  0.191260  0.808740  0.352590  1.0  -0.0259
  C  C336  1  0.896710  0.103290  0.256060  1.0  -0.1143
  C  C337  1  0.129740  0.870260  0.519480  1.0  -0.1114
  C  C338  1  0.149500  0.850500  0.463130  1.0  -0.0976
  C  C339  1  0.194710  0.805290  0.459120  1.0  0.2358
  C  C340  1  0.217700  0.782300  0.511000  1.0  -0.1299
  C  C341  1  0.197710  0.802290  0.567600  1.0  -0.1307
  C  C342  1  0.153800  0.846200  0.570700  1.0  -0.0804
  C  C343  1  0.273660  0.726340  0.196580  1.0  0.0449
  C  C344  1  0.301530  0.698470  0.139960  1.0  -0.328
  C  C345  1  0.726340  0.273660  0.196580  1.0  0.0406
  C  C346  1  0.698470  0.301530  0.139960  1.0  -0.4355
  C  C347  1  0.726340  0.726340  0.803420  1.0  0.0462
  C  C348  1  0.698470  0.698470  0.860040  1.0  -0.3298
  C  C349  1  0.273660  0.273660  0.803420  1.0  0.0407
  C  C350  1  0.301530  0.301530  0.860040  1.0  -0.4282
  C  C351  1  0.196580  0.273660  0.726340  1.0  0.0467
  C  C352  1  0.139960  0.301530  0.698470  1.0  -0.3796
  C  C353  1  0.196580  0.726340  0.273660  1.0  0.0489
  C  C354  1  0.139960  0.698470  0.301530  1.0  -0.38
  C  C355  1  0.803420  0.726340  0.726340  1.0  0.0383
  C  C356  1  0.860040  0.698470  0.698470  1.0  -0.3268
  C  C357  1  0.803420  0.273660  0.273660  1.0  0.0396
  C  C358  1  0.860040  0.301530  0.301530  1.0  -0.4315
  C  C359  1  0.726340  0.196580  0.273660  1.0  0.0376
  C  C360  1  0.698470  0.139960  0.301530  1.0  -0.4353
  C  C361  1  0.273660  0.196580  0.726340  1.0  0.0407
  C  C362  1  0.301530  0.139960  0.698470  1.0  -0.3287
  C  C363  1  0.726340  0.803420  0.726340  1.0  0.0404
  C  C364  1  0.698470  0.860040  0.698470  1.0  -0.3299
  C  C365  1  0.273660  0.803420  0.273660  1.0  0.0361
  C  C366  1  0.301530  0.860040  0.301530  1.0  -0.4268
  N  N367  1  0.351290  0.046450  0.953550  1.0  -0.3313
  N  N368  1  0.648710  0.953550  0.953550  1.0  -0.331
  N  N369  1  0.648710  0.046450  0.046450  1.0  -0.3313
  N  N370  1  0.351290  0.953550  0.046450  1.0  -0.3321
  N  N371  1  0.953550  0.351290  0.046450  1.0  -0.3299
  N  N372  1  0.953550  0.648710  0.953550  1.0  -0.3306
  N  N373  1  0.046450  0.648710  0.046450  1.0  -0.3307
  N  N374  1  0.046450  0.351290  0.953550  1.0  -0.3297
  N  N375  1  0.046450  0.953550  0.351290  1.0  -0.331
  N  N376  1  0.953550  0.953550  0.648710  1.0  -0.3314
  N  N377  1  0.046450  0.046450  0.648710  1.0  -0.3307
  N  N378  1  0.953550  0.046450  0.351290  1.0  -0.3307
  N  N379  1  0.180500  0.180500  0.895160  1.0  -0.5689
  N  N380  1  0.819500  0.819500  0.895160  1.0  -0.5663
  N  N381  1  0.819500  0.180500  0.104840  1.0  -0.567
  N  N382  1  0.180500  0.819500  0.104840  1.0  -0.5647
  N  N383  1  0.895160  0.180500  0.180500  1.0  -0.5611
  N  N384  1  0.895160  0.819500  0.819500  1.0  -0.5654
  N  N385  1  0.104840  0.819500  0.180500  1.0  -0.5751
  N  N386  1  0.104840  0.180500  0.819500  1.0  -0.5738
  N  N387  1  0.180500  0.895160  0.180500  1.0  -0.568
  N  N388  1  0.819500  0.895160  0.819500  1.0  -0.5668
  N  N389  1  0.180500  0.104840  0.819500  1.0  -0.5664
  N  N390  1  0.819500  0.104840  0.180500  1.0  -0.5707
  O  O391  1  0.472210  0.938020  0.061980  1.0  -0.6028
  O  O392  1  0.406150  0.783670  0.216330  1.0  -0.3004
  O  O393  1  0.573150  0.935710  0.064290  1.0  -0.5791
  O  O394  1  0.527790  0.061980  0.061980  1.0  -0.6036
  O  O395  1  0.593850  0.216330  0.216330  1.0  -0.2958
  O  O396  1  0.426850  0.064290  0.064290  1.0  -0.578
  O  O397  1  0.527790  0.938020  0.938020  1.0  -0.603
  O  O398  1  0.593850  0.783670  0.783670  1.0  -0.2939
  O  O399  1  0.426850  0.935710  0.935710  1.0  -0.5782
  O  O400  1  0.472210  0.061980  0.938020  1.0  -0.603
  O  O401  1  0.406150  0.216330  0.783670  1.0  -0.301
  O  O402  1  0.573150  0.064290  0.935710  1.0  -0.5789
  O  O403  1  0.061980  0.472210  0.938020  1.0  -0.6064
  O  O404  1  0.216330  0.406150  0.783670  1.0  -0.2953
  O  O405  1  0.064290  0.573150  0.935710  1.0  -0.5802
  O  O406  1  0.061980  0.527790  0.061980  1.0  -0.6062
  O  O407  1  0.216330  0.593850  0.216330  1.0  -0.287
  O  O408  1  0.064290  0.426850  0.064290  1.0  -0.5797
  O  O409  1  0.938020  0.527790  0.938020  1.0  -0.6077
  O  O410  1  0.783670  0.593850  0.783670  1.0  -0.293
  O  O411  1  0.935710  0.426850  0.935710  1.0  -0.5801
  O  O412  1  0.938020  0.472210  0.061980  1.0  -0.6074
  O  O413  1  0.783670  0.406150  0.216330  1.0  -0.2988
  O  O414  1  0.935710  0.573150  0.064290  1.0  -0.5808
  O  O415  1  0.938020  0.061980  0.472210  1.0  -0.6062
  O  O416  1  0.783670  0.216330  0.406150  1.0  -0.2957
  O  O417  1  0.935710  0.064290  0.573150  1.0  -0.5802
  O  O418  1  0.061980  0.061980  0.527790  1.0  -0.6045
  O  O419  1  0.216330  0.216330  0.593850  1.0  -0.2861
  O  O420  1  0.064290  0.064290  0.426850  1.0  -0.579
  O  O421  1  0.938020  0.938020  0.527790  1.0  -0.6052
  O  O422  1  0.783670  0.783670  0.593850  1.0  -0.2899
  O  O423  1  0.935710  0.935710  0.426850  1.0  -0.5797
  O  O424  1  0.061980  0.938020  0.472210  1.0  -0.605
  O  O425  1  0.216330  0.783670  0.406150  1.0  -0.2903
  O  O426  1  0.064290  0.935710  0.573150  1.0  -0.579
