# generated using pymatgen
data_NiH26C34(N2O3)2
_symmetry_space_group_name_H-M   'P 1'
_cell_length_a   22.03900000
_cell_length_b   22.03900000
_cell_length_c   22.03900000
_cell_angle_alpha   90.00000000
_cell_angle_beta   90.00000000
_cell_angle_gamma   90.00000000
_symmetry_Int_Tables_number   1
_chemical_formula_structural   NiH26C34(N2O3)2
_chemical_formula_sum   'Ni6 H156 C204 N24 O36'
_cell_volume   10704.72844532
_cell_formula_units_Z   6
loop_
 _symmetry_equiv_pos_site_id
 _symmetry_equiv_pos_as_xyz
  1  'x, y, z'
loop_
 _atom_site_type_symbol
 _atom_site_label
 _atom_site_symmetry_multiplicity
 _atom_site_fract_x
 _atom_site_fract_y
 _atom_site_fract_z
 _atom_site_occupancy
 _atom_site_charge
  Ni  Ni1  1  0.423860  0.000000  0.000000  1.0  0.7754
  Ni  Ni2  1  0.576140  0.000000  0.000000  1.0  0.774
  Ni  Ni3  1  0.000000  0.423860  0.000000  1.0  0.7753
  Ni  Ni4  1  0.000000  0.576140  0.000000  1.0  0.7762
  Ni  Ni5  1  0.000000  0.000000  0.423860  1.0  0.7765
  Ni  Ni6  1  0.000000  0.000000  0.576140  1.0  0.7764
  H  H7  1  0.351990  0.859090  0.200780  1.0  0.1143
  H  H8  1  0.261560  0.026880  0.832470  1.0  0.1084
  H  H9  1  0.353310  0.983430  0.882440  1.0  0.0963
  H  H10  1  0.648010  0.140910  0.200780  1.0  0.1124
  H  H11  1  0.738440  0.973120  0.832470  1.0  0.1111
  H  H12  1  0.646690  0.016570  0.882440  1.0  0.0962
  H  H13  1  0.648010  0.859090  0.799220  1.0  0.1167
  H  H14  1  0.738440  0.026880  0.167530  1.0  0.109
  H  H15  1  0.646690  0.983430  0.117560  1.0  0.0995
  H  H16  1  0.351990  0.140910  0.799220  1.0  0.1188
  H  H17  1  0.261560  0.973120  0.167530  1.0  0.109
  H  H18  1  0.353310  0.016570  0.117560  1.0  0.1001
  H  H19  1  0.200780  0.351990  0.859090  1.0  0.1023
  H  H20  1  0.832470  0.261560  0.026880  1.0  0.1046
  H  H21  1  0.882440  0.353310  0.983430  1.0  0.0968
  H  H22  1  0.200780  0.648010  0.140910  1.0  0.1146
  H  H23  1  0.832470  0.738440  0.973120  1.0  0.1082
  H  H24  1  0.882440  0.646690  0.016570  1.0  0.0948
  H  H25  1  0.799220  0.648010  0.859090  1.0  0.114
  H  H26  1  0.167530  0.738440  0.026880  1.0  0.1091
  H  H27  1  0.117560  0.646690  0.983430  1.0  0.0928
  H  H28  1  0.799220  0.351990  0.140910  1.0  0.1099
  H  H29  1  0.167530  0.261560  0.973120  1.0  0.1077
  H  H30  1  0.117560  0.353310  0.016570  1.0  0.0971
  H  H31  1  0.859090  0.200780  0.351990  1.0  0.1069
  H  H32  1  0.026880  0.832470  0.261560  1.0  0.1097
  H  H33  1  0.983430  0.882440  0.353310  1.0  0.0977
  H  H34  1  0.140910  0.200780  0.648010  1.0  0.1044
  H  H35  1  0.973120  0.832470  0.738440  1.0  0.1069
  H  H36  1  0.016570  0.882440  0.646690  1.0  0.0961
  H  H37  1  0.859090  0.799220  0.648010  1.0  0.1185
  H  H38  1  0.026880  0.167530  0.738440  1.0  0.1064
  H  H39  1  0.983430  0.117560  0.646690  1.0  0.0991
  H  H40  1  0.140910  0.799220  0.351990  1.0  0.1444
  H  H41  1  0.973120  0.167530  0.261560  1.0  0.1071
  H  H42  1  0.016570  0.117560  0.353310  1.0  0.0985
  H  H43  1  0.859110  0.351680  0.200620  1.0  0.1076
  H  H44  1  0.026880  0.261560  0.832470  1.0  0.1092
  H  H45  1  0.983430  0.353310  0.882440  1.0  0.0987
  H  H46  1  0.140890  0.648320  0.200620  1.0  0.108
  H  H47  1  0.973120  0.738440  0.832470  1.0  0.1062
  H  H48  1  0.016570  0.646690  0.882440  1.0  0.0956
  H  H49  1  0.859110  0.648320  0.799380  1.0  0.1205
  H  H50  1  0.026880  0.738440  0.167530  1.0  0.1063
  H  H51  1  0.983430  0.646690  0.117560  1.0  0.0986
  H  H52  1  0.140890  0.351680  0.799380  1.0  0.1465
  H  H53  1  0.973120  0.261560  0.167530  1.0  0.1061
  H  H54  1  0.016570  0.353310  0.117560  1.0  0.0988
  H  H55  1  0.351680  0.200620  0.859110  1.0  0.111
  H  H56  1  0.261560  0.832470  0.026880  1.0  0.1086
  H  H57  1  0.353310  0.882440  0.983430  1.0  0.0935
  H  H58  1  0.648320  0.200620  0.140890  1.0  0.1089
  H  H59  1  0.738440  0.832470  0.973120  1.0  0.1086
  H  H60  1  0.646690  0.882440  0.016570  1.0  0.0952
  H  H61  1  0.648320  0.799380  0.859110  1.0  0.1151
  H  H62  1  0.738440  0.167530  0.026880  1.0  0.109
  H  H63  1  0.646690  0.117560  0.983430  1.0  0.0968
  H  H64  1  0.351680  0.799380  0.140890  1.0  0.1158
  H  H65  1  0.261560  0.167530  0.973120  1.0  0.1078
  H  H66  1  0.353310  0.117560  0.016570  1.0  0.0991
  H  H67  1  0.200620  0.859110  0.351680  1.0  0.108
  H  H68  1  0.832470  0.026880  0.261560  1.0  0.1058
  H  H69  1  0.882440  0.983430  0.353310  1.0  0.0991
  H  H70  1  0.200620  0.140890  0.648320  1.0  0.1162
  H  H71  1  0.832470  0.973120  0.738440  1.0  0.1112
  H  H72  1  0.882440  0.016570  0.646690  1.0  0.0962
  H  H73  1  0.799380  0.859110  0.648320  1.0  0.1178
  H  H74  1  0.167530  0.026880  0.738440  1.0  0.1093
  H  H75  1  0.117560  0.983430  0.646690  1.0  0.0953
  H  H76  1  0.799380  0.140890  0.351680  1.0  0.1111
  H  H77  1  0.167530  0.973120  0.261560  1.0  0.1109
  H  H78  1  0.117560  0.016570  0.353310  1.0  0.098
  H  H79  1  0.420830  0.871080  0.128920  1.0  0.0912
  H  H80  1  0.510240  0.745710  0.254290  1.0  0.1172
  H  H81  1  0.610860  0.780100  0.219900  1.0  0.1106
  H  H82  1  0.617730  0.863050  0.136950  1.0  0.1083
  H  H83  1  0.579170  0.128920  0.128920  1.0  0.0885
  H  H84  1  0.489760  0.254290  0.254290  1.0  0.1164
  H  H85  1  0.389140  0.219900  0.219900  1.0  0.1018
  H  H86  1  0.382270  0.136950  0.136950  1.0  0.1075
  H  H87  1  0.579170  0.871080  0.871080  1.0  0.0873
  H  H88  1  0.489760  0.745710  0.745710  1.0  0.1191
  H  H89  1  0.389140  0.780100  0.780100  1.0  0.1035
  H  H90  1  0.382270  0.863050  0.863050  1.0  0.1077
  H  H91  1  0.420830  0.128920  0.871080  1.0  0.0919
  H  H92  1  0.510240  0.254290  0.745710  1.0  0.1185
  H  H93  1  0.610860  0.219900  0.780100  1.0  0.112
  H  H94  1  0.617730  0.136950  0.863050  1.0  0.1075
  H  H95  1  0.128920  0.420830  0.871080  1.0  0.0893
  H  H96  1  0.254290  0.510240  0.745710  1.0  0.1185
  H  H97  1  0.219900  0.610860  0.780100  1.0  0.1119
  H  H98  1  0.136950  0.617730  0.863050  1.0  0.1086
  H  H99  1  0.128920  0.579170  0.128920  1.0  0.0895
  H  H100  1  0.254290  0.489760  0.254290  1.0  0.116
  H  H101  1  0.219900  0.389140  0.219900  1.0  0.1065
  H  H102  1  0.136950  0.382270  0.136950  1.0  0.1082
  H  H103  1  0.871080  0.579170  0.871080  1.0  0.0883
  H  H104  1  0.745710  0.489760  0.745710  1.0  0.1175
  H  H105  1  0.780100  0.389140  0.780100  1.0  0.1025
  H  H106  1  0.863050  0.382270  0.863050  1.0  0.1069
  H  H107  1  0.871080  0.420830  0.128920  1.0  0.0878
  H  H108  1  0.745710  0.510240  0.254290  1.0  0.1157
  H  H109  1  0.780100  0.610860  0.219900  1.0  0.1109
  H  H110  1  0.863050  0.617730  0.136950  1.0  0.1082
  H  H111  1  0.871080  0.128920  0.420830  1.0  0.089
  H  H112  1  0.745710  0.254290  0.510240  1.0  0.1186
  H  H113  1  0.780100  0.219900  0.610860  1.0  0.1097
  H  H114  1  0.863050  0.136950  0.617730  1.0  0.1062
  H  H115  1  0.128920  0.128920  0.579170  1.0  0.0908
  H  H116  1  0.254290  0.254290  0.489760  1.0  0.1184
  H  H117  1  0.219900  0.219900  0.389140  1.0  0.1063
  H  H118  1  0.136950  0.136950  0.382270  1.0  0.1067
  H  H119  1  0.871080  0.871080  0.579170  1.0  0.0888
  H  H120  1  0.745710  0.745710  0.489760  1.0  0.1197
  H  H121  1  0.780100  0.780100  0.389140  1.0  0.1012
  H  H122  1  0.863050  0.863050  0.382270  1.0  0.1055
  H  H123  1  0.128920  0.871080  0.420830  1.0  0.0895
  H  H124  1  0.254290  0.745710  0.510240  1.0  0.1209
  H  H125  1  0.219900  0.780100  0.610860  1.0  0.1101
  H  H126  1  0.136950  0.863050  0.617730  1.0  0.1063
  H  H127  1  0.281490  0.720310  0.097670  1.0  0.125
  H  H128  1  0.291900  0.647500  0.139210  1.0  0.1108
  H  H129  1  0.352870  0.705940  0.140480  1.0  0.1145
  H  H130  1  0.675520  0.264790  0.111690  1.0  0.1287
  H  H131  1  0.735190  0.324580  0.111750  1.0  0.1278
  H  H132  1  0.663030  0.336880  0.153910  1.0  0.1275
  H  H133  1  0.706970  0.647290  0.860120  1.0  0.1106
  H  H134  1  0.647310  0.707080  0.860180  1.0  0.1141
  H  H135  1  0.719460  0.719370  0.902340  1.0  0.1276
  H  H136  1  0.336020  0.337810  0.846100  1.0  0.1308
  H  H137  1  0.325610  0.265000  0.887640  1.0  0.1247
  H  H138  1  0.264630  0.323440  0.888910  1.0  0.1108
  H  H139  1  0.101430  0.267110  0.698400  1.0  0.125
  H  H140  1  0.150140  0.315910  0.649610  1.0  0.1182
  H  H141  1  0.125780  0.343240  0.725730  1.0  0.1222
  H  H142  1  0.150140  0.649610  0.315910  1.0  0.1206
  H  H143  1  0.101430  0.698400  0.267110  1.0  0.1269
  H  H144  1  0.125780  0.725730  0.343240  1.0  0.1304
  H  H145  1  0.860150  0.707030  0.647300  1.0  0.1161
  H  H146  1  0.860150  0.647300  0.707030  1.0  0.1156
  H  H147  1  0.902340  0.719420  0.719420  1.0  0.1217
  H  H148  1  0.888280  0.324530  0.264800  1.0  0.1265
  H  H149  1  0.888280  0.264800  0.324530  1.0  0.1281
  H  H150  1  0.846090  0.336920  0.336920  1.0  0.1238
  H  H151  1  0.735190  0.111750  0.324580  1.0  0.1296
  H  H152  1  0.675520  0.111690  0.264790  1.0  0.1297
  H  H153  1  0.663030  0.153910  0.336880  1.0  0.1279
  H  H154  1  0.291900  0.139210  0.647500  1.0  0.1127
  H  H155  1  0.281490  0.097670  0.720310  1.0  0.1256
  H  H156  1  0.352870  0.140480  0.705940  1.0  0.1145
  H  H157  1  0.647310  0.860180  0.707080  1.0  0.1153
  H  H158  1  0.706970  0.860120  0.647290  1.0  0.1116
  H  H159  1  0.719460  0.902340  0.719370  1.0  0.1273
  H  H160  1  0.325610  0.887640  0.265000  1.0  0.1257
  H  H161  1  0.336020  0.846100  0.337810  1.0  0.131
  H  H162  1  0.264630  0.888910  0.323440  1.0  0.1125
  C  C163  1  0.281640  0.049840  0.874240  1.0  -0.1022
  C  C164  1  0.330090  0.025050  0.902560  1.0  0.1954
  C  C165  1  0.718360  0.950160  0.874240  1.0  -0.1043
  C  C166  1  0.669910  0.974950  0.902560  1.0  0.1956
  C  C167  1  0.718360  0.049840  0.125760  1.0  -0.1016
  C  C168  1  0.669910  0.025050  0.097440  1.0  0.1962
  C  C169  1  0.281640  0.950160  0.125760  1.0  -0.1056
  C  C170  1  0.330090  0.974950  0.097440  1.0  0.1937
  C  C171  1  0.874240  0.281640  0.049840  1.0  -0.1021
  C  C172  1  0.902560  0.330090  0.025050  1.0  0.204
  C  C173  1  0.874240  0.718360  0.950160  1.0  -0.1015
  C  C174  1  0.902560  0.669910  0.974950  1.0  0.2034
  C  C175  1  0.125760  0.718360  0.049840  1.0  -0.1074
  C  C176  1  0.097440  0.669910  0.025050  1.0  0.2023
  C  C177  1  0.125760  0.281640  0.950160  1.0  -0.102
  C  C178  1  0.097440  0.330090  0.974950  1.0  0.2023
  C  C179  1  0.049840  0.874240  0.281640  1.0  -0.1076
  C  C180  1  0.025050  0.902560  0.330090  1.0  0.2011
  C  C181  1  0.950160  0.874240  0.718360  1.0  -0.1015
  C  C182  1  0.974950  0.902560  0.669910  1.0  0.1986
  C  C183  1  0.049840  0.125760  0.718360  1.0  -0.1124
  C  C184  1  0.025050  0.097440  0.669910  1.0  0.2003
  C  C185  1  0.950160  0.125760  0.281640  1.0  -0.1028
  C  C186  1  0.974950  0.097440  0.330090  1.0  0.1983
  C  C187  1  0.049840  0.281640  0.874240  1.0  -0.1104
  C  C188  1  0.025050  0.330090  0.902560  1.0  0.2
  C  C189  1  0.950160  0.718360  0.874240  1.0  -0.1053
  C  C190  1  0.974950  0.669910  0.902560  1.0  0.198
  C  C191  1  0.049840  0.718360  0.125760  1.0  -0.1174
  C  C192  1  0.025050  0.669910  0.097440  1.0  0.199
  C  C193  1  0.950160  0.281640  0.125760  1.0  -0.1045
  C  C194  1  0.974950  0.330090  0.097440  1.0  0.1986
  C  C195  1  0.281640  0.874240  0.049840  1.0  -0.101
  C  C196  1  0.330090  0.902560  0.025050  1.0  0.2016
  C  C197  1  0.718360  0.874240  0.950160  1.0  -0.0992
  C  C198  1  0.669910  0.902560  0.974950  1.0  0.201
  C  C199  1  0.718360  0.125760  0.049840  1.0  -0.1017
  C  C200  1  0.669910  0.097440  0.025050  1.0  0.2008
  C  C201  1  0.281640  0.125760  0.950160  1.0  -0.101
  C  C202  1  0.330090  0.097440  0.974950  1.0  0.2009
  C  C203  1  0.874240  0.049840  0.281640  1.0  -0.1063
  C  C204  1  0.902560  0.025050  0.330090  1.0  0.1963
  C  C205  1  0.874240  0.950160  0.718360  1.0  -0.1094
  C  C206  1  0.902560  0.974950  0.669910  1.0  0.1951
  C  C207  1  0.125760  0.049840  0.718360  1.0  -0.1118
  C  C208  1  0.097440  0.025050  0.669910  1.0  0.1955
  C  C209  1  0.125760  0.950160  0.281640  1.0  -0.1097
  C  C210  1  0.097440  0.974950  0.330090  1.0  0.1943
  C  C211  1  0.298260  0.777820  0.222180  1.0  -0.0795
  C  C212  1  0.203120  0.131340  0.868660  1.0  0.416
  C  C213  1  0.521720  0.917740  0.082260  1.0  0.7003
  C  C214  1  0.353120  0.808150  0.191850  1.0  -0.007
  C  C215  1  0.256950  0.103300  0.896700  1.0  -0.1218
  C  C216  1  0.520200  0.870190  0.129810  1.0  -0.0926
  C  C217  1  0.463750  0.850660  0.149340  1.0  -0.1139
  C  C218  1  0.459340  0.804650  0.195350  1.0  0.251
  C  C219  1  0.511400  0.782280  0.217720  1.0  -0.0612
  C  C220  1  0.568500  0.801090  0.198910  1.0  -0.1331
  C  C221  1  0.571600  0.846500  0.153500  1.0  -0.0952
  C  C222  1  0.701740  0.222180  0.222180  1.0  -0.0805
  C  C223  1  0.796880  0.868660  0.868660  1.0  0.4133
  C  C224  1  0.478280  0.082260  0.082260  1.0  0.7003
  C  C225  1  0.646880  0.191850  0.191850  1.0  -0.0294
  C  C226  1  0.743050  0.896700  0.896700  1.0  -0.1204
  C  C227  1  0.479800  0.129810  0.129810  1.0  -0.0928
  C  C228  1  0.536250  0.149340  0.149340  1.0  -0.11
  C  C229  1  0.540660  0.195350  0.195350  1.0  0.2401
  C  C230  1  0.488600  0.217720  0.217720  1.0  -0.0592
  C  C231  1  0.431500  0.198910  0.198910  1.0  -0.1303
  C  C232  1  0.428400  0.153500  0.153500  1.0  -0.1007
  C  C233  1  0.701740  0.777820  0.777820  1.0  -0.0909
  C  C234  1  0.796880  0.131340  0.131340  1.0  0.41
  C  C235  1  0.478280  0.917740  0.917740  1.0  0.7
  C  C236  1  0.646880  0.808150  0.808150  1.0  -0.0009
  C  C237  1  0.743050  0.103300  0.103300  1.0  -0.1198
  C  C238  1  0.479800  0.870190  0.870190  1.0  -0.0943
  C  C239  1  0.536250  0.850660  0.850660  1.0  -0.1146
  C  C240  1  0.540660  0.804650  0.804650  1.0  0.2573
  C  C241  1  0.488600  0.782280  0.782280  1.0  -0.0499
  C  C242  1  0.431500  0.801090  0.801090  1.0  -0.1299
  C  C243  1  0.428400  0.846500  0.846500  1.0  -0.1
  C  C244  1  0.298260  0.222180  0.777820  1.0  -0.0796
  C  C245  1  0.203120  0.868660  0.131340  1.0  0.4138
  C  C246  1  0.521720  0.082260  0.917740  1.0  0.6988
  C  C247  1  0.353120  0.191850  0.808150  1.0  -0.0077
  C  C248  1  0.256950  0.896700  0.103300  1.0  -0.1218
  C  C249  1  0.520200  0.129810  0.870190  1.0  -0.0917
  C  C250  1  0.463750  0.149340  0.850660  1.0  -0.1142
  C  C251  1  0.459340  0.195350  0.804650  1.0  0.2515
  C  C252  1  0.511400  0.217720  0.782280  1.0  -0.0635
  C  C253  1  0.568500  0.198910  0.801090  1.0  -0.133
  C  C254  1  0.571600  0.153500  0.846500  1.0  -0.0951
  C  C255  1  0.222180  0.298260  0.777820  1.0  -0.1112
  C  C256  1  0.868660  0.203120  0.131340  1.0  0.4145
  C  C257  1  0.082260  0.521720  0.917740  1.0  0.7007
  C  C258  1  0.191850  0.353120  0.808150  1.0  -0.0166
  C  C259  1  0.896700  0.256950  0.103300  1.0  -0.1218
  C  C260  1  0.129810  0.520200  0.870190  1.0  -0.0951
  C  C261  1  0.149340  0.463750  0.850660  1.0  -0.1085
  C  C262  1  0.195350  0.459340  0.804650  1.0  0.2516
  C  C263  1  0.217720  0.511400  0.782280  1.0  -0.0605
  C  C264  1  0.198910  0.568500  0.801090  1.0  -0.1318
  C  C265  1  0.153500  0.571600  0.846500  1.0  -0.0915
  C  C266  1  0.222180  0.701740  0.222180  1.0  -0.1144
  C  C267  1  0.868660  0.796880  0.868660  1.0  0.4173
  C  C268  1  0.082260  0.478280  0.082260  1.0  0.7018
  C  C269  1  0.191850  0.646880  0.191850  1.0  -0.0053
  C  C270  1  0.896700  0.743050  0.896700  1.0  -0.1221
  C  C271  1  0.129810  0.479800  0.129810  1.0  -0.0924
  C  C272  1  0.149340  0.536250  0.149340  1.0  -0.1129
  C  C273  1  0.195350  0.540660  0.195350  1.0  0.2541
  C  C274  1  0.217720  0.488600  0.217720  1.0  -0.0588
  C  C275  1  0.198910  0.431500  0.198910  1.0  -0.1316
  C  C276  1  0.153500  0.428400  0.153500  1.0  -0.1078
  C  C277  1  0.777820  0.701740  0.777820  1.0  -0.094
  C  C278  1  0.131340  0.796880  0.131340  1.0  0.4211
  C  C279  1  0.917740  0.478280  0.917740  1.0  0.7001
  C  C280  1  0.808150  0.646880  0.808150  1.0  -0.0008
  C  C281  1  0.103300  0.743050  0.103300  1.0  -0.1176
  C  C282  1  0.870190  0.479800  0.870190  1.0  -0.0942
  C  C283  1  0.850660  0.536250  0.850660  1.0  -0.1163
  C  C284  1  0.804650  0.540660  0.804650  1.0  0.2592
  C  C285  1  0.782280  0.488600  0.782280  1.0  -0.0542
  C  C286  1  0.801090  0.431500  0.801090  1.0  -0.1333
  C  C287  1  0.846500  0.428400  0.846500  1.0  -0.1146
  C  C288  1  0.777820  0.298260  0.222180  1.0  -0.0827
  C  C289  1  0.131340  0.203120  0.868660  1.0  0.4179
  C  C290  1  0.917740  0.521720  0.082260  1.0  0.7005
  C  C291  1  0.808150  0.353120  0.191850  1.0  -0.0298
  C  C292  1  0.103300  0.256950  0.896700  1.0  -0.1211
  C  C293  1  0.870190  0.520200  0.129810  1.0  -0.0929
  C  C294  1  0.850660  0.463750  0.149340  1.0  -0.1064
  C  C295  1  0.804650  0.459340  0.195350  1.0  0.2395
  C  C296  1  0.782280  0.511400  0.217720  1.0  -0.0621
  C  C297  1  0.801090  0.568500  0.198910  1.0  -0.1333
  C  C298  1  0.846500  0.571600  0.153500  1.0  -0.0944
  C  C299  1  0.777820  0.222180  0.298260  1.0  -0.0839
  C  C300  1  0.131340  0.868660  0.203120  1.0  0.4103
  C  C301  1  0.917740  0.082260  0.521720  1.0  0.7005
  C  C302  1  0.808150  0.191850  0.353120  1.0  -0.0306
  C  C303  1  0.103300  0.896700  0.256950  1.0  -0.1225
  C  C304  1  0.870190  0.129810  0.520200  1.0  -0.0915
  C  C305  1  0.850660  0.149340  0.463750  1.0  -0.1053
  C  C306  1  0.804650  0.195350  0.459340  1.0  0.2397
  C  C307  1  0.782280  0.217720  0.511400  1.0  -0.0651
  C  C308  1  0.801090  0.198910  0.568500  1.0  -0.1302
  C  C309  1  0.846500  0.153500  0.571600  1.0  -0.0898
  C  C310  1  0.222180  0.222180  0.701740  1.0  -0.1153
  C  C311  1  0.868660  0.868660  0.796880  1.0  0.4103
  C  C312  1  0.082260  0.082260  0.478280  1.0  0.7016
  C  C313  1  0.191850  0.191850  0.646880  1.0  -0.0038
  C  C314  1  0.896700  0.896700  0.743050  1.0  -0.1234
  C  C315  1  0.129810  0.129810  0.479800  1.0  -0.0909
  C  C316  1  0.149340  0.149340  0.536250  1.0  -0.1133
  C  C317  1  0.195350  0.195350  0.540660  1.0  0.2542
  C  C318  1  0.217720  0.217720  0.488600  1.0  -0.0619
  C  C319  1  0.198910  0.198910  0.431500  1.0  -0.1266
  C  C320  1  0.153500  0.153500  0.428400  1.0  -0.1037
  C  C321  1  0.777820  0.777820  0.701740  1.0  -0.0916
  C  C322  1  0.131340  0.131340  0.796880  1.0  0.4161
  C  C323  1  0.917740  0.917740  0.478280  1.0  0.7011
  C  C324  1  0.808150  0.808150  0.646880  1.0  1e-04
  C  C325  1  0.103300  0.103300  0.743050  1.0  -0.1172
  C  C326  1  0.870190  0.870190  0.479800  1.0  -0.093
  C  C327  1  0.850660  0.850660  0.536250  1.0  -0.1151
  C  C328  1  0.804650  0.804650  0.540660  1.0  0.2575
  C  C329  1  0.782280  0.782280  0.488600  1.0  -0.0549
  C  C330  1  0.801090  0.801090  0.431500  1.0  -0.1273
  C  C331  1  0.846500  0.846500  0.428400  1.0  -0.1096
  C  C332  1  0.222180  0.777820  0.298260  1.0  -0.1114
  C  C333  1  0.868660  0.131340  0.203120  1.0  0.4085
  C  C334  1  0.082260  0.917740  0.521720  1.0  0.7019
  C  C335  1  0.191850  0.808150  0.353120  1.0  -0.0139
  C  C336  1  0.896700  0.103300  0.256950  1.0  -0.1215
  C  C337  1  0.129810  0.870190  0.520200  1.0  -0.0947
  C  C338  1  0.149340  0.850660  0.463750  1.0  -0.1058
  C  C339  1  0.195350  0.804650  0.459340  1.0  0.2517
  C  C340  1  0.217720  0.782280  0.511400  1.0  -0.0602
  C  C341  1  0.198910  0.801090  0.568500  1.0  -0.1266
  C  C342  1  0.153500  0.846500  0.571600  1.0  -0.0856
  C  C343  1  0.273630  0.726370  0.196140  1.0  0.0579
  C  C344  1  0.301720  0.698280  0.139870  1.0  -0.331
  C  C345  1  0.726370  0.273630  0.196140  1.0  0.0549
  C  C346  1  0.698280  0.301720  0.139870  1.0  -0.3754
  C  C347  1  0.726370  0.726370  0.803860  1.0  0.0587
  C  C348  1  0.698280  0.698280  0.860130  1.0  -0.3303
  C  C349  1  0.273630  0.273630  0.803860  1.0  0.062
  C  C350  1  0.301720  0.301720  0.860130  1.0  -0.3679
  C  C351  1  0.196140  0.273630  0.726370  1.0  0.0575
  C  C352  1  0.139870  0.301720  0.698280  1.0  -0.3504
  C  C353  1  0.196140  0.726370  0.273630  1.0  0.0616
  C  C354  1  0.139870  0.698280  0.301720  1.0  -0.3507
  C  C355  1  0.803860  0.726370  0.726370  1.0  0.0525
  C  C356  1  0.860130  0.698280  0.698280  1.0  -0.3294
  C  C357  1  0.803860  0.273630  0.273630  1.0  0.0493
  C  C358  1  0.860130  0.301720  0.301720  1.0  -0.373
  C  C359  1  0.726370  0.196140  0.273630  1.0  0.0517
  C  C360  1  0.698280  0.139870  0.301720  1.0  -0.3743
  C  C361  1  0.273630  0.196140  0.726370  1.0  0.0545
  C  C362  1  0.301720  0.139870  0.698280  1.0  -0.3311
  C  C363  1  0.726370  0.803860  0.726370  1.0  0.0555
  C  C364  1  0.698280  0.860130  0.698280  1.0  -0.3292
  C  C365  1  0.273630  0.803860  0.273630  1.0  0.059
  C  C366  1  0.301720  0.860130  0.301720  1.0  -0.3652
  N  N367  1  0.352480  0.046770  0.953230  1.0  -0.3176
  N  N368  1  0.647520  0.953230  0.953230  1.0  -0.318
  N  N369  1  0.647520  0.046770  0.046770  1.0  -0.3185
  N  N370  1  0.352480  0.953230  0.046770  1.0  -0.3184
  N  N371  1  0.953230  0.352480  0.046770  1.0  -0.316
  N  N372  1  0.953230  0.647520  0.953230  1.0  -0.3167
  N  N373  1  0.046770  0.647520  0.046770  1.0  -0.3172
  N  N374  1  0.046770  0.352480  0.953230  1.0  -0.3152
  N  N375  1  0.046770  0.953230  0.352480  1.0  -0.3171
  N  N376  1  0.953230  0.953230  0.647520  1.0  -0.3178
  N  N377  1  0.046770  0.046770  0.647520  1.0  -0.3172
  N  N378  1  0.953230  0.046770  0.352480  1.0  -0.3166
  N  N379  1  0.180250  0.180250  0.894890  1.0  -0.5332
  N  N380  1  0.819750  0.819750  0.894890  1.0  -0.5346
  N  N381  1  0.819750  0.180250  0.105110  1.0  -0.5299
  N  N382  1  0.180250  0.819750  0.105110  1.0  -0.5354
  N  N383  1  0.894890  0.180250  0.180250  1.0  -0.5282
  N  N384  1  0.894890  0.819750  0.819750  1.0  -0.5322
  N  N385  1  0.105110  0.819750  0.180250  1.0  -0.5348
  N  N386  1  0.105110  0.180250  0.819750  1.0  -0.5338
  N  N387  1  0.180250  0.894890  0.180250  1.0  -0.5321
  N  N388  1  0.819750  0.894890  0.819750  1.0  -0.5339
  N  N389  1  0.180250  0.105110  0.819750  1.0  -0.5338
  N  N390  1  0.819750  0.105110  0.180250  1.0  -0.5317
  O  O391  1  0.472980  0.938050  0.061950  1.0  -0.6084
  O  O392  1  0.406510  0.783000  0.217000  1.0  -0.2878
  O  O393  1  0.573430  0.935520  0.064480  1.0  -0.6019
  O  O394  1  0.527020  0.061950  0.061950  1.0  -0.6094
  O  O395  1  0.593490  0.217000  0.217000  1.0  -0.2886
  O  O396  1  0.426570  0.064480  0.064480  1.0  -0.6026
  O  O397  1  0.527020  0.938050  0.938050  1.0  -0.6086
  O  O398  1  0.593490  0.783000  0.783000  1.0  -0.2985
  O  O399  1  0.426570  0.935520  0.935520  1.0  -0.6022
  O  O400  1  0.472980  0.061950  0.938050  1.0  -0.6091
  O  O401  1  0.406510  0.217000  0.783000  1.0  -0.2901
  O  O402  1  0.573430  0.064480  0.935520  1.0  -0.602
  O  O403  1  0.061950  0.472980  0.938050  1.0  -0.6123
  O  O404  1  0.217000  0.406510  0.783000  1.0  -0.2914
  O  O405  1  0.064480  0.573430  0.935520  1.0  -0.6039
  O  O406  1  0.061950  0.527020  0.061950  1.0  -0.6117
  O  O407  1  0.217000  0.593490  0.217000  1.0  -0.2852
  O  O408  1  0.064480  0.426570  0.064480  1.0  -0.6034
  O  O409  1  0.938050  0.527020  0.938050  1.0  -0.6129
  O  O410  1  0.783000  0.593490  0.783000  1.0  -0.2969
  O  O411  1  0.935520  0.426570  0.935520  1.0  -0.6032
  O  O412  1  0.938050  0.472980  0.061950  1.0  -0.6127
  O  O413  1  0.783000  0.406510  0.217000  1.0  -0.2883
  O  O414  1  0.935520  0.573430  0.064480  1.0  -0.6043
  O  O415  1  0.938050  0.061950  0.472980  1.0  -0.612
  O  O416  1  0.783000  0.217000  0.406510  1.0  -0.286
  O  O417  1  0.935520  0.064480  0.573430  1.0  -0.604
  O  O418  1  0.061950  0.061950  0.527020  1.0  -0.6109
  O  O419  1  0.217000  0.217000  0.593490  1.0  -0.2842
  O  O420  1  0.064480  0.064480  0.426570  1.0  -0.6023
  O  O421  1  0.938050  0.938050  0.527020  1.0  -0.611
  O  O422  1  0.783000  0.783000  0.593490  1.0  -0.2939
  O  O423  1  0.935520  0.935520  0.426570  1.0  -0.6021
  O  O424  1  0.061950  0.938050  0.472980  1.0  -0.6111
  O  O425  1  0.217000  0.783000  0.406510  1.0  -0.2864
  O  O426  1  0.064480  0.935520  0.573430  1.0  -0.6035
