# generated using pymatgen
data_Cu3Si2H48(C13O2)6
_symmetry_space_group_name_H-M   'P 1'
_cell_length_a   23.68470000
_cell_length_b   23.68470000
_cell_length_c   23.68470000
_cell_angle_alpha   60.00000000
_cell_angle_beta   60.00000000
_cell_angle_gamma   60.00000000
_symmetry_Int_Tables_number   1
_chemical_formula_structural   Cu3Si2H48(C13O2)6
_chemical_formula_sum   'Cu12 Si8 H192 C312 O48'
_cell_volume   9394.82439054
_cell_formula_units_Z   4
loop_
 _symmetry_equiv_pos_site_id
 _symmetry_equiv_pos_as_xyz
  1  'x, y, z'
loop_
 _atom_site_type_symbol
 _atom_site_label
 _atom_site_symmetry_multiplicity
 _atom_site_fract_x
 _atom_site_fract_y
 _atom_site_fract_z
 _atom_site_occupancy
 _atom_site_charge
  Cu  Cu1  1  0.717060  0.282940  0.717060  1.0  0.8771
  Cu  Cu2  1  0.360960  0.360960  0.639040  1.0  0.8412
  Cu  Cu3  1  0.360960  0.639040  0.639040  1.0  0.8392
  Cu  Cu4  1  0.282940  0.717060  0.282940  1.0  0.8807
  Cu  Cu5  1  0.639040  0.360960  0.360960  1.0  0.8356
  Cu  Cu6  1  0.639040  0.360960  0.639040  1.0  0.839
  Cu  Cu7  1  0.282940  0.282940  0.717060  1.0  0.8798
  Cu  Cu8  1  0.282940  0.717060  0.717060  1.0  0.8777
  Cu  Cu9  1  0.717060  0.282940  0.282940  1.0  0.8776
  Cu  Cu10  1  0.360960  0.639040  0.360960  1.0  0.8363
  Cu  Cu11  1  0.639040  0.639040  0.360960  1.0  0.8405
  Cu  Cu12  1  0.717060  0.717060  0.282940  1.0  0.8818
  Si  Si13  1  0.857540  0.857540  0.427380  1.0  1.0089
  Si  Si14  1  0.427380  0.857540  0.857540  1.0  1.0048
  Si  Si15  1  0.142460  0.142460  0.572620  1.0  1.0093
  Si  Si16  1  0.142460  0.142460  0.142460  1.0  1.009
  Si  Si17  1  0.857540  0.857540  0.857540  1.0  1.01
  Si  Si18  1  0.572620  0.142460  0.142460  1.0  1.0022
  Si  Si19  1  0.857540  0.427380  0.857540  1.0  1.0012
  Si  Si20  1  0.142460  0.572620  0.142460  1.0  1.0094
  H  H21  1  0.874500  0.728300  0.853900  1.0  0.0936
  H  H22  1  0.844100  0.934700  0.591500  1.0  0.0963
  H  H23  1  0.090600  0.692800  0.425800  1.0  0.1042
  H  H24  1  0.574200  0.209200  0.307200  1.0  0.1031
  H  H25  1  0.860800  0.284000  0.495400  1.0  0.0971
  H  H26  1  0.681400  0.224200  0.549400  1.0  0.1029
  H  H27  1  0.139000  0.401200  0.982800  1.0  0.1076
  H  H28  1  0.271700  0.125500  0.146100  1.0  0.0949
  H  H29  1  0.284000  0.359800  0.495400  1.0  0.097
  H  H30  1  0.455000  0.318600  0.775800  1.0  0.1021
  H  H31  1  0.102200  0.427800  0.643600  1.0  0.0992
  H  H32  1  0.728300  0.853900  0.874500  1.0  0.0946
  H  H33  1  0.543300  0.853900  0.728300  1.0  0.0935
  H  H34  1  0.377600  0.009600  0.791400  1.0  0.0946
  H  H35  1  0.173600  0.356400  0.897800  1.0  0.0993
  H  H36  1  0.681400  0.545000  0.224200  1.0  0.1023
  H  H37  1  0.456700  0.271700  0.146100  1.0  0.0918
  H  H38  1  0.640200  0.139200  0.716000  1.0  0.0978
  H  H39  1  0.549400  0.224200  0.545000  1.0  0.1024
  H  H40  1  0.224200  0.549400  0.681400  1.0  0.1033
  H  H41  1  0.572200  0.897800  0.356400  1.0  0.1003
  H  H42  1  0.790800  0.692800  0.090600  1.0  0.1042
  H  H43  1  0.139200  0.640200  0.504600  1.0  0.0974
  H  H44  1  0.591500  0.629700  0.844100  1.0  0.0964
  H  H45  1  0.791400  0.009600  0.821400  1.0  0.0967
  H  H46  1  0.017200  0.523000  0.598800  1.0  0.1064
  H  H47  1  0.139200  0.504600  0.716000  1.0  0.0968
  H  H48  1  0.821400  0.009600  0.377600  1.0  0.094
  H  H49  1  0.982800  0.477000  0.139000  1.0  0.107
  H  H50  1  0.775800  0.455000  0.318600  1.0  0.1038
  H  H51  1  0.408500  0.065300  0.155900  1.0  0.096
  H  H52  1  0.401200  0.139000  0.477000  1.0  0.1073
  H  H53  1  0.450600  0.775800  0.318600  1.0  0.1025
  H  H54  1  0.716000  0.504600  0.640200  1.0  0.0971
  H  H55  1  0.643600  0.826400  0.102200  1.0  0.1
  H  H56  1  0.318600  0.775800  0.455000  1.0  0.1025
  H  H57  1  0.450600  0.455000  0.775800  1.0  0.1025
  H  H58  1  0.370300  0.155900  0.065300  1.0  0.0976
  H  H59  1  0.629700  0.934700  0.844100  1.0  0.0963
  H  H60  1  0.622400  0.208600  0.990400  1.0  0.0983
  H  H61  1  0.790800  0.090600  0.425800  1.0  0.1046
  H  H62  1  0.982800  0.401200  0.477000  1.0  0.1076
  H  H63  1  0.990400  0.208600  0.178600  1.0  0.0952
  H  H64  1  0.178600  0.622400  0.990400  1.0  0.0966
  H  H65  1  0.178600  0.990400  0.208600  1.0  0.0939
  H  H66  1  0.549400  0.681400  0.224200  1.0  0.1023
  H  H67  1  0.897800  0.173600  0.356400  1.0  0.0993
  H  H68  1  0.370300  0.065300  0.408500  1.0  0.0961
  H  H69  1  0.821400  0.791400  0.009600  1.0  0.0946
  H  H70  1  0.853900  0.874500  0.728300  1.0  0.0925
  H  H71  1  0.504600  0.640200  0.716000  1.0  0.0976
  H  H72  1  0.318600  0.450600  0.775800  1.0  0.1038
  H  H73  1  0.090600  0.425800  0.790800  1.0  0.1026
  H  H74  1  0.495400  0.860800  0.284000  1.0  0.0964
  H  H75  1  0.090600  0.790800  0.692800  1.0  0.104
  H  H76  1  0.125500  0.456700  0.146100  1.0  0.0913
  H  H77  1  0.377600  0.791400  0.821400  1.0  0.0966
  H  H78  1  0.860800  0.495400  0.359800  1.0  0.0967
  H  H79  1  0.401200  0.477000  0.982800  1.0  0.1071
  H  H80  1  0.009600  0.791400  0.377600  1.0  0.0936
  H  H81  1  0.425800  0.790800  0.090600  1.0  0.1026
  H  H82  1  0.017200  0.861000  0.523000  1.0  0.1076
  H  H83  1  0.209200  0.307200  0.574200  1.0  0.1049
  H  H84  1  0.450600  0.318600  0.455000  1.0  0.1025
  H  H85  1  0.284000  0.860800  0.359800  1.0  0.0961
  H  H86  1  0.861000  0.523000  0.017200  1.0  0.1065
  H  H87  1  0.139200  0.716000  0.640200  1.0  0.0974
  H  H88  1  0.874500  0.543300  0.728300  1.0  0.0926
  H  H89  1  0.934700  0.844100  0.629700  1.0  0.0951
  H  H90  1  0.591500  0.934700  0.629700  1.0  0.0958
  H  H91  1  0.791400  0.821400  0.377600  1.0  0.0945
  H  H92  1  0.209200  0.574200  0.909400  1.0  0.1033
  H  H93  1  0.356400  0.173600  0.572200  1.0  0.1
  H  H94  1  0.456700  0.146100  0.125500  1.0  0.094
  H  H95  1  0.065300  0.408500  0.370300  1.0  0.0967
  H  H96  1  0.359800  0.860800  0.495400  1.0  0.0978
  H  H97  1  0.523000  0.017200  0.861000  1.0  0.1069
  H  H98  1  0.146100  0.271700  0.125500  1.0  0.094
  H  H99  1  0.408500  0.370300  0.065300  1.0  0.096
  H  H100  1  0.598800  0.861000  0.017200  1.0  0.1076
  H  H101  1  0.728300  0.543300  0.853900  1.0  0.092
  H  H102  1  0.572200  0.356400  0.173600  1.0  0.099
  H  H103  1  0.716000  0.640200  0.139200  1.0  0.0973
  H  H104  1  0.009600  0.821400  0.791400  1.0  0.0952
  H  H105  1  0.504600  0.139200  0.640200  1.0  0.0964
  H  H106  1  0.065300  0.155900  0.408500  1.0  0.0953
  H  H107  1  0.318600  0.455000  0.450600  1.0  0.1033
  H  H108  1  0.224200  0.545000  0.549400  1.0  0.1041
  H  H109  1  0.826400  0.643600  0.427800  1.0  0.0998
  H  H110  1  0.284000  0.495400  0.860800  1.0  0.0964
  H  H111  1  0.208600  0.622400  0.178600  1.0  0.0971
  H  H112  1  0.224200  0.681400  0.545000  1.0  0.1017
  H  H113  1  0.102200  0.643600  0.826400  1.0  0.0991
  H  H114  1  0.125500  0.271700  0.456700  1.0  0.0937
  H  H115  1  0.982800  0.139000  0.401200  1.0  0.1079
  H  H116  1  0.173600  0.572200  0.356400  1.0  0.0992
  H  H117  1  0.574200  0.909400  0.209200  1.0  0.1036
  H  H118  1  0.598800  0.017200  0.523000  1.0  0.1071
  H  H119  1  0.826400  0.102200  0.643600  1.0  0.0987
  H  H120  1  0.643600  0.102200  0.427800  1.0  0.0994
  H  H121  1  0.728300  0.874500  0.543300  1.0  0.095
  H  H122  1  0.208600  0.990400  0.622400  1.0  0.0953
  H  H123  1  0.990400  0.622400  0.208600  1.0  0.0958
  H  H124  1  0.897800  0.572200  0.173600  1.0  0.0999
  H  H125  1  0.640200  0.504600  0.139200  1.0  0.0971
  H  H126  1  0.356400  0.572200  0.897800  1.0  0.0997
  H  H127  1  0.643600  0.427800  0.826400  1.0  0.0999
  H  H128  1  0.065300  0.370300  0.155900  1.0  0.0967
  H  H129  1  0.408500  0.155900  0.370300  1.0  0.0968
  H  H130  1  0.861000  0.598800  0.523000  1.0  0.1081
  H  H131  1  0.146100  0.125500  0.456700  1.0  0.0935
  H  H132  1  0.009600  0.377600  0.821400  1.0  0.0955
  H  H133  1  0.574200  0.307200  0.909400  1.0  0.1037
  H  H134  1  0.477000  0.982800  0.401200  1.0  0.1068
  H  H135  1  0.477000  0.139000  0.982800  1.0  0.107
  H  H136  1  0.173600  0.897800  0.572200  1.0  0.0986
  H  H137  1  0.495400  0.284000  0.359800  1.0  0.0968
  H  H138  1  0.102200  0.826400  0.427800  1.0  0.0993
  H  H139  1  0.934700  0.591500  0.844100  1.0  0.0968
  H  H140  1  0.629700  0.591500  0.934700  1.0  0.0969
  H  H141  1  0.146100  0.456700  0.271700  1.0  0.0925
  H  H142  1  0.504600  0.716000  0.139200  1.0  0.0968
  H  H143  1  0.425800  0.090600  0.692800  1.0  0.1041
  H  H144  1  0.692800  0.790800  0.425800  1.0  0.1043
  H  H145  1  0.139000  0.982800  0.477000  1.0  0.1069
  H  H146  1  0.909400  0.209200  0.574200  1.0  0.1037
  H  H147  1  0.359800  0.495400  0.284000  1.0  0.0971
  H  H148  1  0.692800  0.090600  0.790800  1.0  0.105
  H  H149  1  0.307200  0.209200  0.909400  1.0  0.104
  H  H150  1  0.821400  0.377600  0.791400  1.0  0.0969
  H  H151  1  0.427800  0.102200  0.826400  1.0  0.0997
  H  H152  1  0.860800  0.359800  0.284000  1.0  0.0979
  H  H153  1  0.477000  0.401200  0.139000  1.0  0.1077
  H  H154  1  0.178600  0.208600  0.622400  1.0  0.0966
  H  H155  1  0.155900  0.370300  0.408500  1.0  0.0964
  H  H156  1  0.692800  0.425800  0.090600  1.0  0.1032
  H  H157  1  0.598800  0.523000  0.861000  1.0  0.1071
  H  H158  1  0.356400  0.897800  0.173600  1.0  0.0996
  H  H159  1  0.844100  0.591500  0.629700  1.0  0.098
  H  H160  1  0.377600  0.821400  0.009600  1.0  0.0963
  H  H161  1  0.359800  0.284000  0.860800  1.0  0.0977
  H  H162  1  0.523000  0.598800  0.017200  1.0  0.1076
  H  H163  1  0.427800  0.643600  0.102200  1.0  0.0989
  H  H164  1  0.640200  0.716000  0.504600  1.0  0.0974
  H  H165  1  0.572200  0.173600  0.897800  1.0  0.0989
  H  H166  1  0.775800  0.450600  0.455000  1.0  0.1027
  H  H167  1  0.790800  0.425800  0.692800  1.0  0.1032
  H  H168  1  0.155900  0.065300  0.370300  1.0  0.096
  H  H169  1  0.545000  0.549400  0.224200  1.0  0.102
  H  H170  1  0.622400  0.178600  0.208600  1.0  0.0945
  H  H171  1  0.545000  0.224200  0.681400  1.0  0.103
  H  H172  1  0.271700  0.456700  0.125500  1.0  0.0941
  H  H173  1  0.370300  0.408500  0.155900  1.0  0.0972
  H  H174  1  0.427800  0.826400  0.643600  1.0  0.0986
  H  H175  1  0.545000  0.681400  0.549400  1.0  0.1016
  H  H176  1  0.853900  0.543300  0.874500  1.0  0.0927
  H  H177  1  0.523000  0.861000  0.598800  1.0  0.1066
  H  H178  1  0.909400  0.307200  0.209200  1.0  0.1041
  H  H179  1  0.271700  0.146100  0.456700  1.0  0.0922
  H  H180  1  0.139000  0.477000  0.401200  1.0  0.1064
  H  H181  1  0.543300  0.728300  0.874500  1.0  0.0917
  H  H182  1  0.307200  0.909400  0.574200  1.0  0.1053
  H  H183  1  0.622400  0.990400  0.178600  1.0  0.0947
  H  H184  1  0.909400  0.574200  0.307200  1.0  0.1036
  H  H185  1  0.125500  0.146100  0.271700  1.0  0.0927
  H  H186  1  0.495400  0.359800  0.860800  1.0  0.097
  H  H187  1  0.990400  0.178600  0.622400  1.0  0.0939
  H  H188  1  0.826400  0.427800  0.102200  1.0  0.0993
  H  H189  1  0.307200  0.574200  0.209200  1.0  0.1032
  H  H190  1  0.591500  0.844100  0.934700  1.0  0.0968
  H  H191  1  0.543300  0.874500  0.853900  1.0  0.0907
  H  H192  1  0.791400  0.377600  0.009600  1.0  0.0966
  H  H193  1  0.455000  0.450600  0.318600  1.0  0.102
  H  H194  1  0.549400  0.545000  0.681400  1.0  0.1022
  H  H195  1  0.455000  0.775800  0.450600  1.0  0.1027
  H  H196  1  0.155900  0.408500  0.065300  1.0  0.0978
  H  H197  1  0.681400  0.549400  0.545000  1.0  0.103
  H  H198  1  0.401200  0.982800  0.139000  1.0  0.1075
  H  H199  1  0.775800  0.318600  0.450600  1.0  0.1022
  H  H200  1  0.853900  0.728300  0.543300  1.0  0.0925
  H  H201  1  0.209200  0.909400  0.307200  1.0  0.1043
  H  H202  1  0.425800  0.692800  0.790800  1.0  0.1035
  H  H203  1  0.456700  0.125500  0.271700  1.0  0.0919
  H  H204  1  0.844100  0.629700  0.934700  1.0  0.097
  H  H205  1  0.629700  0.844100  0.591500  1.0  0.0976
  H  H206  1  0.897800  0.356400  0.572200  1.0  0.0993
  H  H207  1  0.934700  0.629700  0.591500  1.0  0.0976
  H  H208  1  0.874500  0.853900  0.543300  1.0  0.0934
  H  H209  1  0.861000  0.017200  0.598800  1.0  0.1068
  H  H210  1  0.017200  0.598800  0.861000  1.0  0.1071
  H  H211  1  0.208600  0.178600  0.990400  1.0  0.0936
  H  H212  1  0.716000  0.139200  0.504600  1.0  0.0962
  C  C213  1  0.160500  0.337500  0.451900  1.0  -0.1428
  C  C214  1  0.249390  0.828810  0.522590  1.0  -0.1063
  C  C215  1  0.957500  0.192100  0.550300  1.0  -0.1693
  C  C216  1  0.772600  0.273600  0.369200  1.0  0.6297
  C  C217  1  0.949900  0.662500  0.548100  1.0  -0.1431
  C  C218  1  0.590580  0.070220  0.791780  1.0  0.03
  C  C219  1  0.467210  0.868390  0.261610  1.0  -0.1397
  C  C220  1  0.979800  0.348000  0.185400  1.0  0.028
  C  C221  1  0.529200  0.890200  0.384600  1.0  -0.0568
  C  C222  1  0.174000  0.241400  0.579000  1.0  -0.0639
  C  C223  1  0.890200  0.196000  0.384600  1.0  -0.0581
  C  C224  1  0.451900  0.050100  0.160500  1.0  -0.1446
  C  C225  1  0.868390  0.402790  0.261610  1.0  -0.141
  C  C226  1  0.300100  0.192100  0.957500  1.0  -0.1693
  C  C227  1  0.826000  0.994400  0.421000  1.0  -0.0632
  C  C228  1  0.174000  0.579000  0.005600  1.0  -0.0643
  C  C229  1  0.452580  0.929780  0.208220  1.0  0.0288
  C  C230  1  0.337500  0.160500  0.050100  1.0  -0.1437
  C  C231  1  0.857500  0.901900  0.519500  1.0  -0.049
  C  C232  1  0.452580  0.409420  0.929780  1.0  0.0287
  C  C233  1  0.529200  0.384600  0.196000  1.0  -0.0592
  C  C234  1  0.050100  0.160500  0.451900  1.0  -0.1439
  C  C235  1  0.399210  0.522590  0.828810  1.0  -0.1113
  C  C236  1  0.369200  0.273600  0.584600  1.0  0.6305
  C  C237  1  0.449700  0.807900  0.042500  1.0  -0.1679
  C  C238  1  0.597210  0.532790  0.131610  1.0  -0.1425
  C  C239  1  0.230900  0.075900  0.544100  1.0  -0.1513
  C  C240  1  0.857500  0.721100  0.901900  1.0  -0.0513
  C  C241  1  0.278900  0.142500  0.098100  1.0  -0.0534
  C  C242  1  0.142500  0.098100  0.278900  1.0  -0.0524
  C  C243  1  0.817800  0.282200  0.440600  1.0  -0.0677
  C  C244  1  0.890200  0.529200  0.196000  1.0  -0.054
  C  C245  1  0.421000  0.758600  0.826000  1.0  -0.0692
  C  C246  1  0.522590  0.249390  0.828810  1.0  -0.1083
  C  C247  1  0.600790  0.477410  0.750610  1.0  -0.1092
  C  C248  1  0.804000  0.470800  0.109800  1.0  -0.0609
  C  C249  1  0.020200  0.513200  0.814600  1.0  0.0284
  C  C250  1  0.421000  0.826000  0.994400  1.0  -0.0684
  C  C251  1  0.940760  0.175440  0.411240  1.0  -0.1268
  C  C252  1  0.901900  0.519500  0.857500  1.0  -0.0534
  C  C253  1  0.949900  0.839500  0.662500  1.0  -0.1445
  C  C254  1  0.452580  0.208220  0.409420  1.0  0.0262
  C  C255  1  0.059240  0.824560  0.527440  1.0  -0.1243
  C  C256  1  0.440600  0.459400  0.817800  1.0  -0.0666
  C  C257  1  0.814600  0.652000  0.020200  1.0  0.0277
  C  C258  1  0.527440  0.588760  0.059240  1.0  -0.1239
  C  C259  1  0.772600  0.584600  0.273600  1.0  0.6324
  C  C260  1  0.131610  0.738390  0.597210  1.0  -0.1417
  C  C261  1  0.005600  0.241400  0.174000  1.0  -0.0647
  C  C262  1  0.532790  0.597210  0.738390  1.0  -0.1413
  C  C263  1  0.477410  0.750610  0.600790  1.0  -0.1107
  C  C264  1  0.160500  0.050100  0.337500  1.0  -0.1421
  C  C265  1  0.590580  0.547420  0.070220  1.0  0.0277
  C  C266  1  0.455900  0.769100  0.850900  1.0  -0.1499
  C  C267  1  0.075900  0.149100  0.544100  1.0  -0.1485
  C  C268  1  0.402790  0.261610  0.868390  1.0  -0.1419
  C  C269  1  0.588760  0.824560  0.059240  1.0  -0.1264
  C  C270  1  0.579000  0.241400  0.005600  1.0  -0.0665
  C  C271  1  0.409420  0.929780  0.452580  1.0  0.0295
  C  C272  1  0.261610  0.868390  0.402790  1.0  -0.1431
  C  C273  1  0.804000  0.615400  0.470800  1.0  -0.0546
  C  C274  1  0.527440  0.059240  0.824560  1.0  -0.1257
  C  C275  1  0.630800  0.415400  0.726400  1.0  0.6325
  C  C276  1  0.486800  0.979800  0.185400  1.0  0.0286
  C  C277  1  0.098100  0.480500  0.278900  1.0  -0.0513
  C  C278  1  0.519500  0.901900  0.721100  1.0  -0.0499
  C  C279  1  0.529200  0.196000  0.890200  1.0  -0.0606
  C  C280  1  0.652000  0.020200  0.814600  1.0  0.0291
  C  C281  1  0.472560  0.940760  0.411240  1.0  -0.1248
  C  C282  1  0.828810  0.522590  0.249390  1.0  -0.1088
  C  C283  1  0.699900  0.449700  0.042500  1.0  -0.1716
  C  C284  1  0.174000  0.005600  0.241400  1.0  -0.0629
  C  C285  1  0.957500  0.300100  0.192100  1.0  -0.1677
  C  C286  1  0.597210  0.131610  0.738390  1.0  -0.145
  C  C287  1  0.750610  0.171190  0.600790  1.0  -0.1063
  C  C288  1  0.399210  0.249390  0.522590  1.0  -0.1089
  C  C289  1  0.282200  0.817800  0.459400  1.0  -0.0673
  C  C290  1  0.721100  0.519500  0.901900  1.0  -0.0497
  C  C291  1  0.949900  0.548100  0.839500  1.0  -0.1436
  C  C292  1  0.738390  0.532790  0.597210  1.0  -0.1411
  C  C293  1  0.480500  0.278900  0.098100  1.0  -0.0488
  C  C294  1  0.042500  0.807900  0.699900  1.0  -0.1702
  C  C295  1  0.171190  0.750610  0.477410  1.0  -0.1064
  C  C296  1  0.227400  0.630800  0.726400  1.0  0.63
  C  C297  1  0.142500  0.480500  0.098100  1.0  -0.0458
  C  C298  1  0.059240  0.527440  0.588760  1.0  -0.1223
  C  C299  1  0.584600  0.772600  0.369200  1.0  0.6296
  C  C300  1  0.817800  0.459400  0.282200  1.0  -0.0689
  C  C301  1  0.615400  0.804000  0.109800  1.0  -0.0613
  C  C302  1  0.451900  0.160500  0.337500  1.0  -0.1442
  C  C303  1  0.979800  0.486800  0.348000  1.0  0.0278
  C  C304  1  0.544100  0.149100  0.230900  1.0  -0.1451
  C  C305  1  0.182200  0.540600  0.559400  1.0  -0.0697
  C  C306  1  0.185400  0.348000  0.486800  1.0  0.0283
  C  C307  1  0.042500  0.449700  0.807900  1.0  -0.1706
  C  C308  1  0.451900  0.337500  0.050100  1.0  -0.1428
  C  C309  1  0.409420  0.208220  0.929780  1.0  0.0276
  C  C310  1  0.070220  0.590580  0.547420  1.0  0.0267
  C  C311  1  0.192100  0.957500  0.300100  1.0  -0.1719
  C  C312  1  0.868390  0.467210  0.402790  1.0  -0.1421
  C  C313  1  0.540600  0.717800  0.559400  1.0  -0.0661
  C  C314  1  0.070220  0.547420  0.791780  1.0  0.0271
  C  C315  1  0.227400  0.415400  0.630800  1.0  0.6325
  C  C316  1  0.924100  0.769100  0.455900  1.0  -0.1501
  C  C317  1  0.559400  0.182200  0.540600  1.0  -0.0637
  C  C318  1  0.513200  0.652000  0.814600  1.0  0.0289
  C  C319  1  0.369200  0.584600  0.772600  1.0  0.6326
  C  C320  1  0.149100  0.544100  0.075900  1.0  -0.1512
  C  C321  1  0.584600  0.369200  0.273600  1.0  0.6313
  C  C322  1  0.384600  0.529200  0.890200  1.0  -0.0579
  C  C323  1  0.519500  0.721100  0.857500  1.0  -0.0494
  C  C324  1  0.513200  0.814600  0.020200  1.0  0.0287
  C  C325  1  0.890200  0.384600  0.529200  1.0  -0.0559
  C  C326  1  0.828810  0.249390  0.399210  1.0  -0.1067
  C  C327  1  0.480500  0.098100  0.142500  1.0  -0.0541
  C  C328  1  0.486800  0.185400  0.348000  1.0  0.0291
  C  C329  1  0.160500  0.451900  0.050100  1.0  -0.1404
  C  C330  1  0.227400  0.726400  0.415400  1.0  0.6307
  C  C331  1  0.050100  0.451900  0.337500  1.0  -0.1422
  C  C332  1  0.527440  0.824560  0.588760  1.0  -0.1264
  C  C333  1  0.384600  0.890200  0.196000  1.0  -0.0557
  C  C334  1  0.850900  0.769100  0.924100  1.0  -0.1423
  C  C335  1  0.804000  0.109800  0.615400  1.0  -0.057
  C  C336  1  0.050100  0.337500  0.160500  1.0  -0.1423
  C  C337  1  0.409420  0.452580  0.208220  1.0  0.0283
  C  C338  1  0.278900  0.098100  0.480500  1.0  -0.0511
  C  C339  1  0.208220  0.929780  0.409420  1.0  0.0287
  C  C340  1  0.477410  0.600790  0.171190  1.0  -0.11
  C  C341  1  0.600790  0.750610  0.171190  1.0  -0.1076
  C  C342  1  0.726400  0.415400  0.227400  1.0  0.6319
  C  C343  1  0.717800  0.540600  0.182200  1.0  -0.0675
  C  C344  1  0.850900  0.924100  0.455900  1.0  -0.1501
  C  C345  1  0.924100  0.455900  0.850900  1.0  -0.1452
  C  C346  1  0.824560  0.527440  0.059240  1.0  -0.122
  C  C347  1  0.791780  0.590580  0.070220  1.0  0.0274
  C  C348  1  0.588760  0.527440  0.824560  1.0  -0.1245
  C  C349  1  0.208220  0.409420  0.452580  1.0  0.0264
  C  C350  1  0.449700  0.699900  0.807900  1.0  -0.1681
  C  C351  1  0.532790  0.131610  0.597210  1.0  -0.1402
  C  C352  1  0.522590  0.399210  0.249390  1.0  -0.1074
  C  C353  1  0.337500  0.451900  0.160500  1.0  -0.1436
  C  C354  1  0.175440  0.940760  0.472560  1.0  -0.1281
  C  C355  1  0.868390  0.261610  0.467210  1.0  -0.1418
  C  C356  1  0.075900  0.544100  0.230900  1.0  -0.1446
  C  C357  1  0.630800  0.726400  0.227400  1.0  0.6311
  C  C358  1  0.278900  0.480500  0.142500  1.0  -0.0496
  C  C359  1  0.175440  0.472560  0.411240  1.0  -0.1242
  C  C360  1  0.738390  0.597210  0.131610  1.0  -0.1412
  C  C361  1  0.171190  0.600790  0.750610  1.0  -0.1059
  C  C362  1  0.070220  0.791780  0.590580  1.0  0.0266
  C  C363  1  0.249390  0.399210  0.828810  1.0  -0.109
  C  C364  1  0.241400  0.174000  0.005600  1.0  -0.0673
  C  C365  1  0.415400  0.227400  0.726400  1.0  0.6292
  C  C366  1  0.261610  0.402790  0.467210  1.0  -0.1401
  C  C367  1  0.459400  0.440600  0.282200  1.0  -0.0655
  C  C368  1  0.807900  0.042500  0.449700  1.0  -0.1704
  C  C369  1  0.075900  0.230900  0.149100  1.0  -0.1485
  C  C370  1  0.459400  0.817800  0.440600  1.0  -0.0645
  C  C371  1  0.486800  0.348000  0.979800  1.0  0.0285
  C  C372  1  0.348000  0.979800  0.486800  1.0  0.0294
  C  C373  1  0.994400  0.826000  0.758600  1.0  -0.0651
  C  C374  1  0.149100  0.230900  0.544100  1.0  -0.1452
  C  C375  1  0.182200  0.717800  0.540600  1.0  -0.0622
  C  C376  1  0.548100  0.662500  0.839500  1.0  -0.1436
  C  C377  1  0.369200  0.772600  0.273600  1.0  0.6281
  C  C378  1  0.532790  0.738390  0.131610  1.0  -0.1413
  C  C379  1  0.142500  0.278900  0.480500  1.0  -0.0512
  C  C380  1  0.042500  0.699900  0.449700  1.0  -0.1686
  C  C381  1  0.662500  0.949900  0.839500  1.0  -0.1432
  C  C382  1  0.348000  0.486800  0.185400  1.0  0.0287
  C  C383  1  0.402790  0.868390  0.467210  1.0  -0.1436
  C  C384  1  0.098100  0.142500  0.480500  1.0  -0.0536
  C  C385  1  0.470800  0.804000  0.615400  1.0  -0.0549
  C  C386  1  0.924100  0.850900  0.769100  1.0  -0.1501
  C  C387  1  0.721100  0.901900  0.857500  1.0  -0.0513
  C  C388  1  0.449700  0.042500  0.699900  1.0  -0.1682
  C  C389  1  0.940760  0.411240  0.472560  1.0  -0.1248
  C  C390  1  0.584600  0.273600  0.772600  1.0  0.629
  C  C391  1  0.615400  0.470800  0.804000  1.0  -0.0609
  C  C392  1  0.758600  0.421000  0.994400  1.0  -0.0677
  C  C393  1  0.717800  0.182200  0.559400  1.0  -0.0668
  C  C394  1  0.814600  0.020200  0.513200  1.0  0.0281
  C  C395  1  0.005600  0.174000  0.579000  1.0  -0.0651
  C  C396  1  0.192100  0.300100  0.550300  1.0  -0.1684
  C  C397  1  0.421000  0.994400  0.758600  1.0  -0.0679
  C  C398  1  0.109800  0.804000  0.470800  1.0  -0.0566
  C  C399  1  0.807900  0.449700  0.699900  1.0  -0.1664
  C  C400  1  0.550300  0.957500  0.192100  1.0  -0.1671
  C  C401  1  0.839500  0.548100  0.662500  1.0  -0.1418
  C  C402  1  0.192100  0.550300  0.957500  1.0  -0.1684
  C  C403  1  0.477410  0.171190  0.750610  1.0  -0.1111
  C  C404  1  0.440600  0.282200  0.459400  1.0  -0.0677
  C  C405  1  0.547420  0.590580  0.791780  1.0  0.0283
  C  C406  1  0.929780  0.452580  0.409420  1.0  0.0268
  C  C407  1  0.940760  0.472560  0.175440  1.0  -0.1261
  C  C408  1  0.241400  0.005600  0.579000  1.0  -0.0657
  C  C409  1  0.791780  0.070220  0.547420  1.0  0.029
  C  C410  1  0.472560  0.175440  0.940760  1.0  -0.1234
  C  C411  1  0.282200  0.459400  0.440600  1.0  -0.0695
  C  C412  1  0.109800  0.615400  0.804000  1.0  -0.0577
  C  C413  1  0.726400  0.227400  0.630800  1.0  0.6302
  C  C414  1  0.440600  0.817800  0.282200  1.0  -0.0634
  C  C415  1  0.196000  0.384600  0.890200  1.0  -0.0522
  C  C416  1  0.850900  0.455900  0.769100  1.0  -0.1495
  C  C417  1  0.807900  0.699900  0.042500  1.0  -0.1675
  C  C418  1  0.348000  0.185400  0.979800  1.0  0.0289
  C  C419  1  0.020200  0.814600  0.652000  1.0  0.0282
  C  C420  1  0.337500  0.050100  0.451900  1.0  -0.1416
  C  C421  1  0.544100  0.075900  0.149100  1.0  -0.1502
  C  C422  1  0.662500  0.839500  0.548100  1.0  -0.1432
  C  C423  1  0.750610  0.600790  0.477410  1.0  -0.1064
  C  C424  1  0.098100  0.278900  0.142500  1.0  -0.0507
  C  C425  1  0.957500  0.550300  0.300100  1.0  -0.1688
  C  C426  1  0.273600  0.369200  0.772600  1.0  0.631
  C  C427  1  0.411240  0.940760  0.175440  1.0  -0.125
  C  C428  1  0.738390  0.131610  0.532790  1.0  -0.1424
  C  C429  1  0.662500  0.548100  0.949900  1.0  -0.1444
  C  C430  1  0.901900  0.857500  0.721100  1.0  -0.0534
  C  C431  1  0.300100  0.957500  0.550300  1.0  -0.1723
  C  C432  1  0.814600  0.513200  0.652000  1.0  0.0279
  C  C433  1  0.548100  0.949900  0.662500  1.0  -0.1448
  C  C434  1  0.929780  0.409420  0.208220  1.0  0.0255
  C  C435  1  0.185400  0.979800  0.348000  1.0  0.0275
  C  C436  1  0.758600  0.994400  0.826000  1.0  -0.0639
  C  C437  1  0.273600  0.584600  0.369200  1.0  0.6319
  C  C438  1  0.901900  0.721100  0.519500  1.0  -0.0498
  C  C439  1  0.109800  0.470800  0.615400  1.0  -0.0536
  C  C440  1  0.185400  0.486800  0.979800  1.0  0.0274
  C  C441  1  0.411240  0.472560  0.940760  1.0  -0.1267
  C  C442  1  0.020200  0.652000  0.513200  1.0  0.0278
  C  C443  1  0.828810  0.399210  0.522590  1.0  -0.1065
  C  C444  1  0.772600  0.369200  0.584600  1.0  0.6294
  C  C445  1  0.415400  0.726400  0.630800  1.0  0.6281
  C  C446  1  0.182200  0.559400  0.717800  1.0  -0.0676
  C  C447  1  0.579000  0.005600  0.174000  1.0  -0.0654
  C  C448  1  0.513200  0.020200  0.652000  1.0  0.0286
  C  C449  1  0.399210  0.828810  0.249390  1.0  -0.1107
  C  C450  1  0.384600  0.196000  0.529200  1.0  -0.0564
  C  C451  1  0.208220  0.452580  0.929780  1.0  0.0279
  C  C452  1  0.519500  0.857500  0.901900  1.0  -0.0475
  C  C453  1  0.547420  0.791780  0.070220  1.0  0.027
  C  C454  1  0.547420  0.070220  0.590580  1.0  0.0295
  C  C455  1  0.590580  0.791780  0.547420  1.0  0.0274
  C  C456  1  0.467210  0.402790  0.868390  1.0  -0.1406
  C  C457  1  0.455900  0.924100  0.769100  1.0  -0.1519
  C  C458  1  0.588760  0.059240  0.527440  1.0  -0.1241
  C  C459  1  0.769100  0.850900  0.455900  1.0  -0.1477
  C  C460  1  0.769100  0.455900  0.924100  1.0  -0.1457
  C  C461  1  0.149100  0.075900  0.230900  1.0  -0.15
  C  C462  1  0.717800  0.559400  0.540600  1.0  -0.0682
  C  C463  1  0.196000  0.529200  0.384600  1.0  -0.0549
  C  C464  1  0.241400  0.579000  0.174000  1.0  -0.0663
  C  C465  1  0.261610  0.467210  0.868390  1.0  -0.1417
  C  C466  1  0.470800  0.615400  0.109800  1.0  -0.0545
  C  C467  1  0.929780  0.208220  0.452580  1.0  0.0253
  C  C468  1  0.769100  0.924100  0.850900  1.0  -0.1467
  C  C469  1  0.600790  0.171190  0.477410  1.0  -0.1087
  C  C470  1  0.726400  0.630800  0.415400  1.0  0.631
  C  C471  1  0.550300  0.300100  0.957500  1.0  -0.1653
  C  C472  1  0.817800  0.440600  0.459400  1.0  -0.0671
  C  C473  1  0.131610  0.597210  0.532790  1.0  -0.1403
  C  C474  1  0.472560  0.411240  0.175440  1.0  -0.1234
  C  C475  1  0.791780  0.547420  0.590580  1.0  0.0281
  C  C476  1  0.230900  0.149100  0.075900  1.0  -0.149
  C  C477  1  0.559400  0.540600  0.717800  1.0  -0.0612
  C  C478  1  0.230900  0.544100  0.149100  1.0  -0.1459
  C  C479  1  0.402790  0.467210  0.261610  1.0  -0.1418
  C  C480  1  0.300100  0.550300  0.192100  1.0  -0.1715
  C  C481  1  0.273600  0.772600  0.584600  1.0  0.6301
  C  C482  1  0.615400  0.109800  0.470800  1.0  -0.0605
  C  C483  1  0.544100  0.230900  0.075900  1.0  -0.1478
  C  C484  1  0.699900  0.042500  0.807900  1.0  -0.1713
  C  C485  1  0.175440  0.411240  0.940760  1.0  -0.1255
  C  C486  1  0.455900  0.850900  0.924100  1.0  -0.1493
  C  C487  1  0.005600  0.579000  0.241400  1.0  -0.0633
  C  C488  1  0.540600  0.559400  0.182200  1.0  -0.0651
  C  C489  1  0.131610  0.532790  0.738390  1.0  -0.1415
  C  C490  1  0.652000  0.814600  0.513200  1.0  0.0291
  C  C491  1  0.652000  0.513200  0.020200  1.0  0.0288
  C  C492  1  0.994400  0.758600  0.421000  1.0  -0.0641
  C  C493  1  0.839500  0.949900  0.548100  1.0  -0.1428
  C  C494  1  0.171190  0.477410  0.600790  1.0  -0.1102
  C  C495  1  0.824560  0.588760  0.527440  1.0  -0.1262
  C  C496  1  0.994400  0.421000  0.826000  1.0  -0.0651
  C  C497  1  0.467210  0.261610  0.402790  1.0  -0.1406
  C  C498  1  0.540600  0.182200  0.717800  1.0  -0.0585
  C  C499  1  0.750610  0.477410  0.171190  1.0  -0.107
  C  C500  1  0.630800  0.227400  0.415400  1.0  0.6293
  C  C501  1  0.550300  0.192100  0.300100  1.0  -0.1671
  C  C502  1  0.059240  0.588760  0.824560  1.0  -0.1257
  C  C503  1  0.839500  0.662500  0.949900  1.0  -0.1439
  C  C504  1  0.415400  0.630800  0.227400  1.0  0.6308
  C  C505  1  0.459400  0.282200  0.817800  1.0  -0.0669
  C  C506  1  0.699900  0.807900  0.449700  1.0  -0.1684
  C  C507  1  0.597210  0.738390  0.532790  1.0  -0.1435
  C  C508  1  0.470800  0.109800  0.804000  1.0  -0.0534
  C  C509  1  0.249390  0.522590  0.399210  1.0  -0.1066
  C  C510  1  0.979800  0.185400  0.486800  1.0  0.0284
  C  C511  1  0.579000  0.174000  0.241400  1.0  -0.0656
  C  C512  1  0.196000  0.890200  0.529200  1.0  -0.0562
  C  C513  1  0.282200  0.440600  0.817800  1.0  -0.0693
  C  C514  1  0.826000  0.421000  0.758600  1.0  -0.0661
  C  C515  1  0.758600  0.826000  0.421000  1.0  -0.0671
  C  C516  1  0.826000  0.758600  0.994400  1.0  -0.0637
  C  C517  1  0.857500  0.519500  0.721100  1.0  -0.0487
  C  C518  1  0.480500  0.142500  0.278900  1.0  -0.0485
  C  C519  1  0.559400  0.717800  0.182200  1.0  -0.0673
  C  C520  1  0.721100  0.857500  0.519500  1.0  -0.0531
  C  C521  1  0.522590  0.828810  0.399210  1.0  -0.1091
  C  C522  1  0.548100  0.839500  0.949900  1.0  -0.1445
  C  C523  1  0.411240  0.175440  0.472560  1.0  -0.126
  C  C524  1  0.824560  0.059240  0.588760  1.0  -0.1283
  O  O525  1  0.359800  0.751400  0.671000  1.0  -0.5642
  O  O526  1  0.431900  0.675100  0.613900  1.0  -0.6083
  O  O527  1  0.613900  0.431900  0.675100  1.0  -0.6106
  O  O528  1  0.386100  0.324900  0.568100  1.0  -0.6066
  O  O529  1  0.359800  0.217800  0.751400  1.0  -0.5643
  O  O530  1  0.431900  0.279100  0.675100  1.0  -0.6066
  O  O531  1  0.279100  0.613900  0.675100  1.0  -0.6085
  O  O532  1  0.329000  0.782200  0.248600  1.0  -0.5645
  O  O533  1  0.671000  0.359800  0.751400  1.0  -0.5644
  O  O534  1  0.675100  0.613900  0.431900  1.0  -0.6075
  O  O535  1  0.720900  0.324900  0.386100  1.0  -0.607
  O  O536  1  0.329000  0.248600  0.640200  1.0  -0.563
  O  O537  1  0.675100  0.279100  0.613900  1.0  -0.6059
  O  O538  1  0.217800  0.359800  0.671000  1.0  -0.5636
  O  O539  1  0.359800  0.671000  0.217800  1.0  -0.5633
  O  O540  1  0.675100  0.431900  0.279100  1.0  -0.6081
  O  O541  1  0.386100  0.568100  0.720900  1.0  -0.6099
  O  O542  1  0.640200  0.782200  0.329000  1.0  -0.5623
  O  O543  1  0.324900  0.720900  0.568100  1.0  -0.606
  O  O544  1  0.751400  0.217800  0.671000  1.0  -0.5649
  O  O545  1  0.279100  0.431900  0.613900  1.0  -0.6068
  O  O546  1  0.248600  0.640200  0.329000  1.0  -0.5652
  O  O547  1  0.386100  0.720900  0.324900  1.0  -0.6081
  O  O548  1  0.751400  0.359800  0.217800  1.0  -0.565
  O  O549  1  0.324900  0.386100  0.720900  1.0  -0.6064
  O  O550  1  0.640200  0.248600  0.782200  1.0  -0.5647
  O  O551  1  0.324900  0.568100  0.386100  1.0  -0.6076
  O  O552  1  0.248600  0.329000  0.782200  1.0  -0.5631
  O  O553  1  0.329000  0.640200  0.782200  1.0  -0.5637
  O  O554  1  0.568100  0.720900  0.386100  1.0  -0.6072
  O  O555  1  0.613900  0.675100  0.279100  1.0  -0.6068
  O  O556  1  0.217800  0.671000  0.751400  1.0  -0.567
  O  O557  1  0.431900  0.613900  0.279100  1.0  -0.6087
  O  O558  1  0.720900  0.568100  0.324900  1.0  -0.6063
  O  O559  1  0.568100  0.324900  0.720900  1.0  -0.6076
  O  O560  1  0.751400  0.671000  0.359800  1.0  -0.5635
  O  O561  1  0.782200  0.329000  0.640200  1.0  -0.5663
  O  O562  1  0.217800  0.751400  0.359800  1.0  -0.5661
  O  O563  1  0.671000  0.217800  0.359800  1.0  -0.5653
  O  O564  1  0.613900  0.279100  0.431900  1.0  -0.6075
  O  O565  1  0.782200  0.248600  0.329000  1.0  -0.5664
  O  O566  1  0.248600  0.782200  0.640200  1.0  -0.5655
  O  O567  1  0.671000  0.751400  0.217800  1.0  -0.5626
  O  O568  1  0.279100  0.675100  0.431900  1.0  -0.6069
  O  O569  1  0.720900  0.386100  0.568100  1.0  -0.6087
  O  O570  1  0.782200  0.640200  0.248600  1.0  -0.5641
  O  O571  1  0.568100  0.386100  0.324900  1.0  -0.6088
  O  O572  1  0.640200  0.329000  0.248600  1.0  -0.5632
