# generated using pymatgen
data_Zn5Co2H44C84(N6O13)2
_symmetry_space_group_name_H-M   'P 1'
_cell_length_a   16.08200000
_cell_length_b   17.07400000
_cell_length_c   27.87800000
_cell_angle_alpha   92.58600000
_cell_angle_beta   105.96900000
_cell_angle_gamma   117.00000000
_symmetry_Int_Tables_number   1
_chemical_formula_structural   Zn5Co2H44C84(N6O13)2
_chemical_formula_sum   'Zn10 Co4 H88 C168 N24 O52'
_cell_volume   6426.87241602
_cell_formula_units_Z   2
loop_
 _symmetry_equiv_pos_site_id
 _symmetry_equiv_pos_as_xyz
  1  'x, y, z'
loop_
 _atom_site_type_symbol
 _atom_site_label
 _atom_site_symmetry_multiplicity
 _atom_site_fract_x
 _atom_site_fract_y
 _atom_site_fract_z
 _atom_site_occupancy
 _atom_site_charge
  Zn  Zn1  1  0.710090  0.765010  0.192830  1.0  0.9619
  Zn  Zn2  1  0.472030  0.217380  0.798100  1.0  1.0999
  Zn  Zn3  1  0.647000  0.224690  0.756520  1.0  1.0349
  Zn  Zn4  1  0.353000  0.775310  0.243480  1.0  1.0356
  Zn  Zn5  1  0.425630  0.069220  0.689080  1.0  1.0763
  Zn  Zn6  1  0.289910  0.234990  0.807170  1.0  0.9631
  Zn  Zn7  1  0.584490  0.637930  0.263960  1.0  1.0482
  Zn  Zn8  1  0.415510  0.362070  0.736040  1.0  1.0532
  Zn  Zn9  1  0.574370  0.930780  0.310920  1.0  1.0745
  Zn  Zn10  1  0.527970  0.782620  0.201900  1.0  1.1025
  Co  Co11  1  0.258040  0.254390  0.385690  1.0  0.3974
  Co  Co12  1  0.741960  0.745610  0.614310  1.0  0.3959
  Co  Co13  1  0.876490  0.339520  0.121670  1.0  0.5
  Co  Co14  1  0.123510  0.660480  0.878330  1.0  0.5
  H  H15  1  0.162800  0.006400  0.307900  1.0  0.1121
  H  H16  1  0.405900  0.444300  0.502800  1.0  0.1052
  H  H17  1  0.642300  0.998100  0.001900  1.0  0.1219
  H  H18  1  0.185900  0.374300  0.302600  1.0  0.1155
  H  H19  1  0.262800  0.783500  0.793500  1.0  0.1168
  H  H20  1  0.861600  0.168400  0.326900  1.0  0.1136
  H  H21  1  0.555700  0.414400  0.344800  1.0  0.1304
  H  H22  1  0.646800  0.476900  0.554700  1.0  0.1299
  H  H23  1  0.920300  0.733700  0.503900  1.0  0.1391
  H  H24  1  0.411300  0.443200  0.587600  1.0  0.1112
  H  H25  1  0.138400  0.831600  0.673100  1.0  0.1137
  H  H26  1  0.222500  0.928500  0.272600  1.0  0.1062
  H  H27  1  0.405300  0.206400  0.493900  1.0  0.1294
  H  H28  1  0.946100  0.388900  0.996800  1.0  0.1118
  H  H29  1  0.741600  0.354000  0.212100  1.0  0.1039
  H  H30  1  0.980400  0.746200  0.676000  1.0  0.1409
  H  H31  1  0.082500  0.468300  0.081500  1.0  0.1229
  H  H32  1  0.716100  0.581000  0.781600  1.0  0.1078
  H  H33  1  0.728100  0.448200  0.084500  1.0  0.1019
  H  H34  1  0.072100  0.557800  0.278000  1.0  0.137
  H  H35  1  0.111600  0.054100  0.681300  1.0  0.1118
  H  H36  1  0.342000  0.936400  0.789200  1.0  0.1222
  H  H37  1  0.444300  0.585600  0.655200  1.0  0.1304
  H  H38  1  0.865100  0.323200  0.911000  1.0  0.1101
  H  H39  1  0.837200  0.993600  0.692100  1.0  0.1115
  H  H40  1  0.019600  0.253800  0.324000  1.0  0.1404
  H  H41  1  0.047300  0.027900  0.314800  1.0  0.1254
  H  H42  1  0.053600  0.129700  0.518800  1.0  0.1058
  H  H43  1  0.376300  0.652000  0.413400  1.0  0.1015
  H  H44  1  0.888400  0.945900  0.318700  1.0  0.1115
  H  H45  1  0.220200  0.506400  0.271000  1.0  0.1078
  H  H46  1  0.572700  0.075200  0.034400  1.0  0.1138
  H  H47  1  0.497200  0.885700  0.647100  1.0  0.1196
  H  H48  1  0.594100  0.555700  0.497200  1.0  0.1051
  H  H49  1  0.777500  0.071500  0.727400  1.0  0.1066
  H  H50  1  0.427300  0.924800  0.965600  1.0  0.114
  H  H51  1  0.623700  0.348000  0.586600  1.0  0.1006
  H  H52  1  0.320400  0.455600  0.886200  1.0  0.118
  H  H53  1  0.952700  0.972100  0.685200  1.0  0.1274
  H  H54  1  0.117800  0.959100  0.811200  1.0  0.1158
  H  H55  1  0.036200  0.808500  0.814300  1.0  0.121
  H  H56  1  0.580600  0.788300  0.420900  1.0  0.1169
  H  H57  1  0.357700  0.001900  0.998100  1.0  0.1216
  H  H58  1  0.594700  0.793600  0.506100  1.0  0.1294
  H  H59  1  0.814100  0.625700  0.697400  1.0  0.1156
  H  H60  1  0.894100  0.957400  0.517000  1.0  0.1219
  H  H61  1  0.708400  0.457100  0.246200  1.0  0.1173
  H  H62  1  0.946400  0.870300  0.481200  1.0  0.1055
  H  H63  1  0.307800  0.278600  0.224100  1.0  0.1201
  H  H64  1  0.684100  0.323300  0.016600  1.0  0.134
  H  H65  1  0.107500  0.679100  0.237300  1.0  0.0944
  H  H66  1  0.105900  0.042600  0.483000  1.0  0.122
  H  H67  1  0.927900  0.442200  0.722000  1.0  0.1364
  H  H68  1  0.183400  0.929300  0.978600  1.0  0.1281
  H  H69  1  0.502800  0.114300  0.352900  1.0  0.1198
  H  H70  1  0.443100  0.187200  0.395100  1.0  0.1147
  H  H71  1  0.258400  0.646000  0.787900  1.0  0.1037
  H  H72  1  0.283900  0.419000  0.218400  1.0  0.1077
  H  H73  1  0.892500  0.320900  0.762700  1.0  0.0954
  H  H74  1  0.605700  0.255500  0.930600  1.0  0.1
  H  H75  1  0.588700  0.556800  0.412400  1.0  0.1117
  H  H76  1  0.271900  0.551800  0.915500  1.0  0.1002
  H  H77  1  0.737200  0.216500  0.206500  1.0  0.1156
  H  H78  1  0.963000  0.339200  0.849700  1.0  0.133
  H  H79  1  0.747300  0.429900  0.882800  1.0  0.0878
  H  H80  1  0.679600  0.544400  0.113800  1.0  0.1181
  H  H81  1  0.917500  0.531700  0.918500  1.0  0.1226
  H  H82  1  0.117600  0.318700  0.185000  1.0  0.1092
  H  H83  1  0.134900  0.676800  0.089000  1.0  0.11
  H  H84  1  0.522400  0.633900  0.742800  1.0  0.1144
  H  H85  1  0.816600  0.070700  0.021400  1.0  0.1286
  H  H86  1  0.963800  0.191500  0.185700  1.0  0.1218
  H  H87  1  0.556900  0.812800  0.604900  1.0  0.1147
  H  H88  1  0.477600  0.366100  0.257200  1.0  0.1148
  H  H89  1  0.037000  0.660800  0.150300  1.0  0.1333
  H  H90  1  0.692200  0.721400  0.775900  1.0  0.1185
  H  H91  1  0.882200  0.040900  0.188800  1.0  0.1147
  H  H92  1  0.779800  0.493600  0.729000  1.0  0.1084
  H  H93  1  0.252700  0.570100  0.117200  1.0  0.0875
  H  H94  1  0.353200  0.523100  0.445300  1.0  0.1294
  H  H95  1  0.291600  0.542900  0.753800  1.0  0.118
  H  H96  1  0.394300  0.744500  0.069400  1.0  0.0989
  H  H97  1  0.315900  0.676700  0.983400  1.0  0.1349
  H  H98  1  0.079700  0.266300  0.496100  1.0  0.1392
  H  H99  1  0.882400  0.681300  0.815000  1.0  0.1099
  H  H100  1  0.053900  0.611100  0.003200  1.0  0.1109
  H  H101  1  0.419400  0.211700  0.579100  1.0  0.1162
  H  H102  1  0.658000  0.063600  0.210800  1.0  0.1218
  C  C103  1  0.660200  0.704700  0.740100  1.0  -0.1316
  C  C104  1  0.671800  0.242000  0.096000  1.0  0.6237
  C  C105  1  0.439800  0.348100  0.279500  1.0  -0.1076
  C  C106  1  0.257500  0.433700  0.376900  1.0  0.2137
  C  C107  1  0.855100  0.629600  0.829100  1.0  -0.1678
  C  C108  1  0.119500  0.099800  0.475000  1.0  -0.1448
  C  C109  1  0.827900  0.321200  0.932600  1.0  -0.077
  C  C110  1  0.408200  0.255800  0.512900  1.0  -0.1551
  C  C111  1  0.084100  0.991300  0.679900  1.0  -0.0257
  C  C112  1  0.272000  0.607600  0.808500  1.0  -0.1117
  C  C113  1  0.585700  0.742000  0.436900  1.0  -0.0823
  C  C114  1  0.728900  0.384200  0.143300  1.0  0.2905
  C  C115  1  0.099500  0.859400  0.674900  1.0  -0.0185
  C  C116  1  0.402400  0.956200  0.286400  1.0  0.7229
  C  C117  1  0.783100  0.908600  0.582000  1.0  0.5489
  C  C118  1  0.049300  0.757500  0.919500  1.0  0.6376
  C  C119  1  0.718200  0.446400  0.116500  1.0  -0.1545
  C  C120  1  0.877000  0.541900  0.890400  1.0  -0.2007
  C  C121  1  0.237700  0.961900  0.802000  1.0  -0.0973
  C  C122  1  0.328200  0.758000  0.904000  1.0  0.6192
  C  C123  1  0.143200  0.783500  0.805200  1.0  0.1887
  C  C124  1  0.569300  0.654500  0.636800  1.0  0.1388
  C  C125  1  0.663000  0.576600  0.203600  1.0  0.6991
  C  C126  1  0.325200  0.676700  0.320200  1.0  0.7099
  C  C127  1  0.989900  0.943100  0.682300  1.0  -0.1807
  C  C128  1  0.861400  0.049000  0.324600  1.0  -0.0998
  C  C129  1  0.410800  0.395400  0.568500  1.0  -0.0234
  C  C130  1  0.284600  0.266000  0.292000  1.0  0.0736
  C  C131  1  0.275300  0.723600  0.087100  1.0  -0.0551
  C  C132  1  0.244900  0.509200  0.306500  1.0  -0.0595
  C  C133  1  0.821400  0.654900  0.571200  1.0  0.564
  C  C134  1  0.138600  0.951000  0.675400  1.0  -0.0998
  C  C135  1  0.049500  0.148400  0.319400  1.0  0.1484
  C  C136  1  0.716400  0.492100  0.827700  1.0  -0.0956
  C  C137  1  0.413300  0.326300  0.590400  1.0  -0.1096
  C  C138  1  0.642400  0.101900  0.042600  1.0  -0.0748
  C  C139  1  0.688400  0.511200  0.184100  1.0  -0.0968
  C  C140  1  0.775500  0.481100  0.868400  1.0  -0.0113
  C  C141  1  0.338600  0.595300  0.390800  1.0  -0.0164
  C  C142  1  0.674800  0.323300  0.679800  1.0  0.7097
  C  C143  1  0.046500  0.623600  0.772600  1.0  0.6422
  C  C144  1  0.291700  0.546000  0.788000  1.0  -0.0998
  C  C145  1  0.328400  0.762500  0.140400  1.0  0.7237
  C  C146  1  0.589200  0.604600  0.431500  1.0  -0.0256
  C  C147  1  0.897400  0.768800  0.517800  1.0  -0.1045
  C  C148  1  0.768200  0.973900  0.680900  1.0  -0.1616
  C  C149  1  0.337000  0.423400  0.796400  1.0  0.6968
  C  C150  1  0.224500  0.518900  0.131600  1.0  -0.0095
  C  C151  1  0.586700  0.673700  0.409600  1.0  -0.1102
  C  C152  1  0.560200  0.651900  0.720500  1.0  -0.1075
  C  C153  1  0.278500  0.676200  0.004600  1.0  -0.2286
  C  C154  1  0.177900  0.210100  0.281100  1.0  0.5853
  C  C155  1  0.661400  0.404700  0.609200  1.0  -0.0157
  C  C156  1  0.046200  0.549200  0.242000  1.0  -0.1453
  C  C157  1  0.243400  0.004400  0.676000  1.0  0.7022
  C  C158  1  0.123000  0.458100  0.109600  1.0  -0.1981
  C  C159  1  0.172100  0.678800  0.067400  1.0  -0.078
  C  C160  1  0.824500  0.366700  0.014300  1.0  0.1556
  C  C161  1  0.087500  0.150800  0.495100  1.0  -0.1237
  C  C162  1  0.566500  0.909000  0.655100  1.0  -0.0835
  C  C163  1  0.677800  0.480900  0.589700  1.0  -0.1748
  C  C164  1  0.407300  0.395900  0.517800  1.0  -0.1629
  C  C165  1  0.900800  0.165600  0.190100  1.0  -0.2174
  C  C166  1  0.297000  0.814800  0.925700  1.0  0.2237
  C  C167  1  0.710700  0.939900  0.199100  1.0  0.6914
  C  C168  1  0.950500  0.851600  0.680600  1.0  0.1486
  C  C169  1  0.719500  0.089700  0.204700  1.0  -0.0394
  C  C170  1  0.414300  0.258000  0.563100  1.0  -0.0775
  C  C171  1  0.322200  0.519100  0.410300  1.0  -0.1743
  C  C172  1  0.953500  0.376400  0.227400  1.0  0.641
  C  C173  1  0.123900  0.637300  0.016700  1.0  -0.0668
  C  C174  1  0.467300  0.360700  0.419900  1.0  0.5628
  C  C175  1  0.026000  0.610500  0.166200  1.0  -0.0995
  C  C176  1  0.708300  0.454000  0.212000  1.0  -0.1004
  C  C177  1  0.532700  0.639300  0.580100  1.0  0.5608
  C  C178  1  0.785700  0.099100  0.033900  1.0  -0.0784
  C  C179  1  0.280500  0.910300  0.795300  1.0  -0.0378
  C  C180  1  0.632400  0.986500  0.692100  1.0  -0.1209
  C  C181  1  0.592700  0.604100  0.482200  1.0  -0.1626
  C  C182  1  0.214300  0.900900  0.966100  1.0  -0.0829
  C  C183  1  0.856800  0.216500  0.194800  1.0  0.1955
  C  C184  1  0.756600  0.995600  0.324000  1.0  0.7001
  C  C185  1  0.950700  0.242500  0.080500  1.0  0.6385
  C  C186  1  0.486300  0.375400  0.331100  1.0  -0.1019
  C  C187  1  0.912500  0.849200  0.504900  1.0  -0.126
  C  C188  1  0.302600  0.592200  0.340200  1.0  -0.1239
  C  C189  1  0.715400  0.734000  0.708000  1.0  0.078
  C  C190  1  0.702300  0.898200  0.640300  1.0  0.1866
  C  C191  1  0.915900  0.008700  0.320100  1.0  -0.028
  C  C192  1  0.671600  0.237500  0.859600  1.0  0.7184
  C  C193  1  0.339800  0.295300  0.259900  1.0  -0.1289
  C  C194  1  0.742500  0.566300  0.623100  1.0  0.2144
  C  C195  1  0.306700  0.493600  0.865300  1.0  -0.0589
  C  C196  1  0.357600  0.898100  0.957400  1.0  -0.0775
  C  C197  1  0.986700  0.463600  0.211100  1.0  0.1622
  C  C198  1  0.216900  0.091400  0.418000  1.0  0.5468
  C  C199  1  0.006800  0.808800  0.677000  1.0  -0.091
  C  C200  1  0.289300  0.060100  0.800900  1.0  0.6929
  C  C201  1  0.969400  0.523400  0.138400  1.0  0.1203
  C  C202  1  0.579700  0.673300  0.354300  1.0  0.6939
  C  C203  1  0.593900  0.673500  0.510500  1.0  0.237
  C  C204  1  0.010100  0.056900  0.317700  1.0  -0.182
  C  C205  1  0.231800  0.026100  0.319100  1.0  -0.1596
  C  C206  1  0.223900  0.430700  0.325500  1.0  -0.0931
  C  C207  1  0.721500  0.323800  0.995400  1.0  -0.2302
  C  C208  1  0.175500  0.633300  0.985700  1.0  0.1554
  C  C209  1  0.728000  0.392400  0.191500  1.0  -0.1149
  C  C210  1  0.316700  0.943600  0.977400  1.0  -0.1192
  C  C211  1  0.757100  0.569700  0.808900  1.0  -0.1046
  C  C212  1  0.766500  0.180300  0.202600  1.0  -0.1277
  C  C213  1  0.828800  0.866600  0.556600  1.0  0.1946
  C  C214  1  0.084500  0.383500  0.130200  1.0  0.2508
  C  C215  1  0.171200  0.133400  0.443400  1.0  0.1954
  C  C216  1  0.846800  0.740700  0.552200  1.0  0.1608
  C  C217  1  0.147900  0.923300  0.808100  1.0  -0.058
  C  C218  1  0.880500  0.900200  0.525000  1.0  -0.1461
  C  C219  1  0.433500  0.091000  0.344900  1.0  -0.0839
  C  C220  1  0.842200  0.186600  0.064700  1.0  0.1775
  C  C221  1  0.102600  0.231200  0.482200  1.0  -0.1038
  C  C222  1  0.153200  0.259300  0.447800  1.0  0.1638
  C  C223  1  0.602400  0.865800  0.629900  1.0  -0.0904
  C  C224  1  0.762300  0.038100  0.198000  1.0  -0.0987
  C  C225  1  0.406100  0.326500  0.489500  1.0  0.2387
  C  C226  1  0.389700  0.577500  0.195700  1.0  0.705
  C  C227  1  0.420300  0.326700  0.645700  1.0  0.6942
  C  C228  1  0.099200  0.834400  0.809900  1.0  -0.2192
  C  C229  1  0.993200  0.191200  0.323000  1.0  -0.0924
  C  C230  1  0.065000  0.620100  0.217500  1.0  -0.1203
  C  C231  1  0.974000  0.389500  0.833800  1.0  -0.1014
  C  C232  1  0.030600  0.476600  0.861600  1.0  0.1208
  C  C233  1  0.267800  0.982600  0.296800  1.0  -0.02
  C  C234  1  0.430700  0.345500  0.363200  1.0  0.1365
  C  C235  1  0.283600  0.507900  0.172300  1.0  -0.0957
  C  C236  1  0.822100  0.789900  0.718900  1.0  0.5851
  C  C237  1  0.675700  0.281900  0.944300  1.0  -0.0668
  C  C238  1  0.591800  0.744200  0.487100  1.0  -0.1573
  C  C239  1  0.876100  0.362700  0.983300  1.0  -0.0609
  C  C240  1  0.397600  0.134200  0.370100  1.0  -0.0897
  C  C241  1  0.513700  0.624600  0.668900  1.0  -0.1013
  C  C242  1  0.324300  0.718100  0.055700  1.0  -0.0704
  C  C243  1  0.915500  0.616500  0.869800  1.0  0.2496
  C  C244  1  0.178600  0.345100  0.428800  1.0  0.5639
  C  C245  1  0.755100  0.490800  0.693500  1.0  -0.061
  C  C246  1  0.242900  0.430300  0.191100  1.0  -0.1023
  C  C247  1  0.953800  0.450800  0.758000  1.0  -0.1413
  C  C248  1  0.081200  0.504900  0.919300  1.0  0.5724
  C  C249  1  0.610300  0.422500  0.804300  1.0  0.7044
  C  C250  1  0.697400  0.407800  0.659800  1.0  -0.1234
  C  C251  1  0.144900  0.370400  0.170900  1.0  -0.1683
  C  C252  1  0.683300  0.056400  0.022600  1.0  -0.1214
  C  C253  1  0.281800  0.553600  0.883500  1.0  -0.1543
  C  C254  1  0.776100  0.569300  0.674500  1.0  -0.0892
  C  C255  1  0.732200  0.017400  0.703200  1.0  -0.0185
  C  C256  1  0.900500  0.140600  0.325100  1.0  -0.0196
  C  C257  1  0.935000  0.379900  0.782500  1.0  -0.121
  C  C258  1  0.297700  0.101800  0.359700  1.0  0.1857
  C  C259  1  0.724700  0.276400  0.912900  1.0  -0.058
  C  C260  1  0.918800  0.495100  0.080700  1.0  0.5677
  C  C261  1  0.852100  0.076700  0.191900  1.0  -0.0559
  C  C262  1  0.597600  0.043800  0.713600  1.0  0.7221
  C  C263  1  0.703000  0.185200  0.074300  1.0  0.225
  C  C264  1  0.013300  0.536400  0.788900  1.0  0.1584
  C  C265  1  0.157800  0.813400  0.935300  1.0  0.1775
  C  C266  1  0.367600  0.013500  0.307900  1.0  -0.122
  C  C267  1  0.311600  0.488800  0.815900  1.0  -0.0994
  C  C268  1  0.233500  0.819700  0.797400  1.0  -0.1282
  C  C269  1  0.271100  0.615800  0.856700  1.0  0.289
  C  C270  1  0.693300  0.506400  0.134700  1.0  -0.0586
  N  N271  1  0.770700  0.646200  0.602900  1.0  -0.4275
  N  N272  1  0.185100  0.210000  0.429800  1.0  -0.2755
  N  N273  1  0.814900  0.790000  0.570200  1.0  -0.273
  N  N274  1  0.098400  0.691600  0.811600  1.0  -0.3567
  N  N275  1  0.874900  0.407700  0.068000  1.0  -0.3122
  N  N276  1  0.125100  0.592300  0.932000  1.0  -0.3141
  N  N277  1  0.849000  0.798900  0.678000  1.0  -0.3676
  N  N278  1  0.260600  0.140900  0.388200  1.0  -0.3938
  N  N279  1  0.151000  0.201100  0.322000  1.0  -0.3677
  N  N280  1  0.333000  0.294200  0.343300  1.0  -0.2993
  N  N281  1  0.046900  0.545300  0.838500  1.0  -0.2931
  N  N282  1  0.251700  0.678300  0.878400  1.0  -0.2778
  N  N283  1  0.390400  0.320200  0.437600  1.0  -0.3512
  N  N284  1  0.739400  0.859100  0.611800  1.0  -0.391
  N  N285  1  0.201500  0.775200  0.917600  1.0  -0.2953
  N  N286  1  0.609600  0.679800  0.562400  1.0  -0.3533
  N  N287  1  0.901600  0.308400  0.188400  1.0  -0.3589
  N  N288  1  0.982300  0.321500  0.109100  1.0  -0.3211
  N  N289  1  0.953100  0.454700  0.161500  1.0  -0.29
  N  N290  1  0.017700  0.678500  0.890900  1.0  -0.3215
  N  N291  1  0.229300  0.353800  0.397100  1.0  -0.4279
  N  N292  1  0.748300  0.321700  0.121600  1.0  -0.2785
  N  N293  1  0.798500  0.224800  0.082400  1.0  -0.2966
  N  N294  1  0.667000  0.705800  0.656700  1.0  -0.3009
  O  O295  1  0.456400  0.285900  0.669600  1.0  -0.5293
  O  O296  1  0.026900  0.629000  0.726500  1.0  -0.5728
  O  O297  1  0.276700  0.086500  0.675400  1.0  -0.651
  O  O298  1  0.347700  0.426500  0.753100  1.0  -0.5755
  O  O299  1  0.973100  0.371000  0.273500  1.0  -0.5733
  O  O300  1  0.278100  0.744400  0.171100  1.0  -0.6021
  O  O301  1  0.494900  0.993000  0.292600  1.0  -0.5854
  O  O302  1  0.505100  0.007000  0.707400  1.0  -0.5854
  O  O303  1  0.414300  0.653600  0.186200  1.0  -0.6164
  O  O304  1  0.337500  0.876300  0.265800  1.0  -0.589
  O  O305  1  0.789000  0.982100  0.572900  1.0  -0.5056
  O  O306  1  0.445700  0.599600  0.554100  1.0  -0.5079
  O  O307  1  0.579000  0.189800  0.843600  1.0  -0.6116
  O  O308  1  0.543600  0.714100  0.330400  1.0  -0.5288
  O  O309  1  0.497000  0.813400  0.267400  1.0  -0.72
  O  O310  1  0.211000  0.017900  0.427100  1.0  -0.5063
  O  O311  1  0.583900  0.217500  0.091400  1.0  -0.4859
  O  O312  1  0.293500  0.967200  0.676700  1.0  -0.5788
  O  O313  1  0.721900  0.255600  0.828900  1.0  -0.6025
  O  O314  1  0.585700  0.346400  0.813800  1.0  -0.6167
  O  O315  1  0.246100  0.103100  0.805500  1.0  -0.6166
  O  O316  1  0.648800  0.627600  0.176200  1.0  -0.6073
  O  O317  1  0.610700  0.628000  0.335800  1.0  -0.5889
  O  O318  1  0.624000  0.907400  0.203800  1.0  -0.5974
  O  O319  1  0.631500  0.251200  0.649800  1.0  -0.5274
  O  O320  1  0.416100  0.782500  0.908600  1.0  -0.486
  O  O321  1  0.993100  0.782300  0.930700  1.0  -0.5211
  O  O322  1  0.361500  0.244900  0.755000  1.0  -0.7936
  O  O323  1  0.006900  0.217700  0.069300  1.0  -0.5295
  O  O324  1  0.376000  0.092600  0.796200  1.0  -0.5967
  O  O325  1  0.421000  0.810200  0.156400  1.0  -0.6134
  O  O326  1  0.446600  0.552500  0.223800  1.0  -0.5881
  O  O327  1  0.706500  0.032800  0.323300  1.0  -0.5796
  O  O328  1  0.075400  0.447100  0.946100  1.0  -0.5373
  O  O329  1  0.662500  0.123700  0.734200  1.0  -0.5882
  O  O330  1  0.553400  0.447500  0.776200  1.0  -0.5891
  O  O331  1  0.638500  0.755100  0.245000  1.0  -0.7945
  O  O332  1  0.368500  0.748800  0.350200  1.0  -0.5255
  O  O333  1  0.554300  0.400400  0.445900  1.0  -0.5073
  O  O334  1  0.503000  0.186600  0.732600  1.0  -0.72
  O  O335  1  0.924600  0.552900  0.053900  1.0  -0.5381
  O  O336  1  0.700400  0.331800  0.727700  1.0  -0.5802
  O  O337  1  0.723300  0.913500  0.324600  1.0  -0.6499
  O  O338  1  0.880000  0.824700  0.764900  1.0  -0.6003
  O  O339  1  0.299600  0.668200  0.272300  1.0  -0.5783
  O  O340  1  0.149700  0.397900  0.441200  1.0  -0.4886
  O  O341  1  0.120000  0.175300  0.235100  1.0  -0.6021
  O  O342  1  0.753900  0.896900  0.194500  1.0  -0.6126
  O  O343  1  0.652300  0.573500  0.246900  1.0  -0.5758
  O  O344  1  0.351200  0.372400  0.823800  1.0  -0.6064
  O  O345  1  0.389300  0.372000  0.664200  1.0  -0.5903
  O  O346  1  0.850300  0.602100  0.558800  1.0  -0.4959
