# generated using pymatgen
data_Ga3P3O12F
_symmetry_space_group_name_H-M   'P 1'
_cell_length_a   11.39100000
_cell_length_b   12.41400000
_cell_length_c   12.84600000
_cell_angle_alpha   71.04000000
_cell_angle_beta   68.39000000
_cell_angle_gamma   66.88000000
_symmetry_Int_Tables_number   1
_chemical_formula_structural   Ga3P3O12F
_chemical_formula_sum   'Ga12 P12 O48 F4'
_cell_volume   1518.28244557
_cell_formula_units_Z   4
loop_
 _symmetry_equiv_pos_site_id
 _symmetry_equiv_pos_as_xyz
  1  'x, y, z'
loop_
 _atom_site_type_symbol
 _atom_site_label
 _atom_site_symmetry_multiplicity
 _atom_site_fract_x
 _atom_site_fract_y
 _atom_site_fract_z
 _atom_site_occupancy
 _atom_site_charge
  Ga  Ga1  1  0.395730  0.707950  0.246270  1.0  1.6651
  Ga  Ga2  1  0.198570  0.721250  0.936430  1.0  1.6978
  Ga  Ga3  1  0.106350  0.825900  0.256640  1.0  1.655
  Ga  Ga4  1  0.316050  0.777470  0.580540  1.0  1.7202
  Ga  Ga5  1  0.732020  0.929230  0.166110  1.0  1.6975
  Ga  Ga6  1  0.784850  0.554450  0.335190  1.0  1.6917
  Ga  Ga7  1  0.604270  0.292050  0.753730  1.0  1.6654
  Ga  Ga8  1  0.801430  0.278750  0.063570  1.0  1.6983
  Ga  Ga9  1  0.893650  0.174100  0.743360  1.0  1.6537
  Ga  Ga10  1  0.683950  0.222530  0.419460  1.0  1.7181
  Ga  Ga11  1  0.267980  0.070770  0.833890  1.0  1.6952
  Ga  Ga12  1  0.215150  0.445550  0.664810  1.0  1.6891
  P  P13  1  0.187460  0.680390  0.482690  1.0  1.826
  P  P14  1  0.554220  0.789380  0.349980  1.0  1.8701
  P  P15  1  0.313540  0.851020  0.020350  1.0  1.7544
  P  P16  1  0.636850  0.456950  0.230030  1.0  1.9595
  P  P17  1  0.865330  0.061370  0.248280  1.0  1.839
  P  P18  1  0.964790  0.706460  0.170180  1.0  1.8763
  P  P19  1  0.812540  0.319610  0.517310  1.0  1.8278
  P  P20  1  0.445780  0.210620  0.650020  1.0  1.8702
  P  P21  1  0.686460  0.148980  0.979650  1.0  1.7545
  P  P22  1  0.363150  0.543050  0.769970  1.0  1.9591
  P  P23  1  0.134670  0.938630  0.751720  1.0  1.8391
  P  P24  1  0.035210  0.293540  0.829820  1.0  1.8773
  O  O25  1  0.420100  0.786800  0.085000  1.0  -0.7406
  O  O26  1  0.330800  0.647700  0.409300  1.0  -0.7993
  O  O27  1  0.522500  0.765200  0.256900  1.0  -0.827
  O  O28  1  0.511700  0.558500  0.214300  1.0  -0.8682
  O  O29  1  0.892900  0.177900  0.168300  1.0  -0.8175
  O  O30  1  0.326300  0.770000  0.943900  1.0  -0.8123
  O  O31  1  0.088500  0.672300  0.072100  1.0  -0.9503
  O  O32  1  0.707400  0.416300  0.115600  1.0  -0.9038
  O  O33  1  0.985800  0.977000  0.288800  1.0  -0.7774
  O  O34  1  0.170500  0.887100  0.094500  1.0  -0.7915
  O  O35  1  0.981800  0.763900  0.248800  1.0  -0.8193
  O  O36  1  0.080800  0.751900  0.419300  1.0  -0.7396
  O  O37  1  0.175700  0.752400  0.566800  1.0  -0.8066
  O  O38  1  0.433800  0.825400  0.450300  1.0  -0.8857
  O  O39  1  0.600500  0.353100  0.326000  1.0  -0.914
  O  O40  1  0.746900  0.094000  0.352100  1.0  -0.8216
  O  O41  1  0.828800  0.005600  0.180300  1.0  -1.0346
  O  O42  1  0.351000  0.964400  0.940200  1.0  -0.8
  O  O43  1  0.846500  0.790700  0.121000  1.0  -0.8242
  O  O44  1  0.608500  0.896700  0.300100  1.0  -0.8324
  O  O45  1  0.935900  0.587900  0.238400  1.0  -0.8256
  O  O46  1  0.659700  0.678700  0.396500  1.0  -0.8279
  O  O47  1  0.150500  0.565400  0.554500  1.0  -0.7963
  O  O48  1  0.734500  0.496000  0.253000  1.0  -0.9821
  O  O49  1  0.579900  0.213200  0.915000  1.0  -0.7379
  O  O50  1  0.669200  0.352300  0.590700  1.0  -0.7964
  O  O51  1  0.477500  0.234800  0.743100  1.0  -0.8296
  O  O52  1  0.488300  0.441500  0.785700  1.0  -0.8681
  O  O53  1  0.107100  0.822100  0.831700  1.0  -0.8159
  O  O54  1  0.673700  0.230000  0.056100  1.0  -0.8109
  O  O55  1  0.911500  0.327700  0.927900  1.0  -0.9512
  O  O56  1  0.292600  0.583700  0.884400  1.0  -0.9039
  O  O57  1  0.014200  0.023000  0.711200  1.0  -0.7796
  O  O58  1  0.829500  0.112900  0.905500  1.0  -0.7932
  O  O59  1  0.018200  0.236100  0.751200  1.0  -0.8193
  O  O60  1  0.919200  0.248100  0.580700  1.0  -0.7411
  O  O61  1  0.824300  0.247600  0.433200  1.0  -0.8071
  O  O62  1  0.566200  0.174600  0.549700  1.0  -0.8869
  O  O63  1  0.399500  0.646900  0.674000  1.0  -0.9149
  O  O64  1  0.253100  0.906000  0.647900  1.0  -0.8241
  O  O65  1  0.171200  0.994400  0.819700  1.0  -1.0348
  O  O66  1  0.649000  0.035600  0.059800  1.0  -0.8005
  O  O67  1  0.153500  0.209300  0.879000  1.0  -0.8239
  O  O68  1  0.391500  0.103300  0.699900  1.0  -0.8336
  O  O69  1  0.064100  0.412100  0.761600  1.0  -0.8245
  O  O70  1  0.340300  0.321300  0.603500  1.0  -0.8277
  O  O71  1  0.849500  0.434600  0.445500  1.0  -0.7978
  O  O72  1  0.265500  0.504000  0.747000  1.0  -0.9817
  F  F73  1  0.249000  0.674400  0.231100  1.0  -0.5232
  F  F74  1  0.252700  0.859700  0.273600  1.0  -0.5266
  F  F75  1  0.751000  0.325600  0.768900  1.0  -0.5207
  F  F76  1  0.747300  0.140300  0.726400  1.0  -0.5279
