# generated using pymatgen
data_Zn3Fe2H24(C7N3)6
_symmetry_space_group_name_H-M   'P 1'
_cell_length_a   11.49980000
_cell_length_b   15.83540000
_cell_length_c   17.52040000
_cell_angle_alpha   90.00000000
_cell_angle_beta   90.00000000
_cell_angle_gamma   90.00000000
_symmetry_Int_Tables_number   1
_chemical_formula_structural   Zn3Fe2H24(C7N3)6
_chemical_formula_sum   'Zn6 Fe4 H48 C84 N36'
_cell_volume   3190.53374633
_cell_formula_units_Z   2
loop_
 _symmetry_equiv_pos_site_id
 _symmetry_equiv_pos_as_xyz
  1  'x, y, z'
loop_
 _atom_site_type_symbol
 _atom_site_label
 _atom_site_symmetry_multiplicity
 _atom_site_fract_x
 _atom_site_fract_y
 _atom_site_fract_z
 _atom_site_occupancy
 _atom_site_charge
  Zn  Zn1  1  0.000000  0.892050  0.332700  1.0  0.9121
  Zn  Zn2  1  0.000000  0.392050  0.167300  1.0  0.9124
  Zn  Zn3  1  0.000000  0.607950  0.832700  1.0  0.9117
  Zn  Zn4  1  0.000000  0.000000  0.000000  1.0  0.9579
  Zn  Zn5  1  0.000000  0.500000  0.500000  1.0  0.9579
  Zn  Zn6  1  0.000000  0.107950  0.667300  1.0  0.9122
  Fe  Fe7  1  0.000000  0.198270  0.391430  1.0  -0.1805
  Fe  Fe8  1  0.000000  0.698270  0.108570  1.0  -0.179
  Fe  Fe9  1  0.000000  0.801730  0.608570  1.0  -0.178
  Fe  Fe10  1  0.000000  0.301730  0.891430  1.0  -0.1798
  H  H11  1  0.412200  0.162000  0.773000  1.0  0.1204
  H  H12  1  0.587800  0.338000  0.273000  1.0  0.1204
  H  H13  1  0.210000  0.968400  0.415800  1.0  0.0729
  H  H14  1  0.211100  0.936100  0.093900  1.0  0.0779
  H  H15  1  0.788900  0.436100  0.406100  1.0  0.0788
  H  H16  1  0.210000  0.531600  0.915800  1.0  0.0733
  H  H17  1  0.790000  0.968400  0.415800  1.0  0.0728
  H  H18  1  0.587800  0.662000  0.727000  1.0  0.1195
  H  H19  1  0.786400  0.331800  0.267100  1.0  0.0761
  H  H20  1  0.788900  0.563900  0.593900  1.0  0.078
  H  H21  1  0.412200  0.838000  0.227000  1.0  0.1183
  H  H22  1  0.409200  0.564800  0.597400  1.0  0.1175
  H  H23  1  0.786400  0.831800  0.232900  1.0  0.0758
  H  H24  1  0.590800  0.064800  0.902600  1.0  0.1181
  H  H25  1  0.590800  0.935200  0.097400  1.0  0.1173
  H  H26  1  0.786400  0.168200  0.767100  1.0  0.0764
  H  H27  1  0.412200  0.662000  0.727000  1.0  0.1189
  H  H28  1  0.788900  0.936100  0.093900  1.0  0.0782
  H  H29  1  0.592400  0.979100  0.414900  1.0  0.1178
  H  H30  1  0.210000  0.468400  0.084200  1.0  0.0728
  H  H31  1  0.211100  0.063900  0.906100  1.0  0.0783
  H  H32  1  0.211100  0.436100  0.406100  1.0  0.0789
  H  H33  1  0.210000  0.031600  0.584200  1.0  0.0727
  H  H34  1  0.590800  0.435200  0.402600  1.0  0.1177
  H  H35  1  0.592400  0.479100  0.085100  1.0  0.1169
  H  H36  1  0.790000  0.531600  0.915800  1.0  0.0734
  H  H37  1  0.407600  0.020900  0.585100  1.0  0.1166
  H  H38  1  0.213600  0.168200  0.767100  1.0  0.0764
  H  H39  1  0.213600  0.668200  0.732900  1.0  0.0764
  H  H40  1  0.213600  0.831800  0.232900  1.0  0.0759
  H  H41  1  0.590800  0.564800  0.597400  1.0  0.1176
  H  H42  1  0.592400  0.520900  0.914900  1.0  0.1178
  H  H43  1  0.407600  0.479100  0.085100  1.0  0.1168
  H  H44  1  0.790000  0.031600  0.584200  1.0  0.0732
  H  H45  1  0.587800  0.162000  0.773000  1.0  0.1192
  H  H46  1  0.407600  0.979100  0.414900  1.0  0.1175
  H  H47  1  0.790000  0.468400  0.084200  1.0  0.073
  H  H48  1  0.211100  0.563900  0.593900  1.0  0.0778
  H  H49  1  0.592400  0.020900  0.585100  1.0  0.117
  H  H50  1  0.213600  0.331800  0.267100  1.0  0.076
  H  H51  1  0.409200  0.064800  0.902600  1.0  0.1181
  H  H52  1  0.412200  0.338000  0.273000  1.0  0.1181
  H  H53  1  0.587800  0.838000  0.227000  1.0  0.1193
  H  H54  1  0.409200  0.435200  0.402600  1.0  0.1179
  H  H55  1  0.407600  0.520900  0.914900  1.0  0.118
  H  H56  1  0.788900  0.063900  0.906100  1.0  0.0784
  H  H57  1  0.409200  0.935200  0.097400  1.0  0.1172
  H  H58  1  0.786400  0.668200  0.732900  1.0  0.0761
  C  C59  1  0.564300  0.500000  0.500000  1.0  0.0663
  C  C60  1  0.629600  0.447600  0.122700  1.0  -0.2014
  C  C61  1  0.373200  0.864700  0.266700  1.0  -0.2051
  C  C62  1  0.434800  0.907600  0.321700  1.0  0.052
  C  C63  1  0.626800  0.864700  0.266700  1.0  -0.1969
  C  C64  1  0.000000  0.652800  0.006800  1.0  0.1852
  C  C65  1  0.253200  0.861500  0.270600  1.0  0.1852
  C  C66  1  0.170000  0.302000  0.893600  1.0  0.1654
  C  C67  1  0.000000  0.689900  0.566600  1.0  0.1986
  C  C68  1  0.628600  0.038200  0.942800  1.0  -0.1903
  C  C69  1  0.250900  0.058800  0.622900  1.0  0.1716
  C  C70  1  0.251400  0.037000  0.945200  1.0  0.1779
  C  C71  1  0.000000  0.152800  0.493200  1.0  0.1857
  C  C72  1  0.373200  0.364700  0.233300  1.0  -0.205
  C  C73  1  0.371400  0.038200  0.942800  1.0  -0.1898
  C  C74  1  0.253200  0.138500  0.729400  1.0  0.1853
  C  C75  1  0.748600  0.537000  0.554800  1.0  0.178
  C  C76  1  0.626800  0.135300  0.733300  1.0  -0.1987
  C  C77  1  0.749100  0.441200  0.122900  1.0  0.1719
  C  C78  1  0.626800  0.635300  0.766700  1.0  -0.1972
  C  C79  1  0.435700  0.500000  0.500000  1.0  0.0659
  C  C80  1  0.370400  0.447600  0.122700  1.0  -0.2016
  C  C81  1  0.253200  0.361500  0.229400  1.0  0.1856
  C  C82  1  0.251400  0.463000  0.445200  1.0  0.1777
  C  C83  1  0.170000  0.198000  0.393600  1.0  0.1654
  C  C84  1  0.564300  0.000000  0.000000  1.0  0.0663
  C  C85  1  0.830000  0.802000  0.606400  1.0  0.1672
  C  C86  1  0.629600  0.552400  0.877300  1.0  -0.2025
  C  C87  1  0.370400  0.052400  0.622700  1.0  -0.202
  C  C88  1  0.000000  0.413600  0.847900  1.0  0.2052
  C  C89  1  0.434800  0.092400  0.678300  1.0  0.0524
  C  C90  1  0.434800  0.407600  0.178300  1.0  0.0522
  C  C91  1  0.000000  0.586400  0.152100  1.0  0.2057
  C  C92  1  0.435700  0.000000  0.000000  1.0  0.0659
  C  C93  1  0.749100  0.558800  0.877100  1.0  0.1719
  C  C94  1  0.000000  0.310100  0.433400  1.0  0.199
  C  C95  1  0.749100  0.058800  0.622900  1.0  0.1716
  C  C96  1  0.748600  0.463000  0.445200  1.0  0.1778
  C  C97  1  0.434800  0.592400  0.821700  1.0  0.0521
  C  C98  1  0.748600  0.963000  0.054800  1.0  0.1778
  C  C99  1  0.746800  0.638500  0.770600  1.0  0.1857
  C  C100  1  0.170000  0.802000  0.606400  1.0  0.1657
  C  C101  1  0.749100  0.941200  0.377100  1.0  0.1721
  C  C102  1  0.371400  0.961800  0.057200  1.0  -0.1904
  C  C103  1  0.373200  0.635300  0.766700  1.0  -0.2046
  C  C104  1  0.370400  0.947600  0.377300  1.0  -0.2026
  C  C105  1  0.000000  0.086400  0.347900  1.0  0.2074
  C  C106  1  0.000000  0.847200  0.506800  1.0  0.1852
  C  C107  1  0.000000  0.245700  0.794300  1.0  0.1713
  C  C108  1  0.628600  0.461800  0.442800  1.0  -0.1906
  C  C109  1  0.251400  0.537000  0.554800  1.0  0.1776
  C  C110  1  0.746800  0.361500  0.229400  1.0  0.186
  C  C111  1  0.748600  0.037000  0.945200  1.0  0.1779
  C  C112  1  0.629600  0.947600  0.377300  1.0  -0.2025
  C  C113  1  0.628600  0.538200  0.557200  1.0  -0.1907
  C  C114  1  0.629600  0.052400  0.622700  1.0  -0.202
  C  C115  1  0.250900  0.558800  0.877100  1.0  0.1718
  C  C116  1  0.000000  0.347200  0.993200  1.0  0.1858
  C  C117  1  0.565200  0.092400  0.678300  1.0  0.0519
  C  C118  1  0.565200  0.907600  0.321700  1.0  0.0517
  C  C119  1  0.830000  0.198000  0.393600  1.0  0.167
  C  C120  1  0.371400  0.538200  0.557200  1.0  -0.1901
  C  C121  1  0.746800  0.138500  0.729400  1.0  0.1859
  C  C122  1  0.565200  0.407600  0.178300  1.0  0.0519
  C  C123  1  0.251400  0.963000  0.054800  1.0  0.1775
  C  C124  1  0.565200  0.592400  0.821700  1.0  0.0517
  C  C125  1  0.250900  0.441200  0.122900  1.0  0.172
  C  C126  1  0.170000  0.698000  0.106400  1.0  0.1656
  C  C127  1  0.000000  0.189900  0.933400  1.0  0.199
  C  C128  1  0.000000  0.754300  0.205700  1.0  0.1873
  C  C129  1  0.253200  0.638500  0.770600  1.0  0.1853
  C  C130  1  0.250900  0.941200  0.377100  1.0  0.172
  C  C131  1  0.000000  0.913600  0.652100  1.0  0.2042
  C  C132  1  0.370400  0.552400  0.877300  1.0  -0.2025
  C  C133  1  0.000000  0.254300  0.294300  1.0  0.1852
  C  C134  1  0.373200  0.135300  0.733300  1.0  -0.2064
  C  C135  1  0.746800  0.861500  0.270600  1.0  0.1854
  C  C136  1  0.000000  0.745700  0.705700  1.0  0.1731
  C  C137  1  0.628600  0.961800  0.057200  1.0  -0.1911
  C  C138  1  0.830000  0.698000  0.106400  1.0  0.1672
  C  C139  1  0.371400  0.461800  0.442800  1.0  -0.1901
  C  C140  1  0.000000  0.810100  0.066600  1.0  0.1984
  C  C141  1  0.626800  0.364700  0.233300  1.0  -0.1983
  C  C142  1  0.830000  0.302000  0.893600  1.0  0.1669
  N  N143  1  0.000000  0.480800  0.823100  1.0  -0.4406
  N  N144  1  0.809300  0.601270  0.825610  1.0  -0.3294
  N  N145  1  0.729500  0.302900  0.896900  1.0  -0.4169
  N  N146  1  0.270500  0.802900  0.603100  1.0  -0.4174
  N  N147  1  0.270500  0.302900  0.896900  1.0  -0.4173
  N  N148  1  0.000000  0.019200  0.323100  1.0  -0.4442
  N  N149  1  0.000000  0.519200  0.176900  1.0  -0.4453
  N  N150  1  0.000000  0.868400  0.443900  1.0  -0.3787
  N  N151  1  0.809700  0.500000  0.500000  1.0  -0.3287
  N  N152  1  0.809300  0.398730  0.174390  1.0  -0.3298
  N  N153  1  0.000000  0.295900  0.240700  1.0  -0.4285
  N  N154  1  0.190700  0.101270  0.674390  1.0  -0.3323
  N  N155  1  0.729500  0.802900  0.603100  1.0  -0.417
  N  N156  1  0.000000  0.878400  0.044800  1.0  -0.454
  N  N157  1  0.000000  0.368400  0.056100  1.0  -0.3815
  N  N158  1  0.190700  0.398730  0.174390  1.0  -0.3303
  N  N159  1  0.000000  0.795900  0.259300  1.0  -0.4289
  N  N160  1  0.729500  0.197100  0.396900  1.0  -0.417
  N  N161  1  0.270500  0.697100  0.103100  1.0  -0.4174
  N  N162  1  0.000000  0.378400  0.455200  1.0  -0.4557
  N  N163  1  0.000000  0.980800  0.676900  1.0  -0.442
  N  N164  1  0.190300  0.500000  0.500000  1.0  -0.3286
  N  N165  1  0.809700  0.000000  0.000000  1.0  -0.3291
  N  N166  1  0.000000  0.631600  0.943900  1.0  -0.3756
  N  N167  1  0.000000  0.621600  0.544800  1.0  -0.4535
  N  N168  1  0.000000  0.204100  0.740700  1.0  -0.4273
  N  N169  1  0.729500  0.697100  0.103100  1.0  -0.4171
  N  N170  1  0.809300  0.898730  0.325610  1.0  -0.3295
  N  N171  1  0.190700  0.601270  0.825610  1.0  -0.332
  N  N172  1  0.000000  0.704100  0.759300  1.0  -0.4286
  N  N173  1  0.270500  0.197100  0.396900  1.0  -0.4173
  N  N174  1  0.809300  0.101270  0.674390  1.0  -0.3301
  N  N175  1  0.000000  0.131600  0.556100  1.0  -0.3806
  N  N176  1  0.190300  0.000000  0.000000  1.0  -0.3275
  N  N177  1  0.000000  0.121600  0.955200  1.0  -0.4545
  N  N178  1  0.190700  0.898730  0.325610  1.0  -0.3319
