# generated using pymatgen
data_Ga2P3H4C2O13
_symmetry_space_group_name_H-M   'P 1'
_cell_length_a   23.46170000
_cell_length_b   8.11700000
_cell_length_c   16.89760000
_cell_angle_alpha   90.00000000
_cell_angle_beta   112.87300000
_cell_angle_gamma   90.00000000
_symmetry_Int_Tables_number   1
_chemical_formula_structural   Ga2P3H4C2O13
_chemical_formula_sum   'Ga16 P24 H32 C16 O104'
_cell_volume   2964.92348913
_cell_formula_units_Z   8
loop_
 _symmetry_equiv_pos_site_id
 _symmetry_equiv_pos_as_xyz
  1  'x, y, z'
loop_
 _atom_site_type_symbol
 _atom_site_label
 _atom_site_symmetry_multiplicity
 _atom_site_fract_x
 _atom_site_fract_y
 _atom_site_fract_z
 _atom_site_occupancy
 _atom_site_charge
  Ga  Ga1  1  0.161190  0.657770  0.711480  1.0  1.6019
  Ga  Ga2  1  0.103430  0.115890  0.515240  1.0  1.5635
  Ga  Ga3  1  0.661190  0.157770  0.711480  1.0  1.6019
  Ga  Ga4  1  0.603430  0.615890  0.515240  1.0  1.5635
  Ga  Ga5  1  0.838810  0.657770  0.788520  1.0  1.6024
  Ga  Ga6  1  0.896570  0.115890  0.984760  1.0  1.5632
  Ga  Ga7  1  0.338810  0.157770  0.788520  1.0  1.6024
  Ga  Ga8  1  0.396570  0.615890  0.984760  1.0  1.5632
  Ga  Ga9  1  0.838810  0.342230  0.288520  1.0  1.6017
  Ga  Ga10  1  0.896570  0.884110  0.484760  1.0  1.5632
  Ga  Ga11  1  0.338810  0.842230  0.288520  1.0  1.6017
  Ga  Ga12  1  0.396570  0.384110  0.484760  1.0  1.5632
  Ga  Ga13  1  0.161190  0.342230  0.211480  1.0  1.601
  Ga  Ga14  1  0.103430  0.884110  0.015240  1.0  1.5639
  Ga  Ga15  1  0.661190  0.842230  0.211480  1.0  1.601
  Ga  Ga16  1  0.603430  0.384110  0.015240  1.0  1.5639
  P  P17  1  0.037830  0.826320  0.577850  1.0  1.6978
  P  P18  1  0.224150  0.959070  0.651730  1.0  1.5594
  P  P19  1  0.152740  0.134550  0.365710  1.0  1.5487
  P  P20  1  0.537830  0.326320  0.577850  1.0  1.6978
  P  P21  1  0.724150  0.459070  0.651730  1.0  1.5594
  P  P22  1  0.652740  0.634550  0.365710  1.0  1.5487
  P  P23  1  0.962170  0.826320  0.922150  1.0  1.6983
  P  P24  1  0.775850  0.959070  0.848270  1.0  1.5596
  P  P25  1  0.847260  0.134550  0.134290  1.0  1.5415
  P  P26  1  0.462170  0.326320  0.922150  1.0  1.6983
  P  P27  1  0.275850  0.459070  0.848270  1.0  1.5596
  P  P28  1  0.347260  0.634550  0.134290  1.0  1.5415
  P  P29  1  0.962170  0.173680  0.422150  1.0  1.6986
  P  P30  1  0.775850  0.040930  0.348270  1.0  1.5625
  P  P31  1  0.847260  0.865450  0.634290  1.0  1.5416
  P  P32  1  0.462170  0.673680  0.422150  1.0  1.6986
  P  P33  1  0.275850  0.540930  0.348270  1.0  1.5625
  P  P34  1  0.347260  0.365450  0.634290  1.0  1.5416
  P  P35  1  0.037830  0.173680  0.077850  1.0  1.6983
  P  P36  1  0.224150  0.040930  0.151730  1.0  1.5621
  P  P37  1  0.152740  0.865450  0.865710  1.0  1.549
  P  P38  1  0.537830  0.673680  0.077850  1.0  1.6983
  P  P39  1  0.724150  0.540930  0.151730  1.0  1.5621
  P  P40  1  0.652740  0.365450  0.865710  1.0  1.549
  H  H41  1  0.036200  0.943000  0.638000  1.0  -0.1085
  H  H42  1  0.264000  0.852000  0.646000  1.0  -0.1091
  H  H43  1  0.207000  0.160000  0.429000  1.0  -0.1084
  H  H44  1  0.165300  0.993000  0.289000  1.0  0.4363
  H  H45  1  0.536200  0.443000  0.638000  1.0  -0.1085
  H  H46  1  0.764000  0.352000  0.646000  1.0  -0.1091
  H  H47  1  0.707000  0.660000  0.429000  1.0  -0.1084
  H  H48  1  0.665300  0.493000  0.289000  1.0  0.4363
  H  H49  1  0.963800  0.943000  0.862000  1.0  -0.1043
  H  H50  1  0.736000  0.852000  0.854000  1.0  -0.1121
  H  H51  1  0.793000  0.160000  0.071000  1.0  -0.1085
  H  H52  1  0.834700  0.993000  0.211000  1.0  0.4354
  H  H53  1  0.463800  0.443000  0.862000  1.0  -0.1043
  H  H54  1  0.236000  0.352000  0.854000  1.0  -0.1121
  H  H55  1  0.293000  0.660000  0.071000  1.0  -0.1085
  H  H56  1  0.334700  0.493000  0.211000  1.0  0.4354
  H  H57  1  0.963800  0.057000  0.362000  1.0  -0.1041
  H  H58  1  0.736000  0.148000  0.354000  1.0  -0.1108
  H  H59  1  0.793000  0.840000  0.571000  1.0  -0.1084
  H  H60  1  0.834700  0.007000  0.711000  1.0  0.4354
  H  H61  1  0.463800  0.557000  0.362000  1.0  -0.1041
  H  H62  1  0.236000  0.648000  0.354000  1.0  -0.1108
  H  H63  1  0.293000  0.340000  0.571000  1.0  -0.1084
  H  H64  1  0.334700  0.507000  0.711000  1.0  0.4354
  H  H65  1  0.036200  0.057000  0.138000  1.0  -0.1075
  H  H66  1  0.264000  0.148000  0.146000  1.0  -0.1083
  H  H67  1  0.207000  0.840000  0.929000  1.0  -0.1084
  H  H68  1  0.165300  0.007000  0.789000  1.0  0.4359
  H  H69  1  0.536200  0.557000  0.138000  1.0  -0.1075
  H  H70  1  0.764000  0.648000  0.146000  1.0  -0.1083
  H  H71  1  0.707000  0.340000  0.929000  1.0  -0.1084
  H  H72  1  0.665300  0.507000  0.789000  1.0  0.4359
  C  C73  1  0.156880  0.414600  0.594990  1.0  0.6462
  C  C74  1  0.129660  0.333800  0.654940  1.0  0.6457
  C  C75  1  0.656880  0.914600  0.594990  1.0  0.6462
  C  C76  1  0.629660  0.833800  0.654940  1.0  0.6457
  C  C77  1  0.843120  0.414600  0.905010  1.0  0.6436
  C  C78  1  0.870340  0.333800  0.845060  1.0  0.6448
  C  C79  1  0.343120  0.914600  0.905010  1.0  0.6436
  C  C80  1  0.370340  0.833800  0.845060  1.0  0.6448
  C  C81  1  0.843120  0.585400  0.405010  1.0  0.6448
  C  C82  1  0.870340  0.666200  0.345060  1.0  0.6443
  C  C83  1  0.343120  0.085400  0.405010  1.0  0.6448
  C  C84  1  0.370340  0.166200  0.345060  1.0  0.6443
  C  C85  1  0.156880  0.585400  0.094990  1.0  0.646
  C  C86  1  0.129660  0.666200  0.154940  1.0  0.6461
  C  C87  1  0.656880  0.085400  0.094990  1.0  0.646
  C  C88  1  0.629660  0.166200  0.154940  1.0  0.6461
  O  O89  1  0.134980  0.275700  0.302730  1.0  -0.79
  O  O90  1  0.104900  0.097700  0.401960  1.0  -0.8125
  O  O91  1  0.258340  0.105300  0.704800  1.0  -0.8381
  O  O92  1  0.182640  0.009000  0.561600  1.0  -0.8429
  O  O93  1  0.972510  0.761600  0.530990  1.0  -0.7943
  O  O94  1  0.078460  0.685400  0.626440  1.0  -0.8068
  O  O95  1  0.108010  0.192800  0.636270  1.0  -0.5425
  O  O96  1  0.188690  0.873500  0.699150  1.0  -0.801
  O  O97  1  0.061830  0.914700  0.517740  1.0  -0.8218
  O  O98  1  0.151530  0.334000  0.529770  1.0  -0.5241
  O  O99  1  0.181420  0.552700  0.616790  1.0  -0.5395
  O  O100  1  0.131750  0.418300  0.718600  1.0  -0.544
  O  O101  1  0.161130  0.972700  0.322020  1.0  -0.7164
  O  O102  1  0.634980  0.775700  0.302730  1.0  -0.79
  O  O103  1  0.604900  0.597700  0.401960  1.0  -0.8125
  O  O104  1  0.758340  0.605300  0.704800  1.0  -0.8381
  O  O105  1  0.682640  0.509000  0.561600  1.0  -0.8429
  O  O106  1  0.472510  0.261600  0.530990  1.0  -0.7943
  O  O107  1  0.578460  0.185400  0.626440  1.0  -0.8068
  O  O108  1  0.608010  0.692800  0.636270  1.0  -0.5425
  O  O109  1  0.688690  0.373500  0.699150  1.0  -0.801
  O  O110  1  0.561830  0.414700  0.517740  1.0  -0.8218
  O  O111  1  0.651530  0.834000  0.529770  1.0  -0.5241
  O  O112  1  0.681420  0.052700  0.616790  1.0  -0.5395
  O  O113  1  0.631750  0.918300  0.718600  1.0  -0.544
  O  O114  1  0.661130  0.472700  0.322020  1.0  -0.7164
  O  O115  1  0.865020  0.275700  0.197270  1.0  -0.7897
  O  O116  1  0.895100  0.097700  0.098040  1.0  -0.8138
  O  O117  1  0.741660  0.105300  0.795200  1.0  -0.8389
  O  O118  1  0.817360  0.009000  0.938400  1.0  -0.8427
  O  O119  1  0.027490  0.761600  0.969010  1.0  -0.7951
  O  O120  1  0.921540  0.685400  0.873560  1.0  -0.805
  O  O121  1  0.891990  0.192800  0.863730  1.0  -0.5424
  O  O122  1  0.811310  0.873500  0.800850  1.0  -0.8002
  O  O123  1  0.938170  0.914700  0.982260  1.0  -0.8226
  O  O124  1  0.848470  0.334000  0.970230  1.0  -0.5216
  O  O125  1  0.818580  0.552700  0.883210  1.0  -0.5395
  O  O126  1  0.868250  0.418300  0.781400  1.0  -0.5439
  O  O127  1  0.838870  0.972700  0.177980  1.0  -0.715
  O  O128  1  0.365020  0.775700  0.197270  1.0  -0.7897
  O  O129  1  0.395100  0.597700  0.098040  1.0  -0.8138
  O  O130  1  0.241660  0.605300  0.795200  1.0  -0.8389
  O  O131  1  0.317360  0.509000  0.938400  1.0  -0.8427
  O  O132  1  0.527490  0.261600  0.969010  1.0  -0.7951
  O  O133  1  0.421540  0.185400  0.873560  1.0  -0.805
  O  O134  1  0.391990  0.692800  0.863730  1.0  -0.5424
  O  O135  1  0.311310  0.373500  0.800850  1.0  -0.8002
  O  O136  1  0.438170  0.414700  0.982260  1.0  -0.8226
  O  O137  1  0.348470  0.834000  0.970230  1.0  -0.5216
  O  O138  1  0.318580  0.052700  0.883210  1.0  -0.5395
  O  O139  1  0.368250  0.918300  0.781400  1.0  -0.5439
  O  O140  1  0.338870  0.472700  0.177980  1.0  -0.715
  O  O141  1  0.865020  0.724300  0.697270  1.0  -0.79
  O  O142  1  0.895100  0.902300  0.598040  1.0  -0.8129
  O  O143  1  0.741660  0.894700  0.295200  1.0  -0.8389
  O  O144  1  0.817360  0.991000  0.438400  1.0  -0.8428
  O  O145  1  0.027490  0.238400  0.469010  1.0  -0.7937
  O  O146  1  0.921540  0.314600  0.373560  1.0  -0.8053
  O  O147  1  0.891990  0.807200  0.363730  1.0  -0.541
  O  O148  1  0.811310  0.126500  0.300850  1.0  -0.7997
  O  O149  1  0.938170  0.085300  0.482260  1.0  -0.8213
  O  O150  1  0.848470  0.666000  0.470230  1.0  -0.5219
  O  O151  1  0.818580  0.447300  0.383210  1.0  -0.5393
  O  O152  1  0.868250  0.581700  0.281400  1.0  -0.5444
  O  O153  1  0.838870  0.027300  0.677980  1.0  -0.7163
  O  O154  1  0.365020  0.224300  0.697270  1.0  -0.79
  O  O155  1  0.395100  0.402300  0.598040  1.0  -0.8129
  O  O156  1  0.241660  0.394700  0.295200  1.0  -0.8389
  O  O157  1  0.317360  0.491000  0.438400  1.0  -0.8428
  O  O158  1  0.527490  0.738400  0.469010  1.0  -0.7937
  O  O159  1  0.421540  0.814600  0.373560  1.0  -0.8053
  O  O160  1  0.391990  0.307200  0.363730  1.0  -0.541
  O  O161  1  0.311310  0.626500  0.300850  1.0  -0.7997
  O  O162  1  0.438170  0.585300  0.482260  1.0  -0.8213
  O  O163  1  0.348470  0.166000  0.470230  1.0  -0.5219
  O  O164  1  0.318580  0.947300  0.383210  1.0  -0.5393
  O  O165  1  0.368250  0.081700  0.281400  1.0  -0.5444
  O  O166  1  0.338870  0.527300  0.677980  1.0  -0.7163
  O  O167  1  0.134980  0.724300  0.802730  1.0  -0.7898
  O  O168  1  0.104900  0.902300  0.901960  1.0  -0.8125
  O  O169  1  0.258340  0.894700  0.204800  1.0  -0.8384
  O  O170  1  0.182640  0.991000  0.061600  1.0  -0.8424
  O  O171  1  0.972510  0.238400  0.030990  1.0  -0.7936
  O  O172  1  0.078460  0.314600  0.126440  1.0  -0.8065
  O  O173  1  0.108010  0.807200  0.136270  1.0  -0.5426
  O  O174  1  0.188690  0.126500  0.199150  1.0  -0.8008
  O  O175  1  0.061830  0.085300  0.017740  1.0  -0.8214
  O  O176  1  0.151530  0.666000  0.029770  1.0  -0.5253
  O  O177  1  0.181420  0.447300  0.116790  1.0  -0.5391
  O  O178  1  0.131750  0.581700  0.218600  1.0  -0.5439
  O  O179  1  0.161130  0.027300  0.822020  1.0  -0.7163
  O  O180  1  0.634980  0.224300  0.802730  1.0  -0.7898
  O  O181  1  0.604900  0.402300  0.901960  1.0  -0.8125
  O  O182  1  0.758340  0.394700  0.204800  1.0  -0.8384
  O  O183  1  0.682640  0.491000  0.061600  1.0  -0.8424
  O  O184  1  0.472510  0.738400  0.030990  1.0  -0.7936
  O  O185  1  0.578460  0.814600  0.126440  1.0  -0.8065
  O  O186  1  0.608010  0.307200  0.136270  1.0  -0.5426
  O  O187  1  0.688690  0.626500  0.199150  1.0  -0.8008
  O  O188  1  0.561830  0.585300  0.017740  1.0  -0.8214
  O  O189  1  0.651530  0.166000  0.029770  1.0  -0.5253
  O  O190  1  0.681420  0.947300  0.116790  1.0  -0.5391
  O  O191  1  0.631750  0.081700  0.218600  1.0  -0.5439
  O  O192  1  0.661130  0.527300  0.822020  1.0  -0.7163
