# generated using pymatgen
data_Ce2H14C48O25
_symmetry_space_group_name_H-M   'P 1'
_cell_length_a   10.14400000
_cell_length_b   15.52630000
_cell_length_c   18.02800000
_cell_angle_alpha   103.42200000
_cell_angle_beta   90.00000000
_cell_angle_gamma   109.06700000
_symmetry_Int_Tables_number   1
_chemical_formula_structural   Ce2H14C48O25
_chemical_formula_sum   'Ce4 H28 C96 O50'
_cell_volume   2601.41886178
_cell_formula_units_Z   2
loop_
 _symmetry_equiv_pos_site_id
 _symmetry_equiv_pos_as_xyz
  1  'x, y, z'
loop_
 _atom_site_type_symbol
 _atom_site_label
 _atom_site_symmetry_multiplicity
 _atom_site_fract_x
 _atom_site_fract_y
 _atom_site_fract_z
 _atom_site_occupancy
 _atom_site_charge
  Ce  Ce1  1  0.869790  0.993260  0.118860  1.0  2.2029
  Ce  Ce2  1  0.123470  0.993260  0.618860  1.0  2.2059
  Ce  Ce3  1  0.130210  0.006740  0.881140  1.0  2.2044
  Ce  Ce4  1  0.876530  0.006740  0.381140  1.0  2.2025
  H  H5  1  0.278200  0.306200  0.894300  1.0  0.1168
  H  H6  1  0.028000  0.306200  0.394300  1.0  0.1169
  H  H7  1  0.200400  0.278400  0.510600  1.0  0.1187
  H  H8  1  0.128900  0.708800  0.175200  1.0  0.1104
  H  H9  1  0.972000  0.693800  0.605700  1.0  0.1167
  H  H10  1  0.072800  0.268800  0.708600  1.0  0.1168
  H  H11  1  0.078000  0.278400  0.010600  1.0  0.1194
  H  H12  1  0.854900  0.243600  0.512600  1.0  0.109
  H  H13  1  0.804000  0.731200  0.791400  1.0  0.1169
  H  H14  1  0.721800  0.693800  0.105700  1.0  0.1165
  H  H15  1  0.388700  0.243600  0.012600  1.0  0.1089
  H  H16  1  0.985800  0.046200  0.760300  1.0  0.4533
  H  H17  1  0.420100  0.291200  0.324800  1.0  0.1097
  H  H18  1  0.172300  0.718000  0.805900  1.0  0.1136
  H  H19  1  0.922000  0.721600  0.989400  1.0  0.1188
  H  H20  1  0.611300  0.756400  0.987400  1.0  0.108
  H  H21  1  0.145100  0.756400  0.487400  1.0  0.1084
  H  H22  1  0.939600  0.953800  0.739700  1.0  0.4536
  H  H23  1  0.827700  0.282000  0.194100  1.0  0.1129
  H  H24  1  0.799600  0.721600  0.489400  1.0  0.1192
  H  H25  1  0.871100  0.291200  0.824800  1.0  0.1105
  H  H26  1  0.014200  0.953800  0.239700  1.0  0.4521
  H  H27  1  0.545700  0.718000  0.305900  1.0  0.1141
  H  H28  1  0.196000  0.268800  0.208600  1.0  0.1168
  H  H29  1  0.927200  0.731200  0.291400  1.0  0.1173
  H  H30  1  0.454300  0.282000  0.694100  1.0  0.113
  H  H31  1  0.060400  0.046200  0.260300  1.0  0.4502
  H  H32  1  0.579900  0.708800  0.675200  1.0  0.1103
  C  C33  1  0.358380  0.278360  0.791860  1.0  -0.1497
  C  C34  1  0.595900  0.680800  0.626100  1.0  -0.009
  C  C35  1  0.641620  0.721640  0.208140  1.0  -0.149
  C  C36  1  0.080020  0.721640  0.708140  1.0  -0.1489
  C  C37  1  0.907730  0.416260  0.257540  1.0  -0.0789
  C  C38  1  0.271020  0.311840  0.484930  1.0  -0.1371
  C  C39  1  0.514790  0.528180  0.174190  1.0  0.0115
  C  C40  1  0.278340  0.241280  0.106420  1.0  -0.1399
  C  C41  1  0.508530  0.416260  0.757540  1.0  -0.0789
  C  C42  1  0.703560  0.826720  0.222000  1.0  0.711
  C  C43  1  0.051820  0.403040  0.018880  1.0  0.2443
  C  C44  1  0.721660  0.758720  0.893580  1.0  -0.1375
  C  C45  1  0.031380  0.827760  0.129200  1.0  0.7169
  C  C46  1  0.658590  0.610980  0.801400  1.0  0.2305
  C  C47  1  0.601890  0.464180  0.371500  1.0  0.6021
  C  C48  1  0.959180  0.688160  0.015070  1.0  -0.1386
  C  C49  1  0.989720  0.429240  0.652130  1.0  0.0126
  C  C50  1  0.915260  0.375120  0.582800  1.0  -0.0401
  C  C51  1  0.728980  0.688160  0.515070  1.0  -0.1356
  C  C52  1  0.956960  0.139920  0.579900  1.0  0.7621
  C  C53  1  0.260970  0.295540  0.176940  1.0  -0.0839
  C  C54  1  0.122980  0.680760  0.759750  1.0  -0.0192
  C  C55  1  0.739030  0.704460  0.823060  1.0  -0.0841
  C  C56  1  0.607040  0.462080  0.707680  1.0  0.6153
  C  C57  1  0.351220  0.403040  0.518880  1.0  0.2444
  C  C58  1  0.084740  0.624880  0.417200  1.0  -0.04
  C  C59  1  0.334640  0.333880  0.859750  1.0  -0.1417
  C  C60  1  0.459050  0.452500  0.481940  1.0  0.0267
  C  C61  1  0.013390  0.528180  0.674190  1.0  0.0113
  C  C62  1  0.092270  0.583740  0.742460  1.0  -0.0798
  C  C63  1  0.485210  0.471820  0.825810  1.0  0.0111
  C  C64  1  0.491470  0.583740  0.242460  1.0  -0.0794
  C  C65  1  0.487570  0.410140  0.409660  1.0  -0.0423
  C  C66  1  0.034430  0.430060  0.375040  1.0  0.2702
  C  C67  1  0.395630  0.430060  0.875040  1.0  0.2695
  C  C68  1  0.043040  0.860080  0.420100  1.0  0.7639
  C  C69  1  0.459860  0.375120  0.082800  1.0  -0.0406
  C  C70  1  0.902820  0.280240  0.559250  1.0  -0.0113
  C  C71  1  0.968620  0.172240  0.870800  1.0  0.7164
  C  C72  1  0.817040  0.860080  0.920100  1.0  0.7634
  C  C73  1  0.876840  0.173280  0.278000  1.0  0.7068
  C  C74  1  0.442220  0.319240  0.740250  1.0  -0.0208
  C  C75  1  0.922570  0.410140  0.909660  1.0  -0.0435
  C  C76  1  0.622580  0.719760  0.940750  1.0  -0.0118
  C  C77  1  0.604370  0.569940  0.124960  1.0  0.2693
  C  C78  1  0.986610  0.471820  0.325810  1.0  0.0114
  C  C79  1  0.512430  0.589860  0.590340  1.0  -0.044
  C  C80  1  0.965570  0.569940  0.624960  1.0  0.2713
  C  C81  1  0.010280  0.570760  0.347870  1.0  0.0124
  C  C82  1  0.540950  0.547500  0.518060  1.0  0.0269
  C  C83  1  0.040820  0.311840  0.984930  1.0  -0.1365
  C  C84  1  0.993450  0.452500  0.981940  1.0  0.0263
  C  C85  1  0.398110  0.535820  0.628500  1.0  0.6041
  C  C86  1  0.097180  0.719760  0.440750  1.0  -0.0119
  C  C87  1  0.999240  0.333880  0.359750  1.0  -0.1412
  C  C88  1  0.877020  0.319240  0.240250  1.0  -0.0189
  C  C89  1  0.137710  0.535820  0.128500  1.0  0.6034
  C  C90  1  0.203620  0.172240  0.370800  1.0  0.7166
  C  C91  1  0.540140  0.624880  0.917200  1.0  -0.0397
  C  C92  1  0.377420  0.280240  0.059250  1.0  -0.0113
  C  C93  1  0.006550  0.547500  0.018060  1.0  0.0265
  C  C94  1  0.026580  0.730160  0.088470  1.0  -0.139
  C  C95  1  0.439520  0.429240  0.152130  1.0  0.012
  C  C96  1  0.560480  0.570760  0.847870  1.0  0.013
  C  C97  1  0.665360  0.666120  0.140250  1.0  -0.1419
  C  C98  1  0.392960  0.537920  0.292320  1.0  0.6155
  C  C99  1  0.000760  0.666120  0.640250  1.0  -0.1427
  C  C100  1  0.047610  0.389020  0.698600  1.0  0.2251
  C  C101  1  0.341410  0.389020  0.198600  1.0  0.2267
  C  C102  1  0.037060  0.758720  0.393580  1.0  -0.1381
  C  C103  1  0.123160  0.826720  0.722000  1.0  0.7098
  C  C104  1  0.034570  0.295540  0.676940  1.0  -0.0837
  C  C105  1  0.296440  0.173280  0.778000  1.0  0.7103
  C  C106  1  0.952390  0.610980  0.301400  1.0  0.2265
  C  C107  1  0.434310  0.580820  0.965030  1.0  0.5572
  C  C108  1  0.962940  0.241280  0.606420  1.0  -0.1394
  C  C109  1  0.973420  0.269840  0.911530  1.0  -0.1401
  C  C110  1  0.084900  0.680800  0.126100  1.0  -0.009
  C  C111  1  0.557780  0.680760  0.259750  1.0  -0.0193
  C  C112  1  0.565690  0.419180  0.034970  1.0  0.5565
  C  C113  1  0.144960  0.537920  0.792320  1.0  0.6163
  C  C114  1  0.915100  0.319200  0.873900  1.0  -0.0086
  C  C115  1  0.919980  0.278360  0.291860  1.0  -0.1503
  C  C116  1  0.077430  0.589860  0.090340  1.0  -0.0425
  C  C117  1  0.648780  0.596960  0.481120  1.0  0.2476
  C  C118  1  0.853490  0.419180  0.534970  1.0  0.5566
  C  C119  1  0.796380  0.827760  0.629200  1.0  0.718
  C  C120  1  0.703580  0.730160  0.588470  1.0  -0.1387
  C  C121  1  0.965430  0.704460  0.323060  1.0  -0.0843
  C  C122  1  0.404100  0.319200  0.373900  1.0  -0.0082
  C  C123  1  0.182960  0.139920  0.079900  1.0  0.7639
  C  C124  1  0.862290  0.464180  0.871500  1.0  0.6028
  C  C125  1  0.296420  0.269840  0.411530  1.0  -0.1399
  C  C126  1  0.948180  0.596960  0.981120  1.0  0.2469
  C  C127  1  0.855040  0.462080  0.207680  1.0  0.615
  C  C128  1  0.146510  0.580820  0.465030  1.0  0.5571
  O  O129  1  0.634020  0.435240  0.308560  1.0  -0.4779
  O  O130  1  0.013020  0.000000  0.750000  1.0  -0.8017
  O  O131  1  0.118780  0.858560  0.664570  1.0  -0.7535
  O  O132  1  0.126060  0.120720  0.409840  1.0  -0.6866
  O  O133  1  0.368470  0.576740  0.354440  1.0  -0.5007
  O  O134  1  0.208270  0.576740  0.854440  1.0  -0.5005
  O  O135  1  0.812770  0.902740  0.987350  1.0  -0.7349
  O  O136  1  0.739780  0.858560  0.164570  1.0  -0.7557
  O  O137  1  0.881220  0.141440  0.335430  1.0  -0.7562
  O  O138  1  0.221820  0.620040  0.522830  1.0  -0.5298
  O  O139  1  0.792620  0.851040  0.700190  1.0  -0.6129
  O  O140  1  0.678550  0.555300  0.409200  1.0  -0.3178
  O  O141  1  0.895380  0.894960  0.873770  1.0  -0.7102
  O  O142  1  0.941580  0.148960  0.799810  1.0  -0.6118
  O  O143  1  0.207380  0.148960  0.299810  1.0  -0.6146
  O  O144  1  0.986980  0.000000  0.250000  1.0  -0.8108
  O  O145  1  0.676960  0.557160  0.731510  1.0  -0.3395
  O  O146  1  0.371330  0.483740  0.942880  1.0  -0.3018
  O  O147  1  0.628670  0.516260  0.057120  1.0  -0.2995
  O  O148  1  0.880200  0.557160  0.231510  1.0  -0.3387
  O  O149  1  0.887590  0.516260  0.557120  1.0  -0.301
  O  O150  1  0.801220  0.435240  0.808560  1.0  -0.4743
  O  O151  1  0.162930  0.875460  0.789220  1.0  -0.7421
  O  O152  1  0.873940  0.879280  0.590160  1.0  -0.6848
  O  O153  1  0.837070  0.124540  0.210780  1.0  -0.7443
  O  O154  1  0.187230  0.097260  0.012650  1.0  -0.7326
  O  O155  1  0.999580  0.894960  0.373770  1.0  -0.7094
  O  O156  1  0.601780  0.379960  0.977170  1.0  -0.5281
  O  O157  1  0.287470  0.124540  0.710780  1.0  -0.7422
  O  O158  1  0.089970  0.902740  0.487350  1.0  -0.7327
  O  O159  1  0.260220  0.141440  0.835430  1.0  -0.7556
  O  O160  1  0.876750  0.555300  0.909200  1.0  -0.3194
  O  O161  1  0.323040  0.442840  0.268490  1.0  -0.3389
  O  O162  1  0.112410  0.483740  0.442880  1.0  -0.3006
  O  O163  1  0.123250  0.444700  0.090800  1.0  -0.3178
  O  O164  1  0.910030  0.097260  0.512650  1.0  -0.735
  O  O165  1  0.058420  0.851040  0.200190  1.0  -0.6156
  O  O166  1  0.321450  0.444700  0.590800  1.0  -0.3181
  O  O167  1  0.005340  0.879280  0.090160  1.0  -0.6834
  O  O168  1  0.398220  0.620040  0.022830  1.0  -0.5288
  O  O169  1  0.198780  0.564760  0.191440  1.0  -0.4755
  O  O170  1  0.994660  0.120720  0.909840  1.0  -0.6862
  O  O171  1  0.778180  0.379960  0.477170  1.0  -0.5286
  O  O172  1  0.631530  0.423260  0.645560  1.0  -0.5016
  O  O173  1  0.791730  0.423260  0.145560  1.0  -0.5026
  O  O174  1  0.104620  0.105040  0.126230  1.0  -0.7096
  O  O175  1  0.000420  0.105040  0.626230  1.0  -0.7115
  O  O176  1  0.712530  0.875460  0.289220  1.0  -0.7429
  O  O177  1  0.119800  0.442840  0.768490  1.0  -0.3386
  O  O178  1  0.365980  0.564760  0.691440  1.0  -0.4719
