# generated using pymatgen
data_AgH16(C3S2)2
_symmetry_space_group_name_H-M   'P 1'
_cell_length_a   17.32260000
_cell_length_b   9.28200000
_cell_length_c   29.83880000
_cell_angle_alpha   90.00000000
_cell_angle_beta   93.72600000
_cell_angle_gamma   90.00000000
_symmetry_Int_Tables_number   1
_chemical_formula_structural   AgH16(C3S2)2
_chemical_formula_sum   'Ag12 H192 C72 S48'
_cell_volume   4787.59081617
_cell_formula_units_Z   12
loop_
 _symmetry_equiv_pos_site_id
 _symmetry_equiv_pos_as_xyz
  1  'x, y, z'
loop_
 _atom_site_type_symbol
 _atom_site_label
 _atom_site_symmetry_multiplicity
 _atom_site_fract_x
 _atom_site_fract_y
 _atom_site_fract_z
 _atom_site_occupancy
 _atom_site_charge
  Ag  Ag1  1  0.502580  0.088600  0.111680  1.0  0.0522
  Ag  Ag2  1  0.819340  0.105880  0.220640  1.0  0.1079
  Ag  Ag3  1  0.833480  0.994400  0.443780  1.0  0.1594
  Ag  Ag4  1  0.002580  0.588600  0.111680  1.0  0.0522
  Ag  Ag5  1  0.319340  0.605880  0.220640  1.0  0.1079
  Ag  Ag6  1  0.333480  0.494400  0.443780  1.0  0.1594
  Ag  Ag7  1  0.497420  0.088600  0.888310  1.0  0.052
  Ag  Ag8  1  0.180660  0.105880  0.779360  1.0  0.1071
  Ag  Ag9  1  0.166510  0.994400  0.556220  1.0  0.159
  Ag  Ag10  1  0.997420  0.588600  0.888310  1.0  0.052
  Ag  Ag11  1  0.680660  0.605880  0.779360  1.0  0.1071
  Ag  Ag12  1  0.666510  0.494400  0.556220  1.0  0.159
  H  H13  1  0.023100  0.025900  0.477600  1.0  0.1757
  H  H14  1  0.639400  0.034600  0.194300  1.0  0.1891
  H  H15  1  0.678800  0.041000  0.147400  1.0  0.1879
  H  H16  1  0.340700  0.970100  0.047200  1.0  0.1312
  H  H17  1  0.292800  0.115200  0.053700  1.0  0.1346
  H  H18  1  0.261000  0.965100  0.071500  1.0  0.1192
  H  H19  1  0.915900  0.589500  0.569000  1.0  0.1318
  H  H20  1  0.872900  0.465100  0.594900  1.0  0.1258
  H  H21  1  0.841300  0.627100  0.595700  1.0  0.1148
  H  H22  1  0.023600  0.305300  0.435000  1.0  0.1218
  H  H23  1  0.943500  0.319000  0.405400  1.0  0.1232
  H  H24  1  0.990000  0.169900  0.406800  1.0  0.1267
  H  H25  1  0.654100  0.870700  0.081100  1.0  0.1097
  H  H26  1  0.595400  0.737400  0.078700  1.0  0.1156
  H  H27  1  0.674300  0.727900  0.109600  1.0  0.1185
  H  H28  1  0.671000  0.215800  0.013700  1.0  0.1321
  H  H29  1  0.685400  0.157700  0.064100  1.0  0.1196
  H  H30  1  0.634100  0.298900  0.054200  1.0  0.1171
  H  H31  1  0.798900  0.246500  0.365500  1.0  0.1973
  H  H32  1  0.874700  0.198400  0.341800  1.0  0.1924
  H  H33  1  0.914100  0.872000  0.154500  1.0  0.1929
  H  H34  1  0.934300  0.806400  0.203400  1.0  0.1945
  H  H35  1  0.531400  0.272000  0.981300  1.0  0.1231
  H  H36  1  0.398700  0.869800  0.171000  1.0  0.2195
  H  H37  1  0.379000  0.803400  0.122200  1.0  0.2147
  H  H38  1  0.032400  0.944100  0.096600  1.0  0.1179
  H  H39  1  0.121000  0.941200  0.115500  1.0  0.1256
  H  H40  1  0.060700  0.044900  0.138000  1.0  0.1021
  H  H41  1  0.282500  0.972000  0.221800  1.0  0.122
  H  H42  1  0.192800  0.935900  0.211200  1.0  0.1154
  H  H43  1  0.235600  0.046500  0.180000  1.0  0.1212
  H  H44  1  0.668400  0.094900  0.304400  1.0  0.1425
  H  H45  1  0.642300  0.217500  0.268900  1.0  0.1303
  H  H46  1  0.656000  0.256700  0.321000  1.0  0.1319
  H  H47  1  0.776500  0.763200  0.525300  1.0  0.2221
  H  H48  1  0.758200  0.693400  0.476900  1.0  0.2235
  H  H49  1  0.871900  0.927400  0.298300  1.0  0.1405
  H  H50  1  0.869800  0.799100  0.334100  1.0  0.1406
  H  H51  1  0.927600  0.931900  0.343300  1.0  0.1155
  H  H52  1  0.688100  0.877600  0.264200  1.0  0.1269
  H  H53  1  0.740800  0.737300  0.259800  1.0  0.1211
  H  H54  1  0.656300  0.743600  0.234800  1.0  0.1142
  H  H55  1  0.914900  0.542600  0.455900  1.0  0.1213
  H  H56  1  0.956900  0.665700  0.428900  1.0  0.1268
  H  H57  1  0.866500  0.635800  0.418800  1.0  0.1199
  H  H58  1  0.999200  0.946700  0.271400  1.0  0.1051
  H  H59  1  0.020300  0.114500  0.272000  1.0  0.1295
  H  H60  1  0.071700  0.003200  0.245900  1.0  0.1281
  H  H61  1  0.523100  0.525900  0.477600  1.0  0.1757
  H  H62  1  0.139400  0.534600  0.194300  1.0  0.1891
  H  H63  1  0.178800  0.541000  0.147400  1.0  0.188
  H  H64  1  0.840700  0.470100  0.047200  1.0  0.1312
  H  H65  1  0.792800  0.615200  0.053700  1.0  0.1346
  H  H66  1  0.761000  0.465100  0.071500  1.0  0.1194
  H  H67  1  0.415900  0.089500  0.569000  1.0  0.1318
  H  H68  1  0.372900  0.965100  0.594900  1.0  0.1258
  H  H69  1  0.341300  0.127100  0.595700  1.0  0.1148
  H  H70  1  0.523600  0.805300  0.435000  1.0  0.1218
  H  H71  1  0.443500  0.819000  0.405400  1.0  0.1232
  H  H72  1  0.490000  0.669900  0.406800  1.0  0.1267
  H  H73  1  0.154100  0.370700  0.081100  1.0  0.1097
  H  H74  1  0.095400  0.237400  0.078700  1.0  0.1156
  H  H75  1  0.174300  0.227900  0.109600  1.0  0.1185
  H  H76  1  0.171000  0.715800  0.013700  1.0  0.1321
  H  H77  1  0.185400  0.657700  0.064100  1.0  0.1195
  H  H78  1  0.134100  0.798900  0.054200  1.0  0.1171
  H  H79  1  0.298900  0.746500  0.365500  1.0  0.1973
  H  H80  1  0.374700  0.698400  0.341800  1.0  0.1924
  H  H81  1  0.414100  0.372000  0.154500  1.0  0.1929
  H  H82  1  0.434300  0.306400  0.203400  1.0  0.1945
  H  H83  1  0.031400  0.772000  0.981300  1.0  0.1231
  H  H84  1  0.898700  0.369800  0.171000  1.0  0.2195
  H  H85  1  0.879000  0.303400  0.122200  1.0  0.2147
  H  H86  1  0.532400  0.444100  0.096600  1.0  0.1179
  H  H87  1  0.621000  0.441200  0.115500  1.0  0.1256
  H  H88  1  0.560700  0.544900  0.138000  1.0  0.1021
  H  H89  1  0.782500  0.472000  0.221800  1.0  0.122
  H  H90  1  0.692800  0.435900  0.211200  1.0  0.1153
  H  H91  1  0.735600  0.546500  0.180000  1.0  0.1212
  H  H92  1  0.168400  0.594900  0.304400  1.0  0.1425
  H  H93  1  0.142300  0.717500  0.268900  1.0  0.1303
  H  H94  1  0.156000  0.756700  0.321000  1.0  0.1319
  H  H95  1  0.276500  0.263200  0.525300  1.0  0.2221
  H  H96  1  0.258200  0.193400  0.476900  1.0  0.2235
  H  H97  1  0.371900  0.427400  0.298300  1.0  0.1405
  H  H98  1  0.369800  0.299100  0.334100  1.0  0.1406
  H  H99  1  0.427600  0.431900  0.343300  1.0  0.1155
  H  H100  1  0.188100  0.377600  0.264200  1.0  0.1269
  H  H101  1  0.240800  0.237300  0.259800  1.0  0.1211
  H  H102  1  0.156300  0.243600  0.234800  1.0  0.1142
  H  H103  1  0.414900  0.042600  0.455900  1.0  0.1213
  H  H104  1  0.456900  0.165700  0.428900  1.0  0.1268
  H  H105  1  0.366500  0.135800  0.418800  1.0  0.1199
  H  H106  1  0.499200  0.446700  0.271400  1.0  0.1051
  H  H107  1  0.520300  0.614500  0.272000  1.0  0.1292
  H  H108  1  0.571700  0.503200  0.245900  1.0  0.1281
  H  H109  1  0.976900  0.025900  0.522400  1.0  0.1762
  H  H110  1  0.360600  0.034600  0.805700  1.0  0.1892
  H  H111  1  0.321200  0.041000  0.852600  1.0  0.1884
  H  H112  1  0.659300  0.970100  0.952800  1.0  0.1321
  H  H113  1  0.707200  0.115200  0.946300  1.0  0.1345
  H  H114  1  0.739000  0.965100  0.928500  1.0  0.1186
  H  H115  1  0.084100  0.589500  0.431000  1.0  0.1311
  H  H116  1  0.127100  0.465100  0.405100  1.0  0.1259
  H  H117  1  0.158700  0.627100  0.404300  1.0  0.1148
  H  H118  1  0.976400  0.305300  0.565000  1.0  0.1223
  H  H119  1  0.056500  0.319000  0.594600  1.0  0.123
  H  H120  1  0.010000  0.169900  0.593200  1.0  0.1267
  H  H121  1  0.345900  0.870700  0.918900  1.0  0.1092
  H  H122  1  0.404600  0.737400  0.921300  1.0  0.1146
  H  H123  1  0.325700  0.727900  0.890400  1.0  0.1191
  H  H124  1  0.329000  0.215800  0.986300  1.0  0.1328
  H  H125  1  0.314600  0.157700  0.935900  1.0  0.1197
  H  H126  1  0.365900  0.298900  0.945800  1.0  0.1177
  H  H127  1  0.201100  0.246500  0.634500  1.0  0.1971
  H  H128  1  0.125300  0.198400  0.658200  1.0  0.1896
  H  H129  1  0.085900  0.872000  0.845500  1.0  0.1934
  H  H130  1  0.065700  0.806400  0.796600  1.0  0.1943
  H  H131  1  0.468600  0.272000  0.018700  1.0  0.1231
  H  H132  1  0.601300  0.869800  0.829000  1.0  0.2195
  H  H133  1  0.621000  0.803400  0.877800  1.0  0.2146
  H  H134  1  0.967600  0.944100  0.903400  1.0  0.1184
  H  H135  1  0.879000  0.941200  0.884500  1.0  0.1227
  H  H136  1  0.939300  0.044900  0.862000  1.0  0.1034
  H  H137  1  0.717500  0.972000  0.778200  1.0  0.1209
  H  H138  1  0.807200  0.935900  0.788800  1.0  0.1163
  H  H139  1  0.764400  0.046500  0.820000  1.0  0.1212
  H  H140  1  0.331600  0.094900  0.695600  1.0  0.1416
  H  H141  1  0.357700  0.217500  0.731100  1.0  0.1304
  H  H142  1  0.344000  0.256700  0.679000  1.0  0.1311
  H  H143  1  0.223500  0.763200  0.474700  1.0  0.2222
  H  H144  1  0.241800  0.693400  0.523100  1.0  0.2224
  H  H145  1  0.128100  0.927400  0.701700  1.0  0.1413
  H  H146  1  0.130200  0.799100  0.665900  1.0  0.1403
  H  H147  1  0.072400  0.931900  0.656700  1.0  0.1159
  H  H148  1  0.311900  0.877600  0.735800  1.0  0.1268
  H  H149  1  0.259200  0.737300  0.740200  1.0  0.1206
  H  H150  1  0.343700  0.743600  0.765200  1.0  0.1147
  H  H151  1  0.085100  0.542600  0.544100  1.0  0.1214
  H  H152  1  0.043100  0.665700  0.571100  1.0  0.1279
  H  H153  1  0.133500  0.635800  0.581200  1.0  0.1212
  H  H154  1  0.000800  0.946700  0.728600  1.0  0.1056
  H  H155  1  0.979700  0.114500  0.728000  1.0  0.13
  H  H156  1  0.928300  0.003200  0.754100  1.0  0.1251
  H  H157  1  0.476900  0.525900  0.522400  1.0  0.1762
  H  H158  1  0.860600  0.534600  0.805700  1.0  0.1892
  H  H159  1  0.821200  0.541000  0.852600  1.0  0.1884
  H  H160  1  0.159300  0.470100  0.952800  1.0  0.1321
  H  H161  1  0.207200  0.615200  0.946300  1.0  0.1345
  H  H162  1  0.239000  0.465100  0.928500  1.0  0.1186
  H  H163  1  0.584100  0.089500  0.431000  1.0  0.1311
  H  H164  1  0.627100  0.965100  0.405100  1.0  0.1259
  H  H165  1  0.658700  0.127100  0.404300  1.0  0.1148
  H  H166  1  0.476400  0.805300  0.565000  1.0  0.1223
  H  H167  1  0.556500  0.819000  0.594600  1.0  0.123
  H  H168  1  0.510000  0.669900  0.593200  1.0  0.1267
  H  H169  1  0.845900  0.370700  0.918900  1.0  0.1092
  H  H170  1  0.904600  0.237400  0.921300  1.0  0.1146
  H  H171  1  0.825700  0.227900  0.890400  1.0  0.1191
  H  H172  1  0.829000  0.715800  0.986300  1.0  0.1328
  H  H173  1  0.814600  0.657700  0.935900  1.0  0.1196
  H  H174  1  0.865900  0.798900  0.945800  1.0  0.1177
  H  H175  1  0.701100  0.746500  0.634500  1.0  0.1971
  H  H176  1  0.625300  0.698400  0.658200  1.0  0.1896
  H  H177  1  0.585900  0.372000  0.845500  1.0  0.1934
  H  H178  1  0.565700  0.306400  0.796600  1.0  0.1943
  H  H179  1  0.968600  0.772000  0.018700  1.0  0.1231
  H  H180  1  0.101300  0.369800  0.829000  1.0  0.2195
  H  H181  1  0.121000  0.303400  0.877800  1.0  0.2146
  H  H182  1  0.467600  0.444100  0.903400  1.0  0.1184
  H  H183  1  0.379000  0.441200  0.884500  1.0  0.1227
  H  H184  1  0.439300  0.544900  0.862000  1.0  0.1034
  H  H185  1  0.217500  0.472000  0.778200  1.0  0.1209
  H  H186  1  0.307200  0.435900  0.788800  1.0  0.1161
  H  H187  1  0.264400  0.546500  0.820000  1.0  0.1212
  H  H188  1  0.831600  0.594900  0.695600  1.0  0.1416
  H  H189  1  0.857700  0.717500  0.731100  1.0  0.1304
  H  H190  1  0.844000  0.756700  0.679000  1.0  0.1311
  H  H191  1  0.723500  0.263200  0.474700  1.0  0.2222
  H  H192  1  0.741800  0.193400  0.523100  1.0  0.2224
  H  H193  1  0.628100  0.427400  0.701700  1.0  0.1413
  H  H194  1  0.630200  0.299100  0.665900  1.0  0.1403
  H  H195  1  0.572400  0.431900  0.656700  1.0  0.1159
  H  H196  1  0.811900  0.377600  0.735800  1.0  0.1268
  H  H197  1  0.759200  0.237300  0.740200  1.0  0.1206
  H  H198  1  0.843700  0.243600  0.765200  1.0  0.1147
  H  H199  1  0.585100  0.042600  0.544100  1.0  0.1214
  H  H200  1  0.543100  0.165700  0.571100  1.0  0.1279
  H  H201  1  0.633500  0.135800  0.581200  1.0  0.1212
  H  H202  1  0.500800  0.446700  0.728600  1.0  0.1056
  H  H203  1  0.479700  0.614500  0.728000  1.0  0.1297
  H  H204  1  0.428300  0.503200  0.754100  1.0  0.1251
  C  C205  1  0.660700  0.974800  0.170550  1.0  -0.2548
  C  C206  1  0.307600  0.022100  0.067180  1.0  -0.4629
  C  C207  1  0.865600  0.554100  0.577510  1.0  -0.4833
  C  C208  1  0.976300  0.254400  0.424370  1.0  -0.4429
  C  C209  1  0.632500  0.791900  0.098250  1.0  -0.4373
  C  C210  1  0.648000  0.204200  0.042680  1.0  -0.4169
  C  C211  1  0.818300  0.182400  0.342200  1.0  -0.1999
  C  C212  1  0.952600  0.873300  0.180510  1.0  -0.194
  C  C213  1  0.360900  0.872000  0.144660  1.0  -0.1891
  C  C214  1  0.067400  0.951100  0.123690  1.0  -0.4544
  C  C215  1  0.241600  0.958200  0.197870  1.0  -0.4483
  C  C216  1  0.673700  0.196900  0.296650  1.0  -0.4255
  C  C217  1  0.796500  0.696400  0.502960  1.0  -0.2648
  C  C218  1  0.876400  0.903200  0.330360  1.0  -0.4039
  C  C219  1  0.702400  0.800000  0.244060  1.0  -0.4589
  C  C220  1  0.908800  0.638200  0.442210  1.0  -0.3958
  C  C221  1  0.019200  0.026200  0.254000  1.0  -0.4193
  C  C222  1  0.160700  0.474800  0.170550  1.0  -0.2548
  C  C223  1  0.807600  0.522100  0.067180  1.0  -0.4632
  C  C224  1  0.365600  0.054100  0.577510  1.0  -0.4833
  C  C225  1  0.476300  0.754400  0.424370  1.0  -0.4429
  C  C226  1  0.132500  0.291900  0.098250  1.0  -0.4373
  C  C227  1  0.148000  0.704200  0.042680  1.0  -0.4169
  C  C228  1  0.318300  0.682400  0.342200  1.0  -0.1999
  C  C229  1  0.452600  0.373300  0.180510  1.0  -0.194
  C  C230  1  0.860900  0.372000  0.144660  1.0  -0.1891
  C  C231  1  0.567400  0.451100  0.123690  1.0  -0.4547
  C  C232  1  0.741600  0.458200  0.197870  1.0  -0.4483
  C  C233  1  0.173700  0.696900  0.296650  1.0  -0.4255
  C  C234  1  0.296500  0.196400  0.502960  1.0  -0.2648
  C  C235  1  0.376400  0.403200  0.330360  1.0  -0.4039
  C  C236  1  0.202400  0.300000  0.244060  1.0  -0.4592
  C  C237  1  0.408800  0.138200  0.442210  1.0  -0.3958
  C  C238  1  0.519200  0.526200  0.254000  1.0  -0.4195
  C  C239  1  0.339300  0.974800  0.829450  1.0  -0.2549
  C  C240  1  0.692400  0.022100  0.932820  1.0  -0.459
  C  C241  1  0.134400  0.554100  0.422490  1.0  -0.4877
  C  C242  1  0.023700  0.254400  0.575630  1.0  -0.4392
  C  C243  1  0.367500  0.791900  0.901750  1.0  -0.4357
  C  C244  1  0.352000  0.204200  0.957320  1.0  -0.4152
  C  C245  1  0.181700  0.182400  0.657800  1.0  -0.1991
  C  C246  1  0.047400  0.873300  0.819490  1.0  -0.1916
  C  C247  1  0.639100  0.872000  0.855340  1.0  -0.1921
  C  C248  1  0.932600  0.951100  0.876310  1.0  -0.4533
  C  C249  1  0.758400  0.958200  0.802130  1.0  -0.4488
  C  C250  1  0.326300  0.196900  0.703350  1.0  -0.4268
  C  C251  1  0.203500  0.696400  0.497040  1.0  -0.2631
  C  C252  1  0.123600  0.903200  0.669640  1.0  -0.4035
  C  C253  1  0.297600  0.800000  0.755940  1.0  -0.4623
  C  C254  1  0.091200  0.638200  0.557790  1.0  -0.3949
  C  C255  1  0.980800  0.026200  0.746000  1.0  -0.4222
  C  C256  1  0.839300  0.474800  0.829450  1.0  -0.2549
  C  C257  1  0.192400  0.522100  0.932820  1.0  -0.4594
  C  C258  1  0.634400  0.054100  0.422490  1.0  -0.4877
  C  C259  1  0.523700  0.754400  0.575630  1.0  -0.4392
  C  C260  1  0.867500  0.291900  0.901750  1.0  -0.4357
  C  C261  1  0.852000  0.704200  0.957320  1.0  -0.4152
  C  C262  1  0.681700  0.682400  0.657800  1.0  -0.1991
  C  C263  1  0.547400  0.373300  0.819490  1.0  -0.1916
  C  C264  1  0.139100  0.372000  0.855340  1.0  -0.1921
  C  C265  1  0.432600  0.451100  0.876310  1.0  -0.4537
  C  C266  1  0.258400  0.458200  0.802130  1.0  -0.4488
  C  C267  1  0.826300  0.696900  0.703350  1.0  -0.4268
  C  C268  1  0.703500  0.196400  0.497040  1.0  -0.2631
  C  C269  1  0.623600  0.403200  0.669640  1.0  -0.4035
  C  C270  1  0.797600  0.300000  0.755940  1.0  -0.4625
  C  C271  1  0.591200  0.138200  0.557790  1.0  -0.3949
  C  C272  1  0.480800  0.526200  0.746000  1.0  -0.4225
  C  C273  1  0.000000  0.088700  0.500000  1.0  -0.3836
  C  C274  1  0.500000  0.588700  0.500000  1.0  -0.3836
  C  C275  1  0.500000  0.209700  0.000000  1.0  -0.183
  C  C276  1  0.000000  0.709700  0.000000  1.0  -0.183
  S  S277  1  0.924510  0.197090  0.471990  1.0  -0.0371
  S  S278  1  0.583790  0.865640  0.145160  1.0  -0.0516
  S  S279  1  0.742950  0.876740  0.194960  1.0  -0.0448
  S  S280  1  0.886780  0.768100  0.484650  1.0  -0.0381
  S  S281  1  0.045390  0.808760  0.162460  1.0  -0.0542
  S  S282  1  0.802370  0.997590  0.358830  1.0  -0.0347
  S  S283  1  0.804130  0.518680  0.527390  1.0  -0.0171
  S  S284  1  0.957410  0.052630  0.203660  1.0  -0.0355
  S  S285  1  0.562050  0.093380  0.035280  1.0  -0.0327
  S  S286  1  0.359700  0.051120  0.120830  1.0  -0.0337
  S  S287  1  0.267440  0.810980  0.162130  1.0  -0.0509
  S  S288  1  0.773940  0.236470  0.288580  1.0  -0.0231
  S  S289  1  0.424510  0.697090  0.471990  1.0  -0.0371
  S  S290  1  0.083790  0.365640  0.145160  1.0  -0.0516
  S  S291  1  0.242950  0.376740  0.194960  1.0  -0.0448
  S  S292  1  0.386780  0.268100  0.484650  1.0  -0.0381
  S  S293  1  0.545390  0.308760  0.162460  1.0  -0.0542
  S  S294  1  0.302370  0.497590  0.358830  1.0  -0.0347
  S  S295  1  0.304130  0.018680  0.527390  1.0  -0.0171
  S  S296  1  0.457410  0.552630  0.203660  1.0  -0.0355
  S  S297  1  0.062050  0.593380  0.035280  1.0  -0.0327
  S  S298  1  0.859700  0.551120  0.120830  1.0  -0.0337
  S  S299  1  0.767440  0.310980  0.162130  1.0  -0.0509
  S  S300  1  0.273940  0.736470  0.288580  1.0  -0.0231
  S  S301  1  0.075490  0.197090  0.528010  1.0  -0.0374
  S  S302  1  0.416210  0.865640  0.854840  1.0  -0.0525
  S  S303  1  0.257050  0.876740  0.805040  1.0  -0.0459
  S  S304  1  0.113220  0.768100  0.515350  1.0  -0.0388
  S  S305  1  0.954610  0.808760  0.837540  1.0  -0.0544
  S  S306  1  0.197630  0.997590  0.641170  1.0  -0.0335
  S  S307  1  0.195870  0.518680  0.472610  1.0  -0.0171
  S  S308  1  0.042590  0.052630  0.796340  1.0  -0.0361
  S  S309  1  0.437950  0.093380  0.964720  1.0  -0.0327
  S  S310  1  0.640300  0.051120  0.879170  1.0  -0.0335
  S  S311  1  0.732560  0.810980  0.837870  1.0  -0.0519
  S  S312  1  0.226060  0.236470  0.711420  1.0  -0.0227
  S  S313  1  0.575490  0.697090  0.528010  1.0  -0.0374
  S  S314  1  0.916210  0.365640  0.854840  1.0  -0.0525
  S  S315  1  0.757050  0.376740  0.805040  1.0  -0.0459
  S  S316  1  0.613220  0.268100  0.515350  1.0  -0.0388
  S  S317  1  0.454610  0.308760  0.837540  1.0  -0.0544
  S  S318  1  0.697630  0.497590  0.641170  1.0  -0.0335
  S  S319  1  0.695870  0.018680  0.472610  1.0  -0.0171
  S  S320  1  0.542590  0.552630  0.796340  1.0  -0.0361
  S  S321  1  0.937950  0.593380  0.964720  1.0  -0.0327
  S  S322  1  0.140300  0.551120  0.879170  1.0  -0.0335
  S  S323  1  0.232560  0.310980  0.837870  1.0  -0.0519
  S  S324  1  0.726060  0.736470  0.711420  1.0  -0.0227
