# generated using pymatgen
data_Mn2H39C47NO9
_symmetry_space_group_name_H-M   'P 1'
_cell_length_a   21.07500000
_cell_length_b   7.02390000
_cell_length_c   31.99000000
_cell_angle_alpha   90.00000000
_cell_angle_beta   104.35600000
_cell_angle_gamma   90.00000000
_symmetry_Int_Tables_number   1
_chemical_formula_structural   Mn2H39C47NO9
_chemical_formula_sum   'Mn8 H156 C188 N4 O36'
_cell_volume   4587.56840638
_cell_formula_units_Z   4
loop_
 _symmetry_equiv_pos_site_id
 _symmetry_equiv_pos_as_xyz
  1  'x, y, z'
loop_
 _atom_site_type_symbol
 _atom_site_label
 _atom_site_symmetry_multiplicity
 _atom_site_fract_x
 _atom_site_fract_y
 _atom_site_fract_z
 _atom_site_occupancy
 _atom_site_charge
  Mn  Mn1  1  0.300680  0.111290  0.250540  1.0  1.1366
  Mn  Mn2  1  0.244950  0.602470  0.232690  1.0  1.0802
  Mn  Mn3  1  0.699320  0.611290  0.249460  1.0  1.1358
  Mn  Mn4  1  0.755050  0.102470  0.267320  1.0  1.0816
  Mn  Mn5  1  0.699320  0.888710  0.749460  1.0  1.1359
  Mn  Mn6  1  0.755050  0.397530  0.767320  1.0  1.0806
  Mn  Mn7  1  0.300680  0.388710  0.750540  1.0  1.1368
  Mn  Mn8  1  0.244950  0.897530  0.732690  1.0  1.0783
  H  H9  1  0.115500  0.006200  0.817000  1.0  0.1139
  H  H10  1  0.435900  0.954000  0.161700  1.0  0.1058
  H  H11  1  0.267900  0.684400  0.106300  1.0  0.1094
  H  H12  1  0.067500  0.023900  0.874800  1.0  0.1
  H  H13  1  0.257000  0.358800  0.878300  1.0  0.1004
  H  H14  1  0.427200  0.989500  0.381800  1.0  0.1066
  H  H15  1  0.115100  0.429900  0.105500  1.0  0.109
  H  H16  1  0.414400  0.701300  0.046800  1.0  0.0965
  H  H17  1  0.298500  0.796200  0.989600  1.0  0.1038
  H  H18  1  0.337100  0.430400  0.179400  1.0  0.062
  H  H19  1  0.605200  0.937800  0.538600  1.0  0.0988
  H  H20  1  0.438200  0.518200  0.454100  1.0  0.0908
  H  H21  1  0.115200  0.206200  0.934500  1.0  0.0979
  H  H22  1  0.347100  0.499000  0.328900  1.0  0.1128
  H  H23  1  0.888600  0.521000  0.981200  1.0  0.1009
  H  H24  1  0.382200  0.349800  0.395000  1.0  0.1008
  H  H25  1  0.092900  0.781200  0.083400  1.0  0.108
  H  H26  1  0.032500  0.990300  0.033600  1.0  0.0938
  H  H27  1  0.560300  0.579700  0.474100  1.0  0.1266
  H  H28  1  0.621700  0.709500  0.491300  1.0  0.1171
  H  H29  1  0.580200  0.730700  0.443600  1.0  0.1297
  H  H30  1  0.216200  0.194400  0.993500  1.0  0.1081
  H  H31  1  0.478400  0.862000  0.104700  1.0  0.0854
  H  H32  1  0.162700  0.897000  0.145900  1.0  0.0948
  H  H33  1  0.261000  0.154900  0.065200  1.0  0.1194
  H  H34  1  0.248300  0.337500  0.090100  1.0  0.1225
  H  H35  1  0.319700  0.285700  0.087900  1.0  0.1369
  H  H36  1  0.237800  0.845400  0.918600  1.0  0.1259
  H  H37  1  0.199600  0.677900  0.891100  1.0  0.1135
  H  H38  1  0.275700  0.694000  0.898200  1.0  0.1153
  H  H39  1  0.474000  0.281400  0.172300  1.0  0.1176
  H  H40  1  0.489200  0.499400  0.179000  1.0  0.1116
  H  H41  1  0.422300  0.432000  0.149000  1.0  0.121
  H  H42  1  0.457800  0.461500  0.274600  1.0  0.1029
  H  H43  1  0.513100  0.386400  0.253900  1.0  0.1072
  H  H44  1  0.461200  0.244600  0.263800  1.0  0.1152
  H  H45  1  0.932300  0.280800  0.071900  1.0  0.1263
  H  H46  1  0.924200  0.129200  0.035000  1.0  0.1108
  H  H47  1  0.874800  0.299300  0.030300  1.0  0.1126
  H  H48  1  0.884500  0.506200  0.683000  1.0  0.1137
  H  H49  1  0.564100  0.454000  0.338300  1.0  0.1059
  H  H50  1  0.732100  0.184400  0.393700  1.0  0.1096
  H  H51  1  0.932500  0.523900  0.625200  1.0  0.1009
  H  H52  1  0.743000  0.858800  0.621700  1.0  0.0999
  H  H53  1  0.572800  0.489500  0.118200  1.0  0.107
  H  H54  1  0.884900  0.929900  0.394500  1.0  0.1088
  H  H55  1  0.585600  0.201300  0.453200  1.0  0.0967
  H  H56  1  0.701500  0.296200  0.510400  1.0  0.1041
  H  H57  1  0.662900  0.930400  0.320600  1.0  0.0629
  H  H58  1  0.394800  0.437800  0.961400  1.0  0.0989
  H  H59  1  0.561800  0.018200  0.045900  1.0  0.0907
  H  H60  1  0.884800  0.706200  0.565500  1.0  0.0985
  H  H61  1  0.652900  0.999000  0.171100  1.0  0.1132
  H  H62  1  0.111400  0.021000  0.518800  1.0  0.1009
  H  H63  1  0.617800  0.849800  0.105000  1.0  0.1009
  H  H64  1  0.907100  0.281200  0.416600  1.0  0.1078
  H  H65  1  0.967500  0.490300  0.466400  1.0  0.0941
  H  H66  1  0.439700  0.079700  0.025900  1.0  0.127
  H  H67  1  0.378300  0.209500  0.008700  1.0  0.1145
  H  H68  1  0.419800  0.230700  0.056400  1.0  0.1303
  H  H69  1  0.783800  0.694400  0.506500  1.0  0.1079
  H  H70  1  0.521600  0.362000  0.395300  1.0  0.0863
  H  H71  1  0.837300  0.397000  0.354100  1.0  0.094
  H  H72  1  0.739000  0.654900  0.434800  1.0  0.1199
  H  H73  1  0.751700  0.837500  0.409900  1.0  0.1218
  H  H74  1  0.680300  0.785700  0.412100  1.0  0.1328
  H  H75  1  0.762200  0.345400  0.581400  1.0  0.1255
  H  H76  1  0.800400  0.177900  0.608900  1.0  0.115
  H  H77  1  0.724300  0.194000  0.601800  1.0  0.1135
  H  H78  1  0.526000  0.781400  0.327700  1.0  0.1173
  H  H79  1  0.510800  0.999400  0.321000  1.0  0.1112
  H  H80  1  0.577700  0.932000  0.351000  1.0  0.1203
  H  H81  1  0.542200  0.961500  0.225400  1.0  0.1043
  H  H82  1  0.486900  0.886400  0.246100  1.0  0.1064
  H  H83  1  0.538800  0.744600  0.236200  1.0  0.1161
  H  H84  1  0.067700  0.780800  0.428100  1.0  0.1282
  H  H85  1  0.075800  0.629200  0.465000  1.0  0.1102
  H  H86  1  0.125200  0.799300  0.469700  1.0  0.1143
  H  H87  1  0.884500  0.993800  0.183000  1.0  0.1137
  H  H88  1  0.564100  0.046000  0.838300  1.0  0.1057
  H  H89  1  0.732100  0.315600  0.893700  1.0  0.1097
  H  H90  1  0.932500  0.976100  0.125200  1.0  0.1009
  H  H91  1  0.743000  0.641200  0.121700  1.0  0.1
  H  H92  1  0.572800  0.010500  0.618200  1.0  0.107
  H  H93  1  0.884900  0.570100  0.894500  1.0  0.1101
  H  H94  1  0.585600  0.298700  0.953200  1.0  0.0967
  H  H95  1  0.701500  0.203800  0.010400  1.0  0.1033
  H  H96  1  0.662900  0.569600  0.820600  1.0  0.0629
  H  H97  1  0.394800  0.062200  0.461400  1.0  0.099
  H  H98  1  0.561800  0.481800  0.545900  1.0  0.091
  H  H99  1  0.884800  0.793800  0.065500  1.0  0.0989
  H  H100  1  0.652900  0.501000  0.671100  1.0  0.1129
  H  H101  1  0.111400  0.479000  0.018800  1.0  0.1011
  H  H102  1  0.617800  0.650200  0.605000  1.0  0.1012
  H  H103  1  0.907100  0.218800  0.916600  1.0  0.1057
  H  H104  1  0.967500  0.009700  0.966400  1.0  0.094
  H  H105  1  0.439700  0.420300  0.525900  1.0  0.1256
  H  H106  1  0.378300  0.290500  0.508700  1.0  0.1151
  H  H107  1  0.419800  0.269300  0.556400  1.0  0.1299
  H  H108  1  0.783800  0.805600  0.006500  1.0  0.1081
  H  H109  1  0.521600  0.138000  0.895300  1.0  0.0865
  H  H110  1  0.837300  0.103000  0.854100  1.0  0.0941
  H  H111  1  0.739000  0.845100  0.934800  1.0  0.1203
  H  H112  1  0.751700  0.662500  0.909900  1.0  0.1219
  H  H113  1  0.680300  0.714300  0.912100  1.0  0.1339
  H  H114  1  0.762200  0.154600  0.081400  1.0  0.1254
  H  H115  1  0.800400  0.322100  0.108900  1.0  0.1151
  H  H116  1  0.724300  0.306000  0.101800  1.0  0.1136
  H  H117  1  0.526000  0.718600  0.827700  1.0  0.117
  H  H118  1  0.510800  0.500600  0.821000  1.0  0.1114
  H  H119  1  0.577700  0.568000  0.851000  1.0  0.1199
  H  H120  1  0.542200  0.538500  0.725400  1.0  0.1052
  H  H121  1  0.486900  0.613600  0.746100  1.0  0.1066
  H  H122  1  0.538800  0.755400  0.736200  1.0  0.1154
  H  H123  1  0.067700  0.719200  0.928100  1.0  0.1281
  H  H124  1  0.075800  0.870800  0.965000  1.0  0.1113
  H  H125  1  0.125200  0.700700  0.969700  1.0  0.1145
  H  H126  1  0.115500  0.493800  0.317000  1.0  0.1144
  H  H127  1  0.435900  0.546000  0.661700  1.0  0.106
  H  H128  1  0.267900  0.815600  0.606300  1.0  0.1095
  H  H129  1  0.067500  0.476100  0.374800  1.0  0.1003
  H  H130  1  0.257000  0.141200  0.378300  1.0  0.1005
  H  H131  1  0.427200  0.510500  0.881800  1.0  0.1068
  H  H132  1  0.115100  0.070100  0.605500  1.0  0.11
  H  H133  1  0.414400  0.798700  0.546800  1.0  0.0966
  H  H134  1  0.298500  0.703800  0.489600  1.0  0.1034
  H  H135  1  0.337100  0.069600  0.679400  1.0  0.062
  H  H136  1  0.605200  0.562200  0.038600  1.0  0.0985
  H  H137  1  0.438200  0.981800  0.954100  1.0  0.0905
  H  H138  1  0.115200  0.293800  0.434500  1.0  0.0983
  H  H139  1  0.347100  0.001000  0.828900  1.0  0.1131
  H  H140  1  0.888600  0.979000  0.481200  1.0  0.1009
  H  H141  1  0.382200  0.150200  0.895000  1.0  0.1011
  H  H142  1  0.092900  0.718800  0.583400  1.0  0.1054
  H  H143  1  0.032500  0.509700  0.533600  1.0  0.0941
  H  H144  1  0.560300  0.920300  0.974100  1.0  0.1257
  H  H145  1  0.621700  0.790500  0.991300  1.0  0.1165
  H  H146  1  0.580200  0.769300  0.943600  1.0  0.1297
  H  H147  1  0.216200  0.305600  0.493500  1.0  0.1082
  H  H148  1  0.478400  0.638000  0.604700  1.0  0.0856
  H  H149  1  0.162700  0.603000  0.645900  1.0  0.0943
  H  H150  1  0.261000  0.345100  0.565200  1.0  0.1202
  H  H151  1  0.248300  0.162500  0.590100  1.0  0.1225
  H  H152  1  0.319700  0.214300  0.587900  1.0  0.137
  H  H153  1  0.237800  0.654600  0.418600  1.0  0.1243
  H  H154  1  0.199600  0.822100  0.391100  1.0  0.1134
  H  H155  1  0.275700  0.806000  0.398200  1.0  0.1155
  H  H156  1  0.474000  0.218600  0.672300  1.0  0.1174
  H  H157  1  0.489200  0.000600  0.679000  1.0  0.1109
  H  H158  1  0.422300  0.068000  0.649000  1.0  0.1206
  H  H159  1  0.457800  0.038500  0.774600  1.0  0.1044
  H  H160  1  0.513100  0.113600  0.753900  1.0  0.1073
  H  H161  1  0.461200  0.255400  0.763800  1.0  0.1161
  H  H162  1  0.932300  0.219200  0.571900  1.0  0.1266
  H  H163  1  0.924200  0.370800  0.535000  1.0  0.1122
  H  H164  1  0.874800  0.200700  0.530300  1.0  0.1129
  C  C165  1  0.134600  0.080000  0.840990  1.0  -0.0367
  C  C166  1  0.321500  0.873600  0.178170  1.0  0.6863
  C  C167  1  0.292300  0.582000  0.030450  1.0  0.0208
  C  C168  1  0.348000  0.827400  0.139730  1.0  -0.1246
  C  C169  1  0.191500  0.180100  0.842380  1.0  -0.1653
  C  C170  1  0.410700  0.882700  0.139170  1.0  -0.0776
  C  C171  1  0.535700  0.850100  0.487010  1.0  0.0582
  C  C172  1  0.358500  0.862900  0.307640  1.0  0.66
  C  C173  1  0.471000  0.887900  0.463430  1.0  0.0062
  C  C174  1  0.382700  0.758600  0.349040  1.0  -0.1471
  C  C175  1  0.265600  0.399300  0.031570  1.0  0.0541
  C  C176  1  0.332700  0.679700  0.069250  1.0  0.044
  C  C177  1  0.192400  0.298900  0.913420  1.0  0.0358
  C  C178  1  0.249600  0.591100  0.951970  1.0  0.0524
  C  C179  1  0.963000  0.379600  0.020150  1.0  0.0931
  C  C180  1  0.030800  0.368100  0.030940  1.0  -0.0024
  C  C181  1  0.309600  0.724000  0.105170  1.0  -0.0659
  C  C182  1  0.187600  0.252600  0.174480  1.0  0.7105
  C  C183  1  0.224900  0.406800  0.952910  1.0  -0.0028
  C  C184  1  0.106000  0.090300  0.875630  1.0  -0.1025
  C  C185  1  0.219300  0.289500  0.877990  1.0  -0.0632
  C  C186  1  0.417600  0.861800  0.384820  1.0  -0.0359
  C  C187  1  0.109800  0.299200  0.101480  1.0  -0.0476
  C  C188  1  0.397200  0.732700  0.070030  1.0  -0.1244
  C  C189  1  0.067600  0.231400  0.064260  1.0  0.0216
  C  C190  1  0.282200  0.673500  0.990330  1.0  -0.1197
  C  C191  1  0.144700  0.174900  0.133280  1.0  -0.1597
  C  C192  1  0.222700  0.171700  0.804990  1.0  0.7136
  C  C193  1  0.363400  0.415100  0.207240  1.0  0.1917
  C  C194  1  0.437800  0.773800  0.424850  1.0  0.0476
  C  C195  1  0.562600  0.963300  0.522940  1.0  -0.129
  C  C196  1  0.424200  0.580000  0.427660  1.0  -0.121
  C  C197  1  0.134700  0.199500  0.911520  1.0  -0.1344
  C  C198  1  0.369800  0.567400  0.352840  1.0  -0.0414
  C  C199  1  0.934100  0.512500  0.988970  1.0  -0.0984
  C  C200  1  0.390800  0.478500  0.392270  1.0  -0.0808
  C  C201  1  0.096900  0.911700  0.088250  1.0  -0.1232
  C  C202  1  0.061300  0.037500  0.058280  1.0  -0.1062
  C  C203  1  0.578300  0.704300  0.472730  1.0  -0.3558
  C  C204  1  0.233200  0.316200  0.992900  1.0  -0.0957
  C  C205  1  0.435500  0.830600  0.104590  1.0  -0.1023
  C  C206  1  0.138600  0.981500  0.125680  1.0  -0.0282
  C  C207  1  0.274500  0.283800  0.072380  1.0  -0.3716
  C  C208  1  0.239700  0.713600  0.911130  1.0  -0.3423
  C  C209  1  0.455400  0.404400  0.174890  1.0  -0.1843
  C  C210  1  0.468100  0.371500  0.254700  1.0  -0.1663
  C  C211  1  0.919600  0.261400  0.041300  1.0  -0.365
  C  C212  1  0.865400  0.580000  0.659010  1.0  -0.036
  C  C213  1  0.678500  0.373600  0.321830  1.0  0.687
  C  C214  1  0.707700  0.082000  0.469550  1.0  0.022
  C  C215  1  0.652000  0.327400  0.360270  1.0  -0.1252
  C  C216  1  0.808500  0.680100  0.657620  1.0  -0.1648
  C  C217  1  0.589300  0.382700  0.360830  1.0  -0.0772
  C  C218  1  0.464300  0.350100  0.012990  1.0  0.0583
  C  C219  1  0.641500  0.362900  0.192360  1.0  0.6597
  C  C220  1  0.529000  0.387900  0.036570  1.0  0.006
  C  C221  1  0.617300  0.258600  0.150960  1.0  -0.1483
  C  C222  1  0.734400  0.899300  0.468430  1.0  0.054
  C  C223  1  0.667300  0.179700  0.430750  1.0  0.0449
  C  C224  1  0.807600  0.798900  0.586580  1.0  0.0361
  C  C225  1  0.750400  0.091100  0.548030  1.0  0.0533
  C  C226  1  0.037000  0.879600  0.479850  1.0  0.0918
  C  C227  1  0.969200  0.868100  0.469060  1.0  -0.0024
  C  C228  1  0.690400  0.224000  0.394830  1.0  -0.067
  C  C229  1  0.812400  0.752600  0.325520  1.0  0.7115
  C  C230  1  0.775100  0.906800  0.547090  1.0  -0.002
  C  C231  1  0.894000  0.590300  0.624370  1.0  -0.1032
  C  C232  1  0.780700  0.789500  0.622010  1.0  -0.062
  C  C233  1  0.582400  0.361800  0.115180  1.0  -0.0358
  C  C234  1  0.890200  0.799200  0.398520  1.0  -0.0478
  C  C235  1  0.602800  0.232700  0.429970  1.0  -0.1244
  C  C236  1  0.932400  0.731400  0.435740  1.0  0.0217
  C  C237  1  0.717800  0.173500  0.509670  1.0  -0.1205
  C  C238  1  0.855300  0.674900  0.366720  1.0  -0.1589
  C  C239  1  0.777300  0.671700  0.695010  1.0  0.7169
  C  C240  1  0.636600  0.915100  0.292760  1.0  0.1923
  C  C241  1  0.562200  0.273800  0.075150  1.0  0.048
  C  C242  1  0.437400  0.463300  0.977060  1.0  -0.1279
  C  C243  1  0.575800  0.080000  0.072340  1.0  -0.1205
  C  C244  1  0.865300  0.699500  0.588480  1.0  -0.1326
  C  C245  1  0.630200  0.067400  0.147160  1.0  -0.0431
  C  C246  1  0.065900  0.012500  0.511030  1.0  -0.0978
  C  C247  1  0.609200  0.978500  0.107730  1.0  -0.0814
  C  C248  1  0.903100  0.411700  0.411750  1.0  -0.1238
  C  C249  1  0.938700  0.537500  0.441720  1.0  -0.1075
  C  C250  1  0.421700  0.204300  0.027270  1.0  -0.3554
  C  C251  1  0.766800  0.816200  0.507100  1.0  -0.0945
  C  C252  1  0.564500  0.330600  0.395410  1.0  -0.1044
  C  C253  1  0.861400  0.481500  0.374320  1.0  -0.0296
  C  C254  1  0.725500  0.783800  0.427620  1.0  -0.3717
  C  C255  1  0.760300  0.213600  0.588870  1.0  -0.343
  C  C256  1  0.544600  0.904400  0.325110  1.0  -0.1838
  C  C257  1  0.531900  0.871500  0.245300  1.0  -0.1655
  C  C258  1  0.080400  0.761400  0.458700  1.0  -0.3642
  C  C259  1  0.865400  0.920000  0.159010  1.0  -0.0356
  C  C260  1  0.678500  0.126400  0.821830  1.0  0.6866
  C  C261  1  0.707700  0.418000  0.969550  1.0  0.0223
  C  C262  1  0.652000  0.172600  0.860270  1.0  -0.125
  C  C263  1  0.808500  0.819900  0.157620  1.0  -0.1649
  C  C264  1  0.589300  0.117300  0.860830  1.0  -0.0772
  C  C265  1  0.464300  0.149900  0.512990  1.0  0.0594
  C  C266  1  0.641500  0.137100  0.692360  1.0  0.6598
  C  C267  1  0.529000  0.112100  0.536570  1.0  0.0062
  C  C268  1  0.617300  0.241400  0.650960  1.0  -0.1486
  C  C269  1  0.734400  0.600700  0.968430  1.0  0.0543
  C  C270  1  0.667300  0.320300  0.930750  1.0  0.0454
  C  C271  1  0.807600  0.701100  0.086580  1.0  0.0366
  C  C272  1  0.750400  0.408900  0.048030  1.0  0.0537
  C  C273  1  0.037000  0.620400  0.979850  1.0  0.092
  C  C274  1  0.969200  0.631900  0.969060  1.0  -0.0022
  C  C275  1  0.690400  0.276000  0.894830  1.0  -0.0661
  C  C276  1  0.812400  0.747400  0.825520  1.0  0.7115
  C  C277  1  0.775100  0.593200  0.047090  1.0  -0.0019
  C  C278  1  0.894000  0.909700  0.124370  1.0  -0.1026
  C  C279  1  0.780700  0.710500  0.122010  1.0  -0.0617
  C  C280  1  0.582400  0.138200  0.615180  1.0  -0.0365
  C  C281  1  0.890200  0.700800  0.898520  1.0  -0.0447
  C  C282  1  0.602800  0.267300  0.929970  1.0  -0.1248
  C  C283  1  0.932400  0.768600  0.935740  1.0  0.0218
  C  C284  1  0.717800  0.326500  0.009670  1.0  -0.1182
  C  C285  1  0.855300  0.825100  0.866720  1.0  -0.1604
  C  C286  1  0.777300  0.828300  0.195010  1.0  0.7189
  C  C287  1  0.636600  0.584900  0.792760  1.0  0.1923
  C  C288  1  0.562200  0.226200  0.575150  1.0  0.048
  C  C289  1  0.437400  0.036700  0.477060  1.0  -0.1279
  C  C290  1  0.575800  0.420000  0.572340  1.0  -0.1207
  C  C291  1  0.865300  0.800500  0.088480  1.0  -0.1323
  C  C292  1  0.630200  0.432600  0.647160  1.0  -0.043
  C  C293  1  0.065900  0.487500  0.011030  1.0  -0.0973
  C  C294  1  0.609200  0.521500  0.607730  1.0  -0.0803
  C  C295  1  0.903100  0.088300  0.911750  1.0  -0.1247
  C  C296  1  0.938700  0.962500  0.941720  1.0  -0.1079
  C  C297  1  0.421700  0.295700  0.527270  1.0  -0.3544
  C  C298  1  0.766800  0.683800  0.007100  1.0  -0.0969
  C  C299  1  0.564500  0.169400  0.895410  1.0  -0.1039
  C  C300  1  0.861400  0.018500  0.874320  1.0  -0.0295
  C  C301  1  0.725500  0.716200  0.927620  1.0  -0.3715
  C  C302  1  0.760300  0.286400  0.088870  1.0  -0.3433
  C  C303  1  0.544600  0.595600  0.825110  1.0  -0.184
  C  C304  1  0.531900  0.628500  0.745300  1.0  -0.1654
  C  C305  1  0.080400  0.738600  0.958700  1.0  -0.3643
  C  C306  1  0.134600  0.420000  0.340990  1.0  -0.0369
  C  C307  1  0.321500  0.626400  0.678170  1.0  0.6866
  C  C308  1  0.292300  0.918000  0.530450  1.0  0.0215
  C  C309  1  0.348000  0.672600  0.639730  1.0  -0.1245
  C  C310  1  0.191500  0.319900  0.342380  1.0  -0.1657
  C  C311  1  0.410700  0.617300  0.639170  1.0  -0.0776
  C  C312  1  0.535700  0.649900  0.987010  1.0  0.0592
  C  C313  1  0.358500  0.637100  0.807640  1.0  0.6596
  C  C314  1  0.471000  0.612100  0.963430  1.0  0.0064
  C  C315  1  0.382700  0.741400  0.849040  1.0  -0.1481
  C  C316  1  0.265600  0.100700  0.531570  1.0  0.0545
  C  C317  1  0.332700  0.820300  0.569250  1.0  0.0445
  C  C318  1  0.192400  0.201100  0.413420  1.0  0.0358
  C  C319  1  0.249600  0.908900  0.451970  1.0  0.0526
  C  C320  1  0.963000  0.120400  0.520150  1.0  0.0932
  C  C321  1  0.030800  0.131900  0.530940  1.0  -0.0022
  C  C322  1  0.309600  0.776000  0.605170  1.0  -0.0648
  C  C323  1  0.187600  0.247400  0.674480  1.0  0.71
  C  C324  1  0.224900  0.093200  0.452910  1.0  -0.0026
  C  C325  1  0.106000  0.409700  0.375630  1.0  -0.1024
  C  C326  1  0.219300  0.210500  0.377990  1.0  -0.0631
  C  C327  1  0.417600  0.638200  0.884820  1.0  -0.0362
  C  C328  1  0.109800  0.200800  0.601480  1.0  -0.0452
  C  C329  1  0.397200  0.767300  0.570030  1.0  -0.1251
  C  C330  1  0.067600  0.268600  0.564260  1.0  0.0219
  C  C331  1  0.282200  0.826500  0.490330  1.0  -0.1179
  C  C332  1  0.144700  0.325100  0.633280  1.0  -0.159
  C  C333  1  0.222700  0.328300  0.304990  1.0  0.7149
  C  C334  1  0.363400  0.084900  0.707240  1.0  0.1915
  C  C335  1  0.437800  0.726200  0.924850  1.0  0.0475
  C  C336  1  0.562600  0.536700  0.022940  1.0  -0.129
  C  C337  1  0.424200  0.920000  0.927660  1.0  -0.1214
  C  C338  1  0.134700  0.300500  0.411520  1.0  -0.1342
  C  C339  1  0.369800  0.932600  0.852840  1.0  -0.0414
  C  C340  1  0.934100  0.987500  0.488970  1.0  -0.0977
  C  C341  1  0.390800  0.021500  0.892270  1.0  -0.08
  C  C342  1  0.096900  0.588300  0.588250  1.0  -0.1239
  C  C343  1  0.061300  0.462500  0.558280  1.0  -0.1063
  C  C344  1  0.578300  0.795700  0.972730  1.0  -0.3548
  C  C345  1  0.233200  0.183800  0.492900  1.0  -0.098
  C  C346  1  0.435500  0.669400  0.604590  1.0  -0.102
  C  C347  1  0.138600  0.518500  0.625680  1.0  -0.029
  C  C348  1  0.274500  0.216200  0.572380  1.0  -0.3712
  C  C349  1  0.239700  0.786400  0.411130  1.0  -0.3425
  C  C350  1  0.455400  0.095600  0.674890  1.0  -0.1843
  C  C351  1  0.468100  0.128500  0.754700  1.0  -0.1661
  C  C352  1  0.919600  0.238600  0.541300  1.0  -0.3649
  N  N353  1  0.426080  0.404700  0.211910  1.0  -0.0357
  N  N354  1  0.573920  0.904700  0.288090  1.0  -0.0369
  N  N355  1  0.573920  0.595300  0.788090  1.0  -0.0371
  N  N356  1  0.426080  0.095300  0.711910  1.0  -0.0359
  O  O357  1  0.344890  0.015700  0.200620  1.0  -0.5798
  O  O358  1  0.209510  0.134700  0.205090  1.0  -0.6333
  O  O359  1  0.335490  0.406000  0.237800  1.0  -0.6856
  O  O360  1  0.278330  0.763000  0.185500  1.0  -0.6191
  O  O361  1  0.206530  0.035900  0.778830  1.0  -0.6573
  O  O362  1  0.198270  0.426700  0.177200  1.0  -0.6228
  O  O363  1  0.384710  0.016900  0.301990  1.0  -0.5871
  O  O364  1  0.308990  0.799500  0.280080  1.0  -0.7058
  O  O365  1  0.264050  0.296500  0.802700  1.0  -0.6053
  O  O366  1  0.655110  0.515700  0.299380  1.0  -0.5801
  O  O367  1  0.790490  0.634700  0.294910  1.0  -0.6358
  O  O368  1  0.664510  0.906000  0.262200  1.0  -0.6851
  O  O369  1  0.721670  0.263000  0.314500  1.0  -0.6202
  O  O370  1  0.793470  0.535900  0.721170  1.0  -0.6558
  O  O371  1  0.801730  0.926700  0.322800  1.0  -0.6199
  O  O372  1  0.615290  0.516900  0.198010  1.0  -0.5865
  O  O373  1  0.691010  0.299500  0.219920  1.0  -0.7046
  O  O374  1  0.735950  0.796500  0.697300  1.0  -0.6059
  O  O375  1  0.655110  0.984300  0.799380  1.0  -0.5799
  O  O376  1  0.790490  0.865300  0.794910  1.0  -0.6351
  O  O377  1  0.664510  0.594000  0.762200  1.0  -0.6851
  O  O378  1  0.721670  0.237000  0.814500  1.0  -0.6202
  O  O379  1  0.793470  0.964100  0.221170  1.0  -0.6558
  O  O380  1  0.801730  0.573300  0.822800  1.0  -0.6206
  O  O381  1  0.615290  0.983100  0.698010  1.0  -0.5866
  O  O382  1  0.691010  0.200500  0.719920  1.0  -0.7049
  O  O383  1  0.735950  0.703500  0.197300  1.0  -0.6055
  O  O384  1  0.344890  0.484300  0.700620  1.0  -0.5791
  O  O385  1  0.209510  0.365300  0.705090  1.0  -0.6328
  O  O386  1  0.335490  0.094000  0.737800  1.0  -0.6857
  O  O387  1  0.278330  0.737000  0.685500  1.0  -0.6198
  O  O388  1  0.206530  0.464100  0.278830  1.0  -0.6574
  O  O389  1  0.198270  0.073300  0.677200  1.0  -0.6205
  O  O390  1  0.384710  0.483100  0.801990  1.0  -0.5871
  O  O391  1  0.308990  0.700500  0.780080  1.0  -0.7058
  O  O392  1  0.264050  0.203500  0.302700  1.0  -0.605
