# generated using pymatgen
data_Co7H32C48(NO6)4
_symmetry_space_group_name_H-M   'P 1'
_cell_length_a   13.11100000
_cell_length_b   13.84800000
_cell_length_c   19.97800000
_cell_angle_alpha   90.00000000
_cell_angle_beta   90.00000000
_cell_angle_gamma   90.00000000
_symmetry_Int_Tables_number   1
_chemical_formula_structural   Co7H32C48(NO6)4
_chemical_formula_sum   'Co14 H64 C96 N8 O48'
_cell_volume   3627.22821518
_cell_formula_units_Z   2
loop_
 _symmetry_equiv_pos_site_id
 _symmetry_equiv_pos_as_xyz
  1  'x, y, z'
loop_
 _atom_site_type_symbol
 _atom_site_label
 _atom_site_symmetry_multiplicity
 _atom_site_fract_x
 _atom_site_fract_y
 _atom_site_fract_z
 _atom_site_occupancy
 _atom_site_charge
  Co  Co1  1  0.259270  0.474740  0.115000  1.0  0.9189
  Co  Co2  1  0.405320  0.396320  0.974780  1.0  1.0283
  Co  Co3  1  0.259270  0.974740  0.385000  1.0  0.9199
  Co  Co4  1  0.405320  0.896320  0.525220  1.0  1.0289
  Co  Co5  1  0.663050  0.500000  0.000000  1.0  1.1455
  Co  Co6  1  0.587070  0.298000  0.902530  1.0  1.0394
  Co  Co7  1  0.587070  0.202000  0.402530  1.0  1.0386
  Co  Co8  1  0.405320  0.603680  0.025220  1.0  1.0286
  Co  Co9  1  0.663050  0.000000  0.500000  1.0  1.1468
  Co  Co10  1  0.259270  0.525260  0.885000  1.0  0.9203
  Co  Co11  1  0.587070  0.702000  0.097470  1.0  1.0387
  Co  Co12  1  0.259270  0.025260  0.615000  1.0  0.9191
  Co  Co13  1  0.405320  0.103680  0.474780  1.0  1.028
  Co  Co14  1  0.587070  0.798000  0.597470  1.0  1.0393
  H  H15  1  0.345300  0.337200  0.341000  1.0  0.1186
  H  H16  1  0.050100  0.171800  0.838100  1.0  0.1097
  H  H17  1  0.973700  0.884900  0.491700  1.0  0.1174
  H  H18  1  0.615300  0.706900  0.248200  1.0  0.0837
  H  H19  1  0.973700  0.615100  0.991700  1.0  0.1193
  H  H20  1  0.348800  0.359700  0.694500  1.0  0.1299
  H  H21  1  0.572600  0.345800  0.020400  1.0  0.393
  H  H22  1  0.881700  0.701300  0.634400  1.0  0.1157
  H  H23  1  0.585700  0.079100  0.872500  1.0  0.0848
  H  H24  1  0.881700  0.201300  0.865600  1.0  0.1155
  H  H25  1  0.309000  0.260700  0.120700  1.0  0.0868
  H  H26  1  0.309000  0.239300  0.620700  1.0  0.0867
  H  H27  1  0.510900  0.500000  0.500000  1.0  0.1188
  H  H28  1  0.629000  0.692800  0.836600  1.0  0.1122
  H  H29  1  0.601700  0.471600  0.713500  1.0  0.1276
  H  H30  1  0.973700  0.384900  0.008300  1.0  0.1176
  H  H31  1  0.177700  0.247000  0.391100  1.0  0.1028
  H  H32  1  0.246900  0.144300  0.002900  1.0  0.1001
  H  H33  1  0.973700  0.115100  0.508300  1.0  0.117
  H  H34  1  0.585700  0.920900  0.127500  1.0  0.0862
  H  H35  1  0.615300  0.206900  0.251800  1.0  0.0839
  H  H36  1  0.050100  0.671800  0.661900  1.0  0.1122
  H  H37  1  0.297100  0.950600  0.235800  1.0  0.0909
  H  H38  1  0.297100  0.049400  0.764200  1.0  0.0908
  H  H39  1  0.510900  0.000000  0.000000  1.0  0.1188
  H  H40  1  0.572600  0.654200  0.979600  1.0  0.3931
  H  H41  1  0.348800  0.140300  0.194500  1.0  0.1298
  H  H42  1  0.881700  0.798700  0.134400  1.0  0.1158
  H  H43  1  0.629000  0.307200  0.163400  1.0  0.1124
  H  H44  1  0.297100  0.549400  0.735800  1.0  0.0912
  H  H45  1  0.177700  0.747000  0.108900  1.0  0.1027
  H  H46  1  0.246900  0.355700  0.502900  1.0  0.1
  H  H47  1  0.345300  0.662800  0.659000  1.0  0.1196
  H  H48  1  0.629000  0.192800  0.663400  1.0  0.1128
  H  H49  1  0.050100  0.828200  0.161900  1.0  0.1104
  H  H50  1  0.585700  0.420900  0.372500  1.0  0.0852
  H  H51  1  0.450700  0.052700  0.595400  1.0  0.3932
  H  H52  1  0.158200  0.000000  0.000000  1.0  0.1138
  H  H53  1  0.629000  0.807200  0.336600  1.0  0.1118
  H  H54  1  0.158200  0.500000  0.500000  1.0  0.1138
  H  H55  1  0.246900  0.644300  0.497100  1.0  0.0999
  H  H56  1  0.450700  0.947300  0.404600  1.0  0.3931
  H  H57  1  0.345300  0.162800  0.841000  1.0  0.1187
  H  H58  1  0.309000  0.760700  0.379300  1.0  0.0861
  H  H59  1  0.450700  0.552700  0.904600  1.0  0.3933
  H  H60  1  0.450700  0.447300  0.095400  1.0  0.3936
  H  H61  1  0.177700  0.253000  0.891100  1.0  0.1026
  H  H62  1  0.348800  0.640300  0.305500  1.0  0.1301
  H  H63  1  0.615300  0.293100  0.751800  1.0  0.0838
  H  H64  1  0.601700  0.971600  0.786500  1.0  0.1279
  H  H65  1  0.601700  0.528400  0.286500  1.0  0.1278
  H  H66  1  0.585700  0.579100  0.627500  1.0  0.086
  H  H67  1  0.615300  0.793100  0.748200  1.0  0.0824
  H  H68  1  0.345300  0.837200  0.159000  1.0  0.1197
  H  H69  1  0.177700  0.753000  0.608900  1.0  0.103
  H  H70  1  0.601700  0.028400  0.213500  1.0  0.1279
  H  H71  1  0.572600  0.154200  0.520400  1.0  0.3923
  H  H72  1  0.348800  0.859700  0.805500  1.0  0.1304
  H  H73  1  0.050100  0.328200  0.338100  1.0  0.1119
  H  H74  1  0.246900  0.855700  0.997100  1.0  0.0997
  H  H75  1  0.881700  0.298700  0.365600  1.0  0.1158
  H  H76  1  0.297100  0.450600  0.264200  1.0  0.0906
  H  H77  1  0.309000  0.739300  0.879300  1.0  0.0855
  H  H78  1  0.572600  0.845800  0.479600  1.0  0.3926
  C  C79  1  0.282300  0.913800  0.999700  1.0  -0.0714
  C  C80  1  0.619600  0.930100  0.286000  1.0  -0.114
  C  C81  1  0.933700  0.766600  0.111900  1.0  -0.0498
  C  C82  1  0.933700  0.233400  0.888100  1.0  -0.0499
  C  C83  1  0.799800  0.673500  0.048100  1.0  0.7288
  C  C84  1  0.314700  0.724400  0.834100  1.0  0.1846
  C  C85  1  0.089000  0.825400  0.543800  1.0  -0.1014
  C  C86  1  0.308800  0.612400  0.750100  1.0  0.1788
  C  C87  1  0.034400  0.284000  0.371600  1.0  -0.1087
  C  C88  1  0.439600  0.182300  0.990400  1.0  0.7135
  C  C89  1  0.612500  0.773000  0.240300  1.0  0.1803
  C  C90  1  0.340400  0.296800  0.709700  1.0  -0.1681
  C  C91  1  0.337200  0.819800  0.203600  1.0  -0.1355
  C  C92  1  0.631300  0.001300  0.654600  1.0  0.6811
  C  C93  1  0.034400  0.716000  0.628400  1.0  -0.1074
  C  C94  1  0.110400  0.262900  0.904100  1.0  -0.0663
  C  C95  1  0.314700  0.775600  0.334100  1.0  0.1871
  C  C96  1  0.175100  0.624500  0.007700  1.0  0.7083
  C  C97  1  0.282300  0.586200  0.499700  1.0  -0.0705
  C  C98  1  0.612500  0.227000  0.759700  1.0  0.1805
  C  C99  1  0.340400  0.796800  0.790300  1.0  -0.1677
  C  C100  1  0.308800  0.887600  0.250100  1.0  0.1787
  C  C101  1  0.605200  0.537500  0.722200  1.0  -0.148
  C  C102  1  0.910500  0.298900  0.938200  1.0  -0.1397
  C  C103  1  0.621500  0.666900  0.793900  1.0  -0.1532
  C  C104  1  0.175100  0.875500  0.507700  1.0  0.7089
  C  C105  1  0.910500  0.798900  0.561800  1.0  -0.1396
  C  C106  1  0.439600  0.317700  0.490400  1.0  0.7127
  C  C107  1  0.353700  0.225000  0.276400  1.0  -0.0572
  C  C108  1  0.340400  0.703200  0.290300  1.0  -0.1687
  C  C109  1  0.439600  0.817700  0.009600  1.0  0.7128
  C  C110  1  0.910500  0.201100  0.438200  1.0  -0.1391
  C  C111  1  0.612500  0.273000  0.259700  1.0  0.1806
  C  C112  1  0.337200  0.180200  0.796400  1.0  -0.1372
  C  C113  1  0.988700  0.156900  0.473200  1.0  -0.0365
  C  C114  1  0.988700  0.843100  0.526800  1.0  -0.0365
  C  C115  1  0.910500  0.701100  0.061800  1.0  -0.139
  C  C116  1  0.621500  0.333100  0.206100  1.0  -0.1551
  C  C117  1  0.439600  0.682300  0.509600  1.0  0.7093
  C  C118  1  0.619600  0.069900  0.714000  1.0  -0.1132
  C  C119  1  0.933700  0.733400  0.611900  1.0  -0.0496
  C  C120  1  0.988700  0.343100  0.973200  1.0  -0.037
  C  C121  1  0.308800  0.387600  0.249900  1.0  0.1804
  C  C122  1  0.619600  0.569900  0.786000  1.0  -0.1137
  C  C123  1  0.387000  0.086600  0.996800  1.0  -0.1374
  C  C124  1  0.353700  0.725000  0.223600  1.0  -0.0578
  C  C125  1  0.595700  0.603000  0.670500  1.0  0.1853
  C  C126  1  0.799800  0.326500  0.951900  1.0  0.7285
  C  C127  1  0.621500  0.833100  0.293900  1.0  -0.1594
  C  C128  1  0.595700  0.897000  0.170500  1.0  0.1858
  C  C129  1  0.371800  0.147900  0.327500  1.0  0.6931
  C  C130  1  0.282300  0.086200  0.000300  1.0  -0.0698
  C  C131  1  0.387000  0.586600  0.503200  1.0  -0.1376
  C  C132  1  0.631300  0.498700  0.154600  1.0  0.6808
  C  C133  1  0.605200  0.962500  0.222200  1.0  -0.1479
  C  C134  1  0.089000  0.174600  0.456200  1.0  -0.101
  C  C135  1  0.595700  0.103000  0.829500  1.0  0.1855
  C  C136  1  0.631300  0.501300  0.845400  1.0  0.6822
  C  C137  1  0.337200  0.680200  0.703600  1.0  -0.135
  C  C138  1  0.371800  0.352100  0.827500  1.0  0.6933
  C  C139  1  0.175100  0.375500  0.992300  1.0  0.7085
  C  C140  1  0.337200  0.319800  0.296400  1.0  -0.1362
  C  C141  1  0.387000  0.413400  0.496800  1.0  -0.1372
  C  C142  1  0.799800  0.173500  0.451900  1.0  0.7286
  C  C143  1  0.110400  0.737100  0.095900  1.0  -0.0636
  C  C144  1  0.605200  0.462500  0.277800  1.0  -0.1495
  C  C145  1  0.439900  0.500000  0.500000  1.0  -0.0373
  C  C146  1  0.371800  0.852100  0.672500  1.0  0.6931
  C  C147  1  0.089000  0.325400  0.956200  1.0  -0.101
  C  C148  1  0.619600  0.430100  0.214000  1.0  -0.113
  C  C149  1  0.631300  0.998700  0.345400  1.0  0.6906
  C  C150  1  0.340400  0.203200  0.209700  1.0  -0.1687
  C  C151  1  0.595700  0.397000  0.329500  1.0  0.1857
  C  C152  1  0.089000  0.674600  0.043800  1.0  -0.1015
  C  C153  1  0.612500  0.727000  0.740300  1.0  0.1795
  C  C154  1  0.308800  0.112400  0.749900  1.0  0.1804
  C  C155  1  0.110400  0.237100  0.404100  1.0  -0.0628
  C  C156  1  0.799800  0.826500  0.548100  1.0  0.7294
  C  C157  1  0.353700  0.775000  0.723600  1.0  -0.0577
  C  C158  1  0.314700  0.275600  0.165900  1.0  0.1848
  C  C159  1  0.314700  0.224400  0.665900  1.0  0.1841
  C  C160  1  0.988700  0.656900  0.026800  1.0  -0.0357
  C  C161  1  0.282300  0.413800  0.500300  1.0  -0.0713
  C  C162  1  0.933700  0.266600  0.388100  1.0  -0.0498
  C  C163  1  0.034400  0.216000  0.871600  1.0  -0.102
  C  C164  1  0.229200  0.500000  0.500000  1.0  -0.111
  C  C165  1  0.621500  0.166900  0.706100  1.0  -0.1535
  C  C166  1  0.353700  0.275000  0.776400  1.0  -0.0573
  C  C167  1  0.387000  0.913400  0.003200  1.0  -0.1374
  C  C168  1  0.175100  0.124500  0.492300  1.0  0.7079
  C  C169  1  0.110400  0.762900  0.595900  1.0  -0.0642
  C  C170  1  0.605200  0.037500  0.777800  1.0  -0.1485
  C  C171  1  0.439900  0.000000  0.000000  1.0  -0.0383
  C  C172  1  0.371800  0.647900  0.172500  1.0  0.6927
  C  C173  1  0.229200  0.000000  0.000000  1.0  -0.1144
  C  C174  1  0.034400  0.784000  0.128400  1.0  -0.1087
  N  N175  1  0.600100  0.302100  0.321660  1.0  -0.3042
  N  N176  1  0.600100  0.697900  0.678340  1.0  -0.3073
  N  N177  1  0.297400  0.633100  0.814640  1.0  -0.2948
  N  N178  1  0.297400  0.133100  0.685360  1.0  -0.2966
  N  N179  1  0.600100  0.197900  0.821660  1.0  -0.3051
  N  N180  1  0.600100  0.802100  0.178340  1.0  -0.3074
  N  N181  1  0.297400  0.866900  0.314640  1.0  -0.2946
  N  N182  1  0.297400  0.366900  0.185360  1.0  -0.2948
  O  O183  1  0.621800  0.586100  0.164100  1.0  -0.5843
  O  O184  1  0.425600  0.831600  0.621130  1.0  -0.6686
  O  O185  1  0.562300  0.388230  0.981720  1.0  -0.9233
  O  O186  1  0.393800  0.463060  0.065560  1.0  -0.967
  O  O187  1  0.425600  0.331600  0.878870  1.0  -0.6688
  O  O188  1  0.621800  0.086100  0.335900  1.0  -0.5833
  O  O189  1  0.528100  0.317200  0.464570  1.0  -0.5847
  O  O190  1  0.650200  0.955900  0.399420  1.0  -0.6048
  O  O191  1  0.734600  0.231000  0.430300  1.0  -0.6072
  O  O192  1  0.562300  0.111770  0.481720  1.0  -0.9238
  O  O193  1  0.325100  0.070600  0.317910  1.0  -0.5974
  O  O194  1  0.785000  0.404600  0.980970  1.0  -0.6018
  O  O195  1  0.734600  0.769000  0.569700  1.0  -0.606
  O  O196  1  0.393800  0.536940  0.934440  1.0  -0.9667
  O  O197  1  0.734600  0.269000  0.930300  1.0  -0.6066
  O  O198  1  0.168800  0.613200  0.945790  1.0  -0.5959
  O  O199  1  0.325100  0.429400  0.817910  1.0  -0.5972
  O  O200  1  0.650200  0.544100  0.899420  1.0  -0.6045
  O  O201  1  0.562300  0.888230  0.518280  1.0  -0.9219
  O  O202  1  0.325100  0.929400  0.682090  1.0  -0.5977
  O  O203  1  0.562300  0.611770  0.018280  1.0  -0.9222
  O  O204  1  0.393800  0.963060  0.434440  1.0  -0.9666
  O  O205  1  0.650200  0.044100  0.600580  1.0  -0.6047
  O  O206  1  0.247300  0.404070  0.956660  1.0  -0.6387
  O  O207  1  0.247300  0.904070  0.543340  1.0  -0.6373
  O  O208  1  0.168800  0.386800  0.054210  1.0  -0.5959
  O  O209  1  0.425600  0.168400  0.378870  1.0  -0.6684
  O  O210  1  0.734600  0.731000  0.069700  1.0  -0.6063
  O  O211  1  0.785000  0.595400  0.019030  1.0  -0.6009
  O  O212  1  0.393800  0.036940  0.565560  1.0  -0.9672
  O  O213  1  0.391000  0.245800  0.508690  1.0  -0.569
  O  O214  1  0.785000  0.904600  0.519030  1.0  -0.6019
  O  O215  1  0.247300  0.595930  0.043340  1.0  -0.6378
  O  O216  1  0.168800  0.113200  0.554210  1.0  -0.5955
  O  O217  1  0.391000  0.745800  0.991310  1.0  -0.5678
  O  O218  1  0.650200  0.455900  0.100580  1.0  -0.6045
  O  O219  1  0.325100  0.570600  0.182090  1.0  -0.5974
  O  O220  1  0.785000  0.095400  0.480970  1.0  -0.6016
  O  O221  1  0.247300  0.095930  0.456660  1.0  -0.6387
  O  O222  1  0.528100  0.182800  0.964570  1.0  -0.585
  O  O223  1  0.621800  0.913900  0.664100  1.0  -0.5859
  O  O224  1  0.391000  0.754200  0.491310  1.0  -0.5686
  O  O225  1  0.391000  0.254200  0.008690  1.0  -0.569
  O  O226  1  0.528100  0.817200  0.035430  1.0  -0.5849
  O  O227  1  0.621800  0.413900  0.835900  1.0  -0.5849
  O  O228  1  0.528100  0.682800  0.535430  1.0  -0.5853
  O  O229  1  0.168800  0.886800  0.445790  1.0  -0.5956
  O  O230  1  0.425600  0.668400  0.121130  1.0  -0.6682
