# generated using pymatgen
data_Ni7H32C48(NO6)4
_symmetry_space_group_name_H-M   'P 1'
_cell_length_a   12.98800000
_cell_length_b   13.72200000
_cell_length_c   19.73000000
_cell_angle_alpha   90.00000000
_cell_angle_beta   90.00000000
_cell_angle_gamma   90.00000000
_symmetry_Int_Tables_number   1
_chemical_formula_structural   Ni7H32C48(NO6)4
_chemical_formula_sum   'Ni14 H64 C96 N8 O48'
_cell_volume   3516.30695928
_cell_formula_units_Z   2
loop_
 _symmetry_equiv_pos_site_id
 _symmetry_equiv_pos_as_xyz
  1  'x, y, z'
loop_
 _atom_site_type_symbol
 _atom_site_label
 _atom_site_symmetry_multiplicity
 _atom_site_fract_x
 _atom_site_fract_y
 _atom_site_fract_z
 _atom_site_occupancy
 _atom_site_charge
  Ni  Ni1  1  0.706990  0.397740  0.025990  1.0  0.9281
  Ni  Ni2  1  0.963770  0.000000  0.500000  1.0  1.0331
  Ni  Ni3  1  0.560860  0.024000  0.385130  1.0  0.7739
  Ni  Ni4  1  0.560860  0.524000  0.114870  1.0  0.7744
  Ni  Ni5  1  0.885940  0.799060  0.402240  1.0  0.9353
  Ni  Ni6  1  0.706990  0.602260  0.974010  1.0  0.9279
  Ni  Ni7  1  0.706990  0.897740  0.474010  1.0  0.9276
  Ni  Ni8  1  0.706990  0.102260  0.525990  1.0  0.9283
  Ni  Ni9  1  0.963770  0.500000  0.000000  1.0  1.0331
  Ni  Ni10  1  0.560860  0.976000  0.614870  1.0  0.7739
  Ni  Ni11  1  0.885940  0.200940  0.597760  1.0  0.9335
  Ni  Ni12  1  0.560860  0.476000  0.885130  1.0  0.7735
  Ni  Ni13  1  0.885940  0.700940  0.902240  1.0  0.9335
  Ni  Ni14  1  0.885940  0.299060  0.097760  1.0  0.935
  H  H15  1  0.180300  0.299000  0.636200  1.0  0.1163
  H  H16  1  0.656400  0.859000  0.193500  1.0  0.1309
  H  H17  1  0.920000  0.297400  0.248600  1.0  0.0924
  H  H18  1  0.882800  0.082400  0.127300  1.0  0.0901
  H  H19  1  0.350200  0.170300  0.165100  1.0  0.116
  H  H20  1  0.903900  0.027800  0.787500  1.0  0.1366
  H  H21  1  0.180300  0.799000  0.863800  1.0  0.1164
  H  H22  1  0.903900  0.527800  0.712500  1.0  0.1369
  H  H23  1  0.180300  0.201000  0.136200  1.0  0.116
  H  H24  1  0.871800  0.652900  0.020300  1.0  0.3884
  H  H25  1  0.589100  0.951500  0.763500  1.0  0.1011
  H  H26  1  0.871800  0.152900  0.479700  1.0  0.3897
  H  H27  1  0.871800  0.347100  0.979700  1.0  0.3893
  H  H28  1  0.350200  0.329700  0.665100  1.0  0.1146
  H  H29  1  0.546000  0.855100  0.001700  1.0  0.105
  H  H30  1  0.612800  0.262400  0.882600  1.0  0.0971
  H  H31  1  0.612800  0.737600  0.117400  1.0  0.0976
  H  H32  1  0.612800  0.237600  0.382600  1.0  0.0969
  H  H33  1  0.933700  0.305000  0.838000  1.0  0.1204
  H  H34  1  0.656400  0.141000  0.806500  1.0  0.131
  H  H35  1  0.647200  0.159600  0.158900  1.0  0.1281
  H  H36  1  0.752800  0.053000  0.405300  1.0  0.3411
  H  H37  1  0.546000  0.144900  0.998300  1.0  0.1049
  H  H38  1  0.871800  0.847100  0.520300  1.0  0.3887
  H  H39  1  0.752800  0.447000  0.905300  1.0  0.341
  H  H40  1  0.275700  0.389000  0.993700  1.0  0.1181
  H  H41  1  0.752800  0.553000  0.094700  1.0  0.3412
  H  H42  1  0.275700  0.611000  0.006300  1.0  0.1174
  H  H43  1  0.546000  0.644900  0.501700  1.0  0.105
  H  H44  1  0.752800  0.947000  0.594700  1.0  0.3414
  H  H45  1  0.656400  0.641000  0.693500  1.0  0.1307
  H  H46  1  0.813800  0.500000  0.500000  1.0  0.1247
  H  H47  1  0.647200  0.340400  0.658900  1.0  0.1279
  H  H48  1  0.933700  0.805000  0.662000  1.0  0.1207
  H  H49  1  0.455300  0.500000  0.500000  1.0  0.1304
  H  H50  1  0.455300  0.000000  0.000000  1.0  0.1331
  H  H51  1  0.589100  0.548500  0.263500  1.0  0.1005
  H  H52  1  0.546000  0.355100  0.498300  1.0  0.1048
  H  H53  1  0.903900  0.972200  0.212500  1.0  0.1363
  H  H54  1  0.275700  0.111000  0.493700  1.0  0.1174
  H  H55  1  0.350200  0.670300  0.334900  1.0  0.115
  H  H56  1  0.882800  0.917600  0.872700  1.0  0.0902
  H  H57  1  0.920000  0.702600  0.751400  1.0  0.0932
  H  H58  1  0.920000  0.797400  0.251400  1.0  0.093
  H  H59  1  0.275700  0.889000  0.506300  1.0  0.1177
  H  H60  1  0.647200  0.659600  0.341100  1.0  0.1277
  H  H61  1  0.612800  0.762400  0.617400  1.0  0.0976
  H  H62  1  0.903900  0.472200  0.287500  1.0  0.1364
  H  H63  1  0.350200  0.829700  0.834900  1.0  0.1142
  H  H64  1  0.647200  0.840400  0.841100  1.0  0.1276
  H  H65  1  0.933700  0.195000  0.338000  1.0  0.1205
  H  H66  1  0.933700  0.695000  0.162000  1.0  0.121
  H  H67  1  0.656400  0.359000  0.306500  1.0  0.1311
  H  H68  1  0.589100  0.048500  0.236500  1.0  0.1009
  H  H69  1  0.481700  0.251700  0.109600  1.0  0.1099
  H  H70  1  0.481700  0.748300  0.890400  1.0  0.1099
  H  H71  1  0.882800  0.417600  0.627300  1.0  0.0903
  H  H72  1  0.481700  0.248300  0.609600  1.0  0.1095
  H  H73  1  0.481700  0.751700  0.390400  1.0  0.1097
  H  H74  1  0.589100  0.451500  0.736500  1.0  0.1017
  H  H75  1  0.813800  0.000000  0.000000  1.0  0.1247
  H  H76  1  0.180300  0.701000  0.363800  1.0  0.1161
  H  H77  1  0.882800  0.582400  0.372700  1.0  0.0897
  H  H78  1  0.920000  0.202600  0.748600  1.0  0.0932
  C  C79  1  0.644900  0.204300  0.791400  1.0  -0.1344
  C  C80  1  0.605400  0.888900  0.749000  1.0  0.1801
  C  C81  1  0.921700  0.570500  0.212900  1.0  -0.0801
  C  C82  1  0.335000  0.214400  0.130700  1.0  -0.1074
  C  C83  1  0.476900  0.375400  0.008400  1.0  0.7226
  C  C84  1  0.742300  0.184200  0.009900  1.0  0.7202
  C  C85  1  0.413600  0.261700  0.096900  1.0  -0.0733
  C  C86  1  0.581700  0.586200  0.499900  1.0  -0.0156
  C  C87  1  0.637400  0.822100  0.796100  1.0  -0.1734
  C  C88  1  0.099200  0.173200  0.549200  1.0  0.742
  C  C89  1  0.233100  0.767300  0.886700  1.0  -0.0173
  C  C90  1  0.742300  0.684200  0.490100  1.0  0.7195
  C  C91  1  0.605400  0.388900  0.751000  1.0  0.1768
  C  C92  1  0.389900  0.674900  0.956900  1.0  -0.0547
  C  C93  1  0.688000  0.087900  0.002900  1.0  -0.1264
  C  C94  1  0.637400  0.322100  0.703900  1.0  -0.1747
  C  C95  1  0.906500  0.461400  0.722000  1.0  -0.152
  C  C96  1  0.209800  0.701900  0.938200  1.0  -0.1693
  C  C97  1  0.933700  0.996600  0.653000  1.0  0.7054
  C  C98  1  0.476900  0.875400  0.491600  1.0  0.722
  C  C99  1  0.617200  0.777400  0.663300  1.0  0.1924
  C  C100  1  0.933700  0.496600  0.847000  1.0  0.7061
  C  C101  1  0.933700  0.503400  0.153000  1.0  0.7053
  C  C102  1  0.671900  0.148700  0.671300  1.0  0.7022
  C  C103  1  0.637400  0.677900  0.296100  1.0  -0.1743
  C  C104  1  0.605400  0.611100  0.249000  1.0  0.1809
  C  C105  1  0.389900  0.325100  0.043100  1.0  -0.0541
  C  C106  1  0.644900  0.295700  0.291400  1.0  -0.1322
  C  C107  1  0.921700  0.929500  0.712900  1.0  -0.0804
  C  C108  1  0.915600  0.730700  0.259100  1.0  0.1917
  C  C109  1  0.655000  0.727200  0.775900  1.0  -0.0779
  C  C110  1  0.290600  0.344200  0.027700  1.0  -0.0151
  C  C111  1  0.389900  0.825100  0.456900  1.0  -0.0542
  C  C112  1  0.906500  0.961400  0.778000  1.0  -0.1538
  C  C113  1  0.933700  0.003400  0.347000  1.0  0.7051
  C  C114  1  0.655000  0.772800  0.275900  1.0  -0.0774
  C  C115  1  0.895200  0.105800  0.170800  1.0  0.2035
  C  C116  1  0.906500  0.538600  0.278000  1.0  -0.1531
  C  C117  1  0.924900  0.831000  0.705100  1.0  -0.125
  C  C118  1  0.644900  0.704300  0.708600  1.0  -0.1355
  C  C119  1  0.209800  0.201900  0.561800  1.0  -0.1692
  C  C120  1  0.637400  0.177900  0.203900  1.0  -0.1748
  C  C121  1  0.099200  0.673200  0.950800  1.0  0.7414
  C  C122  1  0.413600  0.238300  0.596900  1.0  -0.0723
  C  C123  1  0.209800  0.798100  0.438200  1.0  -0.17
  C  C124  1  0.290600  0.844200  0.472300  1.0  -0.0152
  C  C125  1  0.742300  0.315800  0.509900  1.0  0.7192
  C  C126  1  0.413600  0.761700  0.403100  1.0  -0.0729
  C  C127  1  0.389900  0.174900  0.543100  1.0  -0.0546
  C  C128  1  0.233100  0.732700  0.386700  1.0  -0.0171
  C  C129  1  0.581700  0.413800  0.500100  1.0  -0.016
  C  C130  1  0.655000  0.272800  0.224100  1.0  -0.0775
  C  C131  1  0.671900  0.851300  0.328700  1.0  0.7022
  C  C132  1  0.290600  0.655800  0.972300  1.0  -0.0143
  C  C133  1  0.644900  0.795700  0.208600  1.0  -0.1339
  C  C134  1  0.099200  0.326800  0.049200  1.0  0.7423
  C  C135  1  0.617200  0.222600  0.336700  1.0  0.1931
  C  C136  1  0.915600  0.269300  0.740900  1.0  0.1928
  C  C137  1  0.895200  0.394200  0.670800  1.0  0.2032
  C  C138  1  0.688000  0.412100  0.502900  1.0  -0.1268
  C  C139  1  0.895200  0.605800  0.329200  1.0  0.204
  C  C140  1  0.921700  0.070500  0.287100  1.0  -0.081
  C  C141  1  0.915600  0.769300  0.759100  1.0  0.1924
  C  C142  1  0.671900  0.351300  0.171300  1.0  0.7025
  C  C143  1  0.617200  0.722600  0.163300  1.0  0.1925
  C  C144  1  0.476900  0.624600  0.991600  1.0  0.7214
  C  C145  1  0.233100  0.267300  0.613300  1.0  -0.0163
  C  C146  1  0.655000  0.227200  0.724100  1.0  -0.0779
  C  C147  1  0.671900  0.648700  0.828700  1.0  0.7023
  C  C148  1  0.413600  0.738300  0.903100  1.0  -0.0728
  C  C149  1  0.526900  0.000000  0.000000  1.0  -0.1101
  C  C150  1  0.915600  0.230700  0.240900  1.0  0.1916
  C  C151  1  0.233100  0.232700  0.113300  1.0  -0.0162
  C  C152  1  0.335000  0.785600  0.869300  1.0  -0.1115
  C  C153  1  0.742300  0.815800  0.990100  1.0  0.7201
  C  C154  1  0.688000  0.912100  0.997100  1.0  -0.1264
  C  C155  1  0.526900  0.500000  0.500000  1.0  -0.1172
  C  C156  1  0.924900  0.669000  0.205100  1.0  -0.1249
  C  C157  1  0.924900  0.331000  0.794900  1.0  -0.1233
  C  C158  1  0.605400  0.111100  0.251000  1.0  0.1762
  C  C159  1  0.476900  0.124600  0.508400  1.0  0.7224
  C  C160  1  0.742200  0.000000  0.000000  1.0  -0.0393
  C  C161  1  0.895200  0.894200  0.829200  1.0  0.2031
  C  C162  1  0.099200  0.826800  0.450800  1.0  0.7428
  C  C163  1  0.906500  0.038600  0.222000  1.0  -0.1532
  C  C164  1  0.335000  0.714400  0.369300  1.0  -0.107
  C  C165  1  0.688000  0.587900  0.497100  1.0  -0.1264
  C  C166  1  0.742200  0.500000  0.500000  1.0  -0.0388
  C  C167  1  0.335000  0.285600  0.630700  1.0  -0.1099
  C  C168  1  0.617200  0.277400  0.836700  1.0  0.1919
  C  C169  1  0.924900  0.169000  0.294900  1.0  -0.1253
  C  C170  1  0.209800  0.298100  0.061800  1.0  -0.17
  C  C171  1  0.921700  0.429500  0.787100  1.0  -0.0814
  C  C172  1  0.581700  0.913800  0.999900  1.0  -0.0155
  C  C173  1  0.581700  0.086200  0.000100  1.0  -0.0161
  C  C174  1  0.290600  0.155800  0.527700  1.0  -0.0142
  N  N175  1  0.596800  0.867900  0.683300  1.0  -0.2817
  N  N176  1  0.596800  0.632100  0.183300  1.0  -0.2825
  N  N177  1  0.900800  0.200400  0.179040  1.0  -0.2944
  N  N178  1  0.596800  0.132100  0.316700  1.0  -0.2808
  N  N179  1  0.900800  0.700400  0.320960  1.0  -0.2917
  N  N180  1  0.900800  0.299600  0.679040  1.0  -0.2951
  N  N181  1  0.900800  0.799600  0.820960  1.0  -0.2914
  N  N182  1  0.596800  0.367900  0.816700  1.0  -0.2811
  O  O183  1  0.550800  0.595100  0.955090  1.0  -0.6632
  O  O184  1  0.623300  0.927200  0.318670  1.0  -0.5852
  O  O185  1  0.920100  0.414700  0.162870  1.0  -0.5715
  O  O186  1  0.692000  0.258100  0.991400  1.0  -0.5637
  O  O187  1  0.032800  0.730600  0.928340  1.0  -0.6019
  O  O188  1  0.861900  0.610000  0.981090  1.0  -0.9492
  O  O189  1  0.471900  0.113800  0.445620  1.0  -0.6057
  O  O190  1  0.725100  0.169400  0.621040  1.0  -0.6293
  O  O191  1  0.623300  0.072800  0.681330  1.0  -0.5857
  O  O192  1  0.471900  0.613800  0.054380  1.0  -0.6047
  O  O193  1  0.471900  0.886200  0.554380  1.0  -0.6054
  O  O194  1  0.623300  0.572800  0.818670  1.0  -0.5854
  O  O195  1  0.829900  0.314900  0.536210  1.0  -0.5627
  O  O196  1  0.550800  0.904900  0.455090  1.0  -0.6632
  O  O197  1  0.695400  0.463370  0.935400  1.0  -0.9461
  O  O198  1  0.623300  0.427200  0.181330  1.0  -0.5858
  O  O199  1  0.920100  0.914700  0.337130  1.0  -0.5706
  O  O200  1  0.725100  0.330600  0.121040  1.0  -0.6297
  O  O201  1  0.725100  0.830600  0.378960  1.0  -0.6288
  O  O202  1  0.725100  0.669400  0.878960  1.0  -0.6285
  O  O203  1  0.954500  0.544600  0.098390  1.0  -0.5942
  O  O204  1  0.954500  0.044600  0.401610  1.0  -0.5942
  O  O205  1  0.550800  0.095100  0.544910  1.0  -0.6624
  O  O206  1  0.692000  0.241900  0.491400  1.0  -0.5636
  O  O207  1  0.695400  0.036630  0.435400  1.0  -0.9465
  O  O208  1  0.829900  0.185100  0.036210  1.0  -0.5629
  O  O209  1  0.084800  0.596500  0.981810  1.0  -0.586
  O  O210  1  0.550800  0.404900  0.044910  1.0  -0.6628
  O  O211  1  0.084800  0.903500  0.481810  1.0  -0.5868
  O  O212  1  0.861900  0.110000  0.518910  1.0  -0.948
  O  O213  1  0.471900  0.386200  0.945620  1.0  -0.6053
  O  O214  1  0.861900  0.890000  0.481090  1.0  -0.949
  O  O215  1  0.954500  0.455400  0.901610  1.0  -0.5938
  O  O216  1  0.954500  0.955400  0.598390  1.0  -0.5942
  O  O217  1  0.861900  0.390000  0.018910  1.0  -0.9481
  O  O218  1  0.084800  0.096500  0.518190  1.0  -0.5859
  O  O219  1  0.032800  0.230600  0.571660  1.0  -0.601
  O  O220  1  0.829900  0.814900  0.963790  1.0  -0.5632
  O  O221  1  0.084800  0.403500  0.018190  1.0  -0.5876
  O  O222  1  0.829900  0.685100  0.463790  1.0  -0.563
  O  O223  1  0.032800  0.769400  0.428340  1.0  -0.6007
  O  O224  1  0.695400  0.963370  0.564600  1.0  -0.9463
  O  O225  1  0.920100  0.585300  0.837130  1.0  -0.5679
  O  O226  1  0.032800  0.269400  0.071660  1.0  -0.6003
  O  O227  1  0.920100  0.085300  0.662870  1.0  -0.569
  O  O228  1  0.692000  0.758100  0.508600  1.0  -0.5631
  O  O229  1  0.695400  0.536630  0.064600  1.0  -0.9468
  O  O230  1  0.692000  0.741900  0.008600  1.0  -0.5629
