# generated using pymatgen
data_Sn3P2O9
_symmetry_space_group_name_H-M   'P 1'
_cell_length_a   10.39000000
_cell_length_b   16.08700000
_cell_length_c   18.71700000
_cell_angle_alpha   90.00000000
_cell_angle_beta   90.00000000
_cell_angle_gamma   90.00000000
_symmetry_Int_Tables_number   1
_chemical_formula_structural   Sn3P2O9
_chemical_formula_sum   'Sn24 P16 O72'
_cell_volume   3128.43293781
_cell_formula_units_Z   8
loop_
 _symmetry_equiv_pos_site_id
 _symmetry_equiv_pos_as_xyz
  1  'x, y, z'
loop_
 _atom_site_type_symbol
 _atom_site_label
 _atom_site_symmetry_multiplicity
 _atom_site_fract_x
 _atom_site_fract_y
 _atom_site_fract_z
 _atom_site_occupancy
 _atom_site_charge
  Sn  Sn1  1  0.509500  0.754000  0.152000  1.0  0.8337
  Sn  Sn2  1  0.651800  0.351600  0.064100  1.0  0.9423
  Sn  Sn3  1  0.307400  0.385400  0.067600  1.0  0.9328
  Sn  Sn4  1  0.490500  0.254000  0.348000  1.0  0.8326
  Sn  Sn5  1  0.348200  0.851600  0.435900  1.0  0.9437
  Sn  Sn6  1  0.692600  0.885400  0.432400  1.0  0.9303
  Sn  Sn7  1  0.009500  0.754000  0.348000  1.0  0.832
  Sn  Sn8  1  0.151800  0.351600  0.435900  1.0  0.9419
  Sn  Sn9  1  0.807400  0.385400  0.432400  1.0  0.9327
  Sn  Sn10  1  0.990500  0.254000  0.152000  1.0  0.8342
  Sn  Sn11  1  0.848200  0.851600  0.064100  1.0  0.9433
  Sn  Sn12  1  0.192600  0.885400  0.067600  1.0  0.9304
  Sn  Sn13  1  0.990500  0.246000  0.652000  1.0  0.8337
  Sn  Sn14  1  0.848200  0.648400  0.564100  1.0  0.944
  Sn  Sn15  1  0.192600  0.614600  0.567600  1.0  0.9302
  Sn  Sn16  1  0.009500  0.746000  0.848000  1.0  0.8308
  Sn  Sn17  1  0.151800  0.148400  0.935900  1.0  0.9426
  Sn  Sn18  1  0.807400  0.114600  0.932400  1.0  0.9331
  Sn  Sn19  1  0.490500  0.246000  0.848000  1.0  0.8314
  Sn  Sn20  1  0.348200  0.648400  0.935900  1.0  0.9439
  Sn  Sn21  1  0.692600  0.614600  0.932400  1.0  0.93
  Sn  Sn22  1  0.509500  0.746000  0.652000  1.0  0.8331
  Sn  Sn23  1  0.651800  0.148400  0.564100  1.0  0.9434
  Sn  Sn24  1  0.307400  0.114600  0.567600  1.0  0.9332
  P  P25  1  0.516600  0.552100  0.092800  1.0  1.6168
  P  P26  1  0.250400  0.804900  0.243400  1.0  1.6293
  P  P27  1  0.483400  0.052100  0.407200  1.0  1.6167
  P  P28  1  0.749600  0.304900  0.256600  1.0  1.6286
  P  P29  1  0.016600  0.552100  0.407200  1.0  1.6166
  P  P30  1  0.750400  0.804900  0.256600  1.0  1.6287
  P  P31  1  0.983400  0.052100  0.092800  1.0  1.6169
  P  P32  1  0.249600  0.304900  0.243400  1.0  1.6295
  P  P33  1  0.983400  0.447900  0.592800  1.0  1.6094
  P  P34  1  0.249600  0.195100  0.743400  1.0  1.6294
  P  P35  1  0.016600  0.947900  0.907200  1.0  1.6089
  P  P36  1  0.750400  0.695100  0.756600  1.0  1.6289
  P  P37  1  0.483400  0.447900  0.907200  1.0  1.6092
  P  P38  1  0.749600  0.195100  0.756600  1.0  1.6288
  P  P39  1  0.516600  0.947900  0.592800  1.0  1.6091
  P  P40  1  0.250400  0.695100  0.743400  1.0  1.6299
  O  O41  1  0.339700  0.731500  0.213600  1.0  -0.6287
  O  O42  1  0.112300  0.765200  0.248000  1.0  -0.6378
  O  O43  1  0.537100  0.615700  0.158500  1.0  -0.6099
  O  O44  1  0.470900  0.315700  0.105100  1.0  -0.5707
  O  O45  1  0.626900  0.485000  0.096000  1.0  -0.679
  O  O46  1  0.291600  0.834200  0.318800  1.0  -0.7688
  O  O47  1  0.521800  0.605300  0.021300  1.0  -0.728
  O  O48  1  0.384500  0.508700  0.102700  1.0  -0.6791
  O  O49  1  0.250700  0.882000  0.189900  1.0  -0.6508
  O  O50  1  0.660300  0.231500  0.286400  1.0  -0.6291
  O  O51  1  0.887700  0.265200  0.252000  1.0  -0.637
  O  O52  1  0.462900  0.115700  0.341500  1.0  -0.6097
  O  O53  1  0.529100  0.815700  0.394900  1.0  -0.5708
  O  O54  1  0.373100  0.985000  0.404000  1.0  -0.6777
  O  O55  1  0.708400  0.334200  0.181200  1.0  -0.7684
  O  O56  1  0.478200  0.105300  0.478700  1.0  -0.727
  O  O57  1  0.615500  0.008700  0.397300  1.0  -0.6785
  O  O58  1  0.749300  0.382000  0.310100  1.0  -0.6503
  O  O59  1  0.839700  0.731500  0.286400  1.0  -0.629
  O  O60  1  0.612300  0.765200  0.252000  1.0  -0.6376
  O  O61  1  0.037100  0.615700  0.341500  1.0  -0.6098
  O  O62  1  0.970900  0.315700  0.394900  1.0  -0.5707
  O  O63  1  0.126900  0.485000  0.404000  1.0  -0.6789
  O  O64  1  0.791600  0.834200  0.181200  1.0  -0.7684
  O  O65  1  0.021800  0.605300  0.478700  1.0  -0.7266
  O  O66  1  0.884500  0.508700  0.397300  1.0  -0.6782
  O  O67  1  0.750700  0.882000  0.310100  1.0  -0.6508
  O  O68  1  0.160300  0.231500  0.213600  1.0  -0.6289
  O  O69  1  0.387700  0.265200  0.248000  1.0  -0.6371
  O  O70  1  0.962900  0.115700  0.158500  1.0  -0.6095
  O  O71  1  0.029100  0.815700  0.105100  1.0  -0.5708
  O  O72  1  0.873100  0.985000  0.096000  1.0  -0.678
  O  O73  1  0.208400  0.334200  0.318800  1.0  -0.7688
  O  O74  1  0.978200  0.105300  0.021300  1.0  -0.7283
  O  O75  1  0.115500  0.008700  0.102700  1.0  -0.6791
  O  O76  1  0.249300  0.382000  0.189900  1.0  -0.6504
  O  O77  1  0.160300  0.268500  0.713600  1.0  -0.6279
  O  O78  1  0.387700  0.234800  0.748000  1.0  -0.6366
  O  O79  1  0.962900  0.384300  0.658500  1.0  -0.6096
  O  O80  1  0.029100  0.684300  0.605100  1.0  -0.5698
  O  O81  1  0.873100  0.515000  0.596000  1.0  -0.678
  O  O82  1  0.208400  0.165800  0.818800  1.0  -0.7692
  O  O83  1  0.978200  0.394700  0.521300  1.0  -0.7263
  O  O84  1  0.115500  0.491300  0.602700  1.0  -0.6792
  O  O85  1  0.249300  0.118000  0.689900  1.0  -0.6513
  O  O86  1  0.839700  0.768500  0.786400  1.0  -0.6284
  O  O87  1  0.612300  0.734800  0.752000  1.0  -0.6374
  O  O88  1  0.037100  0.884300  0.841500  1.0  -0.6097
  O  O89  1  0.970900  0.184300  0.894900  1.0  -0.5697
  O  O90  1  0.126900  0.015000  0.904000  1.0  -0.6785
  O  O91  1  0.791600  0.665800  0.681200  1.0  -0.7688
  O  O92  1  0.021800  0.894700  0.978700  1.0  -0.725
  O  O93  1  0.884500  0.991300  0.897300  1.0  -0.6786
  O  O94  1  0.750700  0.618000  0.810100  1.0  -0.6525
  O  O95  1  0.660300  0.268500  0.786400  1.0  -0.6285
  O  O96  1  0.887700  0.234800  0.752000  1.0  -0.6365
  O  O97  1  0.462900  0.384300  0.841500  1.0  -0.6096
  O  O98  1  0.529100  0.684300  0.894900  1.0  -0.5699
  O  O99  1  0.373100  0.515000  0.904000  1.0  -0.6776
  O  O100  1  0.708400  0.165800  0.681200  1.0  -0.7689
  O  O101  1  0.478200  0.394700  0.978700  1.0  -0.7253
  O  O102  1  0.615500  0.491300  0.897300  1.0  -0.6784
  O  O103  1  0.749300  0.118000  0.810100  1.0  -0.6518
  O  O104  1  0.339700  0.768500  0.713600  1.0  -0.6277
  O  O105  1  0.112300  0.734800  0.748000  1.0  -0.6376
  O  O106  1  0.537100  0.884300  0.658500  1.0  -0.6102
  O  O107  1  0.470900  0.184300  0.605100  1.0  -0.5697
  O  O108  1  0.626900  0.015000  0.596000  1.0  -0.679
  O  O109  1  0.291600  0.665800  0.818800  1.0  -0.769
  O  O110  1  0.521800  0.894700  0.521300  1.0  -0.7258
  O  O111  1  0.384500  0.991300  0.602700  1.0  -0.6797
  O  O112  1  0.250700  0.618000  0.689900  1.0  -0.652
