# generated using pymatgen
data_Cu12H40C72N32Cl5
_symmetry_space_group_name_H-M   'P 1'
_cell_length_a   29.03000000
_cell_length_b   29.03000000
_cell_length_c   29.03000000
_cell_angle_alpha   90.00000000
_cell_angle_beta   90.00000000
_cell_angle_gamma   90.00000000
_symmetry_Int_Tables_number   1
_chemical_formula_structural   Cu12H40C72N32Cl5
_chemical_formula_sum   'Cu36 H120 C216 N96 Cl15'
_cell_volume   24464.76832700
_cell_formula_units_Z   3
loop_
 _symmetry_equiv_pos_site_id
 _symmetry_equiv_pos_as_xyz
  1  'x, y, z'
loop_
 _atom_site_type_symbol
 _atom_site_label
 _atom_site_symmetry_multiplicity
 _atom_site_fract_x
 _atom_site_fract_y
 _atom_site_fract_z
 _atom_site_occupancy
 _atom_site_charge
  Cu  Cu1  1  0.401810  0.000000  0.500000  1.0  0.8683
  Cu  Cu2  1  0.598190  0.000000  0.500000  1.0  0.8703
  Cu  Cu3  1  0.500000  0.401810  0.000000  1.0  0.8692
  Cu  Cu4  1  0.500000  0.598190  0.000000  1.0  0.8705
  Cu  Cu5  1  0.000000  0.500000  0.401810  1.0  0.8721
  Cu  Cu6  1  0.000000  0.500000  0.598190  1.0  0.8708
  Cu  Cu7  1  0.000000  0.401810  0.500000  1.0  0.8692
  Cu  Cu8  1  0.000000  0.598190  0.500000  1.0  0.8705
  Cu  Cu9  1  0.401810  0.500000  0.000000  1.0  0.8683
  Cu  Cu10  1  0.598190  0.500000  0.000000  1.0  0.8703
  Cu  Cu11  1  0.500000  0.000000  0.598190  1.0  0.8708
  Cu  Cu12  1  0.500000  0.000000  0.401810  1.0  0.8721
  Cu  Cu13  1  0.215730  0.134600  0.500000  1.0  0.1291
  Cu  Cu14  1  0.784270  0.865400  0.500000  1.0  0.1283
  Cu  Cu15  1  0.784270  0.134600  0.500000  1.0  0.1288
  Cu  Cu16  1  0.215730  0.865400  0.500000  1.0  0.1288
  Cu  Cu17  1  0.500000  0.215730  0.134600  1.0  0.1299
  Cu  Cu18  1  0.500000  0.784270  0.865400  1.0  0.1291
  Cu  Cu19  1  0.500000  0.784270  0.134600  1.0  0.1293
  Cu  Cu20  1  0.500000  0.215730  0.865400  1.0  0.1294
  Cu  Cu21  1  0.134600  0.500000  0.215730  1.0  0.1312
  Cu  Cu22  1  0.865400  0.500000  0.784270  1.0  0.129
  Cu  Cu23  1  0.134600  0.500000  0.784270  1.0  0.1302
  Cu  Cu24  1  0.865400  0.500000  0.215730  1.0  0.1301
  Cu  Cu25  1  0.134600  0.215730  0.500000  1.0  0.1298
  Cu  Cu26  1  0.865400  0.784270  0.500000  1.0  0.1282
  Cu  Cu27  1  0.134600  0.784270  0.500000  1.0  0.1295
  Cu  Cu28  1  0.865400  0.215730  0.500000  1.0  0.1288
  Cu  Cu29  1  0.215730  0.500000  0.865400  1.0  0.1291
  Cu  Cu30  1  0.784270  0.500000  0.134600  1.0  0.1293
  Cu  Cu31  1  0.784270  0.500000  0.865400  1.0  0.1288
  Cu  Cu32  1  0.215730  0.500000  0.134600  1.0  0.1296
  Cu  Cu33  1  0.500000  0.134600  0.784270  1.0  0.1296
  Cu  Cu34  1  0.500000  0.865400  0.215730  1.0  0.13
  Cu  Cu35  1  0.500000  0.134600  0.215730  1.0  0.1304
  Cu  Cu36  1  0.500000  0.865400  0.784270  1.0  0.1294
  H  H37  1  0.346780  0.163030  0.548380  1.0  0.1099
  H  H38  1  0.653220  0.836970  0.548380  1.0  0.1097
  H  H39  1  0.653220  0.163030  0.451620  1.0  0.1094
  H  H40  1  0.346780  0.836970  0.451620  1.0  0.1091
  H  H41  1  0.548380  0.346780  0.163030  1.0  0.111
  H  H42  1  0.548380  0.653220  0.836970  1.0  0.111
  H  H43  1  0.451620  0.653220  0.163030  1.0  0.1107
  H  H44  1  0.451620  0.346780  0.836970  1.0  0.1106
  H  H45  1  0.163030  0.548380  0.346780  1.0  0.1116
  H  H46  1  0.836970  0.548380  0.653220  1.0  0.1112
  H  H47  1  0.163030  0.451620  0.653220  1.0  0.1115
  H  H48  1  0.836970  0.451620  0.346780  1.0  0.1111
  H  H49  1  0.163030  0.346780  0.451620  1.0  0.1105
  H  H50  1  0.836970  0.653220  0.451620  1.0  0.1096
  H  H51  1  0.163030  0.653220  0.548380  1.0  0.1107
  H  H52  1  0.836970  0.346780  0.548380  1.0  0.1103
  H  H53  1  0.346780  0.548380  0.836970  1.0  0.1105
  H  H54  1  0.653220  0.548380  0.163030  1.0  0.1103
  H  H55  1  0.653220  0.451620  0.836970  1.0  0.1094
  H  H56  1  0.346780  0.451620  0.163030  1.0  0.11
  H  H57  1  0.548380  0.163030  0.653220  1.0  0.1121
  H  H58  1  0.548380  0.836970  0.346780  1.0  0.1115
  H  H59  1  0.451620  0.163030  0.346780  1.0  0.1111
  H  H60  1  0.451620  0.836970  0.653220  1.0  0.1109
  H  H61  1  0.653220  0.836970  0.451620  1.0  0.1085
  H  H62  1  0.346780  0.163030  0.451620  1.0  0.1101
  H  H63  1  0.346780  0.836970  0.548380  1.0  0.1097
  H  H64  1  0.653220  0.163030  0.548380  1.0  0.1101
  H  H65  1  0.451620  0.653220  0.836970  1.0  0.1104
  H  H66  1  0.451620  0.346780  0.163030  1.0  0.1107
  H  H67  1  0.548380  0.346780  0.836970  1.0  0.1113
  H  H68  1  0.548380  0.653220  0.163030  1.0  0.1111
  H  H69  1  0.836970  0.451620  0.653220  1.0  0.1109
  H  H70  1  0.163030  0.451620  0.346780  1.0  0.1114
  H  H71  1  0.836970  0.548380  0.346780  1.0  0.1113
  H  H72  1  0.163030  0.548380  0.653220  1.0  0.1119
  H  H73  1  0.836970  0.653220  0.548380  1.0  0.1103
  H  H74  1  0.163030  0.346780  0.548380  1.0  0.1109
  H  H75  1  0.836970  0.346780  0.451620  1.0  0.11
  H  H76  1  0.163030  0.653220  0.451620  1.0  0.11
  H  H77  1  0.653220  0.451620  0.163030  1.0  0.1103
  H  H78  1  0.346780  0.451620  0.836970  1.0  0.1097
  H  H79  1  0.346780  0.548380  0.163030  1.0  0.1101
  H  H80  1  0.653220  0.548380  0.836970  1.0  0.1098
  H  H81  1  0.451620  0.836970  0.346780  1.0  0.1108
  H  H82  1  0.451620  0.163030  0.653220  1.0  0.1112
  H  H83  1  0.548380  0.836970  0.653220  1.0  0.1117
  H  H84  1  0.548380  0.163030  0.346780  1.0  0.1119
  H  H85  1  0.319590  0.235580  0.574080  1.0  0.1389
  H  H86  1  0.680410  0.764420  0.574080  1.0  0.1367
  H  H87  1  0.680410  0.235580  0.425920  1.0  0.1364
  H  H88  1  0.319590  0.764420  0.425920  1.0  0.1379
  H  H89  1  0.574080  0.319590  0.235580  1.0  0.1391
  H  H90  1  0.574080  0.680410  0.764420  1.0  0.1404
  H  H91  1  0.425920  0.680410  0.235580  1.0  0.139
  H  H92  1  0.425920  0.319590  0.764420  1.0  0.1369
  H  H93  1  0.235580  0.574080  0.319590  1.0  0.1385
  H  H94  1  0.764420  0.574080  0.680410  1.0  0.1396
  H  H95  1  0.235580  0.425920  0.680410  1.0  0.1397
  H  H96  1  0.764420  0.425920  0.319590  1.0  0.1416
  H  H97  1  0.235580  0.319590  0.425920  1.0  0.1389
  H  H98  1  0.764420  0.680410  0.425920  1.0  0.1416
  H  H99  1  0.235580  0.680410  0.574080  1.0  0.14
  H  H100  1  0.764420  0.319590  0.574080  1.0  0.1405
  H  H101  1  0.319590  0.574080  0.764420  1.0  0.1391
  H  H102  1  0.680410  0.574080  0.235580  1.0  0.1369
  H  H103  1  0.680410  0.425920  0.764420  1.0  0.1378
  H  H104  1  0.319590  0.425920  0.235580  1.0  0.1412
  H  H105  1  0.574080  0.235580  0.680410  1.0  0.1378
  H  H106  1  0.574080  0.764420  0.319590  1.0  0.1379
  H  H107  1  0.425920  0.235580  0.319590  1.0  0.1367
  H  H108  1  0.425920  0.764420  0.680410  1.0  0.1359
  H  H109  1  0.680410  0.764420  0.425920  1.0  0.1358
  H  H110  1  0.319590  0.235580  0.425920  1.0  0.1386
  H  H111  1  0.319590  0.764420  0.574080  1.0  0.1386
  H  H112  1  0.680410  0.235580  0.574080  1.0  0.1369
  H  H113  1  0.425920  0.680410  0.764420  1.0  0.1383
  H  H114  1  0.425920  0.319590  0.235580  1.0  0.1374
  H  H115  1  0.574080  0.319590  0.764420  1.0  0.1393
  H  H116  1  0.574080  0.680410  0.235580  1.0  0.1404
  H  H117  1  0.764420  0.425920  0.680410  1.0  0.1411
  H  H118  1  0.235580  0.425920  0.319590  1.0  0.1394
  H  H119  1  0.764420  0.574080  0.319590  1.0  0.14
  H  H120  1  0.235580  0.574080  0.680410  1.0  0.1388
  H  H121  1  0.764420  0.680410  0.574080  1.0  0.1418
  H  H122  1  0.235580  0.319590  0.574080  1.0  0.1392
  H  H123  1  0.764420  0.319590  0.425920  1.0  0.1397
  H  H124  1  0.235580  0.680410  0.425920  1.0  0.1404
  H  H125  1  0.680410  0.425920  0.235580  1.0  0.1384
  H  H126  1  0.319590  0.425920  0.764420  1.0  0.1412
  H  H127  1  0.319590  0.574080  0.235580  1.0  0.139
  H  H128  1  0.680410  0.574080  0.764420  1.0  0.1364
  H  H129  1  0.425920  0.764420  0.319590  1.0  0.1363
  H  H130  1  0.425920  0.235580  0.680410  1.0  0.1367
  H  H131  1  0.574080  0.764420  0.680410  1.0  0.1372
  H  H132  1  0.574080  0.235580  0.319590  1.0  0.138
  H  H133  1  0.399190  0.295840  0.704160  1.0  0.1242
  H  H134  1  0.600810  0.704160  0.704160  1.0  0.1239
  H  H135  1  0.600810  0.295840  0.295840  1.0  0.1242
  H  H136  1  0.399190  0.704160  0.295840  1.0  0.1253
  H  H137  1  0.704160  0.399190  0.295840  1.0  0.1247
  H  H138  1  0.704160  0.600810  0.704160  1.0  0.124
  H  H139  1  0.295840  0.600810  0.295840  1.0  0.1247
  H  H140  1  0.295840  0.399190  0.704160  1.0  0.1237
  H  H141  1  0.295840  0.704160  0.399190  1.0  0.1249
  H  H142  1  0.704160  0.704160  0.600810  1.0  0.1248
  H  H143  1  0.295840  0.295840  0.600810  1.0  0.1248
  H  H144  1  0.704160  0.295840  0.399190  1.0  0.125
  H  H145  1  0.295840  0.399190  0.295840  1.0  0.1245
  H  H146  1  0.704160  0.600810  0.295840  1.0  0.1245
  H  H147  1  0.295840  0.600810  0.704160  1.0  0.1241
  H  H148  1  0.704160  0.399190  0.704160  1.0  0.124
  H  H149  1  0.399190  0.704160  0.704160  1.0  0.1242
  H  H150  1  0.600810  0.704160  0.295840  1.0  0.1244
  H  H151  1  0.600810  0.295840  0.704160  1.0  0.1242
  H  H152  1  0.399190  0.295840  0.295840  1.0  0.1245
  H  H153  1  0.704160  0.295840  0.600810  1.0  0.1246
  H  H154  1  0.704160  0.704160  0.399190  1.0  0.125
  H  H155  1  0.295840  0.295840  0.399190  1.0  0.1251
  H  H156  1  0.295840  0.704160  0.600810  1.0  0.125
  C  C157  1  0.364070  0.179040  0.577320  1.0  -0.0928
  C  C158  1  0.635930  0.820960  0.577320  1.0  -0.0925
  C  C159  1  0.635930  0.179040  0.422680  1.0  -0.0931
  C  C160  1  0.364070  0.820960  0.422680  1.0  -0.0931
  C  C161  1  0.577320  0.364070  0.179040  1.0  -0.0951
  C  C162  1  0.577320  0.635930  0.820960  1.0  -0.0959
  C  C163  1  0.422680  0.635930  0.179040  1.0  -0.0947
  C  C164  1  0.422680  0.364070  0.820960  1.0  -0.0938
  C  C165  1  0.179040  0.577320  0.364070  1.0  -0.096
  C  C166  1  0.820960  0.577320  0.635930  1.0  -0.0944
  C  C167  1  0.179040  0.422680  0.635930  1.0  -0.0968
  C  C168  1  0.820960  0.422680  0.364070  1.0  -0.0956
  C  C169  1  0.179040  0.364070  0.422680  1.0  -0.0948
  C  C170  1  0.820960  0.635930  0.422680  1.0  -0.0944
  C  C171  1  0.179040  0.635930  0.577320  1.0  -0.095
  C  C172  1  0.820960  0.364070  0.577320  1.0  -0.0936
  C  C173  1  0.364070  0.577320  0.820960  1.0  -0.0942
  C  C174  1  0.635930  0.577320  0.179040  1.0  -0.0944
  C  C175  1  0.635930  0.422680  0.820960  1.0  -0.0949
  C  C176  1  0.364070  0.422680  0.179040  1.0  -0.0951
  C  C177  1  0.577320  0.179040  0.635930  1.0  -0.0941
  C  C178  1  0.577320  0.820960  0.364070  1.0  -0.0944
  C  C179  1  0.422680  0.179040  0.364070  1.0  -0.0943
  C  C180  1  0.422680  0.820960  0.635930  1.0  -0.0936
  C  C181  1  0.635930  0.820960  0.422680  1.0  -0.0904
  C  C182  1  0.364070  0.179040  0.422680  1.0  -0.0905
  C  C183  1  0.364070  0.820960  0.577320  1.0  -0.0899
  C  C184  1  0.635930  0.179040  0.577320  1.0  -0.0906
  C  C185  1  0.422680  0.635930  0.820960  1.0  -0.092
  C  C186  1  0.422680  0.364070  0.179040  1.0  -0.0919
  C  C187  1  0.577320  0.364070  0.820960  1.0  -0.0923
  C  C188  1  0.577320  0.635930  0.179040  1.0  -0.0937
  C  C189  1  0.820960  0.422680  0.635930  1.0  -0.0927
  C  C190  1  0.179040  0.422680  0.364070  1.0  -0.0943
  C  C191  1  0.820960  0.577320  0.364070  1.0  -0.0923
  C  C192  1  0.179040  0.577320  0.635930  1.0  -0.0929
  C  C193  1  0.820960  0.635930  0.577320  1.0  -0.0912
  C  C194  1  0.179040  0.364070  0.577320  1.0  -0.0921
  C  C195  1  0.820960  0.364070  0.422680  1.0  -0.0913
  C  C196  1  0.179040  0.635930  0.422680  1.0  -0.0933
  C  C197  1  0.635930  0.422680  0.179040  1.0  -0.0927
  C  C198  1  0.364070  0.422680  0.820960  1.0  -0.0929
  C  C199  1  0.364070  0.577320  0.179040  1.0  -0.0921
  C  C200  1  0.635930  0.577320  0.820960  1.0  -0.0918
  C  C201  1  0.422680  0.820960  0.364070  1.0  -0.0913
  C  C202  1  0.422680  0.179040  0.635930  1.0  -0.0913
  C  C203  1  0.577320  0.820960  0.635930  1.0  -0.0925
  C  C204  1  0.577320  0.179040  0.364070  1.0  -0.0924
  C  C205  1  0.348370  0.221770  0.592830  1.0  -0.0756
  C  C206  1  0.651630  0.778230  0.592830  1.0  -0.0767
  C  C207  1  0.651630  0.221770  0.407170  1.0  -0.0774
  C  C208  1  0.348370  0.778230  0.407170  1.0  -0.0765
  C  C209  1  0.592830  0.348370  0.221770  1.0  -0.0753
  C  C210  1  0.592830  0.651630  0.778230  1.0  -0.0778
  C  C211  1  0.407170  0.651630  0.221770  1.0  -0.0778
  C  C212  1  0.407170  0.348370  0.778230  1.0  -0.0759
  C  C213  1  0.221770  0.592830  0.348370  1.0  -0.0758
  C  C214  1  0.778230  0.592830  0.651630  1.0  -0.0755
  C  C215  1  0.221770  0.407170  0.651630  1.0  -0.0761
  C  C216  1  0.778230  0.407170  0.348370  1.0  -0.0773
  C  C217  1  0.221770  0.348370  0.407170  1.0  -0.0759
  C  C218  1  0.778230  0.651630  0.407170  1.0  -0.0792
  C  C219  1  0.221770  0.651630  0.592830  1.0  -0.0765
  C  C220  1  0.778230  0.348370  0.592830  1.0  -0.0758
  C  C221  1  0.348370  0.592830  0.778230  1.0  -0.0756
  C  C222  1  0.651630  0.592830  0.221770  1.0  -0.0765
  C  C223  1  0.651630  0.407170  0.778230  1.0  -0.0773
  C  C224  1  0.348370  0.407170  0.221770  1.0  -0.0774
  C  C225  1  0.592830  0.221770  0.651630  1.0  -0.0756
  C  C226  1  0.592830  0.778230  0.348370  1.0  -0.0765
  C  C227  1  0.407170  0.221770  0.348370  1.0  -0.0766
  C  C228  1  0.407170  0.778230  0.651630  1.0  -0.0754
  C  C229  1  0.651630  0.778230  0.407170  1.0  -0.077
  C  C230  1  0.348370  0.221770  0.407170  1.0  -0.0767
  C  C231  1  0.348370  0.778230  0.592830  1.0  -0.076
  C  C232  1  0.651630  0.221770  0.592830  1.0  -0.0762
  C  C233  1  0.407170  0.651630  0.778230  1.0  -0.0774
  C  C234  1  0.407170  0.348370  0.221770  1.0  -0.0758
  C  C235  1  0.592830  0.348370  0.778230  1.0  -0.0755
  C  C236  1  0.592830  0.651630  0.221770  1.0  -0.0783
  C  C237  1  0.778230  0.407170  0.651630  1.0  -0.0771
  C  C238  1  0.221770  0.407170  0.348370  1.0  -0.0765
  C  C239  1  0.778230  0.592830  0.348370  1.0  -0.0764
  C  C240  1  0.221770  0.592830  0.651630  1.0  -0.0749
  C  C241  1  0.778230  0.651630  0.592830  1.0  -0.0773
  C  C242  1  0.221770  0.348370  0.592830  1.0  -0.0751
  C  C243  1  0.778230  0.348370  0.407170  1.0  -0.0766
  C  C244  1  0.221770  0.651630  0.407170  1.0  -0.0782
  C  C245  1  0.651630  0.407170  0.221770  1.0  -0.0776
  C  C246  1  0.348370  0.407170  0.778230  1.0  -0.0769
  C  C247  1  0.348370  0.592830  0.221770  1.0  -0.0755
  C  C248  1  0.651630  0.592830  0.778230  1.0  -0.0766
  C  C249  1  0.407170  0.778230  0.348370  1.0  -0.0769
  C  C250  1  0.407170  0.221770  0.651630  1.0  -0.0757
  C  C251  1  0.592830  0.778230  0.651630  1.0  -0.0752
  C  C252  1  0.592830  0.221770  0.348370  1.0  -0.0762
  C  C253  1  0.416060  0.110770  0.583940  1.0  0.464
  C  C254  1  0.583940  0.889230  0.583940  1.0  0.4644
  C  C255  1  0.583940  0.110770  0.416060  1.0  0.4646
  C  C256  1  0.416060  0.889230  0.416060  1.0  0.4643
  C  C257  1  0.583940  0.416060  0.110770  1.0  0.4662
  C  C258  1  0.583940  0.583940  0.889230  1.0  0.4668
  C  C259  1  0.416060  0.583940  0.110770  1.0  0.4653
  C  C260  1  0.416060  0.416060  0.889230  1.0  0.4665
  C  C261  1  0.110770  0.583940  0.416060  1.0  0.4605
  C  C262  1  0.889230  0.583940  0.583940  1.0  0.4614
  C  C263  1  0.110770  0.416060  0.583940  1.0  0.4601
  C  C264  1  0.889230  0.416060  0.416060  1.0  0.4623
  C  C265  1  0.110770  0.416060  0.416060  1.0  0.461
  C  C266  1  0.889230  0.583940  0.416060  1.0  0.4618
  C  C267  1  0.110770  0.583940  0.583940  1.0  0.4597
  C  C268  1  0.889230  0.416060  0.583940  1.0  0.4616
  C  C269  1  0.416060  0.583940  0.889230  1.0  0.4662
  C  C270  1  0.583940  0.583940  0.110770  1.0  0.4661
  C  C271  1  0.583940  0.416060  0.889230  1.0  0.4671
  C  C272  1  0.416060  0.416060  0.110770  1.0  0.4655
  C  C273  1  0.583940  0.110770  0.583940  1.0  0.464
  C  C274  1  0.583940  0.889230  0.416060  1.0  0.4651
  C  C275  1  0.416060  0.110770  0.416060  1.0  0.4642
  C  C276  1  0.416060  0.889230  0.583940  1.0  0.4638
  C  C277  1  0.400880  0.156940  0.599120  1.0  -0.0714
  C  C278  1  0.599120  0.843060  0.599120  1.0  -0.0703
  C  C279  1  0.599120  0.156940  0.400880  1.0  -0.0705
  C  C280  1  0.400880  0.843060  0.400880  1.0  -0.0708
  C  C281  1  0.599120  0.400880  0.156940  1.0  -0.0717
  C  C282  1  0.599120  0.599120  0.843060  1.0  -0.0711
  C  C283  1  0.400880  0.599120  0.156940  1.0  -0.0727
  C  C284  1  0.400880  0.400880  0.843060  1.0  -0.0716
  C  C285  1  0.156940  0.599120  0.400880  1.0  -0.071
  C  C286  1  0.843060  0.599120  0.599120  1.0  -0.071
  C  C287  1  0.156940  0.400880  0.599120  1.0  -0.071
  C  C288  1  0.843060  0.400880  0.400880  1.0  -0.0707
  C  C289  1  0.156940  0.400880  0.400880  1.0  -0.0708
  C  C290  1  0.843060  0.599120  0.400880  1.0  -0.0709
  C  C291  1  0.156940  0.599120  0.599120  1.0  -0.0712
  C  C292  1  0.843060  0.400880  0.599120  1.0  -0.0708
  C  C293  1  0.400880  0.599120  0.843060  1.0  -0.0721
  C  C294  1  0.599120  0.599120  0.156940  1.0  -0.072
  C  C295  1  0.599120  0.400880  0.843060  1.0  -0.0707
  C  C296  1  0.400880  0.400880  0.156940  1.0  -0.0724
  C  C297  1  0.599120  0.156940  0.599120  1.0  -0.0707
  C  C298  1  0.599120  0.843060  0.400880  1.0  -0.0702
  C  C299  1  0.400880  0.156940  0.400880  1.0  -0.0712
  C  C300  1  0.400880  0.843060  0.599120  1.0  -0.0708
  C  C301  1  0.368890  0.244290  0.631110  1.0  -0.0102
  C  C302  1  0.631110  0.755710  0.631110  1.0  -0.0109
  C  C303  1  0.631110  0.244290  0.368890  1.0  -0.0104
  C  C304  1  0.368890  0.755710  0.368890  1.0  -0.0104
  C  C305  1  0.631110  0.368890  0.244290  1.0  -0.0109
  C  C306  1  0.631110  0.631110  0.755710  1.0  -0.0107
  C  C307  1  0.368890  0.631110  0.244290  1.0  -0.0106
  C  C308  1  0.368890  0.368890  0.755710  1.0  -0.0104
  C  C309  1  0.244290  0.631110  0.368890  1.0  -0.0104
  C  C310  1  0.755710  0.631110  0.631110  1.0  -0.0101
  C  C311  1  0.244290  0.368890  0.631110  1.0  -0.0106
  C  C312  1  0.755710  0.368890  0.368890  1.0  -0.0098
  C  C313  1  0.244290  0.368890  0.368890  1.0  -0.0104
  C  C314  1  0.755710  0.631110  0.368890  1.0  -0.01
  C  C315  1  0.244290  0.631110  0.631110  1.0  -0.0106
  C  C316  1  0.755710  0.368890  0.631110  1.0  -0.01
  C  C317  1  0.368890  0.631110  0.755710  1.0  -0.0105
  C  C318  1  0.631110  0.631110  0.244290  1.0  -0.0109
  C  C319  1  0.631110  0.368890  0.755710  1.0  -0.0106
  C  C320  1  0.368890  0.368890  0.244290  1.0  -0.0106
  C  C321  1  0.631110  0.244290  0.631110  1.0  -0.0105
  C  C322  1  0.631110  0.755710  0.368890  1.0  -0.0107
  C  C323  1  0.368890  0.244290  0.368890  1.0  -0.0101
  C  C324  1  0.368890  0.755710  0.631110  1.0  -0.0106
  C  C325  1  0.349550  0.289180  0.650450  1.0  -0.02
  C  C326  1  0.650450  0.710820  0.650450  1.0  -0.0201
  C  C327  1  0.650450  0.289180  0.349550  1.0  -0.0203
  C  C328  1  0.349550  0.710820  0.349550  1.0  -0.0201
  C  C329  1  0.650450  0.349550  0.289180  1.0  -0.0203
  C  C330  1  0.650450  0.650450  0.710820  1.0  -0.0206
  C  C331  1  0.349550  0.650450  0.289180  1.0  -0.0202
  C  C332  1  0.349550  0.349550  0.710820  1.0  -0.0205
  C  C333  1  0.289180  0.650450  0.349550  1.0  -0.0205
  C  C334  1  0.710820  0.650450  0.650450  1.0  -0.0198
  C  C335  1  0.289180  0.349550  0.650450  1.0  -0.0204
  C  C336  1  0.710820  0.349550  0.349550  1.0  -0.0196
  C  C337  1  0.289180  0.349550  0.349550  1.0  -0.0206
  C  C338  1  0.710820  0.650450  0.349550  1.0  -0.0197
  C  C339  1  0.289180  0.650450  0.650450  1.0  -0.0205
  C  C340  1  0.710820  0.349550  0.650450  1.0  -0.0195
  C  C341  1  0.349550  0.650450  0.710820  1.0  -0.0204
  C  C342  1  0.650450  0.650450  0.289180  1.0  -0.0205
  C  C343  1  0.650450  0.349550  0.710820  1.0  -0.0207
  C  C344  1  0.349550  0.349550  0.289180  1.0  -0.0201
  C  C345  1  0.650450  0.289180  0.650450  1.0  -0.0203
  C  C346  1  0.650450  0.710820  0.349550  1.0  -0.0204
  C  C347  1  0.349550  0.289180  0.349550  1.0  -0.02
  C  C348  1  0.349550  0.710820  0.650450  1.0  -0.0199
  C  C349  1  0.368900  0.310250  0.689750  1.0  -0.0548
  C  C350  1  0.631100  0.689750  0.689750  1.0  -0.0559
  C  C351  1  0.631100  0.310250  0.310250  1.0  -0.0551
  C  C352  1  0.368900  0.689750  0.310250  1.0  -0.0547
  C  C353  1  0.689750  0.368900  0.310250  1.0  -0.054
  C  C354  1  0.689750  0.631100  0.689750  1.0  -0.0538
  C  C355  1  0.310250  0.631100  0.310250  1.0  -0.0544
  C  C356  1  0.310250  0.368900  0.689750  1.0  -0.0561
  C  C357  1  0.310250  0.689750  0.368900  1.0  -0.0551
  C  C358  1  0.689750  0.689750  0.631100  1.0  -0.0542
  C  C359  1  0.310250  0.310250  0.631100  1.0  -0.055
  C  C360  1  0.689750  0.310250  0.368900  1.0  -0.0535
  C  C361  1  0.310250  0.368900  0.310250  1.0  -0.0554
  C  C362  1  0.689750  0.631100  0.310250  1.0  -0.0534
  C  C363  1  0.310250  0.631100  0.689750  1.0  -0.0548
  C  C364  1  0.689750  0.368900  0.689750  1.0  -0.0546
  C  C365  1  0.368900  0.689750  0.689750  1.0  -0.0552
  C  C366  1  0.631100  0.689750  0.310250  1.0  -0.0555
  C  C367  1  0.631100  0.310250  0.689750  1.0  -0.0556
  C  C368  1  0.368900  0.310250  0.310250  1.0  -0.0544
  C  C369  1  0.689750  0.310250  0.631100  1.0  -0.054
  C  C370  1  0.689750  0.689750  0.368900  1.0  -0.0538
  C  C371  1  0.310250  0.310250  0.368900  1.0  -0.0547
  C  C372  1  0.310250  0.689750  0.631100  1.0  -0.0552
  N  N373  1  0.419980  0.046720  0.546070  1.0  -0.1873
  N  N374  1  0.580020  0.953280  0.546070  1.0  -0.1878
  N  N375  1  0.580020  0.046720  0.453930  1.0  -0.188
  N  N376  1  0.419980  0.953280  0.453930  1.0  -0.1883
  N  N377  1  0.546070  0.419980  0.046720  1.0  -0.1873
  N  N378  1  0.546070  0.580020  0.953280  1.0  -0.1882
  N  N379  1  0.453930  0.580020  0.046720  1.0  -0.1901
  N  N380  1  0.453930  0.419980  0.953280  1.0  -0.1888
  N  N381  1  0.046720  0.546070  0.419980  1.0  -0.1889
  N  N382  1  0.953280  0.546070  0.580020  1.0  -0.1888
  N  N383  1  0.046720  0.453930  0.580020  1.0  -0.1884
  N  N384  1  0.953280  0.453930  0.419980  1.0  -0.191
  N  N385  1  0.046720  0.419980  0.453930  1.0  -0.1889
  N  N386  1  0.953280  0.580020  0.453930  1.0  -0.1909
  N  N387  1  0.046720  0.580020  0.546070  1.0  -0.1885
  N  N388  1  0.953280  0.419980  0.546070  1.0  -0.1893
  N  N389  1  0.419980  0.546070  0.953280  1.0  -0.1873
  N  N390  1  0.580020  0.546070  0.046720  1.0  -0.187
  N  N391  1  0.580020  0.453930  0.953280  1.0  -0.1883
  N  N392  1  0.419980  0.453930  0.046720  1.0  -0.1878
  N  N393  1  0.546070  0.046720  0.580020  1.0  -0.1868
  N  N394  1  0.546070  0.953280  0.419980  1.0  -0.1892
  N  N395  1  0.453930  0.046720  0.419980  1.0  -0.1891
  N  N396  1  0.453930  0.953280  0.580020  1.0  -0.1891
  N  N397  1  0.580020  0.953280  0.453930  1.0  -0.189
  N  N398  1  0.419980  0.046720  0.453930  1.0  -0.1875
  N  N399  1  0.419980  0.953280  0.546070  1.0  -0.188
  N  N400  1  0.580020  0.046720  0.546070  1.0  -0.1869
  N  N401  1  0.453930  0.580020  0.953280  1.0  -0.1898
  N  N402  1  0.453930  0.419980  0.046720  1.0  -0.1888
  N  N403  1  0.546070  0.419980  0.953280  1.0  -0.1876
  N  N404  1  0.546070  0.580020  0.046720  1.0  -0.188
  N  N405  1  0.953280  0.453930  0.580020  1.0  -0.1894
  N  N406  1  0.046720  0.453930  0.419980  1.0  -0.19
  N  N407  1  0.953280  0.546070  0.419980  1.0  -0.1899
  N  N408  1  0.046720  0.546070  0.580020  1.0  -0.1877
  N  N409  1  0.953280  0.580020  0.546070  1.0  -0.1904
  N  N410  1  0.046720  0.419980  0.546070  1.0  -0.1877
  N  N411  1  0.953280  0.419980  0.453930  1.0  -0.1901
  N  N412  1  0.046720  0.580020  0.453930  1.0  -0.1894
  N  N413  1  0.580020  0.453930  0.046720  1.0  -0.1876
  N  N414  1  0.419980  0.453930  0.953280  1.0  -0.188
  N  N415  1  0.419980  0.546070  0.046720  1.0  -0.1872
  N  N416  1  0.580020  0.546070  0.953280  1.0  -0.1876
  N  N417  1  0.453930  0.953280  0.419980  1.0  -0.1899
  N  N418  1  0.453930  0.046720  0.580020  1.0  -0.1879
  N  N419  1  0.546070  0.953280  0.580020  1.0  -0.1878
  N  N420  1  0.546070  0.046720  0.419980  1.0  -0.1884
  N  N421  1  0.396690  0.088530  0.550310  1.0  -0.2681
  N  N422  1  0.603310  0.911470  0.550310  1.0  -0.2699
  N  N423  1  0.603310  0.088530  0.449690  1.0  -0.2692
  N  N424  1  0.396690  0.911470  0.449690  1.0  -0.2693
  N  N425  1  0.550310  0.396690  0.088530  1.0  -0.2685
  N  N426  1  0.550310  0.603310  0.911470  1.0  -0.2669
  N  N427  1  0.449690  0.603310  0.088530  1.0  -0.2684
  N  N428  1  0.449690  0.396690  0.911470  1.0  -0.269
  N  N429  1  0.088530  0.550310  0.396690  1.0  -0.2701
  N  N430  1  0.911470  0.550310  0.603310  1.0  -0.2669
  N  N431  1  0.088530  0.449690  0.603310  1.0  -0.2671
  N  N432  1  0.911470  0.449690  0.396690  1.0  -0.2694
  N  N433  1  0.088530  0.396690  0.449690  1.0  -0.269
  N  N434  1  0.911470  0.603310  0.449690  1.0  -0.2673
  N  N435  1  0.088530  0.603310  0.550310  1.0  -0.267
  N  N436  1  0.911470  0.396690  0.550310  1.0  -0.2683
  N  N437  1  0.396690  0.550310  0.911470  1.0  -0.2691
  N  N438  1  0.603310  0.550310  0.088530  1.0  -0.2691
  N  N439  1  0.603310  0.449690  0.911470  1.0  -0.269
  N  N440  1  0.396690  0.449690  0.088530  1.0  -0.2694
  N  N441  1  0.550310  0.088530  0.603310  1.0  -0.2664
  N  N442  1  0.550310  0.911470  0.396690  1.0  -0.2698
  N  N443  1  0.449690  0.088530  0.396690  1.0  -0.2706
  N  N444  1  0.449690  0.911470  0.603310  1.0  -0.2682
  N  N445  1  0.603310  0.911470  0.449690  1.0  -0.2696
  N  N446  1  0.396690  0.088530  0.449690  1.0  -0.2693
  N  N447  1  0.396690  0.911470  0.550310  1.0  -0.2684
  N  N448  1  0.603310  0.088530  0.550310  1.0  -0.2695
  N  N449  1  0.449690  0.603310  0.911470  1.0  -0.2685
  N  N450  1  0.449690  0.396690  0.088530  1.0  -0.2691
  N  N451  1  0.550310  0.396690  0.911470  1.0  -0.2687
  N  N452  1  0.550310  0.603310  0.088530  1.0  -0.2671
  N  N453  1  0.911470  0.449690  0.603310  1.0  -0.2672
  N  N454  1  0.088530  0.449690  0.396690  1.0  -0.2699
  N  N455  1  0.911470  0.550310  0.396690  1.0  -0.27
  N  N456  1  0.088530  0.550310  0.603310  1.0  -0.2672
  N  N457  1  0.911470  0.603310  0.550310  1.0  -0.2673
  N  N458  1  0.088530  0.396690  0.550310  1.0  -0.2687
  N  N459  1  0.911470  0.396690  0.449690  1.0  -0.2693
  N  N460  1  0.088530  0.603310  0.449690  1.0  -0.2675
  N  N461  1  0.603310  0.449690  0.088530  1.0  -0.2691
  N  N462  1  0.396690  0.449690  0.911470  1.0  -0.2692
  N  N463  1  0.396690  0.550310  0.088530  1.0  -0.2696
  N  N464  1  0.603310  0.550310  0.911470  1.0  -0.2697
  N  N465  1  0.449690  0.911470  0.396690  1.0  -0.2713
  N  N466  1  0.449690  0.088530  0.603310  1.0  -0.2678
  N  N467  1  0.550310  0.911470  0.603310  1.0  -0.2673
  N  N468  1  0.550310  0.088530  0.396690  1.0  -0.2696
  Cl  Cl469  1  0.324430  0.000000  0.500000  1.0  -0.439
  Cl  Cl470  1  0.675570  0.000000  0.500000  1.0  -0.4378
  Cl  Cl471  1  0.500000  0.324430  0.000000  1.0  -0.4384
  Cl  Cl472  1  0.500000  0.675570  0.000000  1.0  -0.439
  Cl  Cl473  1  0.000000  0.500000  0.324430  1.0  -0.439
  Cl  Cl474  1  0.000000  0.500000  0.675570  1.0  -0.4389
  Cl  Cl475  1  0.000000  0.324430  0.500000  1.0  -0.4384
  Cl  Cl476  1  0.000000  0.675570  0.500000  1.0  -0.439
  Cl  Cl477  1  0.324430  0.500000  0.000000  1.0  -0.439
  Cl  Cl478  1  0.675570  0.500000  0.000000  1.0  -0.4378
  Cl  Cl479  1  0.500000  0.000000  0.675570  1.0  -0.4389
  Cl  Cl480  1  0.500000  0.000000  0.324430  1.0  -0.439
  Cl  Cl481  1  0.500000  0.000000  0.500000  1.0  -0.1733
  Cl  Cl482  1  0.500000  0.500000  0.000000  1.0  -0.1733
  Cl  Cl483  1  0.000000  0.500000  0.500000  1.0  -0.1733
