# generated using pymatgen
data_Mn4H32C64N40ClO4
_symmetry_space_group_name_H-M   'P 1'
_cell_length_a   25.23170000
_cell_length_b   25.23170000
_cell_length_c   25.23170000
_cell_angle_alpha   109.47120000
_cell_angle_beta   109.47120000
_cell_angle_gamma   109.47120000
_symmetry_Int_Tables_number   1
_chemical_formula_structural   Mn4H32C64N40ClO4
_chemical_formula_sum   'Mn12 H96 C192 N120 Cl3 O12'
_cell_volume   12365.67927251
_cell_formula_units_Z   3
loop_
 _symmetry_equiv_pos_site_id
 _symmetry_equiv_pos_as_xyz
  1  'x, y, z'
loop_
 _atom_site_type_symbol
 _atom_site_label
 _atom_site_symmetry_multiplicity
 _atom_site_fract_x
 _atom_site_fract_y
 _atom_site_fract_z
 _atom_site_occupancy
 _atom_site_charge
  Mn  Mn1  1  0.094200  0.594200  0.500000  1.0  1.0802
  Mn  Mn2  1  0.905800  0.405800  0.500000  1.0  1.0821
  Mn  Mn3  1  0.500000  0.094200  0.594200  1.0  1.0823
  Mn  Mn4  1  0.500000  0.905800  0.405800  1.0  1.0801
  Mn  Mn5  1  0.594200  0.500000  0.094200  1.0  1.0814
  Mn  Mn6  1  0.405800  0.500000  0.905800  1.0  1.0805
  Mn  Mn7  1  0.405800  0.905800  0.500000  1.0  1.0821
  Mn  Mn8  1  0.594200  0.094200  0.500000  1.0  1.0802
  Mn  Mn9  1  0.094200  0.500000  0.594200  1.0  1.0814
  Mn  Mn10  1  0.905800  0.500000  0.405800  1.0  1.0805
  Mn  Mn11  1  0.500000  0.594200  0.094200  1.0  1.0823
  Mn  Mn12  1  0.500000  0.405800  0.905800  1.0  1.0801
  H  H13  1  0.270900  0.446600  0.542900  1.0  0.1113
  H  H14  1  0.346900  0.425600  0.524300  1.0  0.1232
  H  H15  1  0.903700  0.728000  0.457100  1.0  0.1129
  H  H16  1  0.901300  0.822600  0.475700  1.0  0.124
  H  H17  1  0.096300  0.553400  0.824300  1.0  0.1122
  H  H18  1  0.098700  0.574400  0.921300  1.0  0.1229
  H  H19  1  0.729100  0.272000  0.175700  1.0  0.1123
  H  H20  1  0.653100  0.177400  0.078700  1.0  0.123
  H  H21  1  0.542900  0.270900  0.446600  1.0  0.1127
  H  H22  1  0.524300  0.346900  0.425600  1.0  0.1239
  H  H23  1  0.457100  0.903700  0.728000  1.0  0.1121
  H  H24  1  0.475700  0.901300  0.822600  1.0  0.1239
  H  H25  1  0.824300  0.096300  0.553400  1.0  0.1114
  H  H26  1  0.921300  0.098700  0.574400  1.0  0.1216
  H  H27  1  0.175700  0.729100  0.272000  1.0  0.1126
  H  H28  1  0.078700  0.653100  0.177400  1.0  0.1254
  H  H29  1  0.446600  0.542900  0.270900  1.0  0.1127
  H  H30  1  0.425600  0.524300  0.346900  1.0  0.1248
  H  H31  1  0.728000  0.457100  0.903700  1.0  0.1128
  H  H32  1  0.822600  0.475700  0.901300  1.0  0.1211
  H  H33  1  0.553400  0.824300  0.096300  1.0  0.1107
  H  H34  1  0.574400  0.921300  0.098700  1.0  0.1209
  H  H35  1  0.272000  0.175700  0.729100  1.0  0.1137
  H  H36  1  0.177400  0.078700  0.653100  1.0  0.1231
  H  H37  1  0.272000  0.096300  0.542900  1.0  0.1131
  H  H38  1  0.177400  0.098700  0.524300  1.0  0.1241
  H  H39  1  0.553400  0.729100  0.457100  1.0  0.1116
  H  H40  1  0.574400  0.653100  0.475700  1.0  0.1242
  H  H41  1  0.728000  0.270900  0.824300  1.0  0.1136
  H  H42  1  0.822600  0.346900  0.921300  1.0  0.1243
  H  H43  1  0.446600  0.903700  0.175700  1.0  0.1101
  H  H44  1  0.425600  0.901300  0.078700  1.0  0.1207
  H  H45  1  0.903700  0.175700  0.446600  1.0  0.1124
  H  H46  1  0.901300  0.078700  0.425600  1.0  0.1217
  H  H47  1  0.270900  0.824300  0.728000  1.0  0.1131
  H  H48  1  0.346900  0.921300  0.822600  1.0  0.1229
  H  H49  1  0.729100  0.457100  0.553400  1.0  0.1122
  H  H50  1  0.653100  0.475700  0.574400  1.0  0.1205
  H  H51  1  0.096300  0.542900  0.272000  1.0  0.1136
  H  H52  1  0.098700  0.524300  0.177400  1.0  0.1244
  H  H53  1  0.824300  0.728000  0.270900  1.0  0.1133
  H  H54  1  0.921300  0.822600  0.346900  1.0  0.1238
  H  H55  1  0.175700  0.446600  0.903700  1.0  0.1105
  H  H56  1  0.078700  0.425600  0.901300  1.0  0.1207
  H  H57  1  0.542900  0.272000  0.096300  1.0  0.1124
  H  H58  1  0.524300  0.177400  0.098700  1.0  0.1228
  H  H59  1  0.457100  0.553400  0.729100  1.0  0.1126
  H  H60  1  0.475700  0.574400  0.653100  1.0  0.1243
  H  H61  1  0.729100  0.553400  0.457100  1.0  0.1113
  H  H62  1  0.653100  0.574400  0.475700  1.0  0.1226
  H  H63  1  0.096300  0.272000  0.542900  1.0  0.1131
  H  H64  1  0.098700  0.177400  0.524300  1.0  0.1238
  H  H65  1  0.903700  0.446600  0.175700  1.0  0.112
  H  H66  1  0.901300  0.425600  0.078700  1.0  0.1219
  H  H67  1  0.270900  0.728000  0.824300  1.0  0.1126
  H  H68  1  0.346900  0.822600  0.921300  1.0  0.1228
  H  H69  1  0.457100  0.729100  0.553400  1.0  0.1122
  H  H70  1  0.475700  0.653100  0.574400  1.0  0.125
  H  H71  1  0.542900  0.096300  0.272000  1.0  0.1121
  H  H72  1  0.524300  0.098700  0.177400  1.0  0.1234
  H  H73  1  0.175700  0.903700  0.446600  1.0  0.1116
  H  H74  1  0.078700  0.901300  0.425600  1.0  0.1219
  H  H75  1  0.824300  0.270900  0.728000  1.0  0.1131
  H  H76  1  0.921300  0.346900  0.822600  1.0  0.1244
  H  H77  1  0.553400  0.457100  0.729100  1.0  0.1128
  H  H78  1  0.574400  0.475700  0.653100  1.0  0.1243
  H  H79  1  0.272000  0.542900  0.096300  1.0  0.1129
  H  H80  1  0.177400  0.524300  0.098700  1.0  0.1205
  H  H81  1  0.446600  0.175700  0.903700  1.0  0.1113
  H  H82  1  0.425600  0.078700  0.901300  1.0  0.1214
  H  H83  1  0.728000  0.824300  0.270900  1.0  0.114
  H  H84  1  0.822600  0.921300  0.346900  1.0  0.1233
  H  H85  1  0.728000  0.903700  0.457100  1.0  0.1128
  H  H86  1  0.822600  0.901300  0.475700  1.0  0.1231
  H  H87  1  0.446600  0.270900  0.542900  1.0  0.1118
  H  H88  1  0.425600  0.346900  0.524300  1.0  0.1252
  H  H89  1  0.272000  0.729100  0.175700  1.0  0.1138
  H  H90  1  0.177400  0.653100  0.078700  1.0  0.1235
  H  H91  1  0.553400  0.096300  0.824300  1.0  0.1104
  H  H92  1  0.574400  0.098700  0.921300  1.0  0.1217
  H  H93  1  0.096300  0.824300  0.553400  1.0  0.1116
  H  H94  1  0.098700  0.921300  0.574400  1.0  0.1217
  H  H95  1  0.729100  0.175700  0.272000  1.0  0.1129
  H  H96  1  0.653100  0.078700  0.177400  1.0  0.1223
  H  H97  1  0.270900  0.542900  0.446600  1.0  0.1117
  H  H98  1  0.346900  0.524300  0.425600  1.0  0.121
  H  H99  1  0.903700  0.457100  0.728000  1.0  0.1132
  H  H100  1  0.901300  0.475700  0.822600  1.0  0.1248
  H  H101  1  0.175700  0.272000  0.729100  1.0  0.1139
  H  H102  1  0.078700  0.177400  0.653100  1.0  0.1236
  H  H103  1  0.824300  0.553400  0.096300  1.0  0.1098
  H  H104  1  0.921300  0.574400  0.098700  1.0  0.1209
  H  H105  1  0.457100  0.728000  0.903700  1.0  0.1122
  H  H106  1  0.475700  0.822600  0.901300  1.0  0.1232
  H  H107  1  0.542900  0.446600  0.270900  1.0  0.113
  H  H108  1  0.524300  0.425600  0.346900  1.0  0.1247
  C  C109  1  0.285900  0.461700  0.518000  1.0  -0.0384
  C  C110  1  0.331300  0.448900  0.507000  1.0  -0.1211
  C  C111  1  0.943700  0.767900  0.482000  1.0  -0.031
  C  C112  1  0.941900  0.824300  0.493000  1.0  -0.1228
  C  C113  1  0.056300  0.538300  0.824200  1.0  -0.0344
  C  C114  1  0.058100  0.551100  0.882400  1.0  -0.1166
  C  C115  1  0.714100  0.232100  0.175800  1.0  -0.0344
  C  C116  1  0.668700  0.175700  0.117600  1.0  -0.1223
  C  C117  1  0.518000  0.285900  0.461700  1.0  -0.0376
  C  C118  1  0.507000  0.331300  0.448900  1.0  -0.1219
  C  C119  1  0.482000  0.943700  0.767900  1.0  -0.0331
  C  C120  1  0.493000  0.941900  0.824300  1.0  -0.1171
  C  C121  1  0.824200  0.056300  0.538300  1.0  -0.0372
  C  C122  1  0.882400  0.058100  0.551100  1.0  -0.1211
  C  C123  1  0.175800  0.714100  0.232100  1.0  -0.0341
  C  C124  1  0.117600  0.668700  0.175700  1.0  -0.1251
  C  C125  1  0.461700  0.518000  0.285900  1.0  -0.0348
  C  C126  1  0.448900  0.507000  0.331300  1.0  -0.1155
  C  C127  1  0.767900  0.482000  0.943700  1.0  -0.0317
  C  C128  1  0.824300  0.493000  0.941900  1.0  -0.1184
  C  C129  1  0.538300  0.824200  0.056300  1.0  -0.0356
  C  C130  1  0.551100  0.882400  0.058100  1.0  -0.1169
  C  C131  1  0.232100  0.175800  0.714100  1.0  -0.0302
  C  C132  1  0.175700  0.117600  0.668700  1.0  -0.121
  C  C133  1  0.232100  0.056300  0.518000  1.0  -0.0321
  C  C134  1  0.175700  0.058100  0.507000  1.0  -0.1235
  C  C135  1  0.538300  0.714100  0.482000  1.0  -0.038
  C  C136  1  0.551100  0.668700  0.493000  1.0  -0.1224
  C  C137  1  0.767900  0.285900  0.824200  1.0  -0.0332
  C  C138  1  0.824300  0.331300  0.882400  1.0  -0.1241
  C  C139  1  0.461700  0.943700  0.175800  1.0  -0.036
  C  C140  1  0.448900  0.941900  0.117600  1.0  -0.1159
  C  C141  1  0.943700  0.175800  0.461700  1.0  -0.0335
  C  C142  1  0.941900  0.117600  0.448900  1.0  -0.1181
  C  C143  1  0.285900  0.824200  0.767900  1.0  -0.0319
  C  C144  1  0.331300  0.882400  0.824300  1.0  -0.1205
  C  C145  1  0.714100  0.482000  0.538300  1.0  -0.036
  C  C146  1  0.668700  0.493000  0.551100  1.0  -0.1163
  C  C147  1  0.056300  0.518000  0.232100  1.0  -0.0307
  C  C148  1  0.058100  0.507000  0.175700  1.0  -0.1171
  C  C149  1  0.824200  0.767900  0.285900  1.0  -0.0324
  C  C150  1  0.882400  0.824300  0.331300  1.0  -0.1235
  C  C151  1  0.175800  0.461700  0.943700  1.0  -0.0355
  C  C152  1  0.117600  0.448900  0.941900  1.0  -0.1192
  C  C153  1  0.518000  0.232100  0.056300  1.0  -0.0349
  C  C154  1  0.507000  0.175700  0.058100  1.0  -0.1219
  C  C155  1  0.482000  0.538300  0.714100  1.0  -0.0372
  C  C156  1  0.493000  0.551100  0.668700  1.0  -0.1181
  C  C157  1  0.714100  0.538300  0.482000  1.0  -0.0387
  C  C158  1  0.668700  0.551100  0.493000  1.0  -0.1176
  C  C159  1  0.056300  0.232100  0.518000  1.0  -0.0327
  C  C160  1  0.058100  0.175700  0.507000  1.0  -0.1193
  C  C161  1  0.943700  0.461700  0.175800  1.0  -0.0352
  C  C162  1  0.941900  0.448900  0.117600  1.0  -0.1133
  C  C163  1  0.285900  0.767900  0.824200  1.0  -0.0351
  C  C164  1  0.331300  0.824300  0.882400  1.0  -0.1206
  C  C165  1  0.482000  0.714100  0.538300  1.0  -0.0399
  C  C166  1  0.493000  0.668700  0.551100  1.0  -0.1207
  C  C167  1  0.518000  0.056300  0.232100  1.0  -0.0349
  C  C168  1  0.507000  0.058100  0.175700  1.0  -0.1152
  C  C169  1  0.175800  0.943700  0.461700  1.0  -0.0366
  C  C170  1  0.117600  0.941900  0.448900  1.0  -0.1194
  C  C171  1  0.824200  0.285900  0.767900  1.0  -0.0344
  C  C172  1  0.882400  0.331300  0.824300  1.0  -0.1205
  C  C173  1  0.538300  0.482000  0.714100  1.0  -0.0363
  C  C174  1  0.551100  0.493000  0.668700  1.0  -0.1142
  C  C175  1  0.232100  0.518000  0.056300  1.0  -0.032
  C  C176  1  0.175700  0.507000  0.058100  1.0  -0.1152
  C  C177  1  0.461700  0.175800  0.943700  1.0  -0.0361
  C  C178  1  0.448900  0.117600  0.941900  1.0  -0.1122
  C  C179  1  0.767900  0.824200  0.285900  1.0  -0.031
  C  C180  1  0.824300  0.882400  0.331300  1.0  -0.1209
  C  C181  1  0.767900  0.943700  0.482000  1.0  -0.0338
  C  C182  1  0.824300  0.941900  0.493000  1.0  -0.12
  C  C183  1  0.461700  0.285900  0.518000  1.0  -0.0388
  C  C184  1  0.448900  0.331300  0.507000  1.0  -0.1189
  C  C185  1  0.232100  0.714100  0.175800  1.0  -0.0345
  C  C186  1  0.175700  0.668700  0.117600  1.0  -0.1224
  C  C187  1  0.538300  0.056300  0.824200  1.0  -0.0369
  C  C188  1  0.551100  0.058100  0.882400  1.0  -0.113
  C  C189  1  0.056300  0.824200  0.538300  1.0  -0.035
  C  C190  1  0.058100  0.882400  0.551100  1.0  -0.1163
  C  C191  1  0.714100  0.175800  0.232100  1.0  -0.0338
  C  C192  1  0.668700  0.117600  0.175700  1.0  -0.1172
  C  C193  1  0.285900  0.518000  0.461700  1.0  -0.0375
  C  C194  1  0.331300  0.507000  0.448900  1.0  -0.1143
  C  C195  1  0.943700  0.482000  0.767900  1.0  -0.0314
  C  C196  1  0.941900  0.493000  0.824300  1.0  -0.1123
  C  C197  1  0.175800  0.232100  0.714100  1.0  -0.0328
  C  C198  1  0.117600  0.175700  0.668700  1.0  -0.1225
  C  C199  1  0.824200  0.538300  0.056300  1.0  -0.0384
  C  C200  1  0.882400  0.551100  0.058100  1.0  -0.1177
  C  C201  1  0.482000  0.767900  0.943700  1.0  -0.0355
  C  C202  1  0.493000  0.824300  0.941900  1.0  -0.1194
  C  C203  1  0.518000  0.461700  0.285900  1.0  -0.0363
  C  C204  1  0.507000  0.448900  0.331300  1.0  -0.1162
  C  C205  1  0.211800  0.505200  0.505200  1.0  0.3849
  C  C206  1  0.261400  0.495000  0.495000  1.0  -0.0516
  C  C207  1  0.355000  0.470100  0.470100  1.0  -0.0797
  C  C208  1  0.397200  0.452400  0.452400  1.0  0.4137
  C  C209  1  0.000000  0.706600  0.494800  1.0  0.387
  C  C210  1  0.000000  0.766400  0.505000  1.0  -0.0557
  C  C211  1  0.000000  0.884900  0.529900  1.0  -0.0802
  C  C212  1  0.000000  0.944800  0.547600  1.0  0.4194
  C  C213  1  0.000000  0.494800  0.706600  1.0  0.3883
  C  C214  1  0.000000  0.505000  0.766400  1.0  -0.0542
  C  C215  1  0.000000  0.529900  0.884900  1.0  -0.0778
  C  C216  1  0.000000  0.547600  0.944800  1.0  0.4142
  C  C217  1  0.788200  0.293400  0.293400  1.0  0.3872
  C  C218  1  0.738600  0.233600  0.233600  1.0  -0.0577
  C  C219  1  0.645000  0.115100  0.115100  1.0  -0.0907
  C  C220  1  0.602800  0.055200  0.055200  1.0  0.4171
  C  C221  1  0.505200  0.211800  0.505200  1.0  0.3851
  C  C222  1  0.495000  0.261400  0.495000  1.0  -0.0541
  C  C223  1  0.470100  0.355000  0.470100  1.0  -0.0793
  C  C224  1  0.452400  0.397200  0.452400  1.0  0.4138
  C  C225  1  0.494800  0.000000  0.706600  1.0  0.3884
  C  C226  1  0.505000  0.000000  0.766400  1.0  -0.054
  C  C227  1  0.529900  0.000000  0.884900  1.0  -0.0797
  C  C228  1  0.547600  0.000000  0.944800  1.0  0.4139
  C  C229  1  0.706600  0.000000  0.494800  1.0  0.3867
  C  C230  1  0.766400  0.000000  0.505000  1.0  -0.0553
  C  C231  1  0.884900  0.000000  0.529900  1.0  -0.08
  C  C232  1  0.944800  0.000000  0.547600  1.0  0.4169
  C  C233  1  0.293400  0.788200  0.293400  1.0  0.3873
  C  C234  1  0.233600  0.738600  0.233600  1.0  -0.0571
  C  C235  1  0.115100  0.645000  0.115100  1.0  -0.0874
  C  C236  1  0.055200  0.602800  0.055200  1.0  0.4175
  C  C237  1  0.505200  0.505200  0.211800  1.0  0.3855
  C  C238  1  0.495000  0.495000  0.261400  1.0  -0.051
  C  C239  1  0.470100  0.470100  0.355000  1.0  -0.0809
  C  C240  1  0.452400  0.452400  0.397200  1.0  0.4125
  C  C241  1  0.706600  0.494800  0.000000  1.0  0.3879
  C  C242  1  0.766400  0.505000  0.000000  1.0  -0.0557
  C  C243  1  0.884900  0.529900  0.000000  1.0  -0.0767
  C  C244  1  0.944800  0.547600  0.000000  1.0  0.4157
  C  C245  1  0.494800  0.706600  0.000000  1.0  0.3873
  C  C246  1  0.505000  0.766400  0.000000  1.0  -0.0567
  C  C247  1  0.529900  0.884900  0.000000  1.0  -0.0778
  C  C248  1  0.547600  0.944800  0.000000  1.0  0.4148
  C  C249  1  0.293400  0.293400  0.788200  1.0  0.3876
  C  C250  1  0.233600  0.233600  0.738600  1.0  -0.0561
  C  C251  1  0.115100  0.115100  0.645000  1.0  -0.0907
  C  C252  1  0.055200  0.055200  0.602800  1.0  0.4219
  C  C253  1  0.293400  0.000000  0.505200  1.0  0.3856
  C  C254  1  0.233600  0.000000  0.495000  1.0  -0.0519
  C  C255  1  0.115100  0.000000  0.470100  1.0  -0.0807
  C  C256  1  0.055200  0.000000  0.452400  1.0  0.4141
  C  C257  1  0.494800  0.788200  0.494800  1.0  0.384
  C  C258  1  0.505000  0.738600  0.505000  1.0  -0.0519
  C  C259  1  0.529900  0.645000  0.529900  1.0  -0.0799
  C  C260  1  0.547600  0.602800  0.547600  1.0  0.4117
  C  C261  1  0.706600  0.211800  0.706600  1.0  0.3894
  C  C262  1  0.766400  0.261400  0.766400  1.0  -0.0589
  C  C263  1  0.884900  0.355000  0.884900  1.0  -0.0918
  C  C264  1  0.944800  0.397200  0.944800  1.0  0.4184
  C  C265  1  0.505200  0.000000  0.293400  1.0  0.3882
  C  C266  1  0.495000  0.000000  0.233600  1.0  -0.0555
  C  C267  1  0.470100  0.000000  0.115100  1.0  -0.08
  C  C268  1  0.452400  0.000000  0.055200  1.0  0.4142
  C  C269  1  0.000000  0.293400  0.505200  1.0  0.3866
  C  C270  1  0.000000  0.233600  0.495000  1.0  -0.0573
  C  C271  1  0.000000  0.115100  0.470100  1.0  -0.079
  C  C272  1  0.000000  0.055200  0.452400  1.0  0.416
  C  C273  1  0.211800  0.706600  0.706600  1.0  0.3883
  C  C274  1  0.261400  0.766400  0.766400  1.0  -0.0598
  C  C275  1  0.355000  0.884900  0.884900  1.0  -0.0885
  C  C276  1  0.397200  0.944800  0.944800  1.0  0.4176
  C  C277  1  0.788200  0.494800  0.494800  1.0  0.3847
  C  C278  1  0.738600  0.505000  0.505000  1.0  -0.0502
  C  C279  1  0.645000  0.529900  0.529900  1.0  -0.0799
  C  C280  1  0.602800  0.547600  0.547600  1.0  0.4122
  C  C281  1  0.000000  0.505200  0.293400  1.0  0.3884
  C  C282  1  0.000000  0.495000  0.233600  1.0  -0.0523
  C  C283  1  0.000000  0.470100  0.115100  1.0  -0.081
  C  C284  1  0.000000  0.452400  0.055200  1.0  0.411
  C  C285  1  0.706600  0.706600  0.211800  1.0  0.3886
  C  C286  1  0.766400  0.766400  0.261400  1.0  -0.0597
  C  C287  1  0.884900  0.884900  0.355000  1.0  -0.0898
  C  C288  1  0.944800  0.944800  0.397200  1.0  0.4186
  C  C289  1  0.293400  0.505200  0.000000  1.0  0.3875
  C  C290  1  0.233600  0.495000  0.000000  1.0  -0.0531
  C  C291  1  0.115100  0.470100  0.000000  1.0  -0.0805
  C  C292  1  0.055200  0.452400  0.000000  1.0  0.4107
  C  C293  1  0.505200  0.293400  0.000000  1.0  0.3867
  C  C294  1  0.495000  0.233600  0.000000  1.0  -0.0575
  C  C295  1  0.470100  0.115100  0.000000  1.0  -0.0763
  C  C296  1  0.452400  0.055200  0.000000  1.0  0.4129
  C  C297  1  0.494800  0.494800  0.788200  1.0  0.3849
  C  C298  1  0.505000  0.505000  0.738600  1.0  -0.0497
  C  C299  1  0.529900  0.529900  0.645000  1.0  -0.0807
  C  C300  1  0.547600  0.547600  0.602800  1.0  0.4132
  N  N301  1  0.144020  0.536410  0.503330  1.0  -0.0545
  N  N302  1  0.186900  0.537530  0.484030  1.0  -0.2848
  N  N303  1  0.033080  0.640690  0.496670  1.0  -0.0564
  N  N304  1  0.053500  0.702870  0.515970  1.0  -0.283
  N  N305  1  0.966920  0.463590  0.607610  1.0  -0.0554
  N  N306  1  0.946500  0.462470  0.649370  1.0  -0.2905
  N  N307  1  0.855980  0.359310  0.392390  1.0  -0.0581
  N  N308  1  0.813100  0.297130  0.350630  1.0  -0.2889
  N  N309  1  0.503330  0.144020  0.536410  1.0  -0.0564
  N  N310  1  0.484030  0.186900  0.537530  1.0  -0.2859
  N  N311  1  0.496670  0.033080  0.640690  1.0  -0.0577
  N  N312  1  0.515970  0.053500  0.702870  1.0  -0.283
  N  N313  1  0.607610  0.966920  0.463590  1.0  -0.0534
  N  N314  1  0.649370  0.946500  0.462470  1.0  -0.295
  N  N315  1  0.392390  0.855980  0.359310  1.0  -0.059
  N  N316  1  0.350630  0.813100  0.297130  1.0  -0.2892
  N  N317  1  0.536410  0.503330  0.144020  1.0  -0.0555
  N  N318  1  0.537530  0.484030  0.186900  1.0  -0.2842
  N  N319  1  0.640690  0.496670  0.033080  1.0  -0.0552
  N  N320  1  0.702870  0.515970  0.053500  1.0  -0.2866
  N  N321  1  0.463590  0.607610  0.966920  1.0  -0.0555
  N  N322  1  0.462470  0.649370  0.946500  1.0  -0.2934
  N  N323  1  0.359310  0.392390  0.855980  1.0  -0.0601
  N  N324  1  0.297130  0.350630  0.813100  1.0  -0.2865
  N  N325  1  0.359310  0.966920  0.503330  1.0  -0.055
  N  N326  1  0.297130  0.946500  0.484030  1.0  -0.2859
  N  N327  1  0.463590  0.855980  0.496670  1.0  -0.0551
  N  N328  1  0.462470  0.813100  0.515970  1.0  -0.285
  N  N329  1  0.640690  0.144020  0.607610  1.0  -0.0615
  N  N330  1  0.702870  0.186900  0.649370  1.0  -0.2891
  N  N331  1  0.536410  0.033080  0.392390  1.0  -0.0565
  N  N332  1  0.537530  0.053500  0.350630  1.0  -0.2943
  N  N333  1  0.033080  0.392390  0.536410  1.0  -0.0561
  N  N334  1  0.053500  0.350630  0.537530  1.0  -0.292
  N  N335  1  0.144020  0.607610  0.640690  1.0  -0.0593
  N  N336  1  0.186900  0.649370  0.702870  1.0  -0.2889
  N  N337  1  0.855980  0.496670  0.463590  1.0  -0.0554
  N  N338  1  0.813100  0.515970  0.462470  1.0  -0.2859
  N  N339  1  0.966920  0.503330  0.359310  1.0  -0.0558
  N  N340  1  0.946500  0.484030  0.297130  1.0  -0.2839
  N  N341  1  0.607610  0.640690  0.144020  1.0  -0.0602
  N  N342  1  0.649370  0.702870  0.186900  1.0  -0.2868
  N  N343  1  0.392390  0.536410  0.033080  1.0  -0.0539
  N  N344  1  0.350630  0.537530  0.053500  1.0  -0.2904
  N  N345  1  0.503330  0.359310  0.966920  1.0  -0.0561
  N  N346  1  0.484030  0.297130  0.946500  1.0  -0.2837
  N  N347  1  0.496670  0.463590  0.855980  1.0  -0.0542
  N  N348  1  0.515970  0.462470  0.813100  1.0  -0.2835
  N  N349  1  0.855980  0.463590  0.496670  1.0  -0.0553
  N  N350  1  0.813100  0.462470  0.515970  1.0  -0.2839
  N  N351  1  0.966920  0.359310  0.503330  1.0  -0.0566
  N  N352  1  0.946500  0.297130  0.484030  1.0  -0.2833
  N  N353  1  0.033080  0.536410  0.392390  1.0  -0.054
  N  N354  1  0.053500  0.537530  0.350630  1.0  -0.292
  N  N355  1  0.144020  0.640690  0.607610  1.0  -0.0604
  N  N356  1  0.186900  0.702870  0.649370  1.0  -0.2875
  N  N357  1  0.496670  0.855980  0.463590  1.0  -0.0579
  N  N358  1  0.515970  0.813100  0.462470  1.0  -0.2854
  N  N359  1  0.503330  0.966920  0.359310  1.0  -0.0556
  N  N360  1  0.484030  0.946500  0.297130  1.0  -0.2841
  N  N361  1  0.392390  0.033080  0.536410  1.0  -0.0553
  N  N362  1  0.350630  0.053500  0.537530  1.0  -0.2967
  N  N363  1  0.607610  0.144020  0.640690  1.0  -0.058
  N  N364  1  0.649370  0.186900  0.702870  1.0  -0.289
  N  N365  1  0.463590  0.496670  0.855980  1.0  -0.055
  N  N366  1  0.462470  0.515970  0.813100  1.0  -0.2833
  N  N367  1  0.359310  0.503330  0.966920  1.0  -0.0562
  N  N368  1  0.297130  0.484030  0.946500  1.0  -0.2855
  N  N369  1  0.536410  0.392390  0.033080  1.0  -0.0554
  N  N370  1  0.537530  0.350630  0.053500  1.0  -0.2921
  N  N371  1  0.640690  0.607610  0.144020  1.0  -0.0606
  N  N372  1  0.702870  0.649370  0.186900  1.0  -0.2876
  N  N373  1  0.640690  0.033080  0.496670  1.0  -0.055
  N  N374  1  0.702870  0.053500  0.515970  1.0  -0.2846
  N  N375  1  0.536410  0.144020  0.503330  1.0  -0.056
  N  N376  1  0.537530  0.186900  0.484030  1.0  -0.2864
  N  N377  1  0.359310  0.855980  0.392390  1.0  -0.0604
  N  N378  1  0.297130  0.813100  0.350630  1.0  -0.2898
  N  N379  1  0.463590  0.966920  0.607610  1.0  -0.056
  N  N380  1  0.462470  0.946500  0.649370  1.0  -0.2935
  N  N381  1  0.966920  0.607610  0.463590  1.0  -0.0559
  N  N382  1  0.946500  0.649370  0.462470  1.0  -0.2911
  N  N383  1  0.855980  0.392390  0.359310  1.0  -0.0595
  N  N384  1  0.813100  0.350630  0.297130  1.0  -0.2894
  N  N385  1  0.144020  0.503330  0.536410  1.0  -0.055
  N  N386  1  0.186900  0.484030  0.537530  1.0  -0.287
  N  N387  1  0.033080  0.496670  0.640690  1.0  -0.0553
  N  N388  1  0.053500  0.515970  0.702870  1.0  -0.2831
  N  N389  1  0.392390  0.359310  0.855980  1.0  -0.0593
  N  N390  1  0.350630  0.297130  0.813100  1.0  -0.2871
  N  N391  1  0.607610  0.463590  0.966920  1.0  -0.0537
  N  N392  1  0.649370  0.462470  0.946500  1.0  -0.2918
  N  N393  1  0.496670  0.640690  0.033080  1.0  -0.0556
  N  N394  1  0.515970  0.702870  0.053500  1.0  -0.2854
  N  N395  1  0.503330  0.536410  0.144020  1.0  -0.0558
  N  N396  1  0.484030  0.537530  0.186900  1.0  -0.2825
  N  N397  1  0.416100  0.416100  0.473800  1.0  -0.5163
  N  N398  1  0.942300  0.942300  0.526200  1.0  -0.513
  N  N399  1  0.057700  0.583900  0.000000  1.0  -0.5154
  N  N400  1  0.583900  0.057700  0.000000  1.0  -0.5132
  N  N401  1  0.473800  0.416100  0.416100  1.0  -0.5109
  N  N402  1  0.526200  0.942300  0.942300  1.0  -0.514
  N  N403  1  0.000000  0.057700  0.583900  1.0  -0.5118
  N  N404  1  0.000000  0.583900  0.057700  1.0  -0.5172
  N  N405  1  0.416100  0.473800  0.416100  1.0  -0.5112
  N  N406  1  0.942300  0.526200  0.942300  1.0  -0.5147
  N  N407  1  0.583900  0.000000  0.057700  1.0  -0.5143
  N  N408  1  0.057700  0.000000  0.583900  1.0  -0.5098
  N  N409  1  0.057700  0.057700  0.473800  1.0  -0.5103
  N  N410  1  0.583900  0.583900  0.526200  1.0  -0.5185
  N  N411  1  0.942300  0.416100  0.000000  1.0  -0.5156
  N  N412  1  0.416100  0.942300  0.000000  1.0  -0.5141
  N  N413  1  0.942300  0.000000  0.416100  1.0  -0.5075
  N  N414  1  0.416100  0.000000  0.942300  1.0  -0.5167
  N  N415  1  0.583900  0.526200  0.583900  1.0  -0.5112
  N  N416  1  0.057700  0.473800  0.057700  1.0  -0.5137
  N  N417  1  0.000000  0.942300  0.416100  1.0  -0.5091
  N  N418  1  0.000000  0.416100  0.942300  1.0  -0.5187
  N  N419  1  0.473800  0.057700  0.057700  1.0  -0.5159
  N  N420  1  0.526200  0.583900  0.583900  1.0  -0.513
  Cl  Cl421  1  0.000000  0.500000  0.500000  1.0  -0.2314
  Cl  Cl422  1  0.500000  0.000000  0.500000  1.0  -0.2314
  Cl  Cl423  1  0.500000  0.500000  0.000000  1.0  -0.2314
  O  O424  1  0.168100  0.668100  0.500000  1.0  -0.2774
  O  O425  1  0.831900  0.331900  0.500000  1.0  -0.2769
  O  O426  1  0.500000  0.168100  0.668100  1.0  -0.2764
  O  O427  1  0.500000  0.831900  0.331900  1.0  -0.2772
  O  O428  1  0.668100  0.500000  0.168100  1.0  -0.2766
  O  O429  1  0.331900  0.500000  0.831900  1.0  -0.2765
  O  O430  1  0.331900  0.831900  0.500000  1.0  -0.2769
  O  O431  1  0.668100  0.168100  0.500000  1.0  -0.2774
  O  O432  1  0.168100  0.500000  0.668100  1.0  -0.2766
  O  O433  1  0.831900  0.500000  0.331900  1.0  -0.2765
  O  O434  1  0.500000  0.668100  0.168100  1.0  -0.2764
  O  O435  1  0.500000  0.331900  0.831900  1.0  -0.2772
