# generated using pymatgen
data_Nd(C2N3)3
_symmetry_space_group_name_H-M   'P 1'
_cell_length_a   12.78700000
_cell_length_b   15.30200000
_cell_length_c   16.95310000
_cell_angle_alpha   90.00000000
_cell_angle_beta   108.35500000
_cell_angle_gamma   90.00000000
_symmetry_Int_Tables_number   1
_chemical_formula_structural   Nd(C2N3)3
_chemical_formula_sum   'Nd4 C24 N36'
_cell_volume   3148.39179696
_cell_formula_units_Z   4
loop_
 _symmetry_equiv_pos_site_id
 _symmetry_equiv_pos_as_xyz
  1  'x, y, z'
loop_
 _atom_site_type_symbol
 _atom_site_label
 _atom_site_symmetry_multiplicity
 _atom_site_fract_x
 _atom_site_fract_y
 _atom_site_fract_z
 _atom_site_occupancy
 _atom_site_charge
  Nd  Nd1  1  0.769830  0.840140  0.067830  1.0  2.269
  Nd  Nd2  1  0.230170  0.340140  0.432170  1.0  2.2689
  Nd  Nd3  1  0.230170  0.159860  0.932170  1.0  2.2682
  Nd  Nd4  1  0.769830  0.659860  0.567830  1.0  2.268
  C  C5  1  0.670100  0.044700  0.114100  1.0  0.6688
  C  C6  1  0.505600  0.107700  0.078700  1.0  0.6763
  C  C7  1  0.786600  0.859500  0.284300  1.0  0.6847
  C  C8  1  0.746400  0.812000  0.398000  1.0  0.6399
  C  C9  1  0.055600  0.911500  0.109000  1.0  0.7018
  C  C10  1  0.172600  0.004000  0.076400  1.0  0.6669
  C  C11  1  0.329900  0.544700  0.385900  1.0  0.6674
  C  C12  1  0.494400  0.607700  0.421300  1.0  0.6781
  C  C13  1  0.213400  0.359500  0.215700  1.0  0.6858
  C  C14  1  0.253600  0.312000  0.102000  1.0  0.6426
  C  C15  1  0.944400  0.411500  0.391000  1.0  0.7023
  C  C16  1  0.827400  0.504000  0.423600  1.0  0.6679
  C  C17  1  0.329900  0.955300  0.885900  1.0  0.6675
  C  C18  1  0.494400  0.892300  0.921300  1.0  0.6781
  C  C19  1  0.213400  0.140500  0.715700  1.0  0.6858
  C  C20  1  0.253600  0.188000  0.602000  1.0  0.6399
  C  C21  1  0.944400  0.088500  0.891000  1.0  0.7029
  C  C22  1  0.827400  0.996000  0.923600  1.0  0.668
  C  C23  1  0.670100  0.455300  0.614100  1.0  0.6688
  C  C24  1  0.505600  0.392300  0.578700  1.0  0.6754
  C  C25  1  0.786600  0.640500  0.784300  1.0  0.6847
  C  C26  1  0.746400  0.688000  0.898000  1.0  0.6408
  C  C27  1  0.055600  0.588500  0.609000  1.0  0.7027
  C  C28  1  0.172600  0.496000  0.576400  1.0  0.6671
  N  N29  1  0.733900  0.996000  0.106300  1.0  -0.7374
  N  N30  1  0.606300  0.101300  0.130500  1.0  -0.5723
  N  N31  1  0.416900  0.117900  0.037000  1.0  -0.7925
  N  N32  1  0.812900  0.854500  0.226800  1.0  -0.8106
  N  N33  1  0.752500  0.875800  0.348100  1.0  -0.566
  N  N34  1  0.737600  0.764000  0.445300  1.0  -0.7125
  N  N35  1  0.971600  0.887100  0.109100  1.0  -0.7989
  N  N36  1  0.155900  0.935200  0.115900  1.0  -0.5863
  N  N37  1  0.194900  0.064600  0.046300  1.0  -0.7286
  N  N38  1  0.266100  0.496000  0.393700  1.0  -0.7385
  N  N39  1  0.393700  0.601300  0.369500  1.0  -0.5736
  N  N40  1  0.583100  0.617900  0.463000  1.0  -0.7926
  N  N41  1  0.187100  0.354500  0.273200  1.0  -0.8085
  N  N42  1  0.247500  0.375800  0.151900  1.0  -0.5658
  N  N43  1  0.262400  0.264000  0.054700  1.0  -0.7141
  N  N44  1  0.028400  0.387100  0.390900  1.0  -0.8003
  N  N45  1  0.844100  0.435200  0.384100  1.0  -0.5871
  N  N46  1  0.805100  0.564600  0.453700  1.0  -0.7286
  N  N47  1  0.266100  0.004000  0.893700  1.0  -0.7455
  N  N48  1  0.393700  0.898700  0.869500  1.0  -0.574
  N  N49  1  0.583100  0.882100  0.963000  1.0  -0.7928
  N  N50  1  0.187100  0.145500  0.773200  1.0  -0.809
  N  N51  1  0.247500  0.124200  0.651900  1.0  -0.5652
  N  N52  1  0.262400  0.236000  0.554700  1.0  -0.7142
  N  N53  1  0.028400  0.112900  0.890900  1.0  -0.7989
  N  N54  1  0.844100  0.064800  0.884100  1.0  -0.5884
  N  N55  1  0.805100  0.935400  0.953700  1.0  -0.7264
  N  N56  1  0.733900  0.504000  0.606300  1.0  -0.7452
  N  N57  1  0.606300  0.398700  0.630500  1.0  -0.5717
  N  N58  1  0.416900  0.382100  0.537000  1.0  -0.7922
  N  N59  1  0.812900  0.645500  0.726800  1.0  -0.8102
  N  N60  1  0.752500  0.624200  0.848100  1.0  -0.565
  N  N61  1  0.737600  0.736000  0.945300  1.0  -0.7129
  N  N62  1  0.971600  0.612900  0.609100  1.0  -0.7972
  N  N63  1  0.155900  0.564800  0.615900  1.0  -0.5887
  N  N64  1  0.194900  0.435400  0.546300  1.0  -0.7264
