# generated using pymatgen
data_La4SiH8W12C20(NO7)8
_symmetry_space_group_name_H-M   'P 1'
_cell_length_a   13.68500000
_cell_length_b   13.14400000
_cell_length_c   22.64900000
_cell_angle_alpha   90.00000000
_cell_angle_beta   100.55100000
_cell_angle_gamma   90.00000000
_symmetry_Int_Tables_number   1
_chemical_formula_structural   La4SiH8W12C20(NO7)8
_chemical_formula_sum   'La8 Si2 H16 W24 C40 N16 O112'
_cell_volume   4005.12137192
_cell_formula_units_Z   2
loop_
 _symmetry_equiv_pos_site_id
 _symmetry_equiv_pos_as_xyz
  1  'x, y, z'
loop_
 _atom_site_type_symbol
 _atom_site_label
 _atom_site_symmetry_multiplicity
 _atom_site_fract_x
 _atom_site_fract_y
 _atom_site_fract_z
 _atom_site_occupancy
 _atom_site_charge
  La  La1  1  0.275690  0.401670  0.176550  1.0  2.1935
  La  La2  1  0.780860  0.401490  0.222020  1.0  2.1808
  La  La3  1  0.724310  0.901670  0.323450  1.0  2.1945
  La  La4  1  0.219140  0.901490  0.277980  1.0  2.1809
  La  La5  1  0.724310  0.598330  0.823450  1.0  2.1946
  La  La6  1  0.219140  0.598510  0.777980  1.0  2.1813
  La  La7  1  0.275690  0.098330  0.676550  1.0  2.1936
  La  La8  1  0.780860  0.098510  0.722020  1.0  2.1812
  Si  Si9  1  0.500000  0.500000  0.500000  1.0  1.5143
  Si  Si10  1  0.500000  0.000000  0.000000  1.0  1.5143
  H  H11  1  0.409100  0.643500  0.223400  1.0  0.3171
  H  H12  1  0.070100  0.104300  0.229600  1.0  0.3316
  H  H13  1  0.453400  0.797400  0.267700  1.0  0.1174
  H  H14  1  0.026500  0.266200  0.197900  1.0  0.1428
  H  H15  1  0.590900  0.143500  0.276600  1.0  0.3174
  H  H16  1  0.929900  0.604300  0.270400  1.0  0.3322
  H  H17  1  0.546600  0.297400  0.232300  1.0  0.1186
  H  H18  1  0.973500  0.766200  0.302100  1.0  0.1429
  H  H19  1  0.590900  0.356500  0.776600  1.0  0.317
  H  H20  1  0.929900  0.895700  0.770400  1.0  0.3314
  H  H21  1  0.546600  0.202600  0.732300  1.0  0.1182
  H  H22  1  0.973500  0.733800  0.802100  1.0  0.143
  H  H23  1  0.409100  0.856500  0.723400  1.0  0.3171
  H  H24  1  0.070100  0.395700  0.729600  1.0  0.3318
  H  H25  1  0.453400  0.702600  0.767700  1.0  0.1177
  H  H26  1  0.026500  0.233800  0.697900  1.0  0.1429
  W  W27  1  0.238090  0.488970  0.475990  1.0  1.3075
  W  W28  1  0.355080  0.689630  0.413630  1.0  2.1487
  W  W29  1  0.366240  0.442400  0.357410  1.0  2.1681
  W  W30  1  0.509290  0.253070  0.441440  1.0  1.5015
  W  W31  1  0.382020  0.300630  0.561490  1.0  2.0019
  W  W32  1  0.372100  0.547210  0.620700  1.0  2.064
  W  W33  1  0.761910  0.988970  0.024010  1.0  1.3064
  W  W34  1  0.644920  0.189630  0.086370  1.0  2.1476
  W  W35  1  0.633760  0.942400  0.142590  1.0  2.172
  W  W36  1  0.490710  0.753070  0.058560  1.0  1.5014
  W  W37  1  0.617980  0.800630  0.938510  1.0  1.9972
  W  W38  1  0.627900  0.047210  0.879300  1.0  2.0615
  W  W39  1  0.761910  0.511030  0.524010  1.0  1.307
  W  W40  1  0.644920  0.310370  0.586370  1.0  2.1432
  W  W41  1  0.633760  0.557600  0.642590  1.0  2.1725
  W  W42  1  0.490710  0.746930  0.558560  1.0  1.5009
  W  W43  1  0.617980  0.699370  0.438510  1.0  2.001
  W  W44  1  0.627900  0.452790  0.379300  1.0  2.0618
  W  W45  1  0.238090  0.011030  0.975990  1.0  1.308
  W  W46  1  0.355080  0.810370  0.913630  1.0  2.1448
  W  W47  1  0.366240  0.057600  0.857410  1.0  2.1682
  W  W48  1  0.509290  0.246930  0.941440  1.0  1.5004
  W  W49  1  0.382020  0.199370  0.061490  1.0  2.0066
  W  W50  1  0.372100  0.952790  0.120700  1.0  2.0651
  C  C51  1  0.498000  0.748000  0.260000  1.0  0.1945
  C  C52  1  0.552300  0.607100  0.229800  1.0  -0.1161
  C  C53  1  0.631200  0.670600  0.254100  1.0  0.0517
  C  C54  1  0.736000  0.662000  0.266000  1.0  0.6849
  C  C55  1  0.533600  0.503700  0.200300  1.0  0.7309
  C  C56  1  0.988000  0.221000  0.215100  1.0  0.1144
  C  C57  1  0.866000  0.155000  0.251600  1.0  0.0747
  C  C58  1  0.949000  0.085500  0.262800  1.0  0.039
  C  C59  1  0.966000  0.984000  0.287600  1.0  0.7302
  C  C60  1  0.774000  0.158000  0.272100  1.0  0.7004
  C  C61  1  0.502000  0.248000  0.240000  1.0  0.1942
  C  C62  1  0.447700  0.107100  0.270200  1.0  -0.1135
  C  C63  1  0.368800  0.170600  0.245900  1.0  0.052
  C  C64  1  0.264000  0.162000  0.234000  1.0  0.6871
  C  C65  1  0.466400  0.003700  0.299700  1.0  0.7257
  C  C66  1  0.012000  0.721000  0.284900  1.0  0.1142
  C  C67  1  0.134000  0.655000  0.248400  1.0  0.076
  C  C68  1  0.051000  0.585500  0.237200  1.0  0.0356
  C  C69  1  0.034000  0.484000  0.212400  1.0  0.7296
  C  C70  1  0.226000  0.658000  0.227900  1.0  0.6977
  C  C71  1  0.502000  0.252000  0.740000  1.0  0.1935
  C  C72  1  0.447700  0.392900  0.770200  1.0  -0.1146
  C  C73  1  0.368800  0.329400  0.745900  1.0  0.0516
  C  C74  1  0.264000  0.338000  0.734000  1.0  0.687
  C  C75  1  0.466400  0.496300  0.799700  1.0  0.7285
  C  C76  1  0.012000  0.779000  0.784900  1.0  0.113
  C  C77  1  0.134000  0.845000  0.748400  1.0  0.076
  C  C78  1  0.051000  0.914500  0.737200  1.0  0.0366
  C  C79  1  0.034000  0.016000  0.712400  1.0  0.7299
  C  C80  1  0.226000  0.842000  0.727900  1.0  0.6982
  C  C81  1  0.498000  0.752000  0.760000  1.0  0.1943
  C  C82  1  0.552300  0.892900  0.729800  1.0  -0.1161
  C  C83  1  0.631200  0.829400  0.754100  1.0  0.0516
  C  C84  1  0.736000  0.838000  0.766000  1.0  0.6849
  C  C85  1  0.533600  0.996300  0.700300  1.0  0.7299
  C  C86  1  0.988000  0.279000  0.715100  1.0  0.1127
  C  C87  1  0.866000  0.345000  0.751600  1.0  0.0747
  C  C88  1  0.949000  0.414500  0.762800  1.0  0.0386
  C  C89  1  0.966000  0.516000  0.787600  1.0  0.7299
  C  C90  1  0.774000  0.342000  0.772100  1.0  0.7002
  N  N91  1  0.469700  0.662500  0.234900  1.0  -0.2108
  N  N92  1  0.594700  0.762600  0.273900  1.0  -0.5096
  N  N93  1  0.891500  0.239200  0.223800  1.0  -0.3999
  N  N94  1  0.015000  0.131800  0.234400  1.0  -0.1894
  N  N95  1  0.530300  0.162500  0.265100  1.0  -0.211
  N  N96  1  0.405300  0.262600  0.226100  1.0  -0.5066
  N  N97  1  0.108500  0.739200  0.276200  1.0  -0.4003
  N  N98  1  0.985000  0.631800  0.265600  1.0  -0.1904
  N  N99  1  0.530300  0.337500  0.765100  1.0  -0.2109
  N  N100  1  0.405300  0.237400  0.726100  1.0  -0.5067
  N  N101  1  0.108500  0.760800  0.776200  1.0  -0.4012
  N  N102  1  0.985000  0.868200  0.765600  1.0  -0.1906
  N  N103  1  0.469700  0.837500  0.734900  1.0  -0.2107
  N  N104  1  0.594700  0.737400  0.773900  1.0  -0.5067
  N  N105  1  0.891500  0.260800  0.723800  1.0  -0.4022
  N  N106  1  0.015000  0.368200  0.734400  1.0  -0.1891
  O  O107  1  0.403000  0.527000  0.456400  1.0  -0.6915
  O  O108  1  0.502000  0.615000  0.484100  1.0  -0.5459
  O  O109  1  0.507000  0.427000  0.440300  1.0  -0.6733
  O  O110  1  0.597000  0.533000  0.472700  1.0  -0.6999
  O  O111  1  0.258000  0.433000  0.399300  1.0  -0.6077
  O  O112  1  0.270000  0.358000  0.513700  1.0  -0.6915
  O  O113  1  0.269000  0.539000  0.556300  1.0  -0.7957
  O  O114  1  0.256000  0.625000  0.442500  1.0  -0.7012
  O  O115  1  0.293200  0.780400  0.372600  1.0  -0.7457
  O  O116  1  0.483000  0.722300  0.397700  1.0  -0.7205
  O  O117  1  0.356200  0.579100  0.356300  1.0  -0.7316
  O  O118  1  0.402000  0.312000  0.391300  1.0  -0.7121
  O  O119  1  0.608000  0.245000  0.511100  1.0  -0.7164
  O  O120  1  0.412000  0.236000  0.492100  1.0  -0.6774
  O  O121  1  0.333000  0.205000  0.591600  1.0  -0.7555
  O  O122  1  0.368000  0.403000  0.620100  1.0  -0.7135
  O  O123  1  0.312800  0.564500  0.677600  1.0  -0.7174
  O  O124  1  0.509000  0.539000  0.659300  1.0  -0.764
  O  O125  1  0.397000  0.683000  0.595900  1.0  -0.7444
  O  O126  1  0.303300  0.412900  0.289700  1.0  -0.77
  O  O127  1  0.447700  0.477200  0.188300  1.0  -0.5521
  O  O128  1  0.608800  0.452700  0.192900  1.0  -0.6637
  O  O129  1  0.790400  0.733200  0.290300  1.0  -0.6685
  O  O130  1  0.782800  0.581000  0.250500  1.0  -0.5632
  O  O131  1  0.722400  0.241400  0.264300  1.0  -0.5647
  O  O132  1  0.739700  0.083000  0.296900  1.0  -0.5821
  O  O133  1  0.053800  0.954600  0.297400  1.0  -0.7159
  O  O134  1  0.893600  0.933900  0.306400  1.0  -0.6364
  O  O135  1  0.597000  0.027000  0.043600  1.0  -0.6929
  O  O136  1  0.498000  0.115000  0.015900  1.0  -0.5452
  O  O137  1  0.493000  0.927000  0.059700  1.0  -0.6726
  O  O138  1  0.403000  0.033000  0.027300  1.0  -0.6997
  O  O139  1  0.742000  0.933000  0.100700  1.0  -0.6074
  O  O140  1  0.730000  0.858000  0.986300  1.0  -0.6914
  O  O141  1  0.731000  0.039000  0.943700  1.0  -0.7922
  O  O142  1  0.744000  0.125000  0.057500  1.0  -0.7017
  O  O143  1  0.706800  0.280400  0.127400  1.0  -0.7463
  O  O144  1  0.517000  0.222300  0.102300  1.0  -0.7189
  O  O145  1  0.643800  0.079100  0.143700  1.0  -0.7316
  O  O146  1  0.598000  0.812000  0.108700  1.0  -0.7109
  O  O147  1  0.392000  0.745000  0.988900  1.0  -0.7172
  O  O148  1  0.588000  0.736000  0.007900  1.0  -0.6771
  O  O149  1  0.667000  0.705000  0.908400  1.0  -0.758
  O  O150  1  0.632000  0.903000  0.879900  1.0  -0.7162
  O  O151  1  0.687200  0.064500  0.822400  1.0  -0.7165
  O  O152  1  0.491000  0.039000  0.840700  1.0  -0.7615
  O  O153  1  0.603000  0.183000  0.904100  1.0  -0.7456
  O  O154  1  0.696700  0.912900  0.210300  1.0  -0.77
  O  O155  1  0.552300  0.977200  0.311700  1.0  -0.5532
  O  O156  1  0.391200  0.952700  0.307100  1.0  -0.6632
  O  O157  1  0.209600  0.233200  0.209700  1.0  -0.6681
  O  O158  1  0.217200  0.081000  0.249500  1.0  -0.5643
  O  O159  1  0.277600  0.741400  0.235700  1.0  -0.564
  O  O160  1  0.260300  0.583000  0.203100  1.0  -0.5819
  O  O161  1  0.946200  0.454600  0.202600  1.0  -0.7171
  O  O162  1  0.106400  0.433900  0.193600  1.0  -0.6396
  O  O163  1  0.597000  0.473000  0.543600  1.0  -0.6931
  O  O164  1  0.498000  0.385000  0.515900  1.0  -0.5477
  O  O165  1  0.493000  0.573000  0.559700  1.0  -0.6727
  O  O166  1  0.403000  0.467000  0.527300  1.0  -0.7009
  O  O167  1  0.742000  0.567000  0.600700  1.0  -0.6043
  O  O168  1  0.730000  0.642000  0.486300  1.0  -0.6918
  O  O169  1  0.731000  0.461000  0.443700  1.0  -0.7904
  O  O170  1  0.744000  0.375000  0.557500  1.0  -0.7015
  O  O171  1  0.706800  0.219600  0.627400  1.0  -0.7454
  O  O172  1  0.517000  0.277700  0.602300  1.0  -0.7194
  O  O173  1  0.643800  0.420900  0.643700  1.0  -0.7314
  O  O174  1  0.598000  0.688000  0.608700  1.0  -0.7185
  O  O175  1  0.392000  0.755000  0.488900  1.0  -0.7182
  O  O176  1  0.588000  0.764000  0.507900  1.0  -0.6792
  O  O177  1  0.667000  0.795000  0.408400  1.0  -0.7572
  O  O178  1  0.632000  0.597000  0.379900  1.0  -0.7155
  O  O179  1  0.687200  0.435500  0.322400  1.0  -0.7166
  O  O180  1  0.491000  0.461000  0.340700  1.0  -0.7612
  O  O181  1  0.603000  0.317000  0.404100  1.0  -0.7382
  O  O182  1  0.696700  0.587100  0.710300  1.0  -0.7705
  O  O183  1  0.552300  0.522800  0.811700  1.0  -0.5534
  O  O184  1  0.391200  0.547300  0.807100  1.0  -0.6629
  O  O185  1  0.209600  0.266800  0.709700  1.0  -0.6677
  O  O186  1  0.217200  0.419000  0.749500  1.0  -0.5638
  O  O187  1  0.277600  0.758600  0.735700  1.0  -0.5641
  O  O188  1  0.260300  0.917000  0.703100  1.0  -0.5821
  O  O189  1  0.946200  0.045400  0.702600  1.0  -0.7173
  O  O190  1  0.106400  0.066100  0.693600  1.0  -0.6395
  O  O191  1  0.403000  0.973000  0.956400  1.0  -0.6926
  O  O192  1  0.502000  0.885000  0.984100  1.0  -0.5472
  O  O193  1  0.507000  0.073000  0.940300  1.0  -0.6742
  O  O194  1  0.597000  0.967000  0.972700  1.0  -0.7012
  O  O195  1  0.258000  0.067000  0.899300  1.0  -0.605
  O  O196  1  0.270000  0.142000  0.013700  1.0  -0.6919
  O  O197  1  0.269000  0.961000  0.056300  1.0  -0.7936
  O  O198  1  0.256000  0.875000  0.942500  1.0  -0.7007
  O  O199  1  0.293200  0.719600  0.872600  1.0  -0.7459
  O  O200  1  0.483000  0.777700  0.897700  1.0  -0.7194
  O  O201  1  0.356200  0.920900  0.856300  1.0  -0.7318
  O  O202  1  0.402000  0.188000  0.891300  1.0  -0.7181
  O  O203  1  0.608000  0.255000  0.011100  1.0  -0.7184
  O  O204  1  0.412000  0.264000  0.992100  1.0  -0.6789
  O  O205  1  0.333000  0.295000  0.091600  1.0  -0.7549
  O  O206  1  0.368000  0.097000  0.120100  1.0  -0.7129
  O  O207  1  0.312800  0.935500  0.177600  1.0  -0.7172
  O  O208  1  0.509000  0.961000  0.159300  1.0  -0.7642
  O  O209  1  0.397000  0.817000  0.095900  1.0  -0.7403
  O  O210  1  0.303300  0.087100  0.789700  1.0  -0.7703
  O  O211  1  0.447700  0.022800  0.688300  1.0  -0.5524
  O  O212  1  0.608800  0.047300  0.692900  1.0  -0.6627
  O  O213  1  0.790400  0.766800  0.790300  1.0  -0.6676
  O  O214  1  0.782800  0.919000  0.750500  1.0  -0.5625
  O  O215  1  0.722400  0.258600  0.764300  1.0  -0.5653
  O  O216  1  0.739700  0.417000  0.796900  1.0  -0.5815
  O  O217  1  0.053800  0.545400  0.797400  1.0  -0.7159
  O  O218  1  0.893600  0.566100  0.806400  1.0  -0.6358
