# generated using pymatgen
data_Ce4SiH8W12C20(NO7)8
_symmetry_space_group_name_H-M   'P 1'
_cell_length_a   13.15540000
_cell_length_b   13.70140000
_cell_length_c   22.72730000
_cell_angle_alpha   100.36600000
_cell_angle_beta   90.00000000
_cell_angle_gamma   90.00000000
_symmetry_Int_Tables_number   1
_chemical_formula_structural   Ce4SiH8W12C20(NO7)8
_chemical_formula_sum   'Ce8 Si2 H16 W24 C40 N16 O112'
_cell_volume   4029.67472682
_cell_formula_units_Z   2
loop_
 _symmetry_equiv_pos_site_id
 _symmetry_equiv_pos_as_xyz
  1  'x, y, z'
loop_
 _atom_site_type_symbol
 _atom_site_label
 _atom_site_symmetry_multiplicity
 _atom_site_fract_x
 _atom_site_fract_y
 _atom_site_fract_z
 _atom_site_occupancy
 _atom_site_charge
  Ce  Ce1  1  0.398990  0.723930  0.821470  1.0  2.2785
  Ce  Ce2  1  0.601010  0.276070  0.178530  1.0  2.2834
  Ce  Ce3  1  0.100850  0.218780  0.276190  1.0  2.256
  Ce  Ce4  1  0.399150  0.218780  0.776190  1.0  2.2561
  Ce  Ce5  1  0.600850  0.781220  0.223810  1.0  2.2557
  Ce  Ce6  1  0.101010  0.723930  0.321470  1.0  2.2781
  Ce  Ce7  1  0.899150  0.781220  0.723810  1.0  2.256
  Ce  Ce8  1  0.898990  0.276070  0.678530  1.0  2.2832
  Si  Si9  1  0.000000  0.500000  0.000000  1.0  1.4845
  Si  Si10  1  0.500000  0.500000  0.500000  1.0  1.4845
  H  H11  1  0.355500  0.408500  0.220900  1.0  0.3518
  H  H12  1  0.299300  0.457300  0.768600  1.0  0.131
  H  H13  1  0.644500  0.591500  0.779100  1.0  0.3512
  H  H14  1  0.604400  0.072500  0.734100  1.0  0.3425
  H  H15  1  0.700700  0.542700  0.231400  1.0  0.1317
  H  H16  1  0.895600  0.072500  0.234100  1.0  0.3426
  H  H17  1  0.733900  0.022800  0.196900  1.0  0.1424
  H  H18  1  0.266100  0.977200  0.803100  1.0  0.1431
  H  H19  1  0.799300  0.542700  0.731400  1.0  0.1312
  H  H20  1  0.200700  0.457300  0.268600  1.0  0.1309
  H  H21  1  0.144500  0.408500  0.720900  1.0  0.3515
  H  H22  1  0.855500  0.591500  0.279100  1.0  0.3519
  H  H23  1  0.766100  0.022800  0.696900  1.0  0.1424
  H  H24  1  0.233900  0.977200  0.303100  1.0  0.143
  H  H25  1  0.104400  0.927500  0.765900  1.0  0.342
  H  H26  1  0.395600  0.927500  0.265900  1.0  0.3417
  W  W27  1  0.941370  0.367920  0.857850  1.0  2.186
  W  W28  1  0.300980  0.617630  0.437640  1.0  2.1301
  W  W29  1  0.441370  0.632080  0.642150  1.0  2.1933
  W  W30  1  0.058630  0.632080  0.142150  1.0  2.1924
  W  W31  1  0.747990  0.510000  0.442620  1.0  1.4211
  W  W32  1  0.310790  0.355080  0.413110  1.0  2.1423
  W  W33  1  0.988050  0.238190  0.976050  1.0  1.3972
  W  W34  1  0.488050  0.761810  0.523950  1.0  1.3969
  W  W35  1  0.558630  0.367920  0.357850  1.0  2.1852
  W  W36  1  0.048550  0.370650  0.119910  1.0  2.0168
  W  W37  1  0.451450  0.370650  0.619910  1.0  2.0188
  W  W38  1  0.199020  0.617630  0.937640  1.0  2.1307
  W  W39  1  0.548550  0.629350  0.380090  1.0  2.0192
  W  W40  1  0.189210  0.355080  0.913110  1.0  2.1417
  W  W41  1  0.689210  0.644920  0.586890  1.0  2.1441
  W  W42  1  0.752010  0.510000  0.942620  1.0  1.4192
  W  W43  1  0.810790  0.644920  0.086890  1.0  2.1445
  W  W44  1  0.511950  0.238190  0.476050  1.0  1.3986
  W  W45  1  0.247990  0.490000  0.057380  1.0  1.4207
  W  W46  1  0.252010  0.490000  0.557380  1.0  1.4192
  W  W47  1  0.699020  0.382370  0.562360  1.0  2.1289
  W  W48  1  0.800980  0.382370  0.062360  1.0  2.1287
  W  W49  1  0.951450  0.629350  0.880090  1.0  2.0202
  W  W50  1  0.011950  0.761810  0.023950  1.0  1.3969
  C  C51  1  0.721100  0.984900  0.714900  1.0  0.2038
  C  C52  1  0.751200  0.499900  0.239900  1.0  0.2354
  C  C53  1  0.278900  0.015100  0.285100  1.0  0.2024
  C  C54  1  0.895300  0.445700  0.270200  1.0  -0.0466
  C  C55  1  0.000100  0.465100  0.297100  1.0  0.7632
  C  C56  1  0.839100  0.259000  0.234300  1.0  0.7133
  C  C57  1  0.251200  0.500100  0.260100  1.0  0.2353
  C  C58  1  0.414300  0.056400  0.241800  1.0  0.0002
  C  C59  1  0.343100  0.230400  0.228800  1.0  0.7318
  C  C60  1  0.518100  0.037100  0.212300  1.0  0.6494
  C  C61  1  0.604700  0.445700  0.770200  1.0  -0.0478
  C  C62  1  0.665600  0.368000  0.747000  1.0  0.0341
  C  C63  1  0.018100  0.962900  0.287700  1.0  0.648
  C  C64  1  0.160900  0.741000  0.765700  1.0  0.7136
  C  C65  1  0.334400  0.632000  0.253000  1.0  0.0342
  C  C66  1  0.499900  0.465100  0.797100  1.0  0.7611
  C  C67  1  0.248800  0.500100  0.760100  1.0  0.2355
  C  C68  1  0.846100  0.867100  0.252500  1.0  0.0383
  C  C69  1  0.914300  0.943600  0.258200  1.0  0.0009
  C  C70  1  0.653900  0.867100  0.752500  1.0  0.0375
  C  C71  1  0.153900  0.132900  0.747500  1.0  0.0372
  C  C72  1  0.999900  0.534900  0.702900  1.0  0.7615
  C  C73  1  0.165600  0.632000  0.753000  1.0  0.0344
  C  C74  1  0.585700  0.943600  0.758200  1.0  0.0032
  C  C75  1  0.656900  0.769600  0.771200  1.0  0.7358
  C  C76  1  0.346100  0.132900  0.247500  1.0  0.0368
  C  C77  1  0.085700  0.056400  0.741800  1.0  0.0033
  C  C78  1  0.778900  0.984900  0.214900  1.0  0.2028
  C  C79  1  0.834400  0.368000  0.247000  1.0  0.0342
  C  C80  1  0.221100  0.015100  0.785100  1.0  0.2029
  C  C81  1  0.660900  0.259000  0.734300  1.0  0.7131
  C  C82  1  0.500100  0.534900  0.202900  1.0  0.7611
  C  C83  1  0.395300  0.554300  0.229800  1.0  -0.0483
  C  C84  1  0.748800  0.499900  0.739900  1.0  0.2349
  C  C85  1  0.104700  0.554300  0.729800  1.0  -0.0484
  C  C86  1  0.481900  0.962900  0.787700  1.0  0.6472
  C  C87  1  0.981900  0.037100  0.712300  1.0  0.6491
  C  C88  1  0.156900  0.230400  0.728800  1.0  0.7342
  C  C89  1  0.843100  0.769600  0.271200  1.0  0.732
  C  C90  1  0.339100  0.741000  0.265700  1.0  0.7136
  N  N91  1  0.630400  0.015300  0.735400  1.0  -0.2025
  N  N92  1  0.756600  0.403600  0.726800  1.0  -0.4001
  N  N93  1  0.256600  0.596400  0.773200  1.0  -0.4014
  N  N94  1  0.837900  0.530900  0.266500  1.0  -0.2091
  N  N95  1  0.260000  0.107700  0.276600  1.0  -0.4413
  N  N96  1  0.243400  0.596400  0.273200  1.0  -0.4004
  N  N97  1  0.162100  0.469100  0.733500  1.0  -0.2104
  N  N98  1  0.740000  0.892300  0.723400  1.0  -0.4443
  N  N99  1  0.369600  0.984700  0.264600  1.0  -0.202
  N  N100  1  0.130400  0.984700  0.764600  1.0  -0.2036
  N  N101  1  0.662100  0.530900  0.766500  1.0  -0.2095
  N  N102  1  0.240000  0.107700  0.776600  1.0  -0.4468
  N  N103  1  0.760000  0.892300  0.223400  1.0  -0.4456
  N  N104  1  0.337900  0.469100  0.233500  1.0  -0.2105
  N  N105  1  0.869600  0.015300  0.235400  1.0  -0.2024
  N  N106  1  0.743400  0.403600  0.226800  1.0  -0.4016
  O  O107  1  0.912300  0.300800  0.788900  1.0  -0.729
  O  O108  1  0.701200  0.331800  0.094800  1.0  -0.7922
  O  O109  1  0.244000  0.388400  0.487600  1.0  -0.6553
  O  O110  1  0.541500  0.495200  0.342400  1.0  -0.8905
  O  O111  1  0.740500  0.723700  0.763800  1.0  -0.5705
  O  O112  1  0.114400  0.497600  0.980800  1.0  -0.6308
  O  O113  1  0.719900  0.710900  0.130600  1.0  -0.8083
  O  O114  1  0.449300  0.390500  0.805200  1.0  -0.6697
  O  O115  1  0.623000  0.753000  0.556800  1.0  -0.65
  O  O116  1  0.082200  0.265500  0.706100  1.0  -0.5461
  O  O117  1  0.280100  0.289100  0.869400  1.0  -0.8066
  O  O118  1  0.958500  0.495200  0.842400  1.0  -0.8883
  O  O119  1  0.281400  0.484000  0.401800  1.0  -0.8724
  O  O120  1  0.465000  0.596000  0.472000  1.0  -0.6822
  O  O121  1  0.082000  0.356500  0.857800  1.0  -0.7701
  O  O122  1  0.240500  0.276300  0.736200  1.0  -0.5698
  O  O123  1  0.429600  0.311300  0.677200  1.0  -0.7299
  O  O124  1  0.412300  0.699200  0.711100  1.0  -0.7305
  O  O125  1  0.582200  0.734500  0.793900  1.0  -0.5475
  O  O126  1  0.436000  0.744800  0.601400  1.0  -0.643
  O  O127  1  0.922200  0.217000  0.248200  1.0  -0.556
  O  O128  1  0.087700  0.699200  0.211100  1.0  -0.7304
  O  O129  1  0.028200  0.551400  0.311300  1.0  -0.5618
  O  O130  1  0.582000  0.643500  0.642200  1.0  -0.7725
  O  O131  1  0.781400  0.516000  0.098200  1.0  -0.8724
  O  O132  1  0.718600  0.516000  0.598200  1.0  -0.872
  O  O133  1  0.527000  0.605000  0.546600  1.0  -0.6585
  O  O134  1  0.070400  0.311300  0.177200  1.0  -0.7324
  O  O135  1  0.906200  0.373200  0.116700  1.0  -0.8354
  O  O136  1  0.759500  0.723700  0.263800  1.0  -0.5706
  O  O137  1  0.041500  0.504800  0.157600  1.0  -0.8892
  O  O138  1  0.564000  0.255200  0.398600  1.0  -0.6451
  O  O139  1  0.885600  0.502400  0.019200  1.0  -0.6371
  O  O140  1  0.587700  0.300800  0.288900  1.0  -0.729
  O  O141  1  0.683000  0.604000  0.402400  1.0  -0.6646
  O  O142  1  0.184000  0.594000  0.108600  1.0  -0.8682
  O  O143  1  0.816000  0.406000  0.891400  1.0  -0.8651
  O  O144  1  0.183000  0.396000  0.097600  1.0  -0.6631
  O  O145  1  0.965000  0.404000  0.028000  1.0  -0.6831
  O  O146  1  0.298800  0.668200  0.905200  1.0  -0.7931
  O  O147  1  0.973000  0.605000  0.046600  1.0  -0.6586
  O  O148  1  0.201200  0.668200  0.405200  1.0  -0.7937
  O  O149  1  0.422200  0.783000  0.251800  1.0  -0.5562
  O  O150  1  0.744000  0.611600  0.012400  1.0  -0.6603
  O  O151  1  0.535000  0.404000  0.528000  1.0  -0.6836
  O  O152  1  0.952700  0.948300  0.705100  1.0  -0.6432
  O  O153  1  0.047300  0.051700  0.294900  1.0  -0.6436
  O  O154  1  0.954000  0.731000  0.947500  1.0  -0.7734
  O  O155  1  0.077800  0.783000  0.751800  1.0  -0.5573
  O  O156  1  0.235000  0.585300  0.505500  1.0  -0.6962
  O  O157  1  0.877000  0.753000  0.056800  1.0  -0.6501
  O  O158  1  0.473000  0.395000  0.453400  1.0  -0.6611
  O  O159  1  0.858000  0.271600  0.012900  1.0  -0.7064
  O  O160  1  0.566300  0.107800  0.199000  1.0  -0.6664
  O  O161  1  0.570400  0.688700  0.322800  1.0  -0.7282
  O  O162  1  0.817000  0.604000  0.902400  1.0  -0.6642
  O  O163  1  0.550700  0.609500  0.194800  1.0  -0.6694
  O  O164  1  0.528200  0.448600  0.188700  1.0  -0.5634
  O  O165  1  0.454000  0.269000  0.552500  1.0  -0.7703
  O  O166  1  0.756000  0.611600  0.512400  1.0  -0.658
  O  O167  1  0.917800  0.734500  0.293900  1.0  -0.546
  O  O168  1  0.093800  0.626800  0.883300  1.0  -0.8368
  O  O169  1  0.070000  0.494800  0.060500  1.0  -0.7083
  O  O170  1  0.142000  0.728400  0.987100  1.0  -0.7098
  O  O171  1  0.765000  0.414700  0.494500  1.0  -0.6968
  O  O172  1  0.232300  0.791000  0.789600  1.0  -0.6213
  O  O173  1  0.050700  0.390500  0.305200  1.0  -0.6696
  O  O174  1  0.046000  0.269000  0.052500  1.0  -0.7688
  O  O175  1  0.547300  0.948300  0.205100  1.0  -0.6428
  O  O176  1  0.259500  0.276300  0.236200  1.0  -0.5701
  O  O177  1  0.684000  0.406000  0.391400  1.0  -0.8654
  O  O178  1  0.064000  0.744800  0.101400  1.0  -0.6429
  O  O179  1  0.267700  0.791000  0.289600  1.0  -0.6209
  O  O180  1  0.936000  0.255200  0.898600  1.0  -0.6461
  O  O181  1  0.735000  0.414700  0.994500  1.0  -0.6955
  O  O182  1  0.218600  0.484000  0.901800  1.0  -0.8721
  O  O183  1  0.385600  0.497600  0.480800  1.0  -0.637
  O  O184  1  0.798800  0.331800  0.594800  1.0  -0.7903
  O  O185  1  0.256000  0.388400  0.987600  1.0  -0.658
  O  O186  1  0.929600  0.688700  0.822800  1.0  -0.7287
  O  O187  1  0.265000  0.585300  0.005500  1.0  -0.6967
  O  O188  1  0.458500  0.504800  0.657600  1.0  -0.8875
  O  O189  1  0.417800  0.265500  0.206100  1.0  -0.5477
  O  O190  1  0.035000  0.596000  0.972000  1.0  -0.6826
  O  O191  1  0.123000  0.247000  0.943200  1.0  -0.6499
  O  O192  1  0.316000  0.594000  0.608600  1.0  -0.8677
  O  O193  1  0.430000  0.494800  0.560500  1.0  -0.7114
  O  O194  1  0.949300  0.609500  0.694800  1.0  -0.6704
  O  O195  1  0.930000  0.505200  0.939500  1.0  -0.7109
  O  O196  1  0.418000  0.356500  0.357800  1.0  -0.7696
  O  O197  1  0.406200  0.626800  0.383300  1.0  -0.836
  O  O198  1  0.642000  0.271600  0.512900  1.0  -0.7096
  O  O199  1  0.933700  0.107800  0.699000  1.0  -0.6654
  O  O200  1  0.593800  0.373200  0.616700  1.0  -0.8368
  O  O201  1  0.577800  0.217000  0.748200  1.0  -0.5569
  O  O202  1  0.317000  0.396000  0.597600  1.0  -0.6627
  O  O203  1  0.433700  0.892200  0.801000  1.0  -0.6627
  O  O204  1  0.377000  0.247000  0.443200  1.0  -0.6511
  O  O205  1  0.767700  0.209000  0.210400  1.0  -0.6225
  O  O206  1  0.918000  0.643500  0.142200  1.0  -0.7714
  O  O207  1  0.971800  0.448600  0.688700  1.0  -0.5633
  O  O208  1  0.358000  0.728400  0.487100  1.0  -0.707
  O  O209  1  0.066300  0.892200  0.301000  1.0  -0.6635
  O  O210  1  0.780100  0.710900  0.630600  1.0  -0.8071
  O  O211  1  0.546000  0.731000  0.447500  1.0  -0.7739
  O  O212  1  0.471800  0.551400  0.811300  1.0  -0.5611
  O  O213  1  0.570000  0.505200  0.439500  1.0  -0.7091
  O  O214  1  0.732300  0.209000  0.710400  1.0  -0.623
  O  O215  1  0.219900  0.289100  0.369400  1.0  -0.8058
  O  O216  1  0.027000  0.395000  0.953400  1.0  -0.6614
  O  O217  1  0.614400  0.502400  0.519200  1.0  -0.6318
  O  O218  1  0.452700  0.051700  0.794900  1.0  -0.6429
