# generated using pymatgen
data_La2H9C21(NO4)3
_symmetry_space_group_name_H-M   'P 1'
_cell_length_a   8.12410000
_cell_length_b   30.38430000
_cell_length_c   15.66160000
_cell_angle_alpha   90.00000000
_cell_angle_beta   90.00000000
_cell_angle_gamma   90.00000000
_symmetry_Int_Tables_number   1
_chemical_formula_structural   La2H9C21(NO4)3
_chemical_formula_sum   'La8 H36 C84 N12 O48'
_cell_volume   3865.98908707
_cell_formula_units_Z   4
loop_
 _symmetry_equiv_pos_site_id
 _symmetry_equiv_pos_as_xyz
  1  'x, y, z'
loop_
 _atom_site_type_symbol
 _atom_site_label
 _atom_site_symmetry_multiplicity
 _atom_site_fract_x
 _atom_site_fract_y
 _atom_site_fract_z
 _atom_site_occupancy
 _atom_site_charge
  La  La1  1  0.934400  0.591210  0.703630  1.0  2.1742
  La  La2  1  0.565600  0.408790  0.203630  1.0  2.174
  La  La3  1  0.065600  0.091210  0.296370  1.0  2.1734
  La  La4  1  0.434400  0.908790  0.796370  1.0  2.1735
  La  La5  1  0.065600  0.408790  0.296370  1.0  2.1735
  La  La6  1  0.434400  0.591210  0.796370  1.0  2.1734
  La  La7  1  0.934400  0.908790  0.703630  1.0  2.174
  La  La8  1  0.565600  0.091210  0.203630  1.0  2.1741
  H  H9  1  0.506900  0.389400  0.446300  1.0  0.097
  H  H10  1  0.387500  0.452300  0.656100  1.0  0.0987
  H  H11  1  0.783900  0.492000  0.523000  1.0  0.1214
  H  H12  1  0.280400  0.685400  0.929300  1.0  0.1028
  H  H13  1  0.993100  0.610600  0.946300  1.0  0.0968
  H  H14  1  0.112500  0.547700  0.156100  1.0  0.0984
  H  H15  1  0.716100  0.508000  0.023000  1.0  0.1206
  H  H16  1  0.219600  0.314600  0.429300  1.0  0.1027
  H  H17  1  0.493100  0.889400  0.553700  1.0  0.0964
  H  H18  1  0.612500  0.952300  0.343900  1.0  0.0993
  H  H19  1  0.216100  0.992000  0.477000  1.0  0.1211
  H  H20  1  0.719600  0.185400  0.070700  1.0  0.1014
  H  H21  1  0.006900  0.110600  0.053700  1.0  0.0956
  H  H22  1  0.887500  0.047700  0.843900  1.0  0.0983
  H  H23  1  0.283900  0.008000  0.977000  1.0  0.1215
  H  H24  1  0.780400  0.814600  0.570700  1.0  0.1019
  H  H25  1  0.493100  0.610600  0.553700  1.0  0.0957
  H  H26  1  0.612500  0.547700  0.343900  1.0  0.0983
  H  H27  1  0.216100  0.508000  0.477000  1.0  0.121
  H  H28  1  0.719600  0.314600  0.070700  1.0  0.1019
  H  H29  1  0.006900  0.389400  0.053700  1.0  0.0963
  H  H30  1  0.887500  0.452300  0.843900  1.0  0.0991
  H  H31  1  0.283900  0.492000  0.977000  1.0  0.1215
  H  H32  1  0.780400  0.685400  0.570700  1.0  0.1015
  H  H33  1  0.506900  0.110600  0.446300  1.0  0.0967
  H  H34  1  0.387500  0.047700  0.656100  1.0  0.0985
  H  H35  1  0.783900  0.008000  0.523000  1.0  0.1214
  H  H36  1  0.280400  0.814600  0.929300  1.0  0.103
  H  H37  1  0.993100  0.889400  0.946300  1.0  0.097
  H  H38  1  0.112500  0.952300  0.156100  1.0  0.0989
  H  H39  1  0.716100  0.992000  0.023000  1.0  0.1209
  H  H40  1  0.219600  0.185400  0.429300  1.0  0.1024
  H  H41  1  0.029400  0.750000  0.746100  1.0  0.1221
  H  H42  1  0.470600  0.250000  0.246100  1.0  0.1218
  H  H43  1  0.970600  0.250000  0.253900  1.0  0.1221
  H  H44  1  0.529400  0.750000  0.753900  1.0  0.1222
  C  C45  1  0.660800  0.439740  0.471900  1.0  -0.1768
  C  C46  1  0.528800  0.412020  0.486600  1.0  0.2324
  C  C47  1  0.459500  0.448720  0.608800  1.0  0.2277
  C  C48  1  0.589200  0.478230  0.599500  1.0  -0.1785
  C  C49  1  0.692100  0.473000  0.530500  1.0  -0.0041
  C  C50  1  0.767600  0.435790  0.393800  1.0  0.7021
  C  C51  1  0.608900  0.516320  0.658600  1.0  0.7317
  C  C52  1  0.148000  0.710640  0.831500  1.0  -0.1819
  C  C53  1  0.245600  0.712340  0.904400  1.0  0.1544
  C  C54  1  0.096400  0.668460  0.792000  1.0  0.6741
  C  C55  1  0.839200  0.560260  0.971900  1.0  -0.1779
  C  C56  1  0.971200  0.587980  0.986600  1.0  0.2308
  C  C57  1  0.040500  0.551280  0.108800  1.0  0.2264
  C  C58  1  0.910800  0.521770  0.099500  1.0  -0.1769
  C  C59  1  0.807900  0.527000  0.030500  1.0  -0.0023
  C  C60  1  0.732400  0.564210  0.893800  1.0  0.7021
  C  C61  1  0.891100  0.483680  0.158600  1.0  0.7296
  C  C62  1  0.352000  0.289360  0.331500  1.0  -0.1817
  C  C63  1  0.254400  0.287660  0.404400  1.0  0.1547
  C  C64  1  0.403600  0.331540  0.292000  1.0  0.6741
  C  C65  1  0.339200  0.939740  0.528100  1.0  -0.1775
  C  C66  1  0.471200  0.912020  0.513400  1.0  0.2301
  C  C67  1  0.540500  0.948720  0.391200  1.0  0.2263
  C  C68  1  0.410800  0.978230  0.400500  1.0  -0.1781
  C  C69  1  0.307900  0.973000  0.469500  1.0  -0.0011
  C  C70  1  0.232400  0.935790  0.606200  1.0  0.7017
  C  C71  1  0.391100  0.016320  0.341400  1.0  0.7333
  C  C72  1  0.852000  0.210640  0.168500  1.0  -0.1822
  C  C73  1  0.754400  0.212340  0.095600  1.0  0.1563
  C  C74  1  0.903600  0.168460  0.208000  1.0  0.675
  C  C75  1  0.160800  0.060260  0.028100  1.0  -0.1775
  C  C76  1  0.028800  0.087980  0.013400  1.0  0.2309
  C  C77  1  0.959500  0.051280  0.891200  1.0  0.227
  C  C78  1  0.089200  0.021770  0.900500  1.0  -0.1789
  C  C79  1  0.192100  0.027000  0.969500  1.0  -0.0028
  C  C80  1  0.267600  0.064210  0.106200  1.0  0.7023
  C  C81  1  0.108900  0.983680  0.841400  1.0  0.7345
  C  C82  1  0.648000  0.789360  0.668500  1.0  -0.1819
  C  C83  1  0.745600  0.787660  0.595600  1.0  0.1544
  C  C84  1  0.596400  0.831540  0.708000  1.0  0.6744
  C  C85  1  0.339200  0.560260  0.528100  1.0  -0.1771
  C  C86  1  0.471200  0.587980  0.513400  1.0  0.2299
  C  C87  1  0.540500  0.551280  0.391200  1.0  0.2262
  C  C88  1  0.410800  0.521770  0.400500  1.0  -0.179
  C  C89  1  0.307900  0.527000  0.469500  1.0  -0.0014
  C  C90  1  0.232400  0.564210  0.606200  1.0  0.7032
  C  C91  1  0.391100  0.483680  0.341400  1.0  0.7343
  C  C92  1  0.852000  0.289360  0.168500  1.0  -0.1822
  C  C93  1  0.754400  0.287660  0.095600  1.0  0.1563
  C  C94  1  0.903600  0.331540  0.208000  1.0  0.6748
  C  C95  1  0.160800  0.439740  0.028100  1.0  -0.1766
  C  C96  1  0.028800  0.412020  0.013400  1.0  0.2313
  C  C97  1  0.959500  0.448720  0.891200  1.0  0.2296
  C  C98  1  0.089200  0.478230  0.900500  1.0  -0.178
  C  C99  1  0.192100  0.473000  0.969500  1.0  -0.0027
  C  C100  1  0.267600  0.435790  0.106200  1.0  0.704
  C  C101  1  0.108900  0.516320  0.841400  1.0  0.7335
  C  C102  1  0.648000  0.710640  0.668500  1.0  -0.183
  C  C103  1  0.745600  0.712340  0.595600  1.0  0.1546
  C  C104  1  0.596400  0.668460  0.708000  1.0  0.6749
  C  C105  1  0.660800  0.060260  0.471900  1.0  -0.1774
  C  C106  1  0.528800  0.087980  0.486600  1.0  0.232
  C  C107  1  0.459500  0.051280  0.608800  1.0  0.2263
  C  C108  1  0.589200  0.021770  0.599500  1.0  -0.1774
  C  C109  1  0.692100  0.027000  0.530500  1.0  -0.0042
  C  C110  1  0.767600  0.064210  0.393800  1.0  0.7036
  C  C111  1  0.608900  0.983680  0.658600  1.0  0.7311
  C  C112  1  0.148000  0.789360  0.831500  1.0  -0.1812
  C  C113  1  0.245600  0.787660  0.904400  1.0  0.1547
  C  C114  1  0.096400  0.831540  0.792000  1.0  0.6737
  C  C115  1  0.839200  0.939740  0.971900  1.0  -0.1786
  C  C116  1  0.971200  0.912020  0.986600  1.0  0.2309
  C  C117  1  0.040500  0.948720  0.108800  1.0  0.224
  C  C118  1  0.910800  0.978230  0.099500  1.0  -0.1785
  C  C119  1  0.807900  0.973000  0.030500  1.0  -0.0019
  C  C120  1  0.732400  0.935790  0.893800  1.0  0.7033
  C  C121  1  0.891100  0.016320  0.158600  1.0  0.7301
  C  C122  1  0.352000  0.210640  0.331500  1.0  -0.1818
  C  C123  1  0.254400  0.212340  0.404400  1.0  0.1545
  C  C124  1  0.403600  0.168460  0.292000  1.0  0.6742
  C  C125  1  0.097700  0.750000  0.795300  1.0  -0.0046
  C  C126  1  0.402300  0.250000  0.295300  1.0  -0.004
  C  C127  1  0.902300  0.250000  0.204700  1.0  -0.0046
  C  C128  1  0.597700  0.750000  0.704700  1.0  -0.0049
  N  N129  1  0.430600  0.415470  0.554700  1.0  -0.3809
  N  N130  1  0.069400  0.584530  0.054700  1.0  -0.3849
  N  N131  1  0.569400  0.915470  0.445300  1.0  -0.3801
  N  N132  1  0.930600  0.084530  0.945300  1.0  -0.3854
  N  N133  1  0.569400  0.584530  0.445300  1.0  -0.3884
  N  N134  1  0.930600  0.415470  0.945300  1.0  -0.3787
  N  N135  1  0.430600  0.084530  0.554700  1.0  -0.3833
  N  N136  1  0.069400  0.915470  0.054700  1.0  -0.3818
  N  N137  1  0.292900  0.750000  0.941300  1.0  -0.4011
  N  N138  1  0.207100  0.250000  0.441300  1.0  -0.4061
  N  N139  1  0.707100  0.250000  0.058700  1.0  -0.4032
  N  N140  1  0.792900  0.750000  0.558700  1.0  -0.41
  O  O141  1  0.889700  0.461190  0.389500  1.0  -0.6322
  O  O142  1  0.741800  0.406250  0.338700  1.0  -0.7662
  O  O143  1  0.494100  0.524660  0.710200  1.0  -0.6975
  O  O144  1  0.738900  0.538630  0.651300  1.0  -0.7467
  O  O145  1  0.155400  0.632040  0.816000  1.0  -0.7244
  O  O146  1  0.988800  0.670430  0.733900  1.0  -0.681
  O  O147  1  0.610300  0.538810  0.889500  1.0  -0.6315
  O  O148  1  0.758200  0.593750  0.838700  1.0  -0.7656
  O  O149  1  0.005900  0.475340  0.210200  1.0  -0.6974
  O  O150  1  0.761100  0.461370  0.151300  1.0  -0.747
  O  O151  1  0.344600  0.367960  0.316000  1.0  -0.726
  O  O152  1  0.511200  0.329570  0.233900  1.0  -0.6811
  O  O153  1  0.110300  0.961190  0.610500  1.0  -0.6326
  O  O154  1  0.258200  0.906250  0.661300  1.0  -0.7634
  O  O155  1  0.505900  0.024660  0.289800  1.0  -0.6991
  O  O156  1  0.261100  0.038630  0.348700  1.0  -0.7464
  O  O157  1  0.844600  0.132040  0.184000  1.0  -0.7252
  O  O158  1  0.011200  0.170430  0.266100  1.0  -0.6808
  O  O159  1  0.389700  0.038810  0.110500  1.0  -0.6309
  O  O160  1  0.241800  0.093750  0.161300  1.0  -0.7651
  O  O161  1  0.994100  0.975340  0.789800  1.0  -0.6988
  O  O162  1  0.238900  0.961370  0.848700  1.0  -0.7457
  O  O163  1  0.655400  0.867960  0.684000  1.0  -0.7245
  O  O164  1  0.488800  0.829570  0.766100  1.0  -0.681
  O  O165  1  0.110300  0.538810  0.610500  1.0  -0.6318
  O  O166  1  0.258200  0.593750  0.661300  1.0  -0.7645
  O  O167  1  0.505900  0.475340  0.289800  1.0  -0.699
  O  O168  1  0.261100  0.461370  0.348700  1.0  -0.7465
  O  O169  1  0.844600  0.367960  0.184000  1.0  -0.7257
  O  O170  1  0.011200  0.329570  0.266100  1.0  -0.681
  O  O171  1  0.389700  0.461190  0.110500  1.0  -0.6325
  O  O172  1  0.241800  0.406250  0.161300  1.0  -0.7643
  O  O173  1  0.994100  0.524660  0.789800  1.0  -0.6994
  O  O174  1  0.238900  0.538630  0.848700  1.0  -0.7464
  O  O175  1  0.655400  0.632040  0.684000  1.0  -0.7242
  O  O176  1  0.488800  0.670430  0.766100  1.0  -0.681
  O  O177  1  0.889700  0.038810  0.389500  1.0  -0.6309
  O  O178  1  0.741800  0.093750  0.338700  1.0  -0.7655
  O  O179  1  0.494100  0.975340  0.710200  1.0  -0.6978
  O  O180  1  0.738900  0.961370  0.651300  1.0  -0.7459
  O  O181  1  0.155400  0.867960  0.816000  1.0  -0.7248
  O  O182  1  0.988800  0.829570  0.733900  1.0  -0.6813
  O  O183  1  0.610300  0.961190  0.889500  1.0  -0.6322
  O  O184  1  0.758200  0.906250  0.838700  1.0  -0.7658
  O  O185  1  0.005900  0.024660  0.210200  1.0  -0.6964
  O  O186  1  0.761100  0.038630  0.151300  1.0  -0.7468
  O  O187  1  0.344600  0.132040  0.316000  1.0  -0.7254
  O  O188  1  0.511200  0.170430  0.233900  1.0  -0.6812
