# generated using pymatgen
data_MnH3C7NO4
_symmetry_space_group_name_H-M   'P 1'
_cell_length_a   13.25790000
_cell_length_b   11.43800000
_cell_length_c   28.74500000
_cell_angle_alpha   90.00000000
_cell_angle_beta   99.88700000
_cell_angle_gamma   90.00000000
_symmetry_Int_Tables_number   1
_chemical_formula_structural   MnH3C7NO4
_chemical_formula_sum   'Mn12 H36 C84 N12 O48'
_cell_volume   4294.26420492
_cell_formula_units_Z   12
loop_
 _symmetry_equiv_pos_site_id
 _symmetry_equiv_pos_as_xyz
  1  'x, y, z'
loop_
 _atom_site_type_symbol
 _atom_site_label
 _atom_site_symmetry_multiplicity
 _atom_site_fract_x
 _atom_site_fract_y
 _atom_site_fract_z
 _atom_site_occupancy
 _atom_site_charge
  Mn  Mn1  1  0.958990  0.548890  0.668630  1.0  1.2077
  Mn  Mn2  1  0.146600  0.828550  0.635500  1.0  1.0595
  Mn  Mn3  1  0.714720  0.797800  0.856880  1.0  1.0539
  Mn  Mn4  1  0.541010  0.048890  0.831370  1.0  1.2055
  Mn  Mn5  1  0.353400  0.328550  0.864500  1.0  1.0602
  Mn  Mn6  1  0.785280  0.297800  0.643120  1.0  1.0538
  Mn  Mn7  1  0.041010  0.451110  0.331370  1.0  1.2062
  Mn  Mn8  1  0.853400  0.171450  0.364500  1.0  1.0606
  Mn  Mn9  1  0.285280  0.202200  0.143120  1.0  1.0537
  Mn  Mn10  1  0.458990  0.951110  0.168630  1.0  1.2084
  Mn  Mn11  1  0.646600  0.671450  0.135500  1.0  1.0594
  Mn  Mn12  1  0.214720  0.702200  0.356880  1.0  1.054
  H  H13  1  0.316700  0.799400  0.766100  1.0  0.1155
  H  H14  1  0.878000  0.045900  0.627500  1.0  0.0927
  H  H15  1  0.170200  0.646000  0.511200  1.0  0.1217
  H  H16  1  0.451300  0.575700  0.866300  1.0  0.0966
  H  H17  1  0.197600  0.481700  0.782500  1.0  0.1003
  H  H18  1  0.805700  0.810400  0.720300  1.0  0.1214
  H  H19  1  0.696700  0.140800  0.715700  1.0  0.0951
  H  H20  1  0.142900  0.342300  0.438500  1.0  0.0861
  H  H21  1  0.076000  0.350100  0.566100  1.0  0.083
  H  H22  1  0.183300  0.299400  0.733900  1.0  0.1154
  H  H23  1  0.622000  0.545900  0.872500  1.0  0.0923
  H  H24  1  0.329800  0.146000  0.988800  1.0  0.1221
  H  H25  1  0.048700  0.075700  0.633700  1.0  0.0953
  H  H26  1  0.302400  0.981700  0.717500  1.0  0.1004
  H  H27  1  0.694300  0.310400  0.779700  1.0  0.1223
  H  H28  1  0.803300  0.640800  0.784300  1.0  0.0951
  H  H29  1  0.357100  0.842300  0.061500  1.0  0.0872
  H  H30  1  0.424000  0.850100  0.933900  1.0  0.0834
  H  H31  1  0.683300  0.200600  0.233900  1.0  0.1159
  H  H32  1  0.122000  0.954100  0.372500  1.0  0.0921
  H  H33  1  0.829800  0.354000  0.488800  1.0  0.1218
  H  H34  1  0.548700  0.424300  0.133700  1.0  0.0957
  H  H35  1  0.802400  0.518300  0.217500  1.0  0.1001
  H  H36  1  0.194300  0.189600  0.279700  1.0  0.1223
  H  H37  1  0.303300  0.859200  0.284300  1.0  0.0958
  H  H38  1  0.857100  0.657700  0.561500  1.0  0.0876
  H  H39  1  0.924000  0.649900  0.433900  1.0  0.0837
  H  H40  1  0.816700  0.700600  0.266100  1.0  0.1157
  H  H41  1  0.378000  0.454100  0.127500  1.0  0.0926
  H  H42  1  0.670200  0.854000  0.011200  1.0  0.1226
  H  H43  1  0.951300  0.924300  0.366300  1.0  0.0967
  H  H44  1  0.697600  0.018300  0.282500  1.0  0.1009
  H  H45  1  0.305700  0.689600  0.220300  1.0  0.1212
  H  H46  1  0.196700  0.359200  0.215700  1.0  0.0954
  H  H47  1  0.642900  0.157700  0.938500  1.0  0.0872
  H  H48  1  0.576000  0.149900  0.066100  1.0  0.0832
  C  C49  1  0.851100  0.914600  0.670170  1.0  -0.1627
  C  C50  1  0.398300  0.701100  0.818030  1.0  -0.1582
  C  C51  1  0.241800  0.645000  0.768800  1.0  -0.1792
  C  C52  1  0.119400  0.507900  0.545420  1.0  -0.1858
  C  C53  1  0.318800  0.726400  0.781940  1.0  0.0283
  C  C54  1  0.918000  0.825800  0.650660  1.0  0.7211
  C  C55  1  0.841500  0.026400  0.652120  1.0  0.1518
  C  C56  1  0.152800  0.565400  0.508530  1.0  0.0164
  C  C57  1  0.102200  0.575000  0.589030  1.0  0.7762
  C  C58  1  0.398000  0.592600  0.840560  1.0  0.1835
  C  C59  1  0.190100  0.566600  0.426290  1.0  0.5965
  C  C60  1  0.746000  0.973600  0.725580  1.0  -0.2026
  C  C61  1  0.249300  0.538500  0.792070  1.0  0.2157
  C  C62  1  0.154600  0.668800  0.728980  1.0  0.7426
  C  C63  1  0.801600  0.887000  0.707440  1.0  0.027
  C  C64  1  0.737100  0.082800  0.704050  1.0  0.2103
  C  C65  1  0.487000  0.783200  0.831090  1.0  0.7176
  C  C66  1  0.160600  0.503900  0.467520  1.0  -0.0835
  C  C67  1  0.137400  0.384700  0.466370  1.0  0.2003
  C  C68  1  0.695800  0.953200  0.768390  1.0  0.7505
  C  C69  1  0.098500  0.389500  0.540620  1.0  0.207
  C  C70  1  0.648900  0.414600  0.829830  1.0  -0.1631
  C  C71  1  0.101700  0.201100  0.681970  1.0  -0.1585
  C  C72  1  0.258200  0.145000  0.731200  1.0  -0.1794
  C  C73  1  0.380600  0.007900  0.954580  1.0  -0.1855
  C  C74  1  0.181200  0.226400  0.718060  1.0  0.0279
  C  C75  1  0.582000  0.325800  0.849340  1.0  0.7215
  C  C76  1  0.658500  0.526400  0.847880  1.0  0.1516
  C  C77  1  0.347200  0.065400  0.991470  1.0  0.0178
  C  C78  1  0.397800  0.075000  0.910970  1.0  0.7816
  C  C79  1  0.102000  0.092600  0.659440  1.0  0.1829
  C  C80  1  0.309900  0.066600  0.073710  1.0  0.5976
  C  C81  1  0.754000  0.473600  0.774420  1.0  -0.2029
  C  C82  1  0.250700  0.038500  0.707930  1.0  0.2144
  C  C83  1  0.345400  0.168800  0.771020  1.0  0.7413
  C  C84  1  0.698400  0.387000  0.792560  1.0  0.028
  C  C85  1  0.762900  0.582800  0.795950  1.0  0.2103
  C  C86  1  0.013000  0.283200  0.668910  1.0  0.7182
  C  C87  1  0.339400  0.003900  0.032480  1.0  -0.0831
  C  C88  1  0.362600  0.884700  0.033630  1.0  0.2002
  C  C89  1  0.804200  0.453200  0.731610  1.0  0.7493
  C  C90  1  0.401500  0.889500  0.959380  1.0  0.2027
  C  C91  1  0.148900  0.085400  0.329830  1.0  -0.163
  C  C92  1  0.601700  0.298900  0.181970  1.0  -0.1586
  C  C93  1  0.758200  0.355000  0.231200  1.0  -0.1796
  C  C94  1  0.880600  0.492100  0.454580  1.0  -0.1864
  C  C95  1  0.681200  0.273600  0.218060  1.0  0.0283
  C  C96  1  0.082000  0.174200  0.349340  1.0  0.7216
  C  C97  1  0.158500  0.973600  0.347880  1.0  0.1517
  C  C98  1  0.847200  0.434600  0.491470  1.0  0.0188
  C  C99  1  0.897800  0.425000  0.410970  1.0  0.7804
  C  C100  1  0.602000  0.407400  0.159440  1.0  0.1826
  C  C101  1  0.809900  0.433400  0.573710  1.0  0.5973
  C  C102  1  0.254000  0.026400  0.274420  1.0  -0.2028
  C  C103  1  0.750700  0.461500  0.207930  1.0  0.2148
  C  C104  1  0.845400  0.331200  0.271020  1.0  0.7412
  C  C105  1  0.198400  0.113000  0.292560  1.0  0.0274
  C  C106  1  0.262900  0.917200  0.295950  1.0  0.2115
  C  C107  1  0.513000  0.216800  0.168910  1.0  0.7182
  C  C108  1  0.839400  0.496100  0.532480  1.0  -0.0832
  C  C109  1  0.862600  0.615300  0.533630  1.0  0.2016
  C  C110  1  0.304200  0.046800  0.231610  1.0  0.7493
  C  C111  1  0.901500  0.610500  0.459380  1.0  0.203
  C  C112  1  0.351100  0.585400  0.170170  1.0  -0.1619
  C  C113  1  0.898300  0.798900  0.318030  1.0  -0.1583
  C  C114  1  0.741800  0.855000  0.268800  1.0  -0.1794
  C  C115  1  0.619400  0.992100  0.045420  1.0  -0.1847
  C  C116  1  0.818800  0.773600  0.281940  1.0  0.0283
  C  C117  1  0.418000  0.674200  0.150660  1.0  0.7214
  C  C118  1  0.341500  0.473600  0.152120  1.0  0.1517
  C  C119  1  0.652800  0.934600  0.008530  1.0  0.0177
  C  C120  1  0.602200  0.925000  0.089030  1.0  0.7772
  C  C121  1  0.898000  0.907400  0.340560  1.0  0.1828
  C  C122  1  0.690100  0.933400  0.926290  1.0  0.5966
  C  C123  1  0.246000  0.526400  0.225580  1.0  -0.2025
  C  C124  1  0.749300  0.961500  0.292070  1.0  0.2155
  C  C125  1  0.654600  0.831200  0.228980  1.0  0.7424
  C  C126  1  0.301600  0.613000  0.207440  1.0  0.0265
  C  C127  1  0.237100  0.417200  0.204050  1.0  0.2115
  C  C128  1  0.987000  0.716800  0.331090  1.0  0.7171
  C  C129  1  0.660600  0.996100  0.967520  1.0  -0.0838
  C  C130  1  0.637400  0.115300  0.966370  1.0  0.2016
  C  C131  1  0.195800  0.546800  0.268390  1.0  0.7504
  C  C132  1  0.598500  0.110500  0.040620  1.0  0.2063
  N  N133  1  0.783400  0.109500  0.667480  1.0  -0.4222
  N  N134  1  0.325500  0.511200  0.827300  1.0  -0.4141
  N  N135  1  0.108200  0.327100  0.501910  1.0  -0.3839
  N  N136  1  0.716600  0.609500  0.832520  1.0  -0.423
  N  N137  1  0.174500  0.011200  0.672700  1.0  -0.4134
  N  N138  1  0.391800  0.827100  0.998090  1.0  -0.3838
  N  N139  1  0.216600  0.890500  0.332520  1.0  -0.4223
  N  N140  1  0.674500  0.488800  0.172700  1.0  -0.4143
  N  N141  1  0.891800  0.672900  0.498090  1.0  -0.3907
  N  N142  1  0.283400  0.390500  0.167480  1.0  -0.4244
  N  N143  1  0.825500  0.988800  0.327300  1.0  -0.4155
  N  N144  1  0.608200  0.172900  0.001910  1.0  -0.3908
  O  O145  1  0.985400  0.864200  0.629880  1.0  -0.631
  O  O146  1  0.559600  0.751300  0.862790  1.0  -0.587
  O  O147  1  0.173700  0.519900  0.385610  1.0  -0.6815
  O  O148  1  0.050700  0.524100  0.615720  1.0  -0.6343
  O  O149  1  0.897700  0.720400  0.657340  1.0  -0.6521
  O  O150  1  0.645400  0.035800  0.781010  1.0  -0.6009
  O  O151  1  0.230300  0.666000  0.432850  1.0  -0.5708
  O  O152  1  0.484000  0.876300  0.807850  1.0  -0.6166
  O  O153  1  0.080600  0.600100  0.724280  1.0  -0.6112
  O  O154  1  0.163400  0.758900  0.704680  1.0  -0.6704
  O  O155  1  0.141400  0.674300  0.594320  1.0  -0.7043
  O  O156  1  0.710100  0.854400  0.787210  1.0  -0.6233
  O  O157  1  0.514600  0.364200  0.870120  1.0  -0.6293
  O  O158  1  0.940400  0.251300  0.637210  1.0  -0.589
  O  O159  1  0.326300  0.019900  0.114390  1.0  -0.6833
  O  O160  1  0.449300  0.024100  0.884280  1.0  -0.6324
  O  O161  1  0.602300  0.220400  0.842660  1.0  -0.6519
  O  O162  1  0.854600  0.535800  0.718990  1.0  -0.6014
  O  O163  1  0.269700  0.166000  0.067150  1.0  -0.5731
  O  O164  1  0.016000  0.376300  0.692150  1.0  -0.6157
  O  O165  1  0.419400  0.100100  0.775720  1.0  -0.6114
  O  O166  1  0.336600  0.258900  0.795320  1.0  -0.6719
  O  O167  1  0.358600  0.174300  0.905680  1.0  -0.7056
  O  O168  1  0.789900  0.354400  0.712790  1.0  -0.6246
  O  O169  1  0.014600  0.135800  0.370120  1.0  -0.629
  O  O170  1  0.440400  0.248700  0.137210  1.0  -0.5885
  O  O171  1  0.826300  0.480100  0.614390  1.0  -0.6851
  O  O172  1  0.949300  0.475900  0.384280  1.0  -0.6328
  O  O173  1  0.102300  0.279600  0.342660  1.0  -0.6504
  O  O174  1  0.354600  0.964200  0.218990  1.0  -0.6004
  O  O175  1  0.769700  0.334000  0.567150  1.0  -0.572
  O  O176  1  0.516000  0.123700  0.192150  1.0  -0.615
  O  O177  1  0.919400  0.399900  0.275720  1.0  -0.6115
  O  O178  1  0.836600  0.241100  0.295320  1.0  -0.6719
  O  O179  1  0.858600  0.325700  0.405680  1.0  -0.7027
  O  O180  1  0.289900  0.145600  0.212790  1.0  -0.6235
  O  O181  1  0.485400  0.635800  0.129880  1.0  -0.6315
  O  O182  1  0.059600  0.748700  0.362790  1.0  -0.5872
  O  O183  1  0.673700  0.980100  0.885610  1.0  -0.6811
  O  O184  1  0.550700  0.975900  0.115720  1.0  -0.634
  O  O185  1  0.397700  0.779600  0.157340  1.0  -0.6515
  O  O186  1  0.145400  0.464200  0.281010  1.0  -0.6001
  O  O187  1  0.730300  0.834000  0.932850  1.0  -0.5732
  O  O188  1  0.984000  0.623700  0.307850  1.0  -0.6161
  O  O189  1  0.580600  0.899900  0.224280  1.0  -0.6109
  O  O190  1  0.663400  0.741100  0.204680  1.0  -0.6709
  O  O191  1  0.641400  0.825700  0.094320  1.0  -0.7019
  O  O192  1  0.210100  0.645600  0.287210  1.0  -0.6224
