# generated using pymatgen
data_Ce2H9C21(NO4)3
_symmetry_space_group_name_H-M   'P 1'
_cell_length_a   8.11620000
_cell_length_b   30.28420000
_cell_length_c   15.67090000
_cell_angle_alpha   90.00000000
_cell_angle_beta   90.00000000
_cell_angle_gamma   90.00000000
_symmetry_Int_Tables_number   1
_chemical_formula_structural   Ce2H9C21(NO4)3
_chemical_formula_sum   'Ce8 H36 C84 N12 O48'
_cell_volume   3851.79163207
_cell_formula_units_Z   4
loop_
 _symmetry_equiv_pos_site_id
 _symmetry_equiv_pos_as_xyz
  1  'x, y, z'
loop_
 _atom_site_type_symbol
 _atom_site_label
 _atom_site_symmetry_multiplicity
 _atom_site_fract_x
 _atom_site_fract_y
 _atom_site_fract_z
 _atom_site_occupancy
 _atom_site_charge
  Ce  Ce1  1  0.439110  0.908690  0.703930  1.0  2.2417
  Ce  Ce2  1  0.060890  0.091310  0.203930  1.0  2.2413
  Ce  Ce3  1  0.560890  0.408690  0.296070  1.0  2.2387
  Ce  Ce4  1  0.939110  0.591310  0.796070  1.0  2.2386
  Ce  Ce5  1  0.560890  0.091310  0.296070  1.0  2.2383
  Ce  Ce6  1  0.939110  0.908690  0.796070  1.0  2.239
  Ce  Ce7  1  0.439110  0.591310  0.703930  1.0  2.2415
  Ce  Ce8  1  0.060890  0.408690  0.203930  1.0  2.2415
  H  H9  1  0.998600  0.109600  0.446600  1.0  0.0887
  H  H10  1  0.889000  0.046100  0.656900  1.0  0.0995
  H  H11  1  0.784600  0.814800  0.929200  1.0  0.1041
  H  H12  1  0.287000  0.008500  0.522000  1.0  0.1228
  H  H13  1  0.501400  0.890400  0.946600  1.0  0.0886
  H  H14  1  0.611000  0.953900  0.156900  1.0  0.0994
  H  H15  1  0.715400  0.185200  0.429200  1.0  0.1041
  H  H16  1  0.213000  0.991500  0.022000  1.0  0.1222
  H  H17  1  0.001400  0.609600  0.553400  1.0  0.0881
  H  H18  1  0.111000  0.546100  0.343100  1.0  0.0987
  H  H19  1  0.215400  0.314800  0.070800  1.0  0.1027
  H  H20  1  0.713000  0.508500  0.478000  1.0  0.1222
  H  H21  1  0.498600  0.390400  0.053400  1.0  0.0882
  H  H22  1  0.389000  0.453900  0.843100  1.0  0.0991
  H  H23  1  0.284600  0.685200  0.570800  1.0  0.1027
  H  H24  1  0.787000  0.491500  0.978000  1.0  0.1226
  H  H25  1  0.001400  0.890400  0.553400  1.0  0.0886
  H  H26  1  0.111000  0.953900  0.343100  1.0  0.0993
  H  H27  1  0.215400  0.185200  0.070800  1.0  0.1026
  H  H28  1  0.713000  0.991500  0.478000  1.0  0.1223
  H  H29  1  0.498600  0.109600  0.053400  1.0  0.0879
  H  H30  1  0.389000  0.046100  0.843100  1.0  0.0988
  H  H31  1  0.284600  0.814800  0.570800  1.0  0.1026
  H  H32  1  0.787000  0.008500  0.978000  1.0  0.1228
  H  H33  1  0.998600  0.390400  0.446600  1.0  0.0885
  H  H34  1  0.889000  0.453900  0.656900  1.0  0.0995
  H  H35  1  0.784600  0.685200  0.929200  1.0  0.1044
  H  H36  1  0.287000  0.491500  0.522000  1.0  0.1226
  H  H37  1  0.501400  0.609600  0.946600  1.0  0.0886
  H  H38  1  0.611000  0.546100  0.156900  1.0  0.0993
  H  H39  1  0.715400  0.314800  0.429200  1.0  0.1041
  H  H40  1  0.213000  0.508500  0.022000  1.0  0.122
  H  H41  1  0.529500  0.750000  0.747300  1.0  0.1209
  H  H42  1  0.970500  0.250000  0.247300  1.0  0.1209
  H  H43  1  0.470500  0.250000  0.252700  1.0  0.1217
  H  H44  1  0.029500  0.750000  0.752700  1.0  0.1218
  C  C45  1  0.601500  0.831810  0.791400  1.0  0.6797
  C  C46  1  0.156800  0.060260  0.471000  1.0  -0.1715
  C  C47  1  0.023200  0.087050  0.486700  1.0  0.2296
  C  C48  1  0.115800  0.983130  0.658700  1.0  0.7339
  C  C49  1  0.264000  0.064570  0.392800  1.0  0.7086
  C  C50  1  0.959600  0.050070  0.609100  1.0  0.2164
  C  C51  1  0.654300  0.789630  0.831100  1.0  -0.1863
  C  C52  1  0.091800  0.021200  0.599200  1.0  -0.1775
  C  C53  1  0.751700  0.787670  0.903800  1.0  0.1564
  C  C54  1  0.193400  0.026920  0.529800  1.0  -0.021
  C  C55  1  0.898500  0.168190  0.291400  1.0  0.6806
  C  C56  1  0.343200  0.939740  0.971000  1.0  -0.1745
  C  C57  1  0.476800  0.912950  0.986700  1.0  0.2282
  C  C58  1  0.384200  0.016870  0.158700  1.0  0.7331
  C  C59  1  0.236000  0.935430  0.892800  1.0  0.7094
  C  C60  1  0.540400  0.949930  0.109100  1.0  0.2148
  C  C61  1  0.845700  0.210370  0.331100  1.0  -0.1867
  C  C62  1  0.408200  0.978800  0.099200  1.0  -0.1783
  C  C63  1  0.748300  0.212330  0.403800  1.0  0.1575
  C  C64  1  0.306600  0.973080  0.029800  1.0  -0.0207
  C  C65  1  0.398500  0.331810  0.208600  1.0  0.6809
  C  C66  1  0.843200  0.560260  0.529000  1.0  -0.1727
  C  C67  1  0.976800  0.587050  0.513300  1.0  0.2285
  C  C68  1  0.884200  0.483130  0.341300  1.0  0.7359
  C  C69  1  0.736000  0.564570  0.607200  1.0  0.7084
  C  C70  1  0.040400  0.550070  0.390900  1.0  0.2171
  C  C71  1  0.345700  0.289630  0.168900  1.0  -0.1872
  C  C72  1  0.908200  0.521200  0.400800  1.0  -0.1785
  C  C73  1  0.248300  0.287670  0.096200  1.0  0.1587
  C  C74  1  0.806600  0.526920  0.470200  1.0  -0.0197
  C  C75  1  0.101500  0.668190  0.708600  1.0  0.6804
  C  C76  1  0.656800  0.439740  0.029000  1.0  -0.1715
  C  C77  1  0.523200  0.412950  0.013300  1.0  0.2289
  C  C78  1  0.615800  0.516870  0.841300  1.0  0.7344
  C  C79  1  0.764000  0.435430  0.107200  1.0  0.7086
  C  C80  1  0.459600  0.449930  0.890900  1.0  0.2203
  C  C81  1  0.154300  0.710370  0.668900  1.0  -0.1877
  C  C82  1  0.591800  0.478800  0.900800  1.0  -0.178
  C  C83  1  0.251700  0.712330  0.596200  1.0  0.1571
  C  C84  1  0.693400  0.473080  0.970200  1.0  -0.0197
  C  C85  1  0.398500  0.168190  0.208600  1.0  0.6811
  C  C86  1  0.843200  0.939740  0.529000  1.0  -0.1734
  C  C87  1  0.976800  0.912950  0.513300  1.0  0.228
  C  C88  1  0.884200  0.016870  0.341300  1.0  0.7346
  C  C89  1  0.736000  0.935430  0.607200  1.0  0.7085
  C  C90  1  0.040400  0.949930  0.390900  1.0  0.2172
  C  C91  1  0.345700  0.210370  0.168900  1.0  -0.1872
  C  C92  1  0.908200  0.978800  0.400800  1.0  -0.1772
  C  C93  1  0.248300  0.212330  0.096200  1.0  0.159
  C  C94  1  0.806600  0.973080  0.470200  1.0  -0.0199
  C  C95  1  0.101500  0.831810  0.708600  1.0  0.6802
  C  C96  1  0.656800  0.060260  0.029000  1.0  -0.1723
  C  C97  1  0.523200  0.087050  0.013300  1.0  0.2291
  C  C98  1  0.615800  0.983130  0.841300  1.0  0.7356
  C  C99  1  0.764000  0.064570  0.107200  1.0  0.7082
  C  C100  1  0.459600  0.050070  0.890900  1.0  0.2178
  C  C101  1  0.154300  0.789630  0.668900  1.0  -0.1869
  C  C102  1  0.591800  0.021200  0.900800  1.0  -0.1789
  C  C103  1  0.251700  0.787670  0.596200  1.0  0.1564
  C  C104  1  0.693400  0.026920  0.970200  1.0  -0.0196
  C  C105  1  0.601500  0.668190  0.791400  1.0  0.6799
  C  C106  1  0.156800  0.439740  0.471000  1.0  -0.1712
  C  C107  1  0.023200  0.412950  0.486700  1.0  0.2293
  C  C108  1  0.115800  0.516870  0.658700  1.0  0.7337
  C  C109  1  0.264000  0.435430  0.392800  1.0  0.7087
  C  C110  1  0.959600  0.449930  0.609100  1.0  0.2183
  C  C111  1  0.654300  0.710370  0.831100  1.0  -0.1866
  C  C112  1  0.091800  0.478800  0.599200  1.0  -0.1785
  C  C113  1  0.751700  0.712330  0.903800  1.0  0.157
  C  C114  1  0.193400  0.473080  0.529800  1.0  -0.0211
  C  C115  1  0.898500  0.331810  0.291400  1.0  0.6806
  C  C116  1  0.343200  0.560260  0.971000  1.0  -0.1734
  C  C117  1  0.476800  0.587050  0.986700  1.0  0.2286
  C  C118  1  0.384200  0.483130  0.158700  1.0  0.7335
  C  C119  1  0.236000  0.564570  0.892800  1.0  0.7095
  C  C120  1  0.540400  0.550070  0.109100  1.0  0.217
  C  C121  1  0.845700  0.289630  0.331100  1.0  -0.1868
  C  C122  1  0.408200  0.521200  0.099200  1.0  -0.1769
  C  C123  1  0.748300  0.287670  0.403800  1.0  0.1569
  C  C124  1  0.306600  0.526920  0.029800  1.0  -0.0207
  C  C125  1  0.601000  0.750000  0.795300  1.0  -0.0133
  C  C126  1  0.899000  0.250000  0.295300  1.0  -0.0126
  C  C127  1  0.399000  0.250000  0.204700  1.0  -0.0131
  C  C128  1  0.101000  0.750000  0.704700  1.0  -0.014
  N  N129  1  0.926400  0.083160  0.555000  1.0  -0.3822
  N  N130  1  0.573600  0.916840  0.055000  1.0  -0.3788
  N  N131  1  0.073600  0.583160  0.445000  1.0  -0.3858
  N  N132  1  0.426400  0.416840  0.945000  1.0  -0.3788
  N  N133  1  0.073600  0.916840  0.445000  1.0  -0.3788
  N  N134  1  0.426400  0.083160  0.945000  1.0  -0.3832
  N  N135  1  0.926400  0.416840  0.555000  1.0  -0.3801
  N  N136  1  0.573600  0.583160  0.055000  1.0  -0.3828
  N  N137  1  0.802500  0.750000  0.940600  1.0  -0.3967
  N  N138  1  0.697500  0.250000  0.440600  1.0  -0.3983
  N  N139  1  0.197500  0.250000  0.059400  1.0  -0.3992
  N  N140  1  0.302500  0.750000  0.559400  1.0  -0.402
  O  O141  1  0.662500  0.868610  0.816200  1.0  -0.8005
  O  O142  1  0.386500  0.039330  0.387100  1.0  -0.6125
  O  O143  1  0.248300  0.962070  0.651200  1.0  -0.758
  O  O144  1  0.493300  0.830220  0.734500  1.0  -0.6684
  O  O145  1  0.234300  0.094760  0.338300  1.0  -0.7582
  O  O146  1  0.002700  0.973800  0.709400  1.0  -0.6958
  O  O147  1  0.837500  0.131390  0.316200  1.0  -0.801
  O  O148  1  0.113500  0.960670  0.887100  1.0  -0.613
  O  O149  1  0.251700  0.037930  0.151200  1.0  -0.7598
  O  O150  1  0.006700  0.169780  0.234500  1.0  -0.6683
  O  O151  1  0.265700  0.905240  0.838300  1.0  -0.7595
  O  O152  1  0.497300  0.026200  0.209400  1.0  -0.6942
  O  O153  1  0.337500  0.368610  0.183800  1.0  -0.8004
  O  O154  1  0.613500  0.539330  0.612900  1.0  -0.6128
  O  O155  1  0.751700  0.462070  0.348800  1.0  -0.7594
  O  O156  1  0.506700  0.330220  0.265500  1.0  -0.6683
  O  O157  1  0.765700  0.594760  0.661700  1.0  -0.7599
  O  O158  1  0.997300  0.473800  0.290600  1.0  -0.6963
  O  O159  1  0.162500  0.631390  0.683800  1.0  -0.8007
  O  O160  1  0.886500  0.460670  0.112900  1.0  -0.6135
  O  O161  1  0.748300  0.537930  0.848800  1.0  -0.7588
  O  O162  1  0.993300  0.669780  0.765500  1.0  -0.6687
  O  O163  1  0.734300  0.405240  0.161700  1.0  -0.7592
  O  O164  1  0.502700  0.526200  0.790600  1.0  -0.6966
  O  O165  1  0.337500  0.131390  0.183800  1.0  -0.801
  O  O166  1  0.613500  0.960670  0.612900  1.0  -0.6132
  O  O167  1  0.751700  0.037930  0.348800  1.0  -0.7598
  O  O168  1  0.506700  0.169780  0.265500  1.0  -0.6683
  O  O169  1  0.765700  0.905240  0.661700  1.0  -0.7596
  O  O170  1  0.997300  0.026200  0.290600  1.0  -0.6966
  O  O171  1  0.162500  0.868610  0.683800  1.0  -0.8
  O  O172  1  0.886500  0.039330  0.112900  1.0  -0.6126
  O  O173  1  0.748300  0.962070  0.848800  1.0  -0.758
  O  O174  1  0.993300  0.830220  0.765500  1.0  -0.6687
  O  O175  1  0.734300  0.094760  0.161700  1.0  -0.7595
  O  O176  1  0.502700  0.973800  0.790600  1.0  -0.696
  O  O177  1  0.662500  0.631390  0.816200  1.0  -0.8007
  O  O178  1  0.386500  0.460670  0.387100  1.0  -0.6132
  O  O179  1  0.248300  0.537930  0.651200  1.0  -0.7588
  O  O180  1  0.493300  0.669780  0.734500  1.0  -0.6684
  O  O181  1  0.234300  0.405240  0.338300  1.0  -0.7586
  O  O182  1  0.002700  0.526200  0.709400  1.0  -0.695
  O  O183  1  0.837500  0.368610  0.316200  1.0  -0.8006
  O  O184  1  0.113500  0.539330  0.887100  1.0  -0.6127
  O  O185  1  0.251700  0.462070  0.151200  1.0  -0.7595
  O  O186  1  0.006700  0.330220  0.234500  1.0  -0.6683
  O  O187  1  0.265700  0.594760  0.838300  1.0  -0.7593
  O  O188  1  0.497300  0.473800  0.209400  1.0  -0.6953
