# generated using pymatgen
data_Tb2H9C21(NO4)3
_symmetry_space_group_name_H-M   'P 1'
_cell_length_a   8.50850000
_cell_length_b   16.01560000
_cell_length_c   27.93930000
_cell_angle_alpha   90.00000000
_cell_angle_beta   90.00000000
_cell_angle_gamma   90.00000000
_symmetry_Int_Tables_number   1
_chemical_formula_structural   Tb2H9C21(NO4)3
_chemical_formula_sum   'Tb8 H36 C84 N12 O48'
_cell_volume   3807.25300073
_cell_formula_units_Z   4
loop_
 _symmetry_equiv_pos_site_id
 _symmetry_equiv_pos_as_xyz
  1  'x, y, z'
loop_
 _atom_site_type_symbol
 _atom_site_label
 _atom_site_symmetry_multiplicity
 _atom_site_fract_x
 _atom_site_fract_y
 _atom_site_fract_z
 _atom_site_occupancy
 _atom_site_charge
  Tb  Tb1  1  0.770340  0.806140  0.332290  1.0  2.2798
  Tb  Tb2  1  0.730590  0.203980  0.169170  1.0  2.3027
  Tb  Tb3  1  0.729660  0.193860  0.832290  1.0  2.2794
  Tb  Tb4  1  0.769410  0.796020  0.669170  1.0  2.3024
  Tb  Tb5  1  0.229660  0.306140  0.167710  1.0  2.2786
  Tb  Tb6  1  0.269410  0.703980  0.330830  1.0  2.3009
  Tb  Tb7  1  0.270340  0.693860  0.667710  1.0  2.2783
  Tb  Tb8  1  0.230590  0.296020  0.830830  1.0  2.3011
  H  H9  1  0.427500  0.599100  0.427100  1.0  0.0724
  H  H10  1  0.337800  0.818700  0.203900  1.0  0.0774
  H  H11  1  0.982800  0.979800  0.226700  1.0  0.0928
  H  H12  1  0.529400  0.037100  0.274700  1.0  0.1029
  H  H13  1  0.143200  0.967500  0.351400  1.0  0.0727
  H  H14  1  0.359200  0.043200  0.147900  1.0  0.079
  H  H15  1  0.641600  0.784100  0.497800  1.0  0.1087
  H  H16  1  0.424400  0.591800  0.567900  1.0  0.0779
  H  H17  1  0.149900  0.184300  0.288100  1.0  0.0708
  H  H18  1  0.072500  0.400900  0.927100  1.0  0.0727
  H  H19  1  0.162200  0.181300  0.703900  1.0  0.0772
  H  H20  1  0.517200  0.020200  0.726700  1.0  0.0928
  H  H21  1  0.970600  0.962900  0.774700  1.0  0.1033
  H  H22  1  0.356800  0.032500  0.851400  1.0  0.0723
  H  H23  1  0.140800  0.956800  0.647900  1.0  0.0791
  H  H24  1  0.858400  0.215900  0.997800  1.0  0.1085
  H  H25  1  0.075600  0.408200  0.067900  1.0  0.0776
  H  H26  1  0.350100  0.815700  0.788100  1.0  0.0701
  H  H27  1  0.572500  0.099100  0.072900  1.0  0.0719
  H  H28  1  0.662200  0.318700  0.296100  1.0  0.0765
  H  H29  1  0.017200  0.479800  0.273300  1.0  0.0928
  H  H30  1  0.470600  0.537100  0.225300  1.0  0.1033
  H  H31  1  0.856800  0.467500  0.148600  1.0  0.0721
  H  H32  1  0.640800  0.543200  0.352100  1.0  0.0805
  H  H33  1  0.358400  0.284100  0.002200  1.0  0.109
  H  H34  1  0.575600  0.091800  0.932100  1.0  0.0781
  H  H35  1  0.850100  0.684300  0.211900  1.0  0.0705
  H  H36  1  0.927500  0.900900  0.572900  1.0  0.072
  H  H37  1  0.837800  0.681300  0.796100  1.0  0.0767
  H  H38  1  0.482800  0.520200  0.773300  1.0  0.0926
  H  H39  1  0.029400  0.462900  0.725300  1.0  0.103
  H  H40  1  0.643200  0.532500  0.648600  1.0  0.0722
  H  H41  1  0.859200  0.456800  0.852100  1.0  0.0801
  H  H42  1  0.141600  0.715900  0.502200  1.0  0.1088
  H  H43  1  0.924400  0.908200  0.432100  1.0  0.078
  H  H44  1  0.649900  0.315700  0.711900  1.0  0.0698
  C  C45  1  0.579600  0.736700  0.409300  1.0  0.6904
  C  C46  1  0.088000  0.110300  0.176100  1.0  0.7289
  C  C47  1  0.431000  0.181700  0.244200  1.0  0.6417
  C  C48  1  0.350100  0.986700  0.314500  1.0  -0.1179
  C  C49  1  0.159000  0.025200  0.184700  1.0  -0.1883
  C  C50  1  0.454800  0.623500  0.457000  1.0  0.1925
  C  C51  1  0.147000  0.889000  0.221700  1.0  -0.1767
  C  C52  1  0.293000  0.872600  0.200000  1.0  0.2026
  C  C53  1  0.351000  0.118100  0.276700  1.0  -0.1846
  C  C54  1  0.081900  0.966300  0.213100  1.0  -0.0131
  C  C55  1  0.531900  0.697400  0.456600  1.0  -0.1597
  C  C56  1  0.426300  0.046800  0.286500  1.0  -0.0166
  C  C57  1  0.543300  0.694900  0.542100  1.0  -0.1457
  C  C58  1  0.197400  0.007800  0.332700  1.0  0.1967
  C  C59  1  0.303900  0.003400  0.166700  1.0  0.2062
  C  C60  1  0.582100  0.733900  0.498300  1.0  -0.0422
  C  C61  1  0.582000  0.733600  0.588200  1.0  0.6993
  C  C62  1  0.416000  0.903600  0.324800  1.0  0.7084
  C  C63  1  0.455300  0.618400  0.539100  1.0  0.1418
  C  C64  1  0.201400  0.133500  0.296000  1.0  0.2048
  C  C65  1  0.078100  0.826500  0.255000  1.0  0.6939
  C  C66  1  0.920400  0.263300  0.909300  1.0  0.6906
  C  C67  1  0.412000  0.889700  0.676100  1.0  0.7281
  C  C68  1  0.069000  0.818300  0.744200  1.0  0.6414
  C  C69  1  0.149900  0.013300  0.814500  1.0  -0.1199
  C  C70  1  0.341000  0.974800  0.684700  1.0  -0.2073
  C  C71  1  0.045200  0.376500  0.957000  1.0  0.1907
  C  C72  1  0.353000  0.111000  0.721700  1.0  -0.1759
  C  C73  1  0.207000  0.127400  0.700000  1.0  0.2022
  C  C74  1  0.149000  0.881900  0.776700  1.0  -0.183
  C  C75  1  0.418100  0.033700  0.713100  1.0  -0.0137
  C  C76  1  0.968100  0.302600  0.956600  1.0  -0.16
  C  C77  1  0.073700  0.953200  0.786500  1.0  -0.0142
  C  C78  1  0.956700  0.305100  0.042100  1.0  -0.144
  C  C79  1  0.302600  0.992200  0.832700  1.0  0.1994
  C  C80  1  0.196100  0.996600  0.666667  1.0  0.2057
  C  C81  1  0.917900  0.266100  0.998300  1.0  -0.0442
  C  C82  1  0.918000  0.266400  0.088200  1.0  0.6992
  C  C83  1  0.084000  0.096400  0.824800  1.0  0.7093
  C  C84  1  0.044700  0.381600  0.039100  1.0  0.1395
  C  C85  1  0.298600  0.866500  0.796000  1.0  0.2029
  C  C86  1  0.421900  0.173500  0.755000  1.0  0.6931
  C  C87  1  0.420400  0.236700  0.090700  1.0  0.6897
  C  C88  1  0.912000  0.610300  0.323900  1.0  0.7281
  C  C89  1  0.569000  0.681700  0.255800  1.0  0.641
  C  C90  1  0.649900  0.486700  0.185500  1.0  -0.1188
  C  C91  1  0.841000  0.525200  0.315300  1.0  -0.2047
  C  C92  1  0.545200  0.123500  0.043000  1.0  0.1922
  C  C93  1  0.853000  0.389000  0.278300  1.0  -0.1757
  C  C94  1  0.707000  0.372600  0.300000  1.0  0.2039
  C  C95  1  0.649000  0.618100  0.223300  1.0  -0.1816
  C  C96  1  0.918100  0.466300  0.286900  1.0  -0.0132
  C  C97  1  0.468100  0.197400  0.043400  1.0  -0.159
  C  C98  1  0.573700  0.546800  0.213500  1.0  -0.0155
  C  C99  1  0.456700  0.194900  0.957900  1.0  -0.1441
  C  C100  1  0.802600  0.507800  0.167300  1.0  0.1989
  C  C101  1  0.696100  0.503400  0.333333  1.0  0.2033
  C  C102  1  0.417900  0.233900  0.001700  1.0  -0.0424
  C  C103  1  0.418000  0.233600  0.911800  1.0  0.6989
  C  C104  1  0.584000  0.403600  0.175200  1.0  0.7103
  C  C105  1  0.544700  0.118400  0.960900  1.0  0.1406
  C  C106  1  0.798600  0.633500  0.204000  1.0  0.2032
  C  C107  1  0.921900  0.326500  0.245000  1.0  0.6935
  C  C108  1  0.079600  0.763300  0.590700  1.0  0.6894
  C  C109  1  0.588000  0.389700  0.823900  1.0  0.728
  C  C110  1  0.931000  0.318300  0.755800  1.0  0.6425
  C  C111  1  0.850100  0.513300  0.685500  1.0  -0.1206
  C  C112  1  0.659000  0.474800  0.815300  1.0  -0.1872
  C  C113  1  0.954800  0.876500  0.543000  1.0  0.1913
  C  C114  1  0.647000  0.611000  0.778300  1.0  -0.1769
  C  C115  1  0.793000  0.627400  0.800000  1.0  0.2045
  C  C116  1  0.851000  0.381900  0.723300  1.0  -0.1827
  C  C117  1  0.581900  0.533700  0.786900  1.0  -0.0128
  C  C118  1  0.031900  0.802600  0.543400  1.0  -0.1593
  C  C119  1  0.926300  0.453200  0.713500  1.0  -0.0166
  C  C120  1  0.043300  0.805100  0.457900  1.0  -0.1445
  C  C121  1  0.697400  0.492200  0.667300  1.0  0.1981
  C  C122  1  0.803900  0.496600  0.833300  1.0  0.2065
  C  C123  1  0.082100  0.766100  0.501700  1.0  -0.0429
  C  C124  1  0.082000  0.766400  0.411800  1.0  0.6998
  C  C125  1  0.916000  0.596400  0.675200  1.0  0.7096
  C  C126  1  0.955300  0.881600  0.460900  1.0  0.1403
  C  C127  1  0.701400  0.366500  0.704000  1.0  0.205
  C  C128  1  0.578100  0.673500  0.745000  1.0  0.6944
  N  N129  1  0.128700  0.079900  0.324800  1.0  -0.4154
  N  N130  1  0.414800  0.582800  0.497100  1.0  -0.4149
  N  N131  1  0.371300  0.928100  0.174600  1.0  -0.4171
  N  N132  1  0.371300  0.920100  0.824800  1.0  -0.4166
  N  N133  1  0.085200  0.417200  0.997100  1.0  -0.4233
  N  N134  1  0.128700  0.071900  0.674600  1.0  -0.4181
  N  N135  1  0.871300  0.579900  0.175200  1.0  -0.419
  N  N136  1  0.585200  0.082800  0.002900  1.0  -0.4177
  N  N137  1  0.628700  0.428100  0.325400  1.0  -0.4146
  N  N138  1  0.628700  0.420100  0.675200  1.0  -0.4179
  N  N139  1  0.914800  0.917200  0.502900  1.0  -0.4248
  N  N140  1  0.871300  0.571900  0.825400  1.0  -0.4144
  O  O141  1  0.520800  0.712200  0.371400  1.0  -0.7025
  O  O142  1  0.941600  0.118800  0.183900  1.0  -0.7223
  O  O143  1  0.146500  0.762800  0.264800  1.0  -0.6335
  O  O144  1  0.515200  0.706700  0.627100  1.0  -0.7981
  O  O145  1  0.174900  0.163800  0.160100  1.0  -0.6412
  O  O146  1  0.684200  0.788700  0.589700  1.0  -0.632
  O  O147  1  0.321400  0.844100  0.336800  1.0  -0.701
  O  O148  1  0.685500  0.792900  0.411500  1.0  -0.6596
  O  O149  1  0.940100  0.847100  0.271700  1.0  -0.7529
  O  O150  1  0.560500  0.166800  0.229200  1.0  -0.6703
  O  O151  1  0.557200  0.894700  0.315800  1.0  -0.7194
  O  O152  1  0.345300  0.247100  0.234600  1.0  -0.7074
  O  O153  1  0.979200  0.287800  0.871400  1.0  -0.7012
  O  O154  1  0.558400  0.881200  0.683900  1.0  -0.7228
  O  O155  1  0.353500  0.237200  0.764800  1.0  -0.6325
  O  O156  1  0.984800  0.293300  0.127100  1.0  -0.7975
  O  O157  1  0.325100  0.836200  0.660100  1.0  -0.6404
  O  O158  1  0.815800  0.211300  0.089700  1.0  -0.6316
  O  O159  1  0.178600  0.155900  0.836800  1.0  -0.7016
  O  O160  1  0.814500  0.207100  0.911500  1.0  -0.6585
  O  O161  1  0.559900  0.152900  0.771700  1.0  -0.7505
  O  O162  1  0.939500  0.833200  0.729200  1.0  -0.6721
  O  O163  1  0.942800  0.105300  0.815800  1.0  -0.7193
  O  O164  1  0.154700  0.752900  0.734600  1.0  -0.7073
  O  O165  1  0.479200  0.212200  0.128600  1.0  -0.7006
  O  O166  1  0.058400  0.618800  0.316100  1.0  -0.7215
  O  O167  1  0.853500  0.262800  0.235200  1.0  -0.6325
  O  O168  1  0.484800  0.206700  0.872900  1.0  -0.7962
  O  O169  1  0.825100  0.663800  0.339900  1.0  -0.6401
  O  O170  1  0.315800  0.288700  0.910300  1.0  -0.6316
  O  O171  1  0.678600  0.344100  0.163200  1.0  -0.7021
  O  O172  1  0.314500  0.292900  0.088500  1.0  -0.6586
  O  O173  1  0.059900  0.347100  0.228300  1.0  -0.7498
  O  O174  1  0.439500  0.666800  0.270800  1.0  -0.6724
  O  O175  1  0.442800  0.394700  0.184200  1.0  -0.7205
  O  O176  1  0.654700  0.747100  0.265400  1.0  -0.7064
  O  O177  1  0.020800  0.787800  0.628600  1.0  -0.7007
  O  O178  1  0.441600  0.381200  0.816100  1.0  -0.7222
  O  O179  1  0.646500  0.737200  0.735200  1.0  -0.6333
  O  O180  1  0.015200  0.793300  0.372900  1.0  -0.7969
  O  O181  1  0.674900  0.336200  0.839900  1.0  -0.641
  O  O182  1  0.184200  0.711300  0.410300  1.0  -0.6315
  O  O183  1  0.821400  0.655900  0.663200  1.0  -0.7018
  O  O184  1  0.185500  0.707100  0.588500  1.0  -0.6588
  O  O185  1  0.440100  0.652900  0.728300  1.0  -0.7522
  O  O186  1  0.060500  0.333200  0.770800  1.0  -0.6705
  O  O187  1  0.057200  0.605300  0.684200  1.0  -0.72
  O  O188  1  0.845300  0.252900  0.765400  1.0  -0.7063
