# generated using pymatgen
data_Sm2H9C21(NO4)3
_symmetry_space_group_name_H-M   'P 1'
_cell_length_a   8.02340000
_cell_length_b   30.24390000
_cell_length_c   15.32800000
_cell_angle_alpha   90.00000000
_cell_angle_beta   90.00000000
_cell_angle_gamma   90.00000000
_symmetry_Int_Tables_number   1
_chemical_formula_structural   Sm2H9C21(NO4)3
_chemical_formula_sum   'Sm8 H36 C84 N12 O48'
_cell_volume   3719.47573048
_cell_formula_units_Z   4
loop_
 _symmetry_equiv_pos_site_id
 _symmetry_equiv_pos_as_xyz
  1  'x, y, z'
loop_
 _atom_site_type_symbol
 _atom_site_label
 _atom_site_symmetry_multiplicity
 _atom_site_fract_x
 _atom_site_fract_y
 _atom_site_fract_z
 _atom_site_occupancy
 _atom_site_charge
  Sm  Sm1  1  0.436080  0.907010  0.704300  1.0  2.2967
  Sm  Sm2  1  0.063920  0.092990  0.204300  1.0  2.2964
  Sm  Sm3  1  0.563920  0.407010  0.295700  1.0  2.2965
  Sm  Sm4  1  0.936080  0.592990  0.795700  1.0  2.296
  Sm  Sm5  1  0.563920  0.092990  0.295700  1.0  2.2961
  Sm  Sm6  1  0.936080  0.907010  0.795700  1.0  2.2965
  Sm  Sm7  1  0.436080  0.592990  0.704300  1.0  2.2964
  Sm  Sm8  1  0.063920  0.407010  0.204300  1.0  2.2966
  H  H9  1  0.000200  0.111500  0.451400  1.0  0.0956
  H  H10  1  0.886100  0.042700  0.660200  1.0  0.0934
  H  H11  1  0.776500  0.815000  0.934700  1.0  0.0994
  H  H12  1  0.290600  0.008300  0.520700  1.0  0.1161
  H  H13  1  0.499800  0.888500  0.951400  1.0  0.093
  H  H14  1  0.613900  0.957300  0.160200  1.0  0.0933
  H  H15  1  0.723500  0.185000  0.434700  1.0  0.0999
  H  H16  1  0.209400  0.991700  0.020700  1.0  0.1153
  H  H17  1  0.999800  0.611500  0.548600  1.0  0.0961
  H  H18  1  0.113900  0.542700  0.339800  1.0  0.0924
  H  H19  1  0.223500  0.315000  0.065300  1.0  0.0988
  H  H20  1  0.709400  0.508300  0.479300  1.0  0.1155
  H  H21  1  0.500200  0.388500  0.048600  1.0  0.0926
  H  H22  1  0.386100  0.457300  0.839800  1.0  0.0927
  H  H23  1  0.276500  0.685000  0.565300  1.0  0.0987
  H  H24  1  0.790600  0.491700  0.979300  1.0  0.1161
  H  H25  1  0.999800  0.888500  0.548600  1.0  0.0958
  H  H26  1  0.113900  0.957300  0.339800  1.0  0.0928
  H  H27  1  0.223500  0.185000  0.065300  1.0  0.0997
  H  H28  1  0.709400  0.991700  0.479300  1.0  0.1156
  H  H29  1  0.500200  0.111500  0.048600  1.0  0.0925
  H  H30  1  0.386100  0.042700  0.839800  1.0  0.0924
  H  H31  1  0.276500  0.815000  0.565300  1.0  0.0995
  H  H32  1  0.790600  0.008300  0.979300  1.0  0.1161
  H  H33  1  0.000200  0.388500  0.451400  1.0  0.095
  H  H34  1  0.886100  0.457300  0.660200  1.0  0.0936
  H  H35  1  0.776500  0.685000  0.934700  1.0  0.1006
  H  H36  1  0.290600  0.491700  0.520700  1.0  0.1159
  H  H37  1  0.499800  0.611500  0.951400  1.0  0.0927
  H  H38  1  0.613900  0.542700  0.160200  1.0  0.0932
  H  H39  1  0.723500  0.315000  0.434700  1.0  0.1005
  H  H40  1  0.209400  0.508300  0.020700  1.0  0.1153
  H  H41  1  0.532200  0.750000  0.743200  1.0  0.1205
  H  H42  1  0.967800  0.250000  0.243200  1.0  0.1203
  H  H43  1  0.467800  0.250000  0.256800  1.0  0.1208
  H  H44  1  0.032200  0.750000  0.756800  1.0  0.1208
  C  C45  1  0.596300  0.832190  0.791600  1.0  0.6874
  C  C46  1  0.160200  0.060780  0.472100  1.0  -0.1828
  C  C47  1  0.024200  0.087900  0.490400  1.0  0.2038
  C  C48  1  0.119100  0.979850  0.658400  1.0  0.7039
  C  C49  1  0.266100  0.066410  0.392700  1.0  0.67
  C  C50  1  0.958500  0.047930  0.612300  1.0  0.2063
  C  C51  1  0.648200  0.789580  0.832800  1.0  -0.1582
  C  C52  1  0.092500  0.019420  0.600300  1.0  -0.1872
  C  C53  1  0.742400  0.787940  0.908900  1.0  0.1305
  C  C54  1  0.195900  0.026560  0.529800  1.0  -0.0155
  C  C55  1  0.903700  0.167810  0.291600  1.0  0.6877
  C  C56  1  0.339800  0.939220  0.972100  1.0  -0.1836
  C  C57  1  0.475800  0.912100  0.990400  1.0  0.2051
  C  C58  1  0.380900  0.020150  0.158400  1.0  0.7028
  C  C59  1  0.233900  0.933590  0.892700  1.0  0.6694
  C  C60  1  0.541500  0.952070  0.112300  1.0  0.2056
  C  C61  1  0.851800  0.210420  0.332800  1.0  -0.1585
  C  C62  1  0.407500  0.980580  0.100300  1.0  -0.1886
  C  C63  1  0.757600  0.212060  0.408900  1.0  0.1315
  C  C64  1  0.304100  0.973440  0.029800  1.0  -0.0145
  C  C65  1  0.403700  0.332190  0.208400  1.0  0.6879
  C  C66  1  0.839800  0.560780  0.527900  1.0  -0.1833
  C  C67  1  0.975800  0.587900  0.509600  1.0  0.2032
  C  C68  1  0.880900  0.479850  0.341600  1.0  0.7045
  C  C69  1  0.733900  0.566410  0.607300  1.0  0.6696
  C  C70  1  0.041500  0.547930  0.387700  1.0  0.208
  C  C71  1  0.351800  0.289580  0.167200  1.0  -0.1589
  C  C72  1  0.907500  0.519420  0.399700  1.0  -0.1874
  C  C73  1  0.257600  0.287940  0.091100  1.0  0.1323
  C  C74  1  0.804100  0.526560  0.470200  1.0  -0.0143
  C  C75  1  0.096300  0.667810  0.708400  1.0  0.6874
  C  C76  1  0.660200  0.439220  0.027900  1.0  -0.1841
  C  C77  1  0.524200  0.412100  0.009600  1.0  0.2031
  C  C78  1  0.619100  0.520150  0.841600  1.0  0.7041
  C  C79  1  0.766100  0.433590  0.107300  1.0  0.6704
  C  C80  1  0.458500  0.452070  0.887700  1.0  0.2092
  C  C81  1  0.148200  0.710420  0.667200  1.0  -0.1593
  C  C82  1  0.592500  0.480580  0.899700  1.0  -0.1865
  C  C83  1  0.242400  0.712060  0.591100  1.0  0.1306
  C  C84  1  0.695900  0.473440  0.970200  1.0  -0.014
  C  C85  1  0.403700  0.167810  0.208400  1.0  0.6879
  C  C86  1  0.839800  0.939220  0.527900  1.0  -0.1842
  C  C87  1  0.975800  0.912100  0.509600  1.0  0.2028
  C  C88  1  0.880900  0.020150  0.341600  1.0  0.7043
  C  C89  1  0.733900  0.933590  0.607300  1.0  0.6698
  C  C90  1  0.041500  0.952070  0.387700  1.0  0.2072
  C  C91  1  0.351800  0.210420  0.167200  1.0  -0.1593
  C  C92  1  0.907500  0.980580  0.399700  1.0  -0.1863
  C  C93  1  0.257600  0.212060  0.091100  1.0  0.1328
  C  C94  1  0.804100  0.973440  0.470200  1.0  -0.0143
  C  C95  1  0.096300  0.832190  0.708400  1.0  0.6874
  C  C96  1  0.660200  0.060780  0.027900  1.0  -0.1838
  C  C97  1  0.524200  0.087900  0.009600  1.0  0.2032
  C  C98  1  0.619100  0.979850  0.841600  1.0  0.7043
  C  C99  1  0.766100  0.066410  0.107300  1.0  0.6702
  C  C100  1  0.458500  0.047930  0.887700  1.0  0.2077
  C  C101  1  0.148200  0.789580  0.667200  1.0  -0.1583
  C  C102  1  0.592500  0.019420  0.899700  1.0  -0.1874
  C  C103  1  0.242400  0.787940  0.591100  1.0  0.1296
  C  C104  1  0.695900  0.026560  0.970200  1.0  -0.014
  C  C105  1  0.596300  0.667810  0.791600  1.0  0.6872
  C  C106  1  0.160200  0.439220  0.472100  1.0  -0.1827
  C  C107  1  0.024200  0.412100  0.490400  1.0  0.2054
  C  C108  1  0.119100  0.520150  0.658400  1.0  0.7042
  C  C109  1  0.266100  0.433590  0.392700  1.0  0.6701
  C  C110  1  0.958500  0.452070  0.612300  1.0  0.2074
  C  C111  1  0.648200  0.710420  0.832800  1.0  -0.1581
  C  C112  1  0.092500  0.480580  0.600300  1.0  -0.1885
  C  C113  1  0.742400  0.712060  0.908900  1.0  0.1311
  C  C114  1  0.195900  0.473440  0.529800  1.0  -0.0151
  C  C115  1  0.903700  0.332190  0.291600  1.0  0.6879
  C  C116  1  0.339800  0.560780  0.972100  1.0  -0.1829
  C  C117  1  0.475800  0.587900  0.990400  1.0  0.2038
  C  C118  1  0.380900  0.479850  0.158400  1.0  0.7029
  C  C119  1  0.233900  0.566410  0.892700  1.0  0.6692
  C  C120  1  0.541500  0.547930  0.112300  1.0  0.2076
  C  C121  1  0.851800  0.289580  0.332800  1.0  -0.159
  C  C122  1  0.407500  0.519420  0.100300  1.0  -0.1872
  C  C123  1  0.757600  0.287940  0.408900  1.0  0.1309
  C  C124  1  0.304100  0.526560  0.029800  1.0  -0.015
  C  C125  1  0.598600  0.750000  0.794500  1.0  -0.0107
  C  C126  1  0.901400  0.250000  0.294500  1.0  -0.0109
  C  C127  1  0.401400  0.250000  0.205500  1.0  -0.0113
  C  C128  1  0.098600  0.750000  0.705500  1.0  -0.011
  N  N129  1  0.925400  0.082420  0.560100  1.0  -0.3971
  N  N130  1  0.574600  0.917580  0.060100  1.0  -0.3943
  N  N131  1  0.074600  0.582420  0.439900  1.0  -0.3996
  N  N132  1  0.425400  0.417580  0.939900  1.0  -0.3921
  N  N133  1  0.074600  0.917580  0.439900  1.0  -0.3925
  N  N134  1  0.425400  0.082420  0.939900  1.0  -0.3972
  N  N135  1  0.925400  0.417580  0.560100  1.0  -0.3947
  N  N136  1  0.574600  0.582420  0.060100  1.0  -0.3978
  N  N137  1  0.787500  0.750000  0.947800  1.0  -0.4072
  N  N138  1  0.712500  0.250000  0.447800  1.0  -0.4108
  N  N139  1  0.212500  0.250000  0.052200  1.0  -0.4098
  N  N140  1  0.287500  0.750000  0.552200  1.0  -0.4138
  O  O141  1  0.657300  0.868740  0.817590  1.0  -0.7473
  O  O142  1  0.391300  0.041980  0.385520  1.0  -0.6622
  O  O143  1  0.254300  0.959980  0.650630  1.0  -0.7201
  O  O144  1  0.488200  0.830500  0.732350  1.0  -0.595
  O  O145  1  0.236400  0.097080  0.337810  1.0  -0.8001
  O  O146  1  0.001300  0.969580  0.708280  1.0  -0.6844
  O  O147  1  0.842700  0.131260  0.317590  1.0  -0.7477
  O  O148  1  0.108700  0.958020  0.885520  1.0  -0.6624
  O  O149  1  0.245700  0.040020  0.150630  1.0  -0.722
  O  O150  1  0.011800  0.169500  0.232350  1.0  -0.595
  O  O151  1  0.263600  0.902920  0.837810  1.0  -0.8003
  O  O152  1  0.498700  0.030420  0.208280  1.0  -0.6847
  O  O153  1  0.342700  0.368740  0.182410  1.0  -0.748
  O  O154  1  0.608700  0.541980  0.614480  1.0  -0.6628
  O  O155  1  0.745700  0.459980  0.349370  1.0  -0.722
  O  O156  1  0.511800  0.330500  0.267650  1.0  -0.596
  O  O157  1  0.763600  0.597080  0.662190  1.0  -0.8009
  O  O158  1  0.998700  0.469580  0.291720  1.0  -0.6848
  O  O159  1  0.157300  0.631260  0.682410  1.0  -0.7471
  O  O160  1  0.891300  0.458020  0.114480  1.0  -0.6631
  O  O161  1  0.754300  0.540020  0.849370  1.0  -0.7212
  O  O162  1  0.988200  0.669500  0.767650  1.0  -0.5958
  O  O163  1  0.736400  0.402920  0.162190  1.0  -0.8013
  O  O164  1  0.501300  0.530420  0.791720  1.0  -0.6859
  O  O165  1  0.342700  0.131260  0.182410  1.0  -0.7477
  O  O166  1  0.608700  0.958020  0.614480  1.0  -0.6628
  O  O167  1  0.745700  0.040020  0.349370  1.0  -0.7223
  O  O168  1  0.511800  0.169500  0.267650  1.0  -0.596
  O  O169  1  0.763600  0.902920  0.662190  1.0  -0.8004
  O  O170  1  0.998700  0.030420  0.291720  1.0  -0.6858
  O  O171  1  0.157300  0.868740  0.682410  1.0  -0.7469
  O  O172  1  0.891300  0.041980  0.114480  1.0  -0.6627
  O  O173  1  0.754300  0.959980  0.849370  1.0  -0.7203
  O  O174  1  0.988200  0.830500  0.767650  1.0  -0.596
  O  O175  1  0.736400  0.097080  0.162190  1.0  -0.8009
  O  O176  1  0.501300  0.969580  0.791720  1.0  -0.6847
  O  O177  1  0.657300  0.631260  0.817590  1.0  -0.7474
  O  O178  1  0.391300  0.458020  0.385520  1.0  -0.6626
  O  O179  1  0.254300  0.540020  0.650630  1.0  -0.7207
  O  O180  1  0.488200  0.669500  0.732350  1.0  -0.5951
  O  O181  1  0.236400  0.402920  0.337810  1.0  -0.8008
  O  O182  1  0.001300  0.530420  0.708280  1.0  -0.6848
  O  O183  1  0.842700  0.368740  0.317590  1.0  -0.748
  O  O184  1  0.108700  0.541980  0.885520  1.0  -0.6622
  O  O185  1  0.245700  0.459980  0.150630  1.0  -0.7213
  O  O186  1  0.011800  0.330500  0.232350  1.0  -0.5956
  O  O187  1  0.263600  0.597080  0.837810  1.0  -0.8001
  O  O188  1  0.498700  0.469580  0.208280  1.0  -0.6846
