# generated using pymatgen
data_Dy3H96C121SN24(O9F)3
_symmetry_space_group_name_H-M   'P 1'
_cell_length_a   24.05000000
_cell_length_b   24.10420000
_cell_length_c   24.62190000
_cell_angle_alpha   86.08800000
_cell_angle_beta   61.61300000
_cell_angle_gamma   61.39300000
_symmetry_Int_Tables_number   1
_chemical_formula_structural   Dy3H96C121SN24(O9F)3
_chemical_formula_sum   'Dy6 H192 C242 S2 N48 O54 F6'
_cell_volume   10786.89039745
_cell_formula_units_Z   2
loop_
 _symmetry_equiv_pos_site_id
 _symmetry_equiv_pos_as_xyz
  1  'x, y, z'
loop_
 _atom_site_type_symbol
 _atom_site_label
 _atom_site_symmetry_multiplicity
 _atom_site_fract_x
 _atom_site_fract_y
 _atom_site_fract_z
 _atom_site_occupancy
 _atom_site_charge
  Dy  Dy1  1  0.367730  0.202580  0.844470  1.0  2.2311
  Dy  Dy2  1  0.859750  0.356000  0.703940  1.0  2.236
  Dy  Dy3  1  0.632270  0.797420  0.155530  1.0  2.2279
  Dy  Dy4  1  0.140250  0.644000  0.296060  1.0  2.2357
  Dy  Dy5  1  0.762110  0.224320  0.255640  1.0  2.2569
  Dy  Dy6  1  0.237890  0.775680  0.744360  1.0  2.2582
  H  H7  1  0.606100  0.576400  0.245400  1.0  0.0901
  H  H8  1  0.580700  0.994300  0.900800  1.0  0.1019
  H  H9  1  0.398000  0.871400  0.534300  1.0  0.1006
  H  H10  1  0.964300  0.808900  0.411200  1.0  0.107
  H  H11  1  0.560500  0.693200  0.391000  1.0  0.1084
  H  H12  1  0.340200  0.218400  0.696100  1.0  0.1082
  H  H13  1  0.771600  0.003100  0.147400  1.0  0.1024
  H  H14  1  0.059100  0.680300  0.187100  1.0  0.0982
  H  H15  1  0.078100  0.969100  0.816300  1.0  0.0933
  H  H16  1  0.256400  0.224400  0.671800  1.0  0.0988
  H  H17  1  0.749900  0.349000  0.046100  1.0  0.1017
  H  H18  1  0.289200  0.526800  0.103000  1.0  0.1009
  H  H19  1  0.478900  0.683200  0.479000  1.0  0.0955
  H  H20  1  0.355400  0.492100  0.699600  1.0  0.1095
  H  H21  1  0.787200  0.600600  0.078200  1.0  0.1
  H  H22  1  0.136200  0.680000  0.825300  1.0  0.0934
  H  H23  1  0.001000  0.947300  0.208200  1.0  0.0955
  H  H24  1  0.239000  0.578400  0.392800  1.0  0.094
  H  H25  1  0.653900  0.297100  0.168400  1.0  0.0881
  H  H26  1  0.602000  0.128600  0.465700  1.0  0.1
  H  H27  1  0.063400  0.763800  0.546600  1.0  0.0966
  H  H28  1  0.510700  0.985700  0.262900  1.0  0.1088
  H  H29  1  0.590600  0.117500  0.560600  1.0  0.1155
  H  H30  1  0.105700  0.856400  0.936000  1.0  0.1086
  H  H31  1  0.069400  0.391100  0.475600  1.0  0.1065
  H  H32  1  0.732300  0.387300  0.544600  1.0  0.1108
  H  H33  1  0.892000  0.903100  0.389800  1.0  0.1115
  H  H34  1  0.674300  0.411700  0.333700  1.0  0.0902
  H  H35  1  0.959600  0.660100  0.441600  1.0  0.1027
  H  H36  1  0.817100  0.684000  0.982400  1.0  0.0891
  H  H37  1  0.047000  0.287200  0.048500  1.0  0.0962
  H  H38  1  0.459200  0.657100  0.825800  1.0  0.1091
  H  H39  1  0.411200  0.873200  0.221400  1.0  0.0912
  H  H40  1  0.816000  0.906000  0.001400  1.0  0.1082
  H  H41  1  0.842100  0.011500  0.392700  1.0  0.1025
  H  H42  1  0.439500  0.602100  0.661500  1.0  0.1036
  H  H43  1  0.910200  0.560900  0.596900  1.0  0.0984
  H  H44  1  0.504600  0.328200  0.879400  1.0  0.1104
  H  H45  1  0.430200  0.672400  0.581300  1.0  0.1142
  H  H46  1  0.622100  0.952200  0.956100  1.0  0.1016
  H  H47  1  0.333700  0.831500  0.258300  1.0  0.1018
  H  H48  1  0.894300  0.143600  0.064000  1.0  0.1082
  H  H49  1  0.866200  0.164800  0.350800  1.0  0.097
  H  H50  1  0.930600  0.608900  0.524400  1.0  0.1061
  H  H51  1  0.869700  0.550800  0.819900  1.0  0.0967
  H  H52  1  0.681000  0.330800  0.421000  1.0  0.1012
  H  H53  1  0.329600  0.097800  0.980700  1.0  0.1057
  H  H54  1  0.448800  0.882200  0.334900  1.0  0.066
  H  H55  1  0.150900  0.403000  0.082500  1.0  0.105
  H  H56  1  0.743600  0.775600  0.328200  1.0  0.0986
  H  H57  1  0.346100  0.424500  0.358900  1.0  0.0983
  H  H58  1  0.530000  0.043600  0.837700  1.0  0.1052
  H  H59  1  0.903900  0.452500  0.769900  1.0  0.1032
  H  H60  1  0.551200  0.117800  0.665100  1.0  0.0689
  H  H61  1  0.907800  0.639500  0.169800  1.0  0.1027
  H  H62  1  0.985900  0.741700  0.847400  1.0  0.105
  H  H63  1  0.325500  0.428100  0.051600  1.0  0.1062
  H  H64  1  0.555800  0.562500  0.648700  1.0  0.1
  H  H65  1  0.855600  0.190200  0.717300  1.0  0.1102
  H  H66  1  0.820600  0.509300  0.119600  1.0  0.1015
  H  H67  1  0.644500  0.690200  0.944000  1.0  0.1027
  H  H68  1  0.269000  0.107400  0.908700  1.0  0.1004
  H  H69  1  0.130300  0.449200  0.180100  1.0  0.0962
  H  H70  1  0.863800  0.320000  0.174700  1.0  0.0933
  H  H71  1  0.731000  0.892600  0.091300  1.0  0.0998
  H  H72  1  0.710800  0.473200  0.897000  1.0  0.1017
  H  H73  1  0.086700  0.785900  0.211300  1.0  0.0969
  H  H74  1  0.714600  0.856600  0.225700  1.0  0.0984
  H  H75  1  0.286800  0.775800  0.304800  1.0  0.1143
  H  H76  1  0.250100  0.651000  0.953900  1.0  0.1018
  H  H77  1  0.940900  0.319700  0.812900  1.0  0.0977
  H  H78  1  0.569800  0.327600  0.418700  1.0  0.1164
  H  H79  1  0.219500  0.721500  0.346100  1.0  0.1085
  H  H80  1  0.461800  0.933500  0.752900  1.0  0.1034
  H  H81  1  0.768400  0.515300  0.633900  1.0  0.113
  H  H82  1  0.597100  0.698600  0.286400  1.0  0.0861
  H  H83  1  0.184000  0.094000  0.998600  1.0  0.1081
  H  H84  1  0.212800  0.399400  0.921800  1.0  0.0995
  H  H85  1  0.108000  0.096900  0.610200  1.0  0.1116
  H  H86  1  0.826200  0.745100  0.357800  1.0  0.1065
  H  H87  1  0.708100  0.359800  0.887400  1.0  0.1051
  H  H88  1  0.357300  0.588300  0.185500  1.0  0.1008
  H  H89  1  0.766200  0.098400  0.364800  1.0  0.0941
  H  H90  1  0.089800  0.439100  0.403100  1.0  0.0986
  H  H91  1  0.069200  0.100200  0.047200  1.0  0.1084
  H  H92  1  0.929000  0.243000  0.238700  1.0  0.1146
  H  H93  1  0.837900  0.415300  0.135600  1.0  0.1016
  H  H94  1  0.569000  0.717400  0.084400  1.0  0.0994
  H  H95  1  0.071000  0.757000  0.761300  1.0  0.1145
  H  H96  1  0.257000  0.061000  0.789100  1.0  0.0971
  H  H97  1  0.144400  0.809800  0.282700  1.0  0.111
  H  H98  1  0.668300  0.509100  0.816600  1.0  0.0975
  H  H99  1  0.556200  0.560900  0.821900  1.0  0.1072
  H  H100  1  0.670400  0.902200  0.019300  1.0  0.1086
  H  H101  1  0.966500  0.272500  0.514600  1.0  0.1119
  H  H102  1  0.521100  0.316800  0.521000  1.0  0.0973
  H  H103  1  0.267700  0.612700  0.455400  1.0  0.1106
  H  H104  1  0.713200  0.224200  0.695200  1.0  0.1139
  H  H105  1  0.653900  0.575500  0.641100  1.0  0.0985
  H  H106  1  0.424800  0.332400  0.797100  1.0  0.1021
  H  H107  1  0.975900  0.673200  0.170500  1.0  0.0973
  H  H108  1  0.822400  0.649500  0.145800  1.0  0.1024
  H  H109  1  0.849100  0.597000  0.917500  1.0  0.104
  H  H110  1  0.930800  0.899800  0.952800  1.0  0.1087
  H  H111  1  0.177600  0.350500  0.854200  1.0  0.103
  H  H112  1  0.116700  0.843500  0.025400  1.0  0.1072
  H  H113  1  0.780500  0.278500  0.653900  1.0  0.1084
  H  H114  1  0.393900  0.423600  0.754600  1.0  0.0906
  H  H115  1  0.999000  0.052700  0.791800  1.0  0.0958
  H  H116  1  0.381800  0.222700  0.996800  1.0  0.1017
  H  H117  1  0.319000  0.669200  0.579000  1.0  0.1005
  H  H118  1  0.182900  0.316000  0.017600  1.0  0.0883
  H  H119  1  0.157900  0.988500  0.607300  1.0  0.1025
  H  H120  1  0.886000  0.506100  0.678300  1.0  0.0979
  H  H121  1  0.644600  0.507900  0.300400  1.0  0.1103
  H  H122  1  0.913300  0.214100  0.788700  1.0  0.0973
  H  H123  1  0.027700  0.906300  0.867100  1.0  0.0972
  H  H124  1  0.132400  0.298300  0.956200  1.0  0.1014
  H  H125  1  0.291900  0.640200  0.112600  1.0  0.1044
  H  H126  1  0.096100  0.547500  0.230100  1.0  0.1023
  H  H127  1  0.014100  0.258300  0.152600  1.0  0.1061
  H  H128  1  0.231600  0.484700  0.366100  1.0  0.1129
  H  H129  1  0.765500  0.332800  0.132900  1.0  0.0996
  H  H130  1  0.346100  0.702900  0.831600  1.0  0.0873
  H  H131  1  0.808100  0.079900  0.134000  1.0  0.1155
  H  H132  1  0.495400  0.671800  0.120600  1.0  0.1102
  H  H133  1  0.953000  0.712800  0.951500  1.0  0.0964
  H  H134  1  0.419300  0.005700  0.099200  1.0  0.1016
  H  H135  1  0.233800  0.901600  0.635200  1.0  0.0953
  H  H136  1  0.075700  0.903700  0.262500  1.0  0.0954
  H  H137  1  0.674500  0.571900  0.948400  1.0  0.106
  H  H138  1  0.040400  0.339900  0.558400  1.0  0.1032
  H  H139  1  0.431000  0.282600  0.915600  1.0  0.0981
  H  H140  1  0.712600  0.366500  0.480100  1.0  0.1118
  H  H141  1  0.162100  0.584700  0.864400  1.0  0.1009
  H  H142  1  0.601400  0.214600  0.256200  1.0  0.0992
  H  H143  1  0.921900  0.030900  0.183700  1.0  0.0932
  H  H144  1  0.035700  0.191100  0.588800  1.0  0.1077
  H  H145  1  0.588800  0.126800  0.778600  1.0  0.0907
  H  H146  1  0.114000  0.493900  0.321700  1.0  0.0977
  H  H147  1  0.402900  0.301400  0.713600  1.0  0.0855
  H  H148  1  0.883300  0.156500  0.974600  1.0  0.1067
  H  H149  1  0.173800  0.254900  0.642200  1.0  0.1067
  H  H150  1  0.648200  0.141600  0.361700  1.0  0.1004
  H  H151  1  0.331700  0.490900  0.183400  1.0  0.0974
  H  H152  1  0.228400  0.996900  0.852600  1.0  0.1027
  H  H153  1  0.761000  0.421600  0.607200  1.0  0.0961
  H  H154  1  0.439500  0.306800  0.609000  1.0  0.1081
  H  H155  1  0.708800  0.341600  0.980700  1.0  0.1113
  H  H156  1  0.972300  0.093700  0.132900  1.0  0.094
  H  H157  1  0.936600  0.236200  0.453400  1.0  0.0963
  H  H158  1  0.540800  0.342900  0.174200  1.0  0.1087
  H  H159  1  0.024100  0.326800  0.829500  1.0  0.0979
  H  H160  1  0.291200  0.658400  0.019300  1.0  0.1109
  H  H161  1  0.867600  0.701700  0.043800  1.0  0.102
  H  H162  1  0.575400  0.359600  0.856000  1.0  0.1073
  H  H163  1  0.666300  0.168500  0.741700  1.0  0.1025
  H  H164  1  0.538200  0.066500  0.247100  1.0  0.104
  H  H165  1  0.924300  0.096300  0.737500  1.0  0.0957
  H  H166  1  0.033500  0.727500  0.485400  1.0  0.1114
  H  H167  1  0.575200  0.667600  0.202900  1.0  0.102
  H  H168  1  0.424600  0.640400  0.144000  1.0  0.1079
  H  H169  1  0.913600  0.750700  0.370200  1.0  0.0987
  H  H170  1  0.377900  0.047800  0.043900  1.0  0.1018
  H  H171  1  0.918000  0.194200  0.880600  1.0  0.1062
  H  H172  1  0.133800  0.835200  0.649200  1.0  0.1
  H  H173  1  0.444200  0.437500  0.351300  1.0  0.0999
  H  H174  1  0.436100  0.860900  0.728700  1.0  0.1063
  H  H175  1  0.563900  0.139100  0.271300  1.0  0.1061
  H  H176  1  0.096000  0.801000  0.592700  1.0  0.1122
  H  H177  1  0.234500  0.667200  0.867100  1.0  0.1001
  H  H178  1  0.904000  0.199000  0.407300  1.0  0.1128
  H  H179  1  0.560500  0.397900  0.338500  1.0  0.1035
  H  H180  1  0.642700  0.411700  0.814500  1.0  0.1011
  H  H181  1  0.082000  0.805800  0.119400  1.0  0.1057
  H  H182  1  0.325700  0.588300  0.666300  1.0  0.0899
  H  H183  1  0.618200  0.777300  0.003200  1.0  0.1012
  H  H184  1  0.355500  0.309800  0.056000  1.0  0.1035
  H  H185  1  0.409400  0.882500  0.439400  1.0  0.1148
  H  H186  1  0.470000  0.956400  0.162300  1.0  0.1058
  H  H187  1  0.086400  0.249300  0.629800  1.0  0.099
  H  H188  1  0.351800  0.858400  0.638300  1.0  0.1009
  H  H189  1  0.443800  0.439100  0.178100  1.0  0.1071
  H  H190  1  0.489300  0.014300  0.737100  1.0  0.1084
  H  H191  1  0.191900  0.920100  0.866000  1.0  0.1164
  H  H192  1  0.179400  0.490700  0.880400  1.0  0.1025
  H  H193  1  0.092200  0.360500  0.830200  1.0  0.1033
  H  H194  1  0.285400  0.143400  0.774300  1.0  0.0995
  H  H195  1  0.659800  0.781600  0.303900  1.0  0.108
  H  H196  1  0.743000  0.939000  0.210900  1.0  0.097
  H  H197  1  0.398600  0.785400  0.743800  1.0  0.0976
  H  H198  1  0.287400  0.633500  0.519900  1.0  0.1122
  C  C199  1  0.109300  0.291100  0.738700  1.0  0.0476
  C  C200  1  0.193400  0.324700  0.816800  1.0  0.0026
  C  C201  1  0.406500  0.829900  0.542900  1.0  -0.1673
  C  C202  1  0.092600  0.828900  0.304000  1.0  0.0139
  C  C203  1  0.239100  0.250200  0.709900  1.0  -0.1315
  C  C204  1  0.555900  0.735500  0.318400  1.0  -0.0183
  C  C205  1  0.486900  0.410900  0.312300  1.0  -0.1781
  C  C206  1  0.292700  0.587300  0.707300  1.0  0.0587
  C  C207  1  0.470900  0.985200  0.082000  1.0  -0.1721
  C  C208  1  0.610800  0.328100  0.204800  1.0  -0.0439
  C  C209  1  0.930700  0.967900  0.303500  1.0  0.0713
  C  C210  1  0.126600  0.268100  0.677700  1.0  -0.181
  C  C211  1  0.556000  0.386200  0.305300  1.0  0.0275
  C  C212  1  0.356100  0.419000  0.788700  1.0  -0.1128
  C  C213  1  0.760900  0.749800  0.290100  1.0  -0.1302
  C  C214  1  0.251000  0.368200  0.074100  1.0  0.0833
  C  C215  1  0.961700  0.689500  0.211800  1.0  -0.1372
  C  C216  1  0.363300  0.712700  0.221500  1.0  -0.0265
  C  C217  1  0.363600  0.829200  0.765000  1.0  -0.011
  C  C218  1  0.031000  0.416000  0.516800  1.0  -0.1749
  C  C219  1  0.407400  0.426700  0.267900  1.0  0.0506
  C  C220  1  0.923300  0.482800  0.636300  1.0  0.0057
  C  C221  1  0.498900  0.044100  0.880200  1.0  -0.0188
  C  C222  1  0.142600  0.523400  0.192900  1.0  -0.0173
  C  C223  1  0.751400  0.315100  0.941700  1.0  -0.1902
  C  C224  1  0.140400  0.985300  0.650300  1.0  -0.181
  C  C225  1  0.689400  0.469800  0.273200  1.0  -0.2315
  C  C226  1  0.310600  0.530200  0.726800  1.0  -0.2304
  C  C227  1  0.334900  0.938300  0.785800  1.0  0.0203
  C  C228  1  0.679300  0.899300  0.228500  1.0  -0.024
  C  C229  1  0.770200  0.541300  0.137300  1.0  -0.196
  C  C230  1  0.521300  0.740000  0.120700  1.0  0.0009
  C  C231  1  0.099700  0.724800  0.515800  1.0  -0.1611
  C  C232  1  0.061900  0.485000  0.412000  1.0  -0.1605
  C  C233  1  0.559000  0.976000  0.250200  1.0  0.0067
  C  C234  1  0.183300  0.745300  0.001100  1.0  0.0564
  C  C235  1  0.890700  0.708900  0.261300  1.0  0.0475
  C  C236  1  0.816700  0.254700  0.998900  1.0  0.0566
  C  C237  1  0.230400  0.428600  0.109200  1.0  0.1061
  C  C238  1  0.780500  0.306600  0.048500  1.0  -0.1506
  C  C239  1  0.038300  0.310500  0.788200  1.0  -0.138
  C  C240  1  0.374700  0.364700  0.813400  1.0  -0.026
  C  C241  1  0.425200  0.976300  0.757900  1.0  -0.1578
  C  C242  1  0.813800  0.066400  0.333000  1.0  -0.0067
  C  C243  1  0.052000  0.883700  0.291800  1.0  -0.1428
  C  C244  1  0.993300  0.482000  0.526000  1.0  0.0747
  C  C245  1  0.948000  0.116300  0.708200  1.0  -0.1412
  C  C246  1  0.643900  0.581000  0.211300  1.0  -0.1147
  C  C247  1  0.354400  0.989400  0.773900  1.0  0.028
  C  C248  1  0.722100  0.547700  0.912500  1.0  -0.1862
  C  C249  1  0.614200  0.125900  0.244300  1.0  -0.173
  C  C250  1  0.165900  0.794100  0.621400  1.0  0.0033
  C  C251  1  0.769600  0.571400  0.890800  1.0  0.1056
  C  C252  1  0.943900  0.883800  0.366900  1.0  -0.1758
  C  C253  1  0.143200  0.773400  0.587700  1.0  -0.1624
  C  C254  1  0.186200  0.933600  0.667000  1.0  -0.0053
  C  C255  1  0.812000  0.285900  0.452000  1.0  0.0443
  C  C256  1  0.818400  0.358600  0.199500  1.0  -0.0042
  C  C257  1  0.736900  0.472500  0.213100  1.0  0.0605
  C  C258  1  0.410200  0.046500  0.001600  1.0  -0.1473
  C  C259  1  0.992700  0.776500  0.851900  1.0  -0.1238
  C  C260  1  0.218400  0.315400  0.025300  1.0  0.0178
  C  C261  1  0.219200  0.636700  0.462300  1.0  -0.1511
  C  C262  1  0.014200  0.385800  0.565800  1.0  -0.0025
  C  C263  1  0.738300  0.295000  0.695000  1.0  0.0137
  C  C264  1  0.988700  0.306500  0.778500  1.0  -0.0032
  C  C265  1  0.900300  0.275200  0.484200  1.0  -0.1607
  C  C266  1  0.949600  0.818600  0.909500  1.0  0.0611
  C  C267  1  0.202400  0.616200  0.425200  1.0  -0.0233
  C  C268  1  0.530200  0.157900  0.653400  1.0  0.0553
  C  C269  1  0.664700  0.739000  0.987500  1.0  -0.0136
  C  C270  1  0.141200  0.806800  0.993500  1.0  -0.1947
  C  C271  1  0.871800  0.240400  0.828300  1.0  -0.0423
  C  C272  1  0.385800  0.874100  0.755700  1.0  -0.1734
  C  C273  1  0.199600  0.367100  0.063200  1.0  -0.187
  C  C274  1  0.814200  0.265000  0.940900  1.0  0.0626
  C  C275  1  0.592600  0.573300  0.732100  1.0  0.0516
  C  C276  1  0.248600  0.684900  0.058300  1.0  -0.1888
  C  C277  1  0.907800  0.750000  0.979800  1.0  -0.1606
  C  C278  1  0.408400  0.743900  0.195000  1.0  0.0288
  C  C279  1  0.334200  0.479200  0.220100  1.0  0.0055
  C  C280  1  0.831900  0.308700  0.490400  1.0  0.0492
  C  C281  1  0.444100  0.264500  0.681600  1.0  -0.0168
  C  C282  1  0.441000  0.024000  0.749800  1.0  0.0002
  C  C283  1  0.554700  0.157000  0.590800  1.0  -0.2316
  C  C284  1  0.011300  0.693500  0.221500  1.0  -0.0023
  C  C285  1  0.656700  0.560200  0.676800  1.0  -0.158
  C  C286  1  0.248900  0.674000  0.113800  1.0  0.014
  C  C287  1  0.758600  0.091400  0.162700  1.0  -0.0217
  C  C288  1  0.106500  0.190000  0.033700  1.0  0.0639
  C  C289  1  0.485100  0.015100  0.979900  1.0  0.039
  C  C290  1  0.788700  0.297000  0.100400  1.0  -0.0175
  C  C291  1  0.710800  0.753400  0.276000  1.0  -0.0142
  C  C292  1  0.736600  0.046000  0.171400  1.0  -0.1681
  C  C293  1  0.261700  0.705000  0.305000  1.0  0.0138
  C  C294  1  0.076700  0.517200  0.363700  1.0  0.0022
  C  C295  1  0.522600  0.287000  0.857500  1.0  -0.1515
  C  C296  1  0.873400  0.731900  0.322300  1.0  -0.1845
  C  C297  1  0.961400  0.868600  0.914500  1.0  -0.1599
  C  C298  1  0.275200  0.474500  0.327500  1.0  -0.0156
  C  C299  1  0.343200  0.626300  0.210100  1.0  -0.0175
  C  C300  1  0.135000  0.814500  0.940400  1.0  0.003
  C  C301  1  0.857100  0.743100  0.034100  1.0  -0.0308
  C  C302  1  0.478700  0.260000  0.879300  1.0  0.001
  C  C303  1  0.826700  0.863900  0.009100  1.0  -0.1842
  C  C304  1  0.985800  0.614200  0.434200  1.0  0.003
  C  C305  1  0.865000  0.185500  0.059600  1.0  1e-04
  C  C306  1  0.874400  0.228300  0.883000  1.0  -0.1774
  C  C307  1  0.163300  0.465000  0.163000  1.0  -0.1546
  C  C308  1  0.534000  0.732200  0.380600  1.0  -0.2275
  C  C309  1  0.598900  0.552800  0.783300  1.0  -0.1895
  C  C310  1  0.856800  0.226600  0.412300  1.0  -0.1634
  C  C311  1  0.013300  0.172100  0.620600  1.0  -0.0088
  C  C312  1  0.806600  0.675300  0.183200  1.0  0.0041
  C  C313  1  0.056100  0.116200  0.633100  1.0  -0.1757
  C  C314  1  0.074500  0.265000  0.670400  1.0  -0.006
  C  C315  1  0.401100  0.447200  0.216700  1.0  -0.1893
  C  C316  1  0.553300  0.221500  0.506000  1.0  0.0553
  C  C317  1  0.574800  0.023700  0.242100  1.0  -0.1561
  C  C318  1  0.456400  0.645800  0.791300  1.0  -0.2028
  C  C319  1  0.836700  0.535000  0.837000  1.0  -0.1547
  C  C320  1  0.893500  0.810000  0.966300  1.0  0.065
  C  C321  1  0.007300  0.223500  0.148100  1.0  -0.1219
  C  C322  1  0.780800  0.363300  0.537700  1.0  -0.1497
  C  C323  1  0.181600  0.641400  0.800500  1.0  -0.0049
  C  C324  1  0.501100  0.955900  0.119800  1.0  -0.0148
  C  C325  1  0.320700  0.100700  0.771500  1.0  -0.0223
  C  C326  1  0.128200  0.759600  0.171700  1.0  -0.0407
  C  C327  1  0.636400  0.170800  0.235000  1.0  -0.0142
  C  C328  1  0.695600  0.948900  0.220500  1.0  -0.1712
  C  C329  1  0.006700  0.518000  0.474000  1.0  0.073
  C  C330  1  0.125600  0.771700  0.117000  1.0  -0.1754
  C  C331  1  0.479500  0.397300  0.263800  1.0  0.0556
  C  C332  1  0.745300  0.324400  0.454300  1.0  -0.2204
  C  C333  1  0.976900  0.912400  0.320100  1.0  0.097
  C  C334  1  0.591600  0.256100  0.805000  1.0  0.0276
  C  C335  1  0.283400  0.467500  0.812100  1.0  0.0601
  C  C336  1  0.665100  0.061700  0.214200  1.0  0.021
  C  C337  1  0.335300  0.261000  0.012500  1.0  -0.0131
  C  C338  1  0.575500  0.287000  0.428500  1.0  0.01
  C  C339  1  0.229800  0.458700  0.862700  1.0  -0.1943
  C  C340  1  0.383300  0.657200  0.185600  1.0  -0.1501
  C  C341  1  0.697800  0.262900  0.719600  1.0  -0.1417
  C  C342  1  0.263400  0.954000  0.828600  1.0  -0.1703
  C  C343  1  0.514900  0.984900  0.020100  1.0  0.0402
  C  C344  1  0.803200  0.415400  0.176300  1.0  -0.156
  C  C345  1  0.446700  0.778500  0.494000  1.0  0.0545
  C  C346  1  0.969000  0.584000  0.483200  1.0  -0.1691
  C  C347  1  0.211300  0.703000  0.899600  1.0  -0.0162
  C  C348  1  0.466000  0.267800  0.619400  1.0  -0.2269
  C  C349  1  0.188000  0.714100  0.548000  1.0  0.0453
  C  C350  1  0.857400  0.476600  0.807100  1.0  -0.017
  C  C351  1  0.256100  0.511100  0.118100  1.0  0.0082
  C  C352  1  0.164300  0.290200  0.749100  1.0  0.0917
  C  C353  1  0.981900  0.126700  0.136700  1.0  -0.0296
  C  C354  1  0.680600  0.687900  0.951700  1.0  -0.1619
  C  C355  1  0.381100  0.075800  0.964000  1.0  -0.0051
  C  C356  1  0.776500  0.856000  0.062300  1.0  -0.0151
  C  C357  1  0.925500  0.735000  0.329600  1.0  -0.002
  C  C358  1  0.857300  0.670200  0.196900  1.0  -0.206
  C  C359  1  0.529100  0.014800  0.918000  1.0  -0.176
  C  C360  1  0.905900  0.026900  0.226500  1.0  -0.02
  C  C361  1  0.543600  0.354200  0.208700  1.0  -0.2018
  C  C362  1  0.571600  0.168400  0.799000  1.0  0.0433
  C  C363  1  0.593500  0.170100  0.457100  1.0  -0.167
  C  C364  1  0.219500  0.693400  0.951500  1.0  -0.1491
  C  C365  1  0.907400  0.171100  0.696000  1.0  0.0168
  C  C366  1  0.444000  0.613800  0.694700  1.0  0.0255
  C  C367  1  0.858800  0.193200  0.006500  1.0  -0.1942
  C  C368  1  0.241400  0.908600  0.837300  1.0  -0.0218
  C  C369  1  0.018100  0.873300  0.863300  1.0  -0.0284
  C  C370  1  0.142700  0.329800  0.803100  1.0  -0.2063
  C  C371  1  0.725900  0.302700  0.420100  1.0  0.0042
  C  C372  1  0.343300  0.439800  0.323200  1.0  -0.1575
  C  C373  1  0.750400  0.595700  0.113200  1.0  0.0153
  C  C374  1  0.520500  0.602700  0.736200  1.0  0.0554
  C  C375  1  0.625300  0.635300  0.186600  1.0  -0.0263
  C  C376  1  0.081700  0.703800  0.479100  1.0  0.0208
  C  C377  1  0.834100  0.205900  0.378600  1.0  0.0013
  C  C378  1  0.445300  0.843000  0.409200  1.0  -0.2324
  C  C379  1  0.636700  0.287300  0.778500  1.0  -0.0267
  C  C380  1  0.254700  0.675600  0.545700  1.0  -0.2213
  C  C381  1  0.835700  0.709800  0.250900  1.0  0.0927
  C  C382  1  0.424500  0.713000  0.571500  1.0  0.0096
  C  C383  1  0.716600  0.532500  0.187900  1.0  0.0592
  C  C384  1  0.382400  0.806700  0.223700  1.0  -0.2227
  C  C385  1  0.044700  0.784100  0.801500  1.0  0.0147
  C  C386  1  0.277900  0.452300  0.087500  1.0  -0.1855
  C  C387  1  0.223500  0.144000  0.937700  1.0  -0.0172
  C  C388  1  0.168100  0.691300  0.509600  1.0  0.0484
  C  C389  1  0.622000  0.177600  0.395000  1.0  0.0022
  C  C390  1  0.050400  0.181400  0.090500  1.0  0.0606
  C  C391  1  0.797600  0.383800  0.574800  1.0  -0.0201
  C  C392  1  0.952700  0.976700  0.241000  1.0  -0.1616
  C  C393  1  0.263100  0.527500  0.786900  1.0  0.0604
  C  C394  1  0.477400  0.713000  0.142500  1.0  -0.1503
  C  C395  1  0.526000  0.215100  0.571700  1.0  0.0829
  C  C396  1  0.938100  0.515000  0.588000  1.0  -0.1595
  C  C397  1  0.274100  0.697300  0.579900  1.0  0.0036
  C  C398  1  0.751100  0.326000  0.886200  1.0  0.0193
  C  C399  1  0.859600  0.014700  0.349700  1.0  -0.1808
  C  C400  1  0.304400  0.051100  0.779500  1.0  -0.1705
  C  C401  1  0.743900  0.488900  0.881900  1.0  0.0063
  C  C402  1  0.546900  0.280200  0.488600  1.0  -0.136
  C  C403  1  0.069300  0.032100  0.696500  1.0  0.0717
  C  C404  1  0.955300  0.215900  0.198500  1.0  0.0195
  C  C405  1  0.023100  0.087600  0.679900  1.0  0.0974
  C  C406  1  0.724800  0.525500  0.672500  1.0  -0.0124
  C  C407  1  0.618900  0.924200  0.036000  1.0  -0.0038
  C  C408  1  0.474000  0.784900  0.428300  1.0  0.0827
  C  C409  1  0.389200  0.671900  0.795200  1.0  -0.0465
  C  C410  1  0.378000  0.822400  0.605000  1.0  0.0024
  C  C411  1  0.645600  0.010600  0.226100  1.0  0.0286
  C  C412  1  0.289200  0.246600  0.724000  1.0  -0.0139
  C  C413  1  0.094100  0.973100  0.773500  1.0  -0.0168
  C  C414  1  0.092200  0.250000  0.020200  1.0  -0.1626
  C  C415  1  0.047300  0.023300  0.759000  1.0  -0.163
  C  C416  1  0.249600  0.404300  0.886800  1.0  0.0139
  C  C417  1  0.800400  0.632900  0.936800  1.0  -0.1877
  C  C418  1  0.589800  0.953500  0.998400  1.0  -0.1431
  C  C419  1  0.617600  0.193300  0.776300  1.0  -0.2276
  C  C420  1  0.196800  0.584600  0.823700  1.0  -0.157
  C  C421  1  0.707300  0.412700  0.292700  1.0  0.0593
  C  C422  1  0.616700  0.342800  0.814400  1.0  -0.1513
  C  C423  1  0.319400  0.312100  0.048300  1.0  -0.1589
  C  C424  1  0.469800  0.842100  0.346600  1.0  0.0563
  C  C425  1  0.453100  0.719800  0.511400  1.0  -0.136
  C  C426  1  0.185800  0.735000  0.059100  1.0  0.0637
  C  C427  1  0.513100  0.589100  0.687700  1.0  -0.1793
  C  C428  1  0.918300  0.296200  0.520900  1.0  0.0214
  C  C429  1  0.173300  0.136100  0.990900  1.0  -0.1841
  C  C430  1  0.665800  0.520800  0.779900  1.0  -0.0025
  C  C431  1  0.142900  0.256900  0.965900  1.0  -0.0296
  C  C432  1  0.781600  0.684600  0.974700  1.0  0.0186
  C  C433  1  0.749000  0.631800  0.925900  1.0  0.0814
  C  C434  1  0.428400  0.831600  0.201000  1.0  0.0452
  C  C435  1  0.302200  0.737100  0.280400  1.0  -0.14
  C  C436  1  0.038600  0.131400  0.085500  1.0  -0.1672
  C  C437  1  0.656800  0.373700  0.789900  1.0  -0.0135
  C  C438  1  0.986700  0.827900  0.379400  1.0  -0.0032
  C  C439  1  0.129900  0.583800  0.027600  1.0  0.4937
  C  C440  1  0.870100  0.416200  0.972400  1.0  0.4922
  S  S441  1  0.057200  0.627700  0.006400  1.0  1.2776
  S  S442  1  0.942800  0.372300  0.993600  1.0  1.2791
  N  N443  1  0.284500  0.650200  0.268600  1.0  0.2709
  N  N444  1  0.387400  0.086500  0.759900  1.0  0.2182
  N  N445  1  0.679700  0.642600  0.138100  1.0  0.2992
  N  N446  1  0.189500  0.710300  0.169200  1.0  0.2595
  N  N447  1  0.038700  0.580200  0.376100  1.0  0.2765
  N  N448  1  0.059100  0.800400  0.347500  1.0  0.2224
  N  N449  1  0.162800  0.929300  0.727900  1.0  0.324
  N  N450  1  0.792200  0.796400  0.073100  1.0  0.3047
  N  N451  1  0.940900  0.169600  0.191600  1.0  0.2564
  N  N452  1  0.810400  0.453900  0.831600  1.0  0.326
  N  N453  1  0.426100  0.073100  0.903300  1.0  0.3229
  N  N454  1  0.768800  0.243200  0.385500  1.0  0.3073
  N  N455  1  0.480700  0.208800  0.698500  1.0  0.165
  N  N456  1  0.727300  0.506100  0.725700  1.0  0.2145
  N  N457  1  0.008000  0.283700  0.719500  1.0  0.2578
  N  N458  1  0.230400  0.641900  0.743800  1.0  0.2393
  N  N459  1  0.320300  0.357400  0.861900  1.0  0.2967
  N  N460  1  0.837200  0.070700  0.272100  1.0  0.335
  N  N461  1  0.519300  0.791200  0.301500  1.0  0.1653
  N  N462  1  0.961300  0.419800  0.623900  1.0  0.2925
  N  N463  1  0.713800  0.736500  0.001400  1.0  0.2578
  N  N464  1  0.387100  0.765300  0.618400  1.0  0.2533
  N  N465  1  0.810500  0.289700  0.830800  1.0  0.2592
  N  N466  1  0.940900  0.199600  0.652500  1.0  0.2213
  N  N467  1  0.734600  0.716500  0.221900  1.0  0.254
  N  N468  1  0.992000  0.716300  0.280500  1.0  0.2589
  N  N469  1  0.706900  0.152900  0.196400  1.0  0.2353
  N  N470  1  0.612900  0.234700  0.381600  1.0  0.2518
  N  N471  1  0.286200  0.263500  0.998600  1.0  0.2564
  N  N472  1  0.189600  0.546100  0.168400  1.0  0.3331
  N  N473  1  0.207800  0.203600  0.926900  1.0  0.2943
  N  N474  1  0.383800  0.654100  0.748300  1.0  0.3327
  N  N475  1  0.170700  0.762600  0.894700  1.0  0.3301
  N  N476  1  0.059100  0.830400  0.808400  1.0  0.2574
  N  N477  1  0.573900  0.926900  0.096700  1.0  0.3079
  N  N478  1  0.495900  0.799500  0.151600  1.0  0.2533
  N  N479  1  0.829300  0.237400  0.105300  1.0  0.3301
  N  N480  1  0.133400  0.649500  0.434300  1.0  0.3114
  N  N481  1  0.504100  0.200500  0.848400  1.0  0.2512
  N  N482  1  0.265400  0.283500  0.778100  1.0  0.2544
  N  N483  1  0.715500  0.349800  0.731400  1.0  0.2741
  N  N484  1  0.272700  0.493900  0.274300  1.0  0.2145
  N  N485  1  0.866600  0.350500  0.565700  1.0  0.294
  N  N486  1  0.769600  0.358100  0.256200  1.0  0.2392
  N  N487  1  0.293100  0.847100  0.803600  1.0  0.233
  N  N488  1  0.612600  0.913500  0.240100  1.0  0.2179
  N  N489  1  0.231200  0.756800  0.614500  1.0  0.295
  N  N490  1  0.616200  0.345900  0.251700  1.0  0.3225
  O  O491  1  0.190400  0.698400  0.222100  1.0  -0.6386
  O  O492  1  0.254400  0.778000  0.642900  1.0  -0.6391
  O  O493  1  0.357300  0.758500  0.678300  1.0  -0.6271
  O  O494  1  0.053100  0.612400  0.330300  1.0  -0.6273
  O  O495  1  0.598900  0.865200  0.243900  1.0  -0.65
  O  O496  1  0.785200  0.303300  0.276100  1.0  -0.6446
  O  O497  1  0.536200  0.792400  0.242500  1.0  -0.6479
  O  O498  1  0.642700  0.241500  0.321700  1.0  -0.6273
  O  O499  1  0.099700  0.742700  0.356900  1.0  -0.6263
  O  O500  1  0.960500  0.276800  0.711600  1.0  -0.636
  O  O501  1  0.039500  0.723200  0.288400  1.0  -0.6367
  O  O502  1  0.399000  0.099500  0.866200  1.0  -0.6473
  O  O503  1  0.601000  0.900500  0.133800  1.0  -0.6485
  O  O504  1  0.745600  0.222000  0.357100  1.0  -0.6386
  O  O505  1  0.463800  0.207600  0.757500  1.0  -0.6488
  O  O506  1  0.838800  0.229300  0.154800  1.0  -0.6428
  O  O507  1  0.169700  0.603200  0.194600  1.0  -0.6392
  O  O508  1  0.744200  0.789300  0.127100  1.0  -0.6403
  O  O509  1  0.900300  0.257300  0.643100  1.0  -0.6252
  O  O510  1  0.946900  0.387600  0.669700  1.0  -0.6263
  O  O511  1  0.790900  0.117400  0.257400  1.0  -0.6409
  O  O512  1  0.830300  0.396800  0.805400  1.0  -0.6411
  O  O513  1  0.249100  0.618800  0.291500  1.0  -0.6331
  O  O514  1  0.882500  0.371700  0.601600  1.0  -0.649
  O  O515  1  0.214800  0.696700  0.723900  1.0  -0.6439
  O  O516  1  0.750900  0.381200  0.708500  1.0  -0.6347
  O  O517  1  0.255800  0.210700  0.872900  1.0  -0.643
  O  O518  1  0.401100  0.134800  0.756100  1.0  -0.6477
  O  O519  1  0.687100  0.720800  0.206300  1.0  -0.6287
  O  O520  1  0.728600  0.195900  0.189500  1.0  -0.6313
  O  O521  1  0.208100  0.528300  0.278600  1.0  -0.6367
  O  O522  1  0.209100  0.882600  0.742600  1.0  -0.641
  O  O523  1  0.459700  0.176800  0.869500  1.0  -0.6382
  O  O524  1  0.682100  0.324100  0.244500  1.0  -0.6401
  O  O525  1  0.791900  0.471700  0.721400  1.0  -0.6375
  O  O526  1  0.161200  0.770700  0.845200  1.0  -0.6433
  O  O527  1  0.809600  0.301600  0.777900  1.0  -0.6402
  O  O528  1  0.695300  0.784500  0.041500  1.0  -0.6414
  O  O529  1  0.113700  0.835400  0.761600  1.0  -0.635
  O  O530  1  0.540300  0.823200  0.130500  1.0  -0.638
  O  O531  1  0.662100  0.695700  0.113700  1.0  -0.637
  O  O532  1  0.312900  0.279200  0.793700  1.0  -0.6279
  O  O533  1  0.304700  0.215500  0.958500  1.0  -0.6418
  O  O534  1  0.317900  0.675900  0.755500  1.0  -0.6378
  O  O535  1  0.337900  0.304300  0.886300  1.0  -0.6371
  O  O536  1  0.271400  0.804100  0.810500  1.0  -0.6303
  O  O537  1  0.886300  0.164600  0.238400  1.0  -0.6355
  O  O538  1  0.117500  0.628300  0.398400  1.0  -0.6509
  O  O539  1  0.991400  0.655900  0.065900  1.0  -0.5913
  O  O540  1  0.079000  0.670400  0.969800  1.0  -0.6694
  O  O541  1  0.065700  0.579900  0.968200  1.0  -0.5905
  O  O542  1  0.921000  0.329600  0.030200  1.0  -0.6688
  O  O543  1  0.008600  0.344100  0.934100  1.0  -0.5901
  O  O544  1  0.934300  0.420100  0.031800  1.0  -0.59
  F  F545  1  0.126000  0.623300  0.063500  1.0  -0.2305
  F  F546  1  0.120600  0.543300  0.058800  1.0  -0.2093
  F  F547  1  0.194300  0.556700  0.977400  1.0  -0.2184
  F  F548  1  0.874000  0.376700  0.936500  1.0  -0.2318
  F  F549  1  0.805700  0.443300  0.022600  1.0  -0.2194
  F  F550  1  0.879400  0.456700  0.941200  1.0  -0.2103
