# generated using pymatgen
data_Ho3H96C121SN24(O9F)3
_symmetry_space_group_name_H-M   'P 1'
_cell_length_a   23.97240000
_cell_length_b   24.09280000
_cell_length_c   24.56930000
_cell_angle_alpha   86.14500000
_cell_angle_beta   61.59300000
_cell_angle_gamma   61.53300000
_symmetry_Int_Tables_number   1
_chemical_formula_structural   Ho3H96C121SN24(O9F)3
_chemical_formula_sum   'Ho6 H192 C242 S2 N48 O54 F6'
_cell_volume   10736.46372907
_cell_formula_units_Z   2
loop_
 _symmetry_equiv_pos_site_id
 _symmetry_equiv_pos_as_xyz
  1  'x, y, z'
loop_
 _atom_site_type_symbol
 _atom_site_label
 _atom_site_symmetry_multiplicity
 _atom_site_fract_x
 _atom_site_fract_y
 _atom_site_fract_z
 _atom_site_occupancy
 _atom_site_charge
  Ho  Ho1  1  0.861240  0.354430  0.703380  1.0  2.1597
  Ho  Ho2  1  0.240140  0.775170  0.743050  1.0  2.1809
  Ho  Ho3  1  0.634010  0.795890  0.153510  1.0  2.1572
  Ho  Ho4  1  0.365990  0.204110  0.846490  1.0  2.1584
  Ho  Ho5  1  0.138760  0.645570  0.296620  1.0  2.1603
  Ho  Ho6  1  0.759860  0.224830  0.256950  1.0  2.1805
  H  H7  1  0.772800  0.002300  0.146800  1.0  0.1185
  H  H8  1  0.883300  0.155400  0.975600  1.0  0.1155
  H  H9  1  0.321800  0.427600  0.056100  1.0  0.0964
  H  H10  1  0.523400  0.315900  0.522500  1.0  0.0978
  H  H11  1  0.098000  0.804900  0.588500  1.0  0.1137
  H  H12  1  0.915600  0.216100  0.788300  1.0  0.0988
  H  H13  1  0.459400  0.936300  0.754000  1.0  0.1
  H  H14  1  0.891100  0.502100  0.679200  1.0  0.0981
  H  H15  1  0.237900  0.904600  0.632000  1.0  0.1093
  H  H16  1  0.815600  0.906200  0.002000  1.0  0.1116
  H  H17  1  0.715700  0.469100  0.895700  1.0  0.0976
  H  H18  1  0.476600  0.684100  0.477500  1.0  0.0981
  H  H19  1  0.621400  0.775500  0.002000  1.0  0.0731
  H  H20  1  0.073900  0.906300  0.262400  1.0  0.115
  H  H21  1  0.374500  0.055700  0.048400  1.0  0.1147
  H  H22  1  0.563200  0.137800  0.268000  1.0  0.1112
  H  H23  1  0.862600  0.162500  0.356100  1.0  0.0874
  H  H24  1  0.764800  0.331500  0.133800  1.0  0.0914
  H  H25  1  0.940500  0.233300  0.452300  1.0  0.1161
  H  H26  1  0.335700  0.829200  0.256100  1.0  0.1162
  H  H27  1  0.494500  0.673200  0.120400  1.0  0.1079
  H  H28  1  0.178800  0.318200  0.020300  1.0  0.0871
  H  H29  1  0.109700  0.855500  0.931300  1.0  0.0993
  H  H30  1  0.436800  0.862200  0.732000  1.0  0.1112
  H  H31  1  0.404000  0.880500  0.438300  1.0  0.1201
  H  H32  1  0.540600  0.063700  0.246000  1.0  0.1006
  H  H33  1  0.411500  0.872000  0.220300  1.0  0.1048
  H  H34  1  0.401600  0.787400  0.740400  1.0  0.1082
  H  H35  1  0.871100  0.700300  0.043000  1.0  0.1186
  H  H36  1  0.395700  0.423000  0.753700  1.0  0.0946
  H  H37  1  0.426300  0.333333  0.800800  1.0  0.119
  H  H38  1  0.420900  0.009700  0.101500  1.0  0.091
  H  H39  1  0.463300  0.658700  0.823500  1.0  0.113
  H  H40  1  0.353400  0.856700  0.638500  1.0  0.1143
  H  H41  1  0.558200  0.560500  0.648200  1.0  0.1141
  H  H42  1  0.352000  0.310200  0.060400  1.0  0.1223
  H  H43  1  0.560100  0.563600  0.821700  1.0  0.1118
  H  H44  1  0.488100  0.017600  0.738300  1.0  0.1199
  H  H45  1  0.856400  0.188600  0.715600  1.0  0.1177
  H  H46  1  0.818700  0.509400  0.121800  1.0  0.0982
  H  H47  1  0.253800  0.651700  0.953200  1.0  0.1173
  H  H48  1  0.125800  0.451500  0.179700  1.0  0.1151
  H  H49  1  0.924900  0.244200  0.240900  1.0  0.1129
  H  H50  1  0.644400  0.507300  0.298400  1.0  0.0992
  H  H51  1  0.059500  0.766700  0.547700  1.0  0.1159
  H  H52  1  0.821200  0.681800  0.979700  1.0  0.0866
  H  H53  1  0.839900  0.014300  0.394000  1.0  0.0995
  H  H54  1  0.908300  0.641300  0.168700  1.0  0.0973
  H  H55  1  0.036600  0.339200  0.558500  1.0  0.0949
  H  H56  1  0.227200  0.997700  0.853200  1.0  0.1188
  H  H57  1  0.015600  0.257800  0.153200  1.0  0.1029
  H  H58  1  0.714700  0.853300  0.224300  1.0  0.1027
  H  H59  1  0.671300  0.902600  0.018400  1.0  0.0972
  H  H60  1  0.557300  0.392200  0.342100  1.0  0.1
  H  H61  1  0.670400  0.413500  0.335600  1.0  0.1147
  H  H62  1  0.762100  0.095400  0.368000  1.0  0.1095
  H  H63  1  0.089500  0.249400  0.629400  1.0  0.1061
  H  H64  1  0.588500  0.128000  0.779700  1.0  0.1041
  H  H65  1  0.565100  0.328300  0.422000  1.0  0.1053
  H  H66  1  0.536700  0.341300  0.176500  1.0  0.1126
  H  H67  1  0.035500  0.190400  0.588200  1.0  0.1031
  H  H68  1  0.964500  0.809600  0.411800  1.0  0.1026
  H  H69  1  0.902000  0.195100  0.411500  1.0  0.1144
  H  H70  1  0.746200  0.348300  0.046800  1.0  0.116
  H  H71  1  0.292300  0.661400  0.018500  1.0  0.1095
  H  H72  1  0.254900  0.064200  0.789400  1.0  0.1147
  H  H73  1  0.778600  0.277700  0.655200  1.0  0.0974
  H  H74  1  0.963400  0.660800  0.441500  1.0  0.0955
  H  H75  1  0.268600  0.107200  0.909700  1.0  0.1063
  H  H76  1  0.194000  0.919300  0.865100  1.0  0.1116
  H  H77  1  0.402300  0.303300  0.717000  1.0  0.0997
  H  H78  1  0.143600  0.811400  0.284400  1.0  0.1173
  H  H79  1  0.329600  0.586500  0.664400  1.0  0.1145
  H  H80  1  0.084600  0.805900  0.117400  1.0  0.0932
  H  H81  1  0.023700  0.326600  0.830700  1.0  0.114
  H  H82  1  0.452200  0.879800  0.331300  1.0  0.0602
  H  H83  1  0.667800  0.510400  0.815600  1.0  0.0917
  H  H84  1  0.057100  0.685600  0.186800  1.0  0.0801
  H  H85  1  0.080600  0.969400  0.815500  1.0  0.105
  H  H86  1  0.972000  0.093600  0.134400  1.0  0.098
  H  H87  1  0.338600  0.223000  0.697000  1.0  0.0857
  H  H88  1  0.604300  0.577000  0.246300  1.0  0.0945
  H  H89  1  0.573700  0.666667  0.199200  1.0  0.1188
  H  H90  1  0.707700  0.338600  0.981500  1.0  0.1103
  H  H91  1  0.651300  0.296900  0.167500  1.0  0.0914
  H  H92  1  0.547800  0.120200  0.668700  1.0  0.0614
  H  H93  1  0.442700  0.607800  0.657900  1.0  0.1002
  H  H94  1  0.328700  0.097400  0.981600  1.0  0.0969
  H  H95  1  0.045000  0.288600  0.050200  1.0  0.0948
  H  H96  1  0.573600  0.363200  0.855400  1.0  0.1183
  H  H97  1  0.355600  0.492700  0.701600  1.0  0.0986
  H  H98  1  0.433300  0.282300  0.919600  1.0  0.0993
  H  H99  1  0.147900  0.407100  0.080800  1.0  0.1184
  H  H100  1  0.930300  0.899000  0.952300  1.0  0.1093
  H  H101  1  0.561400  0.693200  0.388500  1.0  0.1025
  H  H102  1  0.505500  0.326800  0.879600  1.0  0.1093
  H  H103  1  0.678200  0.572400  0.943900  1.0  0.0967
  H  H104  1  0.393900  0.871400  0.533200  1.0  0.1101
  H  H105  1  0.069700  0.101000  0.047700  1.0  0.1084
  H  H106  1  0.731400  0.892800  0.090300  1.0  0.1056
  H  H107  1  0.745100  0.935800  0.210600  1.0  0.1147
  H  H108  1  0.002300  0.053600  0.790100  1.0  0.0895
  H  H109  1  0.470100  0.960200  0.161900  1.0  0.1164
  H  H110  1  0.211800  0.399600  0.920100  1.0  0.1039
  H  H111  1  0.172900  0.257500  0.643500  1.0  0.1063
  H  H112  1  0.256000  0.224700  0.671400  1.0  0.1221
  H  H113  1  0.355900  0.587900  0.187400  1.0  0.1033
  H  H114  1  0.712500  0.226300  0.695600  1.0  0.1051
  H  H115  1  0.137400  0.837500  0.643900  1.0  0.0877
  H  H116  1  0.234100  0.582200  0.394200  1.0  0.0925
  H  H117  1  0.075100  0.755800  0.759100  1.0  0.1127
  H  H118  1  0.265500  0.613500  0.455000  1.0  0.1113
  H  H119  1  0.891000  0.902100  0.390200  1.0  0.125
  H  H120  1  0.606100  0.128600  0.466800  1.0  0.1095
  H  H121  1  0.166500  0.584500  0.864300  1.0  0.0844
  H  H122  1  0.076300  0.392000  0.474400  1.0  0.1086
  H  H123  1  0.235200  0.668500  0.866200  1.0  0.0911
  H  H124  1  0.744000  0.775300  0.328600  1.0  0.1227
  H  H125  1  0.292800  0.640600  0.112300  1.0  0.1117
  H  H126  1  0.092800  0.552000  0.229000  1.0  0.0953
  H  H127  1  0.598400  0.212600  0.259600  1.0  0.1089
  H  H128  1  0.596000  0.119500  0.561700  1.0  0.1198
  H  H129  1  0.655800  0.576400  0.639800  1.0  0.1093
  H  H130  1  0.332200  0.489600  0.184400  1.0  0.0928
  H  H131  1  0.765900  0.417800  0.605800  1.0  0.0926
  H  H132  1  0.438600  0.306800  0.611500  1.0  0.1018
  H  H133  1  0.907200  0.448000  0.771000  1.0  0.0959
  H  H134  1  0.221400  0.722300  0.344800  1.0  0.0985
  H  H135  1  0.734500  0.386500  0.545000  1.0  0.111
  H  H136  1  0.091700  0.358700  0.831300  1.0  0.0979
  H  H137  1  0.116700  0.844600  0.024400  1.0  0.116
  H  H138  1  0.086700  0.441900  0.402300  1.0  0.0986
  H  H139  1  0.426400  0.636800  0.144600  1.0  0.1188
  H  H140  1  0.109000  0.097900  0.609800  1.0  0.1245
  H  H141  1  0.661400  0.777000  0.303000  1.0  0.086
  H  H142  1  0.529900  0.039800  0.838100  1.0  0.1159
  H  H143  1  0.833500  0.415500  0.135700  1.0  0.0846
  H  H144  1  0.160100  0.985700  0.606000  1.0  0.0994
  H  H145  1  0.128900  0.299700  0.957000  1.0  0.1191
  H  H146  1  0.681100  0.331100  0.419200  1.0  0.1036
  H  H147  1  0.439900  0.436400  0.178300  1.0  0.1118
  H  H148  1  0.285300  0.146700  0.775700  1.0  0.1023
  H  H149  1  0.824200  0.645700  0.144400  1.0  0.1214
  H  H150  1  0.287500  0.773700  0.304400  1.0  0.1058
  H  H151  1  0.716900  0.369600  0.474000  1.0  0.1121
  H  H152  1  0.806000  0.080700  0.134900  1.0  0.1117
  H  H153  1  0.915400  0.194100  0.882600  1.0  0.0936
  H  H154  1  0.441800  0.439500  0.351800  1.0  0.1145
  H  H155  1  0.283100  0.630400  0.526000  1.0  0.113
  H  H156  1  0.923700  0.608000  0.525600  1.0  0.1091
  H  H157  1  0.137800  0.680900  0.823900  1.0  0.1067
  H  H158  1  0.284300  0.530900  0.104300  1.0  0.0972
  H  H159  1  0.955000  0.711400  0.949800  1.0  0.0946
  H  H160  1  0.108900  0.497900  0.320800  1.0  0.0979
  H  H161  1  0.913300  0.558100  0.597700  1.0  0.0979
  H  H162  1  0.997700  0.946400  0.209900  1.0  0.0898
  H  H163  1  0.175800  0.354300  0.855600  1.0  0.1205
  H  H164  1  0.968400  0.273500  0.513600  1.0  0.1067
  H  H165  1  0.227800  0.486600  0.367400  1.0  0.1146
  H  H166  1  0.625500  0.944300  0.951600  1.0  0.1147
  H  H167  1  0.852100  0.592900  0.919200  1.0  0.118
  H  H168  1  0.788200  0.600400  0.079900  1.0  0.1041
  H  H169  1  0.344200  0.423600  0.360200  1.0  0.1094
  H  H170  1  0.919400  0.030600  0.184500  1.0  0.1048
  H  H171  1  0.031600  0.726500  0.486400  1.0  0.1064
  H  H172  1  0.511900  0.982400  0.261700  1.0  0.12
  H  H173  1  0.318900  0.668900  0.580800  1.0  0.1032
  H  H174  1  0.976300  0.673400  0.169300  1.0  0.1132
  H  H175  1  0.664300  0.170800  0.743900  1.0  0.1163
  H  H176  1  0.984400  0.742200  0.846800  1.0  0.1032
  H  H177  1  0.566700  0.717700  0.080400  1.0  0.0995
  H  H178  1  0.942900  0.314400  0.813200  1.0  0.0806
  H  H179  1  0.646600  0.143300  0.361500  1.0  0.1141
  H  H180  1  0.707200  0.359400  0.887700  1.0  0.1122
  H  H181  1  0.874200  0.548500  0.820300  1.0  0.1156
  H  H182  1  0.827100  0.742500  0.356500  1.0  0.1063
  H  H183  1  0.579100  0.990300  0.898500  1.0  0.0902
  H  H184  1  0.434900  0.671700  0.578000  1.0  0.1045
  H  H185  1  0.597700  0.696700  0.283000  1.0  0.101
  H  H186  1  0.648000  0.689800  0.939600  1.0  0.1236
  H  H187  1  0.028000  0.906400  0.865600  1.0  0.0981
  H  H188  1  0.184400  0.093800  0.998000  1.0  0.1125
  H  H189  1  0.910500  0.750600  0.370600  1.0  0.1071
  H  H190  1  0.772200  0.513400  0.632600  1.0  0.1144
  H  H191  1  0.926100  0.093700  0.737600  1.0  0.1149
  H  H192  1  0.348700  0.703100  0.832500  1.0  0.0914
  H  H193  1  0.862200  0.319100  0.176100  1.0  0.1069
  H  H194  1  0.378600  0.224500  0.998000  1.0  0.0746
  H  H195  1  0.084400  0.783900  0.211700  1.0  0.0989
  H  H196  1  0.644100  0.412100  0.812600  1.0  0.1038
  H  H197  1  0.890300  0.144500  0.068700  1.0  0.0995
  H  H198  1  0.181300  0.490600  0.878200  1.0  0.0979
  C  C199  1  0.443300  0.841800  0.407900  1.0  -0.2235
  C  C200  1  0.776900  0.856400  0.061000  1.0  -0.0022
  C  C201  1  0.623800  0.635200  0.184500  1.0  -0.0303
  C  C202  1  0.501500  0.957900  0.118700  1.0  -0.0201
  C  C203  1  0.522400  0.285900  0.857900  1.0  -0.1088
  C  C204  1  0.271800  0.475800  0.328700  1.0  0.0319
  C  C205  1  0.965100  0.584000  0.485000  1.0  -0.2034
  C  C206  1  0.140000  0.526700  0.192700  1.0  -0.0154
  C  C207  1  0.528800  0.160100  0.656100  1.0  0.0744
  C  C208  1  0.815500  0.253700  0.999800  1.0  0.0493
  C  C209  1  0.200700  0.584000  0.823000  1.0  -0.1503
  C  C210  1  0.442800  0.266200  0.684900  1.0  -0.0127
  C  C211  1  0.076600  0.265100  0.670500  1.0  -0.0029
  C  C212  1  0.993400  0.481700  0.526300  1.0  0.0759
  C  C213  1  0.195800  0.370200  0.063400  1.0  -0.2034
  C  C214  1  0.273500  0.453000  0.091100  1.0  -0.1585
  C  C215  1  0.635200  0.288100  0.778700  1.0  -0.0213
  C  C216  1  0.143800  0.983000  0.649200  1.0  -0.1492
  C  C217  1  0.859800  0.741500  0.032400  1.0  -0.0485
  C  C218  1  0.331800  0.262600  0.014200  1.0  0.0349
  C  C219  1  0.923400  0.734900  0.329500  1.0  -0.0006
  C  C220  1  0.515700  0.589600  0.686100  1.0  -0.1584
  C  C221  1  0.855900  0.224300  0.414900  1.0  -0.1715
  C  C222  1  0.941200  0.512300  0.587900  1.0  -0.1506
  C  C223  1  0.006600  0.518300  0.473700  1.0  0.0745
  C  C224  1  0.546700  0.280000  0.490200  1.0  -0.1723
  C  C225  1  0.683500  0.686700  0.948900  1.0  -0.2211
  C  C226  1  0.785400  0.682000  0.972700  1.0  0.0195
  C  C227  1  0.477600  0.714100  0.142100  1.0  -0.1135
  C  C228  1  0.019100  0.872900  0.861700  1.0  0.0285
  C  C229  1  0.750300  0.595500  0.113800  1.0  0.0106
  C  C230  1  0.023000  0.088100  0.680700  1.0  0.0779
  C  C231  1  0.908300  0.169900  0.695100  1.0  0.0203
  C  C232  1  0.592900  0.949000  0.995100  1.0  -0.1863
  C  C233  1  0.802000  0.380500  0.572800  1.0  0.0031
  C  C234  1  0.364800  0.711900  0.221300  1.0  -0.0207
  C  C235  1  0.214600  0.318000  0.027300  1.0  0.0173
  C  C236  1  0.475600  0.784000  0.425700  1.0  0.0581
  C  C237  1  0.159700  0.466600  0.163400  1.0  -0.1765
  C  C238  1  0.355800  0.989900  0.772600  1.0  0.0523
  C  C239  1  0.644200  0.010100  0.227400  1.0  0.0528
  C  C240  1  0.835900  0.709100  0.248900  1.0  0.0171
  C  C241  1  0.264900  0.527400  0.787600  1.0  0.0425
  C  C242  1  0.366000  0.830600  0.763200  1.0  -0.0148
  C  C243  1  0.010200  0.696400  0.221700  1.0  0.0444
  C  C244  1  0.557200  0.733800  0.315100  1.0  -0.0125
  C  C245  1  0.726500  0.547000  0.908900  1.0  -0.16
  C  C246  1  0.634000  0.169400  0.236800  1.0  -0.0171
  C  C247  1  0.980900  0.127100  0.138300  1.0  0.0301
  C  C248  1  0.034900  0.416000  0.515000  1.0  -0.2017
  C  C249  1  0.380100  0.077100  0.965600  1.0  0.0228
  C  C250  1  0.799300  0.416000  0.177000  1.0  -0.1528
  C  C251  1  0.712700  0.750400  0.274500  1.0  0.0224
  C  C252  1  0.872600  0.241000  0.827800  1.0  -0.0079
  C  C253  1  0.137800  0.814000  0.937100  1.0  0.0112
  C  C254  1  0.572600  0.287200  0.431200  1.0  0.0195
  C  C255  1  0.405500  0.829500  0.541900  1.0  -0.1589
  C  C256  1  0.384400  0.654900  0.185900  1.0  -0.1614
  C  C257  1  0.840300  0.533400  0.836600  1.0  -0.1744
  C  C258  1  0.950900  0.816500  0.908600  1.0  0.0428
  C  C259  1  0.386200  0.875000  0.757100  1.0  -0.1567
  C  C260  1  0.404700  0.427100  0.268700  1.0  0.0789
  C  C261  1  0.860000  0.473300  0.807300  1.0  -0.014
  C  C262  1  0.249300  0.687200  0.057700  1.0  -0.1619
  C  C263  1  0.904000  0.272700  0.482500  1.0  -0.174
  C  C264  1  0.050600  0.885800  0.291500  1.0  -0.148
  C  C265  1  0.807900  0.673000  0.181200  1.0  0.0054
  C  C266  1  0.357600  0.419400  0.788900  1.0  -0.1276
  C  C267  1  0.977000  0.911900  0.319300  1.0  0.0789
  C  C268  1  0.263600  0.704900  0.303600  1.0  0.0215
  C  C269  1  0.341200  0.439500  0.324700  1.0  -0.1786
  C  C270  1  0.038300  0.309900  0.789300  1.0  -0.2101
  C  C271  1  0.608600  0.327000  0.204700  1.0  -0.0268
  C  C272  1  0.615600  0.345100  0.814100  1.0  -0.1626
  C  C273  1  0.857800  0.192400  0.007500  1.0  -0.1616
  C  C274  1  0.397000  0.446500  0.217800  1.0  -0.1525
  C  C275  1  0.223100  0.143600  0.939000  1.0  -0.0003
  C  C276  1  0.427400  0.712800  0.568800  1.0  0.021
  C  C277  1  0.728200  0.524200  0.671300  1.0  0.0339
  C  C278  1  0.986400  0.615100  0.433700  1.0  -0.0082
  C  C279  1  0.484700  0.016700  0.979800  1.0  0.0476
  C  C280  1  0.142600  0.329300  0.803900  1.0  -0.1245
  C  C281  1  0.890900  0.708700  0.261300  1.0  0.0541
  C  C282  1  0.049100  0.183500  0.091400  1.0  0.0418
  C  C283  1  0.335400  0.938300  0.786100  1.0  0.0726
  C  C284  1  0.768400  0.541400  0.138500  1.0  -0.1858
  C  C285  1  0.857400  0.670700  0.196100  1.0  -0.1243
  C  C286  1  0.310900  0.531100  0.728400  1.0  -0.1733
  C  C287  1  0.274000  0.697000  0.581600  1.0  0.0144
  C  C288  1  0.231600  0.458600  0.861500  1.0  -0.1841
  C  C289  1  0.515300  0.983300  0.020200  1.0  0.0475
  C  C290  1  0.287300  0.249600  0.725500  1.0  0.0212
  C  C291  1  0.619900  0.922900  0.034400  1.0  0.0227
  C  C292  1  0.252800  0.673900  0.548500  1.0  -0.201
  C  C293  1  0.862200  0.186000  0.062900  1.0  0.0076
  C  C294  1  0.286100  0.467900  0.811800  1.0  0.0303
  C  C295  1  0.825800  0.864100  0.009400  1.0  -0.1499
  C  C296  1  0.174200  0.135900  0.990600  1.0  -0.1518
  C  C297  1  0.927100  0.479400  0.636700  1.0  -0.0068
  C  C298  1  0.222100  0.693800  0.951100  1.0  -0.1769
  C  C299  1  0.736400  0.295100  0.696400  1.0  0.0219
  C  C300  1  0.949400  0.114200  0.708500  1.0  -0.1467
  C  C301  1  0.091700  0.830100  0.304900  1.0  0.0201
  C  C302  1  0.620900  0.178600  0.395400  1.0  0.026
  C  C303  1  0.465200  0.268100  0.622100  1.0  -0.1655
  C  C304  1  0.689100  0.468900  0.271600  1.0  -0.1743
  C  C305  1  0.125900  0.269400  0.678900  1.0  -0.179
  C  C306  1  0.777900  0.306200  0.048900  1.0  -0.1781
  C  C307  1  0.520400  0.739900  0.118300  1.0  0.0068
  C  C308  1  0.303300  0.735100  0.279600  1.0  -0.1534
  C  C309  1  0.696700  0.264900  0.720400  1.0  -0.1536
  C  C310  1  0.761200  0.749400  0.290500  1.0  -0.2314
  C  C311  1  0.909700  0.748600  0.978100  1.0  -0.0671
  C  C312  1  0.810800  0.065600  0.335900  1.0  0.0142
  C  C313  1  0.713900  0.532100  0.188200  1.0  0.03
  C  C314  1  0.551600  0.223000  0.507500  1.0  0.0371
  C  C315  1  0.183700  0.642400  0.799600  1.0  0.0335
  C  C316  1  0.013600  0.384900  0.566300  1.0  -0.0101
  C  C317  1  0.989800  0.303600  0.778300  1.0  0.0464
  C  C318  1  0.560000  0.972800  0.249700  1.0  0.0305
  C  C319  1  0.104200  0.192900  0.036100  1.0  0.0406
  C  C320  1  0.007600  0.223900  0.148300  1.0  -0.1186
  C  C321  1  0.524400  0.216000  0.574300  1.0  0.0587
  C  C322  1  0.302500  0.054100  0.779600  1.0  -0.1578
  C  C323  1  0.376200  0.364800  0.815500  1.0  -0.0282
  C  C324  1  0.212400  0.704200  0.898600  1.0  -0.0117
  C  C325  1  0.227300  0.430700  0.112000  1.0  0.0506
  C  C326  1  0.429200  0.830400  0.199600  1.0  0.0415
  C  C327  1  0.070900  0.031400  0.696800  1.0  0.0362
  C  C328  1  0.185400  0.715300  0.548200  1.0  0.027
  C  C329  1  0.992400  0.776100  0.851700  1.0  -0.1199
  C  C330  1  0.072900  0.520600  0.363300  1.0  -0.0074
  C  C331  1  0.527100  0.013700  0.917200  1.0  -0.1356
  C  C332  1  0.090300  0.251400  0.021900  1.0  -0.0645
  C  C333  1  0.872300  0.228500  0.884400  1.0  -0.1413
  C  C334  1  0.679700  0.896500  0.227900  1.0  -0.0532
  C  C335  1  0.783400  0.361900  0.537300  1.0  -0.1894
  C  C336  1  0.615200  0.195500  0.778000  1.0  -0.19
  C  C337  1  0.961700  0.690100  0.210700  1.0  -0.2105
  C  C338  1  0.726000  0.303000  0.418400  1.0  0.0162
  C  C339  1  0.952300  0.216500  0.200800  1.0  0.0327
  C  C340  1  0.316500  0.313300  0.051100  1.0  -0.2233
  C  C341  1  0.540500  0.352700  0.210400  1.0  -0.1945
  C  C342  1  0.391400  0.673000  0.795300  1.0  -0.0332
  C  C343  1  0.874100  0.730600  0.321100  1.0  -0.1801
  C  C344  1  0.140200  0.258500  0.967600  1.0  -0.0482
  C  C345  1  0.658800  0.560500  0.675300  1.0  -0.1774
  C  C346  1  0.804200  0.629800  0.936600  1.0  -0.2007
  C  C347  1  0.184500  0.746300  0.000200  1.0  0.0497
  C  C348  1  0.750300  0.325300  0.886300  1.0  0.0434
  C  C349  1  0.013200  0.171500  0.620500  1.0  0.0464
  C  C350  1  0.198000  0.619500  0.427200  1.0  0.0018
  C  C351  1  0.553100  0.383500  0.307500  1.0  0.0019
  C  C352  1  0.961400  0.867800  0.914000  1.0  -0.1476
  C  C353  1  0.096000  0.727300  0.517500  1.0  -0.1756
  C  C354  1  0.484300  0.410400  0.313900  1.0  -0.1584
  C  C355  1  0.831800  0.204500  0.382000  1.0  -0.0091
  C  C356  1  0.613800  0.125000  0.242900  1.0  -0.1575
  C  C357  1  0.929100  0.968600  0.303200  1.0  0.0359
  C  C358  1  0.251700  0.514500  0.120600  1.0  -0.0051
  C  C359  1  0.943000  0.883300  0.367300  1.0  -0.2082
  C  C360  1  0.737300  0.045100  0.170800  1.0  -0.1916
  C  C361  1  0.320300  0.103500  0.772100  1.0  -0.0532
  C  C362  1  0.142200  0.807600  0.992500  1.0  -0.1616
  C  C363  1  0.189200  0.934400  0.664100  1.0  0.011
  C  C364  1  0.058800  0.487700  0.412100  1.0  -0.1507
  C  C365  1  0.704000  0.413200  0.294100  1.0  0.032
  C  C366  1  0.243300  0.908500  0.836300  1.0  -0.0159
  C  C367  1  0.833800  0.307400  0.489400  1.0  0.0958
  C  C368  1  0.594500  0.170500  0.458100  1.0  -0.1579
  C  C369  1  0.787600  0.295800  0.101400  1.0  -0.0125
  C  C370  1  0.986800  0.828500  0.379500  1.0  0.0495
  C  C371  1  0.127400  0.759000  0.172200  1.0  -0.0065
  C  C372  1  0.422800  0.979000  0.758400  1.0  -0.1389
  C  C373  1  0.756700  0.091500  0.163700  1.0  -0.0171
  C  C374  1  0.166200  0.692600  0.510600  1.0  0.0937
  C  C375  1  0.498500  0.042100  0.881300  1.0  -0.0221
  C  C376  1  0.379100  0.821400  0.604600  1.0  0.029
  C  C377  1  0.262700  0.954900  0.829200  1.0  -0.1924
  C  C378  1  0.057000  0.116700  0.632700  1.0  -0.2078
  C  C379  1  0.903600  0.027100  0.227400  1.0  -0.028
  C  C380  1  0.453300  0.720000  0.509800  1.0  -0.1719
  C  C381  1  0.248300  0.369800  0.075200  1.0  0.0706
  C  C382  1  0.296000  0.586800  0.705900  1.0  0.0345
  C  C383  1  0.522400  0.605100  0.734800  1.0  0.0384
  C  C384  1  0.668200  0.737400  0.985800  1.0  0.0379
  C  C385  1  0.188000  0.736100  0.058000  1.0  0.0604
  C  C386  1  0.249700  0.404500  0.886200  1.0  0.0108
  C  C387  1  0.657300  0.374100  0.788700  1.0  -0.0103
  C  C388  1  0.751700  0.630200  0.924800  1.0  0.0686
  C  C389  1  0.342700  0.625900  0.211300  1.0  -0.0111
  C  C390  1  0.168200  0.795500  0.618000  1.0  -0.0057
  C  C391  1  0.697500  0.945900  0.220400  1.0  -0.1574
  C  C392  1  0.735100  0.472600  0.212400  1.0  0.0424
  C  C393  1  0.595300  0.572900  0.731300  1.0  0.0796
  C  C394  1  0.440000  0.027200  0.750300  1.0  0.0316
  C  C395  1  0.384800  0.804500  0.222000  1.0  -0.1913
  C  C396  1  0.747200  0.326100  0.451500  1.0  -0.2028
  C  C397  1  0.589200  0.256500  0.804200  1.0  0.0488
  C  C398  1  0.446900  0.616500  0.692500  1.0  0.0033
  C  C399  1  0.812000  0.263900  0.942000  1.0  0.0588
  C  C400  1  0.556700  0.158200  0.592100  1.0  -0.2233
  C  C401  1  0.407100  0.051000  0.004900  1.0  -0.1887
  C  C402  1  0.750700  0.312800  0.942300  1.0  -0.1612
  C  C403  1  0.603000  0.553500  0.782200  1.0  -0.1516
  C  C404  1  0.534800  0.731900  0.377900  1.0  -0.1659
  C  C405  1  0.772700  0.569300  0.888000  1.0  0.0505
  C  C406  1  0.192100  0.327000  0.818800  1.0  0.004
  C  C407  1  0.448400  0.777000  0.492500  1.0  0.0365
  C  C408  1  0.410800  0.743500  0.195800  1.0  0.0486
  C  C409  1  0.471200  0.839900  0.343900  1.0  0.0727
  C  C410  1  0.642400  0.580600  0.211100  1.0  -0.1298
  C  C411  1  0.249700  0.674700  0.113700  1.0  0.0423
  C  C412  1  0.164100  0.290900  0.751100  1.0  0.017
  C  C413  1  0.856200  0.017000  0.350800  1.0  -0.1474
  C  C414  1  0.479600  0.260100  0.881700  1.0  0.0053
  C  C415  1  0.472900  0.986300  0.082800  1.0  -0.1326
  C  C416  1  0.666000  0.522200  0.778600  1.0  0.0807
  C  C417  1  0.895800  0.807100  0.963900  1.0  0.0415
  C  C418  1  0.080000  0.704000  0.480100  1.0  0.008
  C  C419  1  0.814600  0.284700  0.451800  1.0  0.0267
  C  C420  1  0.664600  0.061700  0.213900  1.0  0.072
  C  C421  1  0.050300  0.023400  0.757200  1.0  -0.1644
  C  C422  1  0.038600  0.132200  0.086000  1.0  -0.1479
  C  C423  1  0.096400  0.972900  0.772600  1.0  -0.03
  C  C424  1  0.949700  0.976600  0.242800  1.0  -0.1658
  C  C425  1  0.748300  0.485500  0.879400  1.0  -0.008
  C  C426  1  0.477600  0.394900  0.265200  1.0  0.0376
  C  C427  1  0.216600  0.638100  0.462700  1.0  -0.1889
  C  C428  1  0.144100  0.775700  0.585100  1.0  -0.1649
  C  C429  1  0.577200  0.021000  0.241600  1.0  -0.1391
  C  C430  1  0.920000  0.296000  0.519900  1.0  0.0089
  C  C431  1  0.238800  0.250600  0.709500  1.0  -0.2341
  C  C432  1  0.047700  0.783500  0.799200  1.0  0.0357
  C  C433  1  0.459500  0.647300  0.789600  1.0  -0.1951
  C  C434  1  0.127700  0.771500  0.115600  1.0  -0.1432
  C  C435  1  0.816300  0.357600  0.200400  1.0  0.035
  C  C436  1  0.334000  0.477800  0.221400  1.0  0.0819
  C  C437  1  0.109100  0.291300  0.738700  1.0  0.0542
  C  C438  1  0.570800  0.169600  0.800400  1.0  0.0348
  C  C439  1  0.872000  0.415600  0.972500  1.0  0.4601
  C  C440  1  0.128000  0.584400  0.027500  1.0  0.4611
  S  S441  1  0.943400  0.371300  0.993300  1.0  1.2365
  S  S442  1  0.056600  0.628700  0.006700  1.0  1.2368
  N  N443  1  0.387000  0.088100  0.759700  1.0  0.2318
  N  N444  1  0.735000  0.715400  0.220400  1.0  0.2161
  N  N445  1  0.390900  0.762800  0.615500  1.0  0.2785
  N  N446  1  0.813400  0.452300  0.830200  1.0  0.2967
  N  N447  1  0.716400  0.349100  0.730400  1.0  0.2773
  N  N448  1  0.706300  0.151800  0.197300  1.0  0.29
  N  N449  1  0.939100  0.170200  0.193300  1.0  0.2763
  N  N450  1  0.766900  0.243200  0.386000  1.0  0.2913
  N  N451  1  0.613000  0.911900  0.240300  1.0  0.2307
  N  N452  1  0.320900  0.357600  0.863300  1.0  0.2233
  N  N453  1  0.679100  0.642400  0.136700  1.0  0.2235
  N  N454  1  0.715300  0.736300  0.000300  1.0  0.1646
  N  N455  1  0.502500  0.201400  0.851200  1.0  0.2006
  N  N456  1  0.171900  0.763300  0.893700  1.0  0.2928
  N  N457  1  0.284700  0.263700  0.999700  1.0  0.1624
  N  N458  1  0.233100  0.756800  0.614000  1.0  0.2909
  N  N459  1  0.765400  0.358700  0.258000  1.0  0.2738
  N  N460  1  0.576600  0.925100  0.093700  1.0  0.2145
  N  N461  1  0.165300  0.927500  0.725600  1.0  0.2808
  N  N462  1  0.870300  0.347700  0.563100  1.0  0.2232
  N  N463  1  0.993700  0.716700  0.278400  1.0  0.1697
  N  N464  1  0.810800  0.289200  0.829900  1.0  0.2494
  N  N465  1  0.792800  0.795700  0.071300  1.0  0.216
  N  N466  1  0.963800  0.417700  0.623000  1.0  0.2799
  N  N467  1  0.834700  0.072500  0.274400  1.0  0.2808
  N  N468  1  0.189200  0.710800  0.170100  1.0  0.2489
  N  N469  1  0.006300  0.283300  0.721600  1.0  0.1694
  N  N470  1  0.479500  0.210600  0.699900  1.0  0.2297
  N  N471  1  0.520500  0.789400  0.300100  1.0  0.2276
  N  N472  1  0.129700  0.652300  0.436900  1.0  0.2222
  N  N473  1  0.283600  0.650900  0.269600  1.0  0.2759
  N  N474  1  0.384700  0.655800  0.748400  1.0  0.2638
  N  N475  1  0.828100  0.236700  0.106300  1.0  0.2911
  N  N476  1  0.609100  0.237200  0.384500  1.0  0.2756
  N  N477  1  0.730800  0.505200  0.723200  1.0  0.2405
  N  N478  1  0.942100  0.198500  0.651800  1.0  0.2398
  N  N479  1  0.423400  0.074900  0.906300  1.0  0.2156
  N  N480  1  0.207200  0.204300  0.928700  1.0  0.222
  N  N481  1  0.265000  0.284600  0.779600  1.0  0.2168
  N  N482  1  0.269200  0.494800  0.276800  1.0  0.2397
  N  N483  1  0.615300  0.344200  0.251600  1.0  0.2632
  N  N484  1  0.234600  0.641300  0.742000  1.0  0.2712
  N  N485  1  0.057900  0.801500  0.348200  1.0  0.2412
  N  N486  1  0.060900  0.829800  0.806700  1.0  0.2799
  N  N487  1  0.036200  0.582300  0.377000  1.0  0.2767
  N  N488  1  0.497500  0.798600  0.148800  1.0  0.2026
  N  N489  1  0.186600  0.547700  0.169800  1.0  0.2964
  N  N490  1  0.293700  0.848200  0.802700  1.0  0.2901
  O  O491  1  0.100700  0.742500  0.356000  1.0  -0.6348
  O  O492  1  0.167800  0.605400  0.195900  1.0  -0.6172
  O  O493  1  0.788200  0.118000  0.260400  1.0  -0.6588
  O  O494  1  0.458000  0.177600  0.871700  1.0  -0.6514
  O  O495  1  0.537800  0.790100  0.239600  1.0  -0.6197
  O  O496  1  0.050300  0.615300  0.331500  1.0  -0.6203
  O  O497  1  0.247900  0.618800  0.292200  1.0  -0.6241
  O  O498  1  0.189100  0.698900  0.222600  1.0  -0.6349
  O  O499  1  0.743700  0.222100  0.358000  1.0  -0.6452
  O  O500  1  0.949700  0.384700  0.668500  1.0  -0.6212
  O  O501  1  0.312500  0.280700  0.795500  1.0  -0.6234
  O  O502  1  0.163900  0.769600  0.843900  1.0  -0.6438
  O  O503  1  0.882900  0.166800  0.240500  1.0  -0.6381
  O  O504  1  0.795700  0.469500  0.719600  1.0  -0.632
  O  O505  1  0.397200  0.101200  0.867500  1.0  -0.6379
  O  O506  1  0.211800  0.882000  0.739600  1.0  -0.6586
  O  O507  1  0.960900  0.275300  0.711600  1.0  -0.6361
  O  O508  1  0.357600  0.758000  0.677400  1.0  -0.6174
  O  O509  1  0.219400  0.694600  0.721600  1.0  -0.6312
  O  O510  1  0.752100  0.381200  0.707800  1.0  -0.6248
  O  O511  1  0.745600  0.788100  0.124400  1.0  -0.6288
  O  O512  1  0.698100  0.783000  0.039500  1.0  -0.6651
  O  O513  1  0.832200  0.394600  0.804100  1.0  -0.6173
  O  O514  1  0.272500  0.804100  0.809700  1.0  -0.6217
  O  O515  1  0.337300  0.305000  0.889100  1.0  -0.6361
  O  O516  1  0.662700  0.695000  0.110900  1.0  -0.6358
  O  O517  1  0.680700  0.323500  0.244300  1.0  -0.6428
  O  O518  1  0.114400  0.630300  0.399500  1.0  -0.6256
  O  O519  1  0.039100  0.724700  0.288400  1.0  -0.6363
  O  O520  1  0.836100  0.230400  0.156100  1.0  -0.6419
  O  O521  1  0.899300  0.257500  0.644000  1.0  -0.633
  O  O522  1  0.687500  0.719300  0.204500  1.0  -0.6228
  O  O523  1  0.204300  0.530500  0.280400  1.0  -0.6322
  O  O524  1  0.256300  0.777900  0.642000  1.0  -0.6447
  O  O525  1  0.780600  0.305400  0.278400  1.0  -0.6306
  O  O526  1  0.885600  0.369700  0.600500  1.0  -0.6237
  O  O527  1  0.301900  0.217000  0.960500  1.0  -0.6659
  O  O528  1  0.542000  0.822400  0.128300  1.0  -0.6515
  O  O529  1  0.601300  0.862700  0.241700  1.0  -0.626
  O  O530  1  0.602800  0.898800  0.132500  1.0  -0.6401
  O  O531  1  0.642400  0.242000  0.322600  1.0  -0.6177
  O  O532  1  0.810900  0.301100  0.777400  1.0  -0.6376
  O  O533  1  0.398700  0.137300  0.758300  1.0  -0.6262
  O  O534  1  0.254400  0.211900  0.875600  1.0  -0.6305
  O  O535  1  0.462200  0.209900  0.760400  1.0  -0.6196
  O  O536  1  0.727500  0.195900  0.190300  1.0  -0.622
  O  O537  1  0.319300  0.676500  0.755700  1.0  -0.6419
  O  O538  1  0.117100  0.833200  0.759500  1.0  -0.6388
  O  O539  1  0.008400  0.345100  0.934000  1.0  -0.5888
  O  O540  1  0.921600  0.327900  0.029200  1.0  -0.6617
  O  O541  1  0.932500  0.419300  0.033800  1.0  -0.5842
  O  O542  1  0.078400  0.672100  0.970800  1.0  -0.6622
  O  O543  1  0.067500  0.580700  0.966200  1.0  -0.5844
  O  O544  1  0.991600  0.654900  0.066000  1.0  -0.5885
  F  F545  1  0.886100  0.448300  0.935500  1.0  -0.2604
  F  F546  1  0.875900  0.374400  0.935500  1.0  -0.2843
  F  F547  1  0.806300  0.441100  0.021300  1.0  -0.2146
  F  F548  1  0.113900  0.551700  0.064500  1.0  -0.2589
  F  F549  1  0.124100  0.625600  0.064500  1.0  -0.2842
  F  F550  1  0.193700  0.558900  0.978700  1.0  -0.2146
