# generated using pymatgen
data_TbH32C40(NO)8
_symmetry_space_group_name_H-M   'P 1'
_cell_length_a   24.09210000
_cell_length_b   24.19140000
_cell_length_c   24.39920000
_cell_angle_alpha   85.80700000
_cell_angle_beta   61.40400000
_cell_angle_gamma   61.02900000
_symmetry_Int_Tables_number   1
_chemical_formula_structural   TbH32C40(NO)8
_chemical_formula_sum   'Tb6 H192 C240 N48 O48'
_cell_volume   10687.60818776
_cell_formula_units_Z   6
loop_
 _symmetry_equiv_pos_site_id
 _symmetry_equiv_pos_as_xyz
  1  'x, y, z'
loop_
 _atom_site_type_symbol
 _atom_site_label
 _atom_site_symmetry_multiplicity
 _atom_site_fract_x
 _atom_site_fract_y
 _atom_site_fract_z
 _atom_site_occupancy
 _atom_site_charge
  Tb  Tb1  1  0.364670  0.844850  0.197400  1.0  2.198
  Tb  Tb2  1  0.852680  0.713940  0.354270  1.0  2.1899
  Tb  Tb3  1  0.743070  0.281410  0.241740  1.0  2.1861
  Tb  Tb4  1  0.635330  0.155150  0.802600  1.0  2.1986
  Tb  Tb5  1  0.147320  0.286050  0.645730  1.0  2.189
  Tb  Tb6  1  0.256930  0.718590  0.758260  1.0  2.1871
  H  H7  1  0.277200  0.772400  0.149300  1.0  0.0995
  H  H8  1  0.143300  0.908400  0.308400  1.0  0.0977
  H  H9  1  0.274200  0.008200  0.134000  1.0  0.1041
  H  H10  1  0.172100  0.001600  0.317100  1.0  0.0919
  H  H11  1  0.262100  0.916600  0.104700  1.0  0.0939
  H  H12  1  0.472000  0.773800  0.003000  1.0  0.1093
  H  H13  1  0.391200  0.994100  0.177700  1.0  0.0967
  H  H14  1  0.545800  0.832400  0.046000  1.0  0.1039
  H  H15  1  0.367500  0.677400  0.198800  1.0  0.1114
  H  H16  1  0.542200  0.685300  0.067100  1.0  0.0957
  H  H17  1  0.207300  0.723200  0.191300  1.0  0.1072
  H  H18  1  0.071700  0.861200  0.353400  1.0  0.1324
  H  H19  1  0.162300  0.067300  0.136700  1.0  0.1046
  H  H20  1  0.057200  0.065600  0.324900  1.0  0.1031
  H  H21  1  0.232300  0.882700  0.041500  1.0  0.1286
  H  H22  1  0.443300  0.738100  0.939700  1.0  0.0959
  H  H23  1  0.411800  0.056700  0.100600  1.0  0.1127
  H  H24  1  0.569300  0.892000  0.966900  1.0  0.0951
  H  H25  1  0.443000  0.582000  0.216400  1.0  0.0961
  H  H26  1  0.621800  0.587400  0.079600  1.0  0.1081
  H  H27  1  0.152600  0.672600  0.240900  1.0  0.1033
  H  H28  1  0.001200  0.830500  0.381800  1.0  0.1067
  H  H29  1  0.059000  0.059400  0.147300  1.0  0.1021
  H  H30  1  0.966600  0.163600  0.321000  1.0  0.1006
  H  H31  1  0.213300  0.862800  0.977700  1.0  0.1101
  H  H32  1  0.405600  0.692000  0.904300  1.0  0.1053
  H  H33  1  0.675600  0.474500  0.082200  1.0  0.1014
  H  H34  1  0.517800  0.550400  0.267000  1.0  0.0901
  H  H35  1  0.073300  0.632700  0.283100  1.0  0.1066
  H  H36  1  0.923700  0.789800  0.424800  1.0  0.0952
  H  H37  1  0.943600  0.105700  0.159800  1.0  0.0971
  H  H38  1  0.850600  0.208400  0.331200  1.0  0.0935
  H  H39  1  0.175200  0.824000  0.925600  1.0  0.1036
  H  H40  1  0.364300  0.654600  0.854400  1.0  0.1072
  H  H41  1  0.753300  0.396300  0.113800  1.0  0.0986
  H  H42  1  0.596300  0.470700  0.296000  1.0  0.106
  H  H43  1  0.017500  0.536700  0.337100  1.0  0.1087
  H  H44  1  0.822200  0.622100  0.497100  1.0  0.1068
  H  H45  1  0.858300  0.739100  0.509500  1.0  0.1075
  H  H46  1  0.660500  0.837600  0.524100  1.0  0.1027
  H  H47  1  0.656300  0.850800  0.367500  1.0  0.1044
  H  H48  1  0.830100  0.735500  0.199600  1.0  0.11
  H  H49  1  0.914000  0.843000  0.306400  1.0  0.0954
  H  H50  1  0.700500  0.909100  0.422300  1.0  0.0938
  H  H51  1  0.625800  0.792100  0.468300  1.0  0.103
  H  H52  1  0.770800  0.601400  0.410000  1.0  0.0983
  H  H53  1  0.892200  0.810000  0.220800  1.0  0.0927
  H  H54  1  0.045700  0.622900  0.175900  1.0  0.1097
  H  H55  1  0.635100  0.189900  0.325600  1.0  0.0994
  H  H56  1  0.828000  0.093400  0.163900  1.0  0.1076
  H  H57  1  0.899900  0.293300  0.244700  1.0  0.1066
  H  H58  1  0.689500  0.428700  0.360400  1.0  0.106
  H  H59  1  0.740100  0.172700  0.367900  1.0  0.1011
  H  H60  1  0.616800  0.362600  0.432500  1.0  0.0969
  H  H61  1  0.573700  0.276200  0.255600  1.0  0.1041
  H  H62  1  0.528800  0.418400  0.372000  1.0  0.1004
  H  H63  1  0.132200  0.642900  0.865300  1.0  0.1006
  H  H64  1  0.070200  0.824300  0.919800  1.0  0.1013
  H  H65  1  0.074300  0.480500  0.392800  1.0  0.1031
  H  H66  1  0.879200  0.570000  0.556000  1.0  0.0992
  H  H67  1  0.831500  0.829100  0.568800  1.0  0.1046
  H  H68  1  0.631300  0.926800  0.585500  1.0  0.0979
  H  H69  1  0.577300  0.847900  0.340800  1.0  0.108
  H  H70  1  0.752300  0.732000  0.170800  1.0  0.1016
  H  H71  1  0.889100  0.933400  0.262700  1.0  0.0971
  H  H72  1  0.670700  0.003100  0.382700  1.0  0.1044
  H  H73  1  0.544800  0.775500  0.560100  1.0  0.0999
  H  H74  1  0.688000  0.581400  0.496400  1.0  0.0987
  H  H75  1  0.930900  0.811800  0.113200  1.0  0.1076
  H  H76  1  0.087200  0.623500  0.068600  1.0  0.0924
  H  H77  1  0.658700  0.096000  0.365300  1.0  0.1038
  H  H78  1  0.853600  0.998100  0.202300  1.0  0.1005
  H  H79  1  0.934700  0.370900  0.229900  1.0  0.1042
  H  H80  1  0.721700  0.507100  0.346800  1.0  0.0991
  H  H81  1  0.750800  0.157200  0.458900  1.0  0.1096
  H  H82  1  0.623300  0.351100  0.526000  1.0  0.1105
  H  H83  1  0.481300  0.262500  0.340200  1.0  0.1044
  H  H84  1  0.433400  0.409100  0.456300  1.0  0.1092
  H  H85  1  0.080500  0.632200  0.971300  1.0  0.1067
  H  H86  1  0.018800  0.815900  0.026300  1.0  0.1024
  H  H87  1  0.606900  0.974000  0.685800  1.0  0.1068
  H  H88  1  0.810100  0.941100  0.560200  1.0  0.1048
  H  H89  1  0.672600  0.752600  0.141400  1.0  0.1066
  H  H90  1  0.522800  0.810000  0.330600  1.0  0.1341
  H  H91  1  0.955700  0.445300  0.258200  1.0  0.1036
  H  H92  1  0.752500  0.569400  0.285700  1.0  0.1086
  H  H93  1  0.589400  0.321500  0.619900  1.0  0.1089
  H  H94  1  0.791900  0.161200  0.524300  1.0  0.1059
  H  H95  1  0.577300  0.072000  0.734600  1.0  0.0952
  H  H96  1  0.778100  0.039200  0.609800  1.0  0.097
  H  H97  1  0.589700  0.744400  0.123600  1.0  0.0939
  H  H98  1  0.444800  0.792400  0.310700  1.0  0.0962
  H  H99  1  0.977400  0.530300  0.250100  1.0  0.1082
  H  H100  1  0.776600  0.652900  0.277000  1.0  0.0932
  H  H101  1  0.589600  0.300100  0.715000  1.0  0.0902
  H  H102  1  0.790000  0.144500  0.619500  1.0  0.1046
  H  H103  1  0.722800  0.227600  0.850700  1.0  0.0996
  H  H104  1  0.856700  0.091600  0.691600  1.0  0.0976
  H  H105  1  0.725800  0.991800  0.866000  1.0  0.1051
  H  H106  1  0.827900  0.998400  0.682900  1.0  0.093
  H  H107  1  0.737900  0.083400  0.895300  1.0  0.0927
  H  H108  1  0.528000  0.226200  0.997000  1.0  0.1092
  H  H109  1  0.608800  0.005900  0.822300  1.0  0.0962
  H  H110  1  0.454200  0.167600  0.954000  1.0  0.1038
  H  H111  1  0.632500  0.322600  0.801200  1.0  0.1119
  H  H112  1  0.457800  0.314700  0.932900  1.0  0.0951
  H  H113  1  0.792700  0.276800  0.808700  1.0  0.1075
  H  H114  1  0.928300  0.138800  0.646600  1.0  0.1331
  H  H115  1  0.837700  0.932700  0.863300  1.0  0.1043
  H  H116  1  0.942800  0.934400  0.675100  1.0  0.1028
  H  H117  1  0.767700  0.117300  0.958500  1.0  0.1285
  H  H118  1  0.556700  0.261900  0.060300  1.0  0.096
  H  H119  1  0.588200  0.943300  0.899400  1.0  0.1133
  H  H120  1  0.430700  0.108000  0.033100  1.0  0.0952
  H  H121  1  0.557000  0.418000  0.783600  1.0  0.0943
  H  H122  1  0.378200  0.412600  0.920400  1.0  0.1069
  H  H123  1  0.847400  0.327400  0.759100  1.0  0.1029
  H  H124  1  0.998800  0.169500  0.618200  1.0  0.1052
  H  H125  1  0.941000  0.940600  0.852700  1.0  0.1025
  H  H126  1  0.033400  0.836400  0.679000  1.0  0.1
  H  H127  1  0.786700  0.137200  0.022300  1.0  0.1106
  H  H128  1  0.594400  0.308000  0.095700  1.0  0.1055
  H  H129  1  0.324400  0.525500  0.917800  1.0  0.1015
  H  H130  1  0.482200  0.449600  0.733000  1.0  0.0902
  H  H131  1  0.926700  0.367300  0.716900  1.0  0.1067
  H  H132  1  0.076300  0.210200  0.575200  1.0  0.0952
  H  H133  1  0.056400  0.894300  0.840200  1.0  0.0976
  H  H134  1  0.149400  0.791600  0.668800  1.0  0.0937
  H  H135  1  0.824800  0.176000  0.074400  1.0  0.1022
  H  H136  1  0.635700  0.345400  0.145600  1.0  0.108
  H  H137  1  0.246700  0.603700  0.886200  1.0  0.0981
  H  H138  1  0.403700  0.529300  0.704000  1.0  0.1063
  H  H139  1  0.982500  0.463300  0.662900  1.0  0.1086
  H  H140  1  0.177800  0.377900  0.502900  1.0  0.1071
  H  H141  1  0.141700  0.260900  0.490500  1.0  0.1085
  H  H142  1  0.339500  0.162400  0.475900  1.0  0.1038
  H  H143  1  0.343700  0.149200  0.632500  1.0  0.1041
  H  H144  1  0.169900  0.264500  0.800400  1.0  0.1097
  H  H145  1  0.086000  0.157000  0.693600  1.0  0.095
  H  H146  1  0.299500  0.090900  0.577700  1.0  0.0964
  H  H147  1  0.374200  0.207900  0.531700  1.0  0.1032
  H  H148  1  0.229200  0.398600  0.590000  1.0  0.0988
  H  H149  1  0.107800  0.190000  0.779200  1.0  0.0932
  H  H150  1  0.954300  0.377100  0.824100  1.0  0.1106
  H  H151  1  0.364900  0.810100  0.674400  1.0  0.0998
  H  H152  1  0.172000  0.906600  0.836100  1.0  0.1072
  H  H153  1  0.100100  0.706700  0.755300  1.0  0.1082
  H  H154  1  0.310500  0.571300  0.639600  1.0  0.1056
  H  H155  1  0.259900  0.827300  0.632100  1.0  0.1009
  H  H156  1  0.383200  0.637400  0.567500  1.0  0.0964
  H  H157  1  0.426300  0.723800  0.744400  1.0  0.1041
  H  H158  1  0.471200  0.581600  0.628000  1.0  0.1009
  H  H159  1  0.867800  0.357100  0.134700  1.0  0.1007
  H  H160  1  0.929800  0.175700  0.080200  1.0  0.0984
  H  H161  1  0.925700  0.519500  0.607200  1.0  0.1031
  H  H162  1  0.120800  0.430000  0.444000  1.0  0.0998
  H  H163  1  0.168500  0.170900  0.431200  1.0  0.103
  H  H164  1  0.368700  0.073200  0.414500  1.0  0.0977
  H  H165  1  0.422700  0.152100  0.659200  1.0  0.1072
  H  H166  1  0.247700  0.268000  0.829200  1.0  0.1019
  H  H167  1  0.110900  0.066600  0.737300  1.0  0.0971
  H  H168  1  0.329300  0.996900  0.617300  1.0  0.104
  H  H169  1  0.455200  0.224500  0.439900  1.0  0.0999
  H  H170  1  0.312000  0.418600  0.503600  1.0  0.0989
  H  H171  1  0.069100  0.188200  0.886800  1.0  0.108
  H  H172  1  0.912800  0.376500  0.931400  1.0  0.0926
  H  H173  1  0.341300  0.904000  0.634700  1.0  0.1037
  H  H174  1  0.146400  0.001900  0.797700  1.0  0.1013
  H  H175  1  0.065300  0.629100  0.770100  1.0  0.1041
  H  H176  1  0.278300  0.492900  0.653200  1.0  0.0983
  H  H177  1  0.249200  0.842800  0.541100  1.0  0.1093
  H  H178  1  0.376700  0.648900  0.474000  1.0  0.11
  H  H179  1  0.518700  0.737500  0.659800  1.0  0.106
  H  H180  1  0.566600  0.590900  0.543700  1.0  0.1086
  H  H181  1  0.919500  0.367800  0.028700  1.0  0.1068
  H  H182  1  0.981200  0.184100  0.973700  1.0  0.1023
  H  H183  1  0.393100  0.026000  0.314200  1.0  0.1071
  H  H184  1  0.189900  0.058900  0.439800  1.0  0.1049
  H  H185  1  0.327400  0.247400  0.858600  1.0  0.1065
  H  H186  1  0.477200  0.190000  0.669400  1.0  0.1349
  H  H187  1  0.044300  0.554700  0.741800  1.0  0.1038
  H  H188  1  0.247500  0.430600  0.714300  1.0  0.1076
  H  H189  1  0.410600  0.678500  0.380100  1.0  0.1088
  H  H190  1  0.208100  0.838800  0.475700  1.0  0.1058
  H  H191  1  0.422700  0.928000  0.265400  1.0  0.096
  H  H192  1  0.221900  0.960800  0.390200  1.0  0.0955
  H  H193  1  0.410300  0.255600  0.876400  1.0  0.0941
  H  H194  1  0.555200  0.207600  0.689300  1.0  0.0973
  H  H195  1  0.022600  0.469700  0.749900  1.0  0.1081
  H  H196  1  0.223400  0.347100  0.723000  1.0  0.0937
  H  H197  1  0.410400  0.699900  0.285000  1.0  0.0908
  H  H198  1  0.210000  0.855500  0.380500  1.0  0.1052
  C  C199  1  0.234900  0.790400  0.190900  1.0  -0.014
  C  C200  1  0.155900  0.870500  0.284800  1.0  -0.005
  C  C201  1  0.229700  0.018600  0.172300  1.0  -0.0135
  C  C202  1  0.169300  0.015400  0.280500  1.0  0.0037
  C  C203  1  0.299000  0.880100  0.070600  1.0  -0.0697
  C  C204  1  0.423000  0.795900  0.011000  1.0  -0.0159
  C  C205  1  0.427500  0.973600  0.134300  1.0  -0.0331
  C  C206  1  0.518500  0.878200  0.056900  1.0  -0.0047
  C  C207  1  0.419200  0.659900  0.176400  1.0  0.0188
  C  C208  1  0.522600  0.664100  0.098400  1.0  -0.0082
  C  C209  1  0.193500  0.761000  0.216000  1.0  -0.16
  C  C210  1  0.113400  0.842500  0.311600  1.0  -0.1557
  C  C211  1  0.163200  0.054100  0.174000  1.0  -0.1704
  C  C212  1  0.101100  0.052500  0.284900  1.0  -0.1817
  C  C213  1  0.281200  0.859300  0.033700  1.0  -0.1527
  C  C214  1  0.405300  0.774400  0.973800  1.0  -0.1629
  C  C215  1  0.439600  0.011000  0.088400  1.0  -0.1567
  C  C216  1  0.532200  0.913900  0.009800  1.0  -0.154
  C  C217  1  0.464200  0.603300  0.186400  1.0  -0.1253
  C  C218  1  0.570000  0.606400  0.106100  1.0  -0.221
  C  C219  1  0.131400  0.786400  0.277400  1.0  0.0371
  C  C220  1  0.097400  0.070500  0.230500  1.0  0.0548
  C  C221  1  0.334500  0.804100  0.984800  1.0  0.0087
  C  C222  1  0.492500  0.981000  0.024700  1.0  0.0507
  C  C223  1  0.540500  0.576100  0.153500  1.0  0.0712
  C  C224  1  0.084200  0.757400  0.305900  1.0  -0.015
  C  C225  1  0.026100  0.104300  0.233200  1.0  0.0721
  C  C226  1  0.312800  0.780500  0.948700  1.0  0.0241
  C  C227  1  0.587900  0.521500  0.171000  1.0  0.0668
  C  C228  1  0.105400  0.697400  0.277900  1.0  -0.174
  C  C229  1  0.016300  0.790000  0.361000  1.0  -0.113
  C  C230  1  0.017100  0.089100  0.185600  1.0  -0.1847
  C  C231  1  0.962400  0.150600  0.288100  1.0  -0.1749
  C  C232  1  0.244500  0.819900  0.953200  1.0  -0.1811
  C  C233  1  0.357800  0.719100  0.910100  1.0  -0.1545
  C  C234  1  0.658500  0.474800  0.126300  1.0  -0.1969
  C  C235  1  0.566000  0.519000  0.234800  1.0  -0.1713
  C  C236  1  0.058600  0.673400  0.303200  1.0  -0.0165
  C  C237  1  0.970100  0.766200  0.386800  1.0  -0.0498
  C  C238  1  0.948600  0.116400  0.193200  1.0  -0.0263
  C  C239  1  0.893500  0.177200  0.294200  1.0  0.0137
  C  C240  1  0.221800  0.797000  0.922200  1.0  -0.0325
  C  C241  1  0.333600  0.696900  0.879900  1.0  -0.0266
  C  C242  1  0.704800  0.428100  0.145100  1.0  -0.0235
  C  C243  1  0.612700  0.471800  0.252200  1.0  0.0082
  C  C244  1  0.988800  0.542100  0.381900  1.0  -0.0113
  C  C245  1  0.873900  0.593000  0.476000  1.0  0.0078
  C  C246  1  0.812800  0.778500  0.523400  1.0  -0.0005
  C  C247  1  0.695800  0.836400  0.532300  1.0  -0.0232
  C  C248  1  0.675800  0.825700  0.327800  1.0  -0.0128
  C  C249  1  0.778500  0.757600  0.228600  1.0  -0.0141
  C  C250  1  0.864200  0.876000  0.321600  1.0  -0.0115
  C  C251  1  0.738800  0.914900  0.390100  1.0  0.0225
  C  C252  1  0.638200  0.749500  0.475100  1.0  -0.0534
  C  C253  1  0.723800  0.636400  0.439900  1.0  -0.0105
  C  C254  1  0.932900  0.772300  0.189100  1.0  -0.0197
  C  C255  1  0.023900  0.661700  0.162700  1.0  -0.0039
  C  C256  1  0.680200  0.150700  0.300700  1.0  -0.0019
  C  C257  1  0.793700  0.093900  0.205500  1.0  0.0014
  C  C258  1  0.863800  0.337300  0.265200  1.0  -0.0358
  C  C259  1  0.739500  0.417200  0.333500  1.0  -0.0246
  C  C260  1  0.715700  0.208700  0.400800  1.0  -0.0247
  C  C261  1  0.642800  0.320700  0.439000  1.0  -0.0061
  C  C262  1  0.546600  0.301700  0.297200  1.0  0.0055
  C  C263  1  0.519400  0.386100  0.366000  1.0  -0.0124
  C  C264  1  0.108900  0.678100  0.898700  1.0  0.011
  C  C265  1  0.072500  0.785100  0.930700  1.0  -0.0357
  C  C266  1  0.022500  0.509300  0.415100  1.0  -0.1651
  C  C267  1  0.908000  0.561100  0.510700  1.0  -0.1639
  C  C268  1  0.796400  0.831600  0.559500  1.0  -0.1727
  C  C269  1  0.678700  0.889100  0.568900  1.0  -0.1596
  C  C270  1  0.628900  0.823900  0.311700  1.0  -0.1816
  C  C271  1  0.732000  0.755500  0.211600  1.0  -0.1257
  C  C272  1  0.849400  0.929500  0.295400  1.0  -0.1722
  C  C273  1  0.720900  0.970300  0.365900  1.0  -0.1927
  C  C274  1  0.589800  0.739500  0.529100  1.0  -0.1533
  C  C275  1  0.675100  0.624600  0.491900  1.0  -0.1535
  C  C276  1  0.956000  0.773400  0.125300  1.0  -0.2185
  C  C277  1  0.047800  0.662300  0.099400  1.0  -0.1374
  C  C278  1  0.694500  0.094800  0.324200  1.0  -0.1451
  C  C279  1  0.809000  0.037100  0.228500  1.0  -0.1876
  C  C280  1  0.884400  0.383400  0.256300  1.0  -0.1689
  C  C281  1  0.758800  0.463600  0.325200  1.0  -0.1775
  C  C282  1  0.722500  0.199500  0.454600  1.0  -0.1496
  C  C283  1  0.647300  0.314200  0.494400  1.0  -0.2012
  C  C284  1  0.490500  0.294500  0.347400  1.0  -0.1416
  C  C285  1  0.462800  0.380800  0.416000  1.0  -0.133
  C  C286  1  0.078800  0.671600  0.961500  1.0  -0.1692
  C  C287  1  0.042300  0.779800  0.993900  1.0  -0.1885
  C  C288  1  0.982000  0.517300  0.481300  1.0  -0.003
  C  C289  1  0.728800  0.888400  0.582000  1.0  0.0499
  C  C290  1  0.655700  0.787500  0.253600  1.0  0.0517
  C  C291  1  0.777700  0.978200  0.315500  1.0  0.0527
  C  C292  1  0.606300  0.676400  0.538600  1.0  0.0576
  C  C293  1  0.015700  0.718600  0.079000  1.0  0.0778
  C  C294  1  0.760100  0.036600  0.289100  1.0  0.0596
  C  C295  1  0.831400  0.448100  0.285900  1.0  0.0477
  C  C296  1  0.687900  0.252200  0.502300  1.0  0.0278
  C  C297  1  0.449100  0.333000  0.406400  1.0  0.0158
  C  C298  1  0.045600  0.722900  0.010800  1.0  0.067
  C  C299  1  0.710400  0.949000  0.616700  1.0  0.0407
  C  C300  1  0.606700  0.781200  0.238800  1.0  0.0031
  C  C301  1  0.851200  0.498300  0.275100  1.0  0.0385
  C  C302  1  0.690200  0.242300  0.561800  1.0  0.0473
  C  C303  1  0.642200  0.987100  0.669300  1.0  -0.1746
  C  C304  1  0.761900  0.967800  0.595300  1.0  -0.1766
  C  C305  1  0.626100  0.761900  0.176300  1.0  -0.1981
  C  C306  1  0.538100  0.794600  0.288200  1.0  -0.1408
  C  C307  1  0.918200  0.487700  0.262900  1.0  -0.1591
  C  C308  1  0.798400  0.560900  0.279100  1.0  -0.1827
  C  C309  1  0.630300  0.284500  0.619200  1.0  -0.1851
  C  C310  1  0.749900  0.190100  0.563100  1.0  -0.1688
  C  C311  1  0.624700  0.045300  0.698600  1.0  -0.0028
  C  C312  1  0.743000  0.025900  0.625100  1.0  -0.0221
  C  C313  1  0.576900  0.756300  0.166000  1.0  0.0042
  C  C314  1  0.490500  0.785800  0.276500  1.0  -0.0208
  C  C315  1  0.931500  0.538300  0.257600  1.0  -0.016
  C  C316  1  0.813000  0.610300  0.273500  1.0  -0.0473
  C  C317  1  0.630800  0.272000  0.675500  1.0  -0.0324
  C  C318  1  0.748700  0.180100  0.619400  1.0  0.0043
  C  C319  1  0.765100  0.209600  0.809100  1.0  -0.0127
  C  C320  1  0.844100  0.129500  0.715200  1.0  -0.0049
  C  C321  1  0.770300  0.981400  0.827700  1.0  -0.0172
  C  C322  1  0.830700  0.984600  0.719500  1.0  -0.0009
  C  C323  1  0.701000  0.119900  0.929400  1.0  -0.0669
  C  C324  1  0.577000  0.204100  0.989000  1.0  -0.0234
  C  C325  1  0.572500  0.026400  0.865700  1.0  -0.0354
  C  C326  1  0.481500  0.121800  0.943100  1.0  -0.0014
  C  C327  1  0.580800  0.340100  0.823600  1.0  0.0204
  C  C328  1  0.477400  0.335900  0.901600  1.0  -0.0077
  C  C329  1  0.806500  0.239000  0.784000  1.0  -0.1558
  C  C330  1  0.886600  0.157500  0.688400  1.0  -0.1573
  C  C331  1  0.836800  0.945900  0.826000  1.0  -0.1696
  C  C332  1  0.898900  0.947500  0.715100  1.0  -0.1799
  C  C333  1  0.718800  0.140700  0.966300  1.0  -0.1559
  C  C334  1  0.594700  0.225600  0.026200  1.0  -0.1651
  C  C335  1  0.560400  0.989000  0.911600  1.0  -0.1554
  C  C336  1  0.467800  0.086100  0.990200  1.0  -0.1546
  C  C337  1  0.535800  0.396700  0.813600  1.0  -0.1251
  C  C338  1  0.430000  0.393600  0.893900  1.0  -0.2234
  C  C339  1  0.868600  0.213600  0.722600  1.0  0.0386
  C  C340  1  0.902600  0.929500  0.769500  1.0  0.0539
  C  C341  1  0.665500  0.195900  0.015200  1.0  0.0104
  C  C342  1  0.507500  0.019000  0.975300  1.0  0.0504
  C  C343  1  0.459500  0.423900  0.846500  1.0  0.0709
  C  C344  1  0.915800  0.242600  0.694100  1.0  -0.0144
  C  C345  1  0.973900  0.895700  0.766800  1.0  0.0725
  C  C346  1  0.687200  0.219500  0.051300  1.0  0.0239
  C  C347  1  0.412100  0.478500  0.829000  1.0  0.0659
  C  C348  1  0.894600  0.302600  0.722100  1.0  -0.1752
  C  C349  1  0.983700  0.210000  0.639000  1.0  -0.1119
  C  C350  1  0.982900  0.910900  0.814400  1.0  -0.1844
  C  C351  1  0.037600  0.849400  0.711900  1.0  -0.1745
  C  C352  1  0.755500  0.180100  0.046800  1.0  -0.1813
  C  C353  1  0.642200  0.280900  0.089900  1.0  -0.1549
  C  C354  1  0.341500  0.525200  0.873700  1.0  -0.1968
  C  C355  1  0.434000  0.481000  0.765200  1.0  -0.1713
  C  C356  1  0.941400  0.326600  0.696800  1.0  -0.0199
  C  C357  1  0.029900  0.233800  0.613200  1.0  -0.0502
  C  C358  1  0.051400  0.883600  0.806800  1.0  -0.0237
  C  C359  1  0.106500  0.822800  0.705800  1.0  0.0151
  C  C360  1  0.778200  0.203000  0.077800  1.0  -0.035
  C  C361  1  0.666400  0.303100  0.120100  1.0  -0.0256
  C  C362  1  0.295200  0.571900  0.854900  1.0  -0.0239
  C  C363  1  0.387300  0.528200  0.747800  1.0  0.0027
  C  C364  1  0.011200  0.457900  0.618100  1.0  -0.0061
  C  C365  1  0.126100  0.407000  0.524000  1.0  0.0061
  C  C366  1  0.187200  0.221500  0.476600  1.0  -0.001
  C  C367  1  0.304200  0.163600  0.467700  1.0  -0.0181
  C  C368  1  0.324200  0.174300  0.672200  1.0  -0.0079
  C  C369  1  0.221500  0.242400  0.771400  1.0  -0.0177
  C  C370  1  0.135800  0.124000  0.678400  1.0  -0.0119
  C  C371  1  0.261200  0.085100  0.609900  1.0  0.0205
  C  C372  1  0.361800  0.250500  0.524900  1.0  -0.0585
  C  C373  1  0.276200  0.363600  0.560100  1.0  -0.0056
  C  C374  1  0.067100  0.227700  0.810900  1.0  -0.0214
  C  C375  1  0.976100  0.338300  0.837300  1.0  -0.0019
  C  C376  1  0.319800  0.849300  0.699300  1.0  0.0009
  C  C377  1  0.206300  0.906100  0.794500  1.0  0.0019
  C  C378  1  0.136200  0.662700  0.734800  1.0  -0.036
  C  C379  1  0.260500  0.582800  0.666500  1.0  -0.0236
  C  C380  1  0.284300  0.791300  0.599200  1.0  -0.0256
  C  C381  1  0.357200  0.679300  0.561000  1.0  -0.0122
  C  C382  1  0.453400  0.698300  0.702800  1.0  0.004
  C  C383  1  0.480600  0.613900  0.634000  1.0  -0.0159
  C  C384  1  0.891100  0.321900  0.101300  1.0  0.0144
  C  C385  1  0.927500  0.214900  0.069300  1.0  -0.0406
  C  C386  1  0.977500  0.490700  0.584900  1.0  -0.1597
  C  C387  1  0.092000  0.438900  0.489300  1.0  -0.1584
  C  C388  1  0.203600  0.168400  0.440500  1.0  -0.1724
  C  C389  1  0.321300  0.110900  0.431100  1.0  -0.1554
  C  C390  1  0.371100  0.176100  0.688300  1.0  -0.181
  C  C391  1  0.268000  0.244500  0.788400  1.0  -0.1242
  C  C392  1  0.150600  0.070500  0.704600  1.0  -0.1731
  C  C393  1  0.279100  0.029700  0.634100  1.0  -0.1916
  C  C394  1  0.410200  0.260500  0.470900  1.0  -0.153
  C  C395  1  0.324900  0.375400  0.508100  1.0  -0.1573
  C  C396  1  0.044000  0.226600  0.874700  1.0  -0.2202
  C  C397  1  0.952200  0.337700  0.900600  1.0  -0.1366
  C  C398  1  0.305500  0.905200  0.675800  1.0  -0.1433
  C  C399  1  0.191000  0.962900  0.771500  1.0  -0.1884
  C  C400  1  0.115600  0.616600  0.743700  1.0  -0.1708
  C  C401  1  0.241200  0.536400  0.674800  1.0  -0.1769
  C  C402  1  0.277500  0.800500  0.545400  1.0  -0.1504
  C  C403  1  0.352700  0.685800  0.505600  1.0  -0.2006
  C  C404  1  0.509500  0.705500  0.652600  1.0  -0.1404
  C  C405  1  0.537200  0.619200  0.584000  1.0  -0.1317
  C  C406  1  0.921200  0.328400  0.038500  1.0  -0.169
  C  C407  1  0.957700  0.220200  0.006100  1.0  -0.1881
  C  C408  1  0.018000  0.482700  0.518700  1.0  -0.0022
  C  C409  1  0.271200  0.111600  0.418000  1.0  0.0509
  C  C410  1  0.344300  0.212500  0.746400  1.0  0.052
  C  C411  1  0.222300  0.021800  0.684500  1.0  0.0518
  C  C412  1  0.393700  0.323600  0.461400  1.0  0.0577
  C  C413  1  0.984300  0.281400  0.921000  1.0  0.0777
  C  C414  1  0.239900  0.963400  0.710900  1.0  0.0588
  C  C415  1  0.168600  0.551900  0.714100  1.0  0.0473
  C  C416  1  0.312100  0.747800  0.497700  1.0  0.028
  C  C417  1  0.550900  0.667000  0.593600  1.0  0.0141
  C  C418  1  0.954400  0.277100  0.989200  1.0  0.0659
  C  C419  1  0.289600  0.051000  0.383300  1.0  0.0403
  C  C420  1  0.393300  0.218800  0.761200  1.0  0.0027
  C  C421  1  0.148800  0.501700  0.724900  1.0  0.0388
  C  C422  1  0.309800  0.757700  0.438200  1.0  0.0473
  C  C423  1  0.357800  0.012900  0.330700  1.0  -0.1727
  C  C424  1  0.238100  0.032200  0.404700  1.0  -0.1772
  C  C425  1  0.373900  0.238100  0.823700  1.0  -0.2013
  C  C426  1  0.461900  0.205400  0.711800  1.0  -0.142
  C  C427  1  0.081800  0.512300  0.737100  1.0  -0.1608
  C  C428  1  0.201600  0.439100  0.720900  1.0  -0.185
  C  C429  1  0.369700  0.715500  0.380800  1.0  -0.1856
  C  C430  1  0.250100  0.809900  0.436900  1.0  -0.1702
  C  C431  1  0.375300  0.954700  0.301400  1.0  -0.0041
  C  C432  1  0.257000  0.974100  0.374900  1.0  -0.0225
  C  C433  1  0.423100  0.243700  0.834000  1.0  0.0096
  C  C434  1  0.509500  0.214200  0.723500  1.0  -0.0205
  C  C435  1  0.068500  0.461700  0.742400  1.0  -0.0199
  C  C436  1  0.187000  0.389700  0.726500  1.0  -0.0493
  C  C437  1  0.369200  0.728000  0.324500  1.0  -0.0347
  C  C438  1  0.251300  0.819900  0.380600  1.0  0.0047
  N  N439  1  0.215700  0.844300  0.225000  1.0  0.276
  N  N440  1  0.231600  0.999000  0.224300  1.0  0.3027
  N  N441  1  0.370400  0.847900  0.058100  1.0  0.2625
  N  N442  1  0.466800  0.908900  0.117300  1.0  0.277
  N  N443  1  0.449100  0.690700  0.134300  1.0  0.2826
  N  N444  1  0.992000  0.707500  0.356600  1.0  0.2049
  N  N445  1  0.888100  0.158300  0.247300  1.0  0.3351
  N  N446  1  0.266100  0.736100  0.887200  1.0  0.3158
  N  N447  1  0.681100  0.427400  0.207800  1.0  0.302
  N  N448  1  0.915500  0.582000  0.412000  1.0  0.3258
  N  N449  1  0.764200  0.782500  0.507900  1.0  0.2237
  N  N450  1  0.749400  0.791700  0.287100  1.0  0.26
  N  N451  1  0.809000  0.869200  0.369300  1.0  0.2715
  N  N452  1  0.704400  0.697600  0.431500  1.0  0.2747
  N  N453  1  0.968200  0.717800  0.206500  1.0  0.3034
  N  N454  1  0.730300  0.149800  0.242000  1.0  0.2401
  N  N455  1  0.791700  0.355700  0.303400  1.0  0.2934
  N  N456  1  0.674200  0.269300  0.395500  1.0  0.3265
  N  N457  1  0.561900  0.344800  0.308200  1.0  0.2532
  N  N458  1  0.105100  0.734200  0.884800  1.0  0.3051
  N  N459  1  0.675500  0.063400  0.675400  1.0  0.3277
  N  N460  1  0.511900  0.767600  0.214600  1.0  0.2387
  N  N461  1  0.879100  0.598800  0.263000  1.0  0.2305
  N  N462  1  0.689600  0.220200  0.674500  1.0  0.2582
  N  N463  1  0.784300  0.155700  0.775000  1.0  0.2744
  N  N464  1  0.768400  0.001000  0.775700  1.0  0.319
  N  N465  1  0.629600  0.152100  0.941900  1.0  0.2779
  N  N466  1  0.533200  0.091100  0.882700  1.0  0.2792
  N  N467  1  0.550900  0.309300  0.865700  1.0  0.2818
  N  N468  1  0.008000  0.292500  0.643400  1.0  0.2037
  N  N469  1  0.111900  0.841700  0.752700  1.0  0.3236
  N  N470  1  0.733900  0.263900  0.112800  1.0  0.3065
  N  N471  1  0.318900  0.572600  0.792200  1.0  0.3036
  N  N472  1  0.084500  0.418000  0.588000  1.0  0.3135
  N  N473  1  0.235800  0.217500  0.492100  1.0  0.2243
  N  N474  1  0.250600  0.208300  0.712900  1.0  0.2763
  N  N475  1  0.191000  0.130800  0.630700  1.0  0.2735
  N  N476  1  0.295600  0.302400  0.568500  1.0  0.2847
  N  N477  1  0.031800  0.282200  0.793500  1.0  0.2985
  N  N478  1  0.269700  0.850200  0.758000  1.0  0.2394
  N  N479  1  0.208300  0.644300  0.696600  1.0  0.2793
  N  N480  1  0.325800  0.730700  0.604500  1.0  0.3253
  N  N481  1  0.438100  0.655200  0.691800  1.0  0.251
  N  N482  1  0.894900  0.265800  0.115200  1.0  0.3159
  N  N483  1  0.324500  0.936600  0.324600  1.0  0.3264
  N  N484  1  0.488100  0.232400  0.785400  1.0  0.2412
  N  N485  1  0.120900  0.401200  0.737000  1.0  0.2404
  N  N486  1  0.310400  0.779800  0.325500  1.0  0.2585
  O  O487  1  0.255500  0.872100  0.200500  1.0  -0.6432
  O  O488  1  0.296900  0.960800  0.220800  1.0  -0.6368
  O  O489  1  0.385500  0.868800  0.095400  1.0  -0.6446
  O  O490  1  0.454400  0.874100  0.161300  1.0  -0.6402
  O  O491  1  0.405300  0.749700  0.130400  1.0  -0.6411
  O  O492  1  0.342600  0.880000  0.297900  1.0  -0.6383
  O  O493  1  0.466500  0.760600  0.203400  1.0  -0.6419
  O  O494  1  0.311400  0.790600  0.271000  1.0  -0.6453
  O  O495  1  0.946000  0.685200  0.379800  1.0  -0.663
  O  O496  1  0.821300  0.181100  0.255400  1.0  -0.6369
  O  O497  1  0.241700  0.714600  0.860500  1.0  -0.6489
  O  O498  1  0.726800  0.384400  0.224600  1.0  -0.6563
  O  O499  1  0.883800  0.610700  0.378100  1.0  -0.6519
  O  O500  1  0.782200  0.733400  0.469300  1.0  -0.6401
  O  O501  1  0.794100  0.791100  0.304400  1.0  -0.6371
  O  O502  1  0.824700  0.816400  0.393400  1.0  -0.6424
  O  O503  1  0.748500  0.708800  0.379600  1.0  -0.6472
  O  O504  1  0.949300  0.719700  0.267900  1.0  -0.6381
  O  O505  1  0.890100  0.647500  0.261300  1.0  -0.6576
  O  O506  1  0.717500  0.204000  0.220400  1.0  -0.6482
  O  O507  1  0.771700  0.311800  0.310700  1.0  -0.6326
  O  O508  1  0.665100  0.276500  0.345000  1.0  -0.6455
  O  O509  1  0.619400  0.347300  0.261900  1.0  -0.6381
  O  O510  1  0.865300  0.260200  0.175400  1.0  -0.6397
  O  O511  1  0.744500  0.127900  0.799500  1.0  -0.6427
  O  O512  1  0.703100  0.039200  0.779200  1.0  -0.636
  O  O513  1  0.614500  0.131200  0.904600  1.0  -0.646
  O  O514  1  0.545600  0.125900  0.838700  1.0  -0.6413
  O  O515  1  0.594700  0.250300  0.869600  1.0  -0.6428
  O  O516  1  0.657400  0.120000  0.702100  1.0  -0.6362
  O  O517  1  0.533500  0.239400  0.796600  1.0  -0.6429
  O  O518  1  0.688600  0.209400  0.729000  1.0  -0.6446
  O  O519  1  0.054000  0.314800  0.620200  1.0  -0.6633
  O  O520  1  0.178700  0.818900  0.744600  1.0  -0.6389
  O  O521  1  0.758300  0.285400  0.139500  1.0  -0.6487
  O  O522  1  0.273200  0.615600  0.775400  1.0  -0.6555
  O  O523  1  0.116200  0.389300  0.621900  1.0  -0.6527
  O  O524  1  0.217800  0.266600  0.530700  1.0  -0.6392
  O  O525  1  0.205900  0.208900  0.695600  1.0  -0.6355
  O  O526  1  0.175300  0.183600  0.606600  1.0  -0.6424
  O  O527  1  0.251500  0.291200  0.620400  1.0  -0.6461
  O  O528  1  0.050700  0.280300  0.732100  1.0  -0.6371
  O  O529  1  0.109900  0.352500  0.738700  1.0  -0.6585
  O  O530  1  0.282500  0.796000  0.779600  1.0  -0.6486
  O  O531  1  0.228300  0.688200  0.689300  1.0  -0.6321
  O  O532  1  0.334900  0.723500  0.655000  1.0  -0.646
  O  O533  1  0.380600  0.652700  0.738100  1.0  -0.6376
  O  O534  1  0.134700  0.739800  0.824600  1.0  -0.6391
