# generated using pymatgen
data_HoH32C40(NO)8
_symmetry_space_group_name_H-M   'P 1'
_cell_length_a   24.03000000
_cell_length_b   24.13480000
_cell_length_c   24.39220000
_cell_angle_alpha   85.03200000
_cell_angle_beta   61.32500000
_cell_angle_gamma   61.26500000
_symmetry_Int_Tables_number   1
_chemical_formula_structural   HoH32C40(NO)8
_chemical_formula_sum   'Ho6 H192 C240 N48 O48'
_cell_volume   10690.46213763
_cell_formula_units_Z   6
loop_
 _symmetry_equiv_pos_site_id
 _symmetry_equiv_pos_as_xyz
  1  'x, y, z'
loop_
 _atom_site_type_symbol
 _atom_site_label
 _atom_site_symmetry_multiplicity
 _atom_site_fract_x
 _atom_site_fract_y
 _atom_site_fract_z
 _atom_site_occupancy
 _atom_site_charge
  Ho  Ho1  1  0.360890  0.846890  0.201560  1.0  2.1834
  Ho  Ho2  1  0.847060  0.716970  0.359330  1.0  2.1825
  Ho  Ho3  1  0.746640  0.279970  0.236230  1.0  2.1395
  Ho  Ho4  1  0.639110  0.153110  0.798440  1.0  2.1842
  Ho  Ho5  1  0.152940  0.283030  0.640670  1.0  2.1813
  Ho  Ho6  1  0.253360  0.720030  0.763770  1.0  2.1404
  H  H7  1  0.274500  0.774400  0.156000  1.0  0.0987
  H  H8  1  0.140700  0.908300  0.313200  1.0  0.1027
  H  H9  1  0.274600  0.007700  0.133100  1.0  0.1134
  H  H10  1  0.172800  0.003200  0.315800  1.0  0.093
  H  H11  1  0.259700  0.916300  0.105800  1.0  0.0821
  H  H12  1  0.467600  0.779600  0.007600  1.0  0.1116
  H  H13  1  0.389500  0.994900  0.178400  1.0  0.1022
  H  H14  1  0.543100  0.833900  0.049700  1.0  0.1037
  H  H15  1  0.363700  0.680900  0.205100  1.0  0.1122
  H  H16  1  0.535100  0.692400  0.073100  1.0  0.0981
  H  H17  1  0.201200  0.728100  0.194700  1.0  0.0994
  H  H18  1  0.068300  0.862600  0.357600  1.0  0.1364
  H  H19  1  0.166400  0.063700  0.132700  1.0  0.1014
  H  H20  1  0.057400  0.066600  0.323000  1.0  0.1121
  H  H21  1  0.229100  0.881700  0.046800  1.0  0.1098
  H  H22  1  0.441100  0.738900  0.945700  1.0  0.1007
  H  H23  1  0.412200  0.056100  0.098400  1.0  0.1142
  H  H24  1  0.568200  0.893000  0.969500  1.0  0.0992
  H  H25  1  0.440800  0.582200  0.219500  1.0  0.1016
  H  H26  1  0.617000  0.592900  0.080900  1.0  0.111
  H  H27  1  0.147400  0.674000  0.250900  1.0  0.0966
  H  H28  1  0.996700  0.831900  0.384500  1.0  0.11
  H  H29  1  0.059600  0.062000  0.144400  1.0  0.0999
  H  H30  1  0.969800  0.163700  0.316800  1.0  0.1136
  H  H31  1  0.210900  0.862900  0.979200  1.0  0.1163
  H  H32  1  0.400800  0.692100  0.910000  1.0  0.1022
  H  H33  1  0.673300  0.482400  0.082700  1.0  0.1067
  H  H34  1  0.522700  0.549600  0.269300  1.0  0.1042
  H  H35  1  0.066800  0.635600  0.291800  1.0  0.1048
  H  H36  1  0.916800  0.793200  0.428300  1.0  0.1033
  H  H37  1  0.943900  0.104300  0.158200  1.0  0.1112
  H  H38  1  0.855200  0.208500  0.325300  1.0  0.0867
  H  H39  1  0.174300  0.822900  0.926000  1.0  0.1052
  H  H40  1  0.361800  0.657600  0.859400  1.0  0.1004
  H  H41  1  0.752000  0.398800  0.111100  1.0  0.0948
  H  H42  1  0.602300  0.467400  0.292700  1.0  0.0918
  H  H43  1  0.011100  0.536800  0.339100  1.0  0.1049
  H  H44  1  0.819700  0.622700  0.502300  1.0  0.1084
  H  H45  1  0.853500  0.741500  0.516700  1.0  0.1071
  H  H46  1  0.659900  0.838500  0.527200  1.0  0.0932
  H  H47  1  0.651900  0.851800  0.373000  1.0  0.1216
  H  H48  1  0.824600  0.739300  0.203600  1.0  0.1159
  H  H49  1  0.912200  0.844100  0.307500  1.0  0.0969
  H  H50  1  0.701400  0.909000  0.423600  1.0  0.067
  H  H51  1  0.623100  0.794100  0.474100  1.0  0.073
  H  H52  1  0.764200  0.604500  0.421500  1.0  0.0976
  H  H53  1  0.885500  0.810300  0.221800  1.0  0.0887
  H  H54  1  0.040000  0.626400  0.183800  1.0  0.0953
  H  H55  1  0.636800  0.189200  0.321200  1.0  0.1081
  H  H56  1  0.831400  0.092400  0.161900  1.0  0.1159
  H  H57  1  0.898500  0.296900  0.239800  1.0  0.0868
  H  H58  1  0.690000  0.424500  0.356600  1.0  0.1054
  H  H59  1  0.749600  0.169300  0.361600  1.0  0.0995
  H  H60  1  0.613800  0.358800  0.429300  1.0  0.0873
  H  H61  1  0.581500  0.270500  0.250600  1.0  0.116
  H  H62  1  0.537800  0.412700  0.364200  1.0  0.0968
  H  H63  1  0.130500  0.642400  0.872500  1.0  0.1085
  H  H64  1  0.070900  0.823100  0.922700  1.0  0.0951
  H  H65  1  0.070100  0.482500  0.391300  1.0  0.1087
  H  H66  1  0.879600  0.570200  0.557800  1.0  0.0926
  H  H67  1  0.828400  0.827000  0.570800  1.0  0.1066
  H  H68  1  0.633200  0.924500  0.585500  1.0  0.0992
  H  H69  1  0.573800  0.851900  0.342300  1.0  0.1087
  H  H70  1  0.746800  0.734300  0.177000  1.0  0.0977
  H  H71  1  0.886700  0.935200  0.263400  1.0  0.1028
  H  H72  1  0.670200  0.002000  0.380000  1.0  0.1167
  H  H73  1  0.538100  0.779400  0.563100  1.0  0.1204
  H  H74  1  0.681000  0.586700  0.506000  1.0  0.1047
  H  H75  1  0.927200  0.811900  0.117100  1.0  0.1043
  H  H76  1  0.084900  0.624200  0.076700  1.0  0.1133
  H  H77  1  0.658800  0.096300  0.363400  1.0  0.1025
  H  H78  1  0.852200  0.997900  0.201700  1.0  0.1037
  H  H79  1  0.932800  0.375600  0.222100  1.0  0.1156
  H  H80  1  0.719800  0.504200  0.351400  1.0  0.1033
  H  H81  1  0.750400  0.156400  0.457300  1.0  0.0899
  H  H82  1  0.622300  0.347800  0.519900  1.0  0.1111
  H  H83  1  0.481600  0.265100  0.334100  1.0  0.0777
  H  H84  1  0.440000  0.405200  0.447300  1.0  0.1005
  H  H85  1  0.081300  0.631600  0.977500  1.0  0.1166
  H  H86  1  0.016900  0.816100  0.029200  1.0  0.1016
  H  H87  1  0.605300  0.975000  0.685000  1.0  0.1013
  H  H88  1  0.811500  0.940900  0.561200  1.0  0.1128
  H  H89  1  0.666800  0.755300  0.148300  1.0  0.0995
  H  H90  1  0.521200  0.809300  0.334000  1.0  0.0987
  H  H91  1  0.951400  0.450700  0.258400  1.0  0.0935
  H  H92  1  0.746600  0.573300  0.291700  1.0  0.1053
  H  H93  1  0.592900  0.319800  0.614900  1.0  0.1082
  H  H94  1  0.793100  0.158000  0.522200  1.0  0.0997
  H  H95  1  0.577300  0.071800  0.732000  1.0  0.1114
  H  H96  1  0.778200  0.039700  0.607100  1.0  0.0986
  H  H97  1  0.582600  0.749600  0.128800  1.0  0.1077
  H  H98  1  0.437200  0.799000  0.316000  1.0  0.1047
  H  H99  1  0.972700  0.535500  0.251600  1.0  0.1151
  H  H100  1  0.768500  0.655700  0.287400  1.0  0.0796
  H  H101  1  0.594200  0.299000  0.708800  1.0  0.0904
  H  H102  1  0.789700  0.142100  0.617300  1.0  0.1089
  H  H103  1  0.725500  0.225600  0.844000  1.0  0.099
  H  H104  1  0.859300  0.091700  0.686800  1.0  0.102
  H  H105  1  0.725400  0.992300  0.866900  1.0  0.1146
  H  H106  1  0.827200  0.996800  0.684200  1.0  0.0947
  H  H107  1  0.740300  0.083700  0.894200  1.0  0.0826
  H  H108  1  0.532400  0.220400  0.992400  1.0  0.1112
  H  H109  1  0.610500  0.005100  0.821600  1.0  0.1023
  H  H110  1  0.456900  0.166100  0.950300  1.0  0.104
  H  H111  1  0.636300  0.319100  0.794900  1.0  0.1115
  H  H112  1  0.464900  0.307600  0.926900  1.0  0.0984
  H  H113  1  0.798800  0.271900  0.805300  1.0  0.0992
  H  H114  1  0.931700  0.137400  0.642400  1.0  0.1358
  H  H115  1  0.833600  0.936300  0.867300  1.0  0.1016
  H  H116  1  0.942600  0.933400  0.677000  1.0  0.1117
  H  H117  1  0.770900  0.118300  0.953200  1.0  0.1095
  H  H118  1  0.558900  0.261100  0.054300  1.0  0.1013
  H  H119  1  0.587800  0.943900  0.901600  1.0  0.1142
  H  H120  1  0.431800  0.107000  0.030500  1.0  0.0999
  H  H121  1  0.559200  0.417800  0.780500  1.0  0.1014
  H  H122  1  0.383000  0.407100  0.919100  1.0  0.1103
  H  H123  1  0.852600  0.326000  0.749100  1.0  0.0961
  H  H124  1  0.003300  0.168100  0.615500  1.0  0.1098
  H  H125  1  0.940400  0.938000  0.855600  1.0  0.1008
  H  H126  1  0.030200  0.836300  0.683200  1.0  0.1131
  H  H127  1  0.789100  0.137100  0.020800  1.0  0.117
  H  H128  1  0.599200  0.307900  0.090000  1.0  0.1023
  H  H129  1  0.326700  0.517600  0.917300  1.0  0.1071
  H  H130  1  0.477300  0.450400  0.730700  1.0  0.1039
  H  H131  1  0.933200  0.364400  0.708200  1.0  0.1053
  H  H132  1  0.083200  0.206800  0.571700  1.0  0.103
  H  H133  1  0.056100  0.895700  0.841800  1.0  0.1114
  H  H134  1  0.144800  0.791500  0.674700  1.0  0.0867
  H  H135  1  0.825700  0.177100  0.074000  1.0  0.1046
  H  H136  1  0.638200  0.342400  0.140600  1.0  0.1001
  H  H137  1  0.248000  0.601200  0.888900  1.0  0.096
  H  H138  1  0.397700  0.532600  0.707300  1.0  0.0924
  H  H139  1  0.988900  0.463200  0.660900  1.0  0.1054
  H  H140  1  0.180300  0.377300  0.497700  1.0  0.1079
  H  H141  1  0.146500  0.258500  0.483300  1.0  0.1081
  H  H142  1  0.340100  0.161500  0.472800  1.0  0.0932
  H  H143  1  0.348100  0.148200  0.627000  1.0  0.1212
  H  H144  1  0.175400  0.260700  0.796400  1.0  0.1151
  H  H145  1  0.087800  0.155900  0.692500  1.0  0.0966
  H  H146  1  0.298600  0.091000  0.576400  1.0  0.067
  H  H147  1  0.376900  0.205900  0.525900  1.0  0.0731
  H  H148  1  0.235800  0.395500  0.578500  1.0  0.0983
  H  H149  1  0.114500  0.189700  0.778200  1.0  0.0887
  H  H150  1  0.960000  0.373600  0.816200  1.0  0.0964
  H  H151  1  0.363200  0.810800  0.678800  1.0  0.108
  H  H152  1  0.168600  0.907600  0.838100  1.0  0.1161
  H  H153  1  0.101500  0.703100  0.760200  1.0  0.0883
  H  H154  1  0.310000  0.575500  0.643400  1.0  0.1054
  H  H155  1  0.250400  0.830700  0.638400  1.0  0.0995
  H  H156  1  0.386200  0.641200  0.570700  1.0  0.0867
  H  H157  1  0.418500  0.729500  0.749400  1.0  0.1152
  H  H158  1  0.462200  0.587300  0.635800  1.0  0.0969
  H  H159  1  0.869500  0.357600  0.127500  1.0  0.1082
  H  H160  1  0.929100  0.176900  0.077300  1.0  0.094
  H  H161  1  0.929900  0.517500  0.608700  1.0  0.1098
  H  H162  1  0.120400  0.429800  0.442200  1.0  0.0919
  H  H163  1  0.171600  0.173000  0.429200  1.0  0.1059
  H  H164  1  0.366800  0.075500  0.414500  1.0  0.0994
  H  H165  1  0.426200  0.148100  0.657700  1.0  0.1076
  H  H166  1  0.253200  0.265700  0.823000  1.0  0.0974
  H  H167  1  0.113300  0.064800  0.736600  1.0  0.1028
  H  H168  1  0.329800  0.998000  0.620000  1.0  0.1167
  H  H169  1  0.461900  0.220600  0.436900  1.0  0.1203
  H  H170  1  0.319000  0.413300  0.494000  1.0  0.1043
  H  H171  1  0.072800  0.188100  0.882900  1.0  0.1045
  H  H172  1  0.915100  0.375800  0.923300  1.0  0.1134
  H  H173  1  0.341200  0.903700  0.636600  1.0  0.1028
  H  H174  1  0.147800  0.002100  0.798300  1.0  0.1045
  H  H175  1  0.067200  0.624400  0.777900  1.0  0.1161
  H  H176  1  0.280200  0.495800  0.648600  1.0  0.1027
  H  H177  1  0.249600  0.843600  0.542700  1.0  0.0897
  H  H178  1  0.377700  0.652200  0.480100  1.0  0.1103
  H  H179  1  0.518400  0.734900  0.665900  1.0  0.0787
  H  H180  1  0.560000  0.594800  0.552700  1.0  0.0999
  H  H181  1  0.918700  0.368400  0.022500  1.0  0.1168
  H  H182  1  0.983100  0.183900  0.970800  1.0  0.1012
  H  H183  1  0.394700  0.025000  0.315000  1.0  0.1012
  H  H184  1  0.188500  0.059100  0.438800  1.0  0.1131
  H  H185  1  0.333200  0.244700  0.851700  1.0  0.0994
  H  H186  1  0.478800  0.190700  0.666000  1.0  0.0982
  H  H187  1  0.048600  0.549300  0.741600  1.0  0.0944
  H  H188  1  0.253400  0.426700  0.708300  1.0  0.1051
  H  H189  1  0.407100  0.680200  0.385100  1.0  0.1078
  H  H190  1  0.206900  0.842000  0.477800  1.0  0.1
  H  H191  1  0.422700  0.928200  0.268000  1.0  0.112
  H  H192  1  0.221800  0.960300  0.392900  1.0  0.0975
  H  H193  1  0.417400  0.250400  0.871200  1.0  0.1079
  H  H194  1  0.562800  0.201000  0.684000  1.0  0.1053
  H  H195  1  0.027300  0.464500  0.748400  1.0  0.1143
  H  H196  1  0.231500  0.344300  0.712600  1.0  0.0797
  H  H197  1  0.405800  0.701000  0.291200  1.0  0.0903
  H  H198  1  0.210300  0.857900  0.382700  1.0  0.1098
  C  C199  1  0.231300  0.792600  0.196700  1.0  -0.021
  C  C200  1  0.152800  0.871000  0.289700  1.0  0.0027
  C  C201  1  0.229800  0.018100  0.171000  1.0  -0.0401
  C  C202  1  0.170100  0.015900  0.278800  1.0  0.0151
  C  C203  1  0.296700  0.879500  0.072900  1.0  0.0152
  C  C204  1  0.418700  0.799200  0.015500  1.0  -0.0122
  C  C205  1  0.425300  0.974300  0.135400  1.0  0.0191
  C  C206  1  0.515900  0.879600  0.059600  1.0  -0.0189
  C  C207  1  0.415400  0.663000  0.181600  1.0  0.0222
  C  C208  1  0.516900  0.669200  0.103400  1.0  0.0088
  C  C209  1  0.188800  0.764000  0.220400  1.0  -0.1591
  C  C210  1  0.110100  0.843800  0.316100  1.0  -0.1876
  C  C211  1  0.165700  0.052500  0.171300  1.0  -0.1727
  C  C212  1  0.101100  0.053700  0.283200  1.0  -0.184
  C  C213  1  0.278500  0.859200  0.037800  1.0  -0.1794
  C  C214  1  0.403100  0.775700  0.978400  1.0  -0.1416
  C  C215  1  0.439100  0.010500  0.087500  1.0  -0.125
  C  C216  1  0.530300  0.915200  0.011700  1.0  -0.1605
  C  C217  1  0.461100  0.605100  0.190400  1.0  -0.1115
  C  C218  1  0.565700  0.611100  0.108800  1.0  -0.2268
  C  C219  1  0.127300  0.787100  0.282200  1.0  0.042
  C  C220  1  0.097500  0.072400  0.227900  1.0  0.0617
  C  C221  1  0.329700  0.806500  0.989000  1.0  0.029
  C  C222  1  0.492100  0.980600  0.023400  1.0  0.001
  C  C223  1  0.538400  0.579300  0.156200  1.0  0.07
  C  C224  1  0.080100  0.758700  0.309900  1.0  0.0269
  C  C225  1  0.027700  0.104400  0.228800  1.0  0.0772
  C  C226  1  0.309100  0.781400  0.953600  1.0  0.0128
  C  C227  1  0.588600  0.522400  0.171100  1.0  0.0634
  C  C228  1  0.099600  0.699900  0.286000  1.0  -0.1914
  C  C229  1  0.011100  0.791400  0.364700  1.0  -0.1087
  C  C230  1  0.018000  0.090300  0.183000  1.0  -0.1856
  C  C231  1  0.964900  0.150900  0.284300  1.0  -0.174
  C  C232  1  0.242000  0.820100  0.955900  1.0  -0.1933
  C  C233  1  0.353500  0.719700  0.915000  1.0  -0.1775
  C  C234  1  0.657100  0.479300  0.126300  1.0  -0.1856
  C  C235  1  0.569200  0.518300  0.236000  1.0  -0.1967
  C  C236  1  0.052100  0.676300  0.311200  1.0  -0.008
  C  C237  1  0.963500  0.769000  0.391400  1.0  0.004
  C  C238  1  0.949500  0.116000  0.190700  1.0  -0.0123
  C  C239  1  0.897500  0.176700  0.289300  1.0  -0.0346
  C  C240  1  0.220200  0.796300  0.924100  1.0  -0.0124
  C  C241  1  0.330300  0.699300  0.885300  1.0  0.0033
  C  C242  1  0.704500  0.430200  0.143200  1.0  -0.01
  C  C243  1  0.616600  0.470700  0.249400  1.0  0.0155
  C  C244  1  0.984200  0.543000  0.384200  1.0  0.0398
  C  C245  1  0.871200  0.594200  0.480100  1.0  -0.0275
  C  C246  1  0.808800  0.780600  0.528600  1.0  0.0063
  C  C247  1  0.695900  0.836600  0.534800  1.0  0.0055
  C  C248  1  0.671000  0.827800  0.333200  1.0  0.0116
  C  C249  1  0.773400  0.760200  0.232800  1.0  -0.0546
  C  C250  1  0.862600  0.877000  0.322900  1.0  0.019
  C  C251  1  0.739700  0.914400  0.390400  1.0  0.0637
  C  C252  1  0.634000  0.751500  0.480800  1.0  0.0457
  C  C253  1  0.717100  0.639700  0.449500  1.0  -0.0004
  C  C254  1  0.928100  0.773200  0.191500  1.0  0.0021
  C  C255  1  0.019400  0.664600  0.168900  1.0  0.0052
  C  C256  1  0.681800  0.150200  0.297700  1.0  -0.0214
  C  C257  1  0.796500  0.092900  0.203300  1.0  -0.0164
  C  C258  1  0.862500  0.340200  0.260900  1.0  -0.0371
  C  C259  1  0.739500  0.414900  0.331200  1.0  -0.0204
  C  C260  1  0.722100  0.205500  0.394500  1.0  -0.007
  C  C261  1  0.643200  0.317200  0.434300  1.0  0.0387
  C  C262  1  0.552600  0.298100  0.290800  1.0  0.0279
  C  C263  1  0.526600  0.381700  0.358100  1.0  0.0115
  C  C264  1  0.107100  0.677700  0.905100  1.0  -0.0127
  C  C265  1  0.071700  0.784200  0.934300  1.0  -0.0081
  C  C266  1  0.018600  0.511000  0.414600  1.0  -0.1696
  C  C267  1  0.906900  0.561800  0.512700  1.0  -0.1485
  C  C268  1  0.793600  0.829900  0.560900  1.0  -0.1625
  C  C269  1  0.680400  0.887200  0.569300  1.0  -0.1598
  C  C270  1  0.625300  0.826700  0.314800  1.0  -0.1558
  C  C271  1  0.726700  0.758400  0.217100  1.0  -0.1205
  C  C272  1  0.847500  0.930800  0.296600  1.0  -0.1566
  C  C273  1  0.720200  0.970500  0.365200  1.0  -0.2475
  C  C274  1  0.583700  0.743400  0.534200  1.0  -0.2331
  C  C275  1  0.669100  0.629600  0.500000  1.0  -0.1611
  C  C276  1  0.952000  0.773900  0.130100  1.0  -0.1841
  C  C277  1  0.045300  0.662900  0.106200  1.0  -0.1196
  C  C278  1  0.694800  0.095100  0.322300  1.0  -0.1455
  C  C279  1  0.809000  0.037200  0.227300  1.0  -0.1785
  C  C280  1  0.883600  0.386200  0.251300  1.0  -0.2161
  C  C281  1  0.756900  0.462300  0.326800  1.0  -0.1694
  C  C282  1  0.724800  0.198500  0.450700  1.0  -0.136
  C  C283  1  0.648200  0.311000  0.488000  1.0  -0.2232
  C  C284  1  0.493500  0.294900  0.341600  1.0  -0.1212
  C  C285  1  0.468900  0.376700  0.407600  1.0  -0.1828
  C  C286  1  0.078400  0.671300  0.966600  1.0  -0.1352
  C  C287  1  0.040600  0.779600  0.997700  1.0  -0.1758
  C  C288  1  0.980000  0.518000  0.482700  1.0  0.0381
  C  C289  1  0.727700  0.887400  0.581800  1.0  0.0788
  C  C290  1  0.651700  0.790100  0.257100  1.0  0.0558
  C  C291  1  0.777000  0.978200  0.317300  1.0  0.0384
  C  C292  1  0.600400  0.681400  0.545300  1.0  0.0679
  C  C293  1  0.012600  0.720100  0.084500  1.0  0.079
  C  C294  1  0.759400  0.037500  0.288500  1.0  0.0385
  C  C295  1  0.829700  0.449100  0.286000  1.0  0.0357
  C  C296  1  0.692300  0.249500  0.496000  1.0  0.0355
  C  C297  1  0.452600  0.330500  0.400000  1.0  0.0988
  C  C298  1  0.043200  0.725300  0.015800  1.0  0.034
  C  C299  1  0.709700  0.947900  0.617800  1.0  0.0162
  C  C300  1  0.600300  0.785300  0.244200  1.0  0.0071
  C  C301  1  0.845500  0.501500  0.278800  1.0  0.0922
  C  C302  1  0.693100  0.240100  0.556400  1.0  0.0593
  C  C303  1  0.641600  0.987300  0.668800  1.0  -0.1661
  C  C304  1  0.763200  0.967600  0.595400  1.0  -0.1679
  C  C305  1  0.619700  0.765500  0.182700  1.0  -0.1578
  C  C306  1  0.534600  0.796600  0.291700  1.0  -0.1148
  C  C307  1  0.912900  0.493100  0.265100  1.0  -0.1491
  C  C308  1  0.792600  0.564600  0.285000  1.0  -0.2293
  C  C309  1  0.633600  0.282800  0.614400  1.0  -0.1929
  C  C310  1  0.751500  0.187600  0.559900  1.0  -0.187
  C  C311  1  0.624800  0.044400  0.697200  1.0  -0.0563
  C  C312  1  0.744000  0.025000  0.623600  1.0  0.0103
  C  C313  1  0.570400  0.760500  0.171100  1.0  -0.0192
  C  C314  1  0.483800  0.790400  0.281800  1.0  0.0145
  C  C315  1  0.926200  0.543100  0.260700  1.0  0.0138
  C  C316  1  0.806100  0.613000  0.281500  1.0  -0.0017
  C  C317  1  0.634900  0.270600  0.669900  1.0  0.0065
  C  C318  1  0.749700  0.178300  0.616200  1.0  -0.011
  C  C319  1  0.768700  0.207400  0.803300  1.0  -0.0192
  C  C320  1  0.847200  0.129000  0.710300  1.0  0.0046
  C  C321  1  0.770200  0.981900  0.829000  1.0  -0.0392
  C  C322  1  0.829900  0.984100  0.721200  1.0  0.0142
  C  C323  1  0.703300  0.120500  0.927100  1.0  0.0148
  C  C324  1  0.581300  0.200800  0.984500  1.0  -0.0121
  C  C325  1  0.574700  0.025700  0.864600  1.0  0.0201
  C  C326  1  0.484100  0.120400  0.940400  1.0  -0.017
  C  C327  1  0.584600  0.337000  0.818400  1.0  0.0242
  C  C328  1  0.483100  0.330800  0.896600  1.0  0.0078
  C  C329  1  0.811200  0.236000  0.779600  1.0  -0.1592
  C  C330  1  0.889900  0.156200  0.683900  1.0  -0.1887
  C  C331  1  0.834300  0.947500  0.828700  1.0  -0.1729
  C  C332  1  0.898900  0.946300  0.716800  1.0  -0.1823
  C  C333  1  0.721500  0.140800  0.962200  1.0  -0.1813
  C  C334  1  0.596900  0.224300  0.021600  1.0  -0.1432
  C  C335  1  0.560900  0.989500  0.912500  1.0  -0.1226
  C  C336  1  0.469700  0.084800  0.988300  1.0  -0.1588
  C  C337  1  0.538900  0.394900  0.809600  1.0  -0.1103
  C  C338  1  0.434300  0.388900  0.891200  1.0  -0.2279
  C  C339  1  0.872700  0.212900  0.717800  1.0  0.0409
  C  C340  1  0.902500  0.927600  0.772100  1.0  0.0596
  C  C341  1  0.670300  0.193500  0.011000  1.0  0.0294
  C  C342  1  0.507900  0.019400  0.976600  1.0  -0.0005
  C  C343  1  0.461600  0.420700  0.843800  1.0  0.0708
  C  C344  1  0.919900  0.241300  0.690100  1.0  0.0278
  C  C345  1  0.972300  0.895600  0.771200  1.0  0.0766
  C  C346  1  0.690900  0.218600  0.046400  1.0  0.0128
  C  C347  1  0.411400  0.477600  0.828900  1.0  0.0636
  C  C348  1  0.900400  0.300100  0.714000  1.0  -0.1918
  C  C349  1  0.988900  0.208600  0.635300  1.0  -0.1112
  C  C350  1  0.982000  0.909700  0.817000  1.0  -0.1844
  C  C351  1  0.035100  0.849100  0.715700  1.0  -0.1751
  C  C352  1  0.758000  0.179900  0.044100  1.0  -0.1921
  C  C353  1  0.646500  0.280300  0.085000  1.0  -0.1779
  C  C354  1  0.342900  0.520700  0.873700  1.0  -0.1868
  C  C355  1  0.430800  0.481700  0.764000  1.0  -0.1959
  C  C356  1  0.947900  0.323700  0.688800  1.0  -0.0044
  C  C357  1  0.036500  0.231000  0.608600  1.0  0.004
  C  C358  1  0.050500  0.884000  0.809300  1.0  -0.0119
  C  C359  1  0.102500  0.823300  0.710700  1.0  -0.0343
  C  C360  1  0.779800  0.203700  0.075900  1.0  -0.0117
  C  C361  1  0.669700  0.300700  0.114700  1.0  0.0041
  C  C362  1  0.295500  0.569800  0.856800  1.0  -0.0115
  C  C363  1  0.383400  0.529300  0.750600  1.0  0.0135
  C  C364  1  0.015800  0.457000  0.615800  1.0  0.0435
  C  C365  1  0.128800  0.405800  0.519900  1.0  -0.0285
  C  C366  1  0.191200  0.219400  0.471400  1.0  0.008
  C  C367  1  0.304100  0.163400  0.465200  1.0  0.0085
  C  C368  1  0.329000  0.172200  0.666800  1.0  0.0108
  C  C369  1  0.226600  0.239800  0.767200  1.0  -0.0574
  C  C370  1  0.137400  0.123000  0.677100  1.0  0.0194
  C  C371  1  0.260300  0.085600  0.609600  1.0  0.0639
  C  C372  1  0.366000  0.248500  0.519200  1.0  0.0449
  C  C373  1  0.282900  0.360300  0.550500  1.0  -0.0012
  C  C374  1  0.071900  0.226800  0.808500  1.0  0.0038
  C  C375  1  0.980600  0.335400  0.831100  1.0  0.0045
  C  C376  1  0.318200  0.849800  0.702300  1.0  -0.0219
  C  C377  1  0.203500  0.907100  0.796700  1.0  -0.018
  C  C378  1  0.137500  0.659800  0.739100  1.0  -0.0363
  C  C379  1  0.260500  0.585100  0.668800  1.0  -0.019
  C  C380  1  0.277900  0.794500  0.605500  1.0  -0.007
  C  C381  1  0.356800  0.682800  0.565700  1.0  0.0381
  C  C382  1  0.447400  0.701900  0.709200  1.0  0.0287
  C  C383  1  0.473400  0.618300  0.641900  1.0  0.0111
  C  C384  1  0.892900  0.322300  0.094900  1.0  -0.0118
  C  C385  1  0.928300  0.215800  0.065700  1.0  -0.0092
  C  C386  1  0.981400  0.489000  0.585400  1.0  -0.1657
  C  C387  1  0.093100  0.438200  0.487300  1.0  -0.1469
  C  C388  1  0.206400  0.170100  0.439100  1.0  -0.1636
  C  C389  1  0.319600  0.112800  0.430700  1.0  -0.1578
  C  C390  1  0.374700  0.173300  0.685200  1.0  -0.1563
  C  C391  1  0.273300  0.241600  0.782900  1.0  -0.1192
  C  C392  1  0.152500  0.069200  0.703400  1.0  -0.1569
  C  C393  1  0.279800  0.029500  0.634800  1.0  -0.2465
  C  C394  1  0.416300  0.256600  0.465800  1.0  -0.233
  C  C395  1  0.330900  0.370400  0.500000  1.0  -0.1614
  C  C396  1  0.048000  0.226100  0.869900  1.0  -0.1827
  C  C397  1  0.954700  0.337100  0.893800  1.0  -0.1197
  C  C398  1  0.305200  0.904900  0.677700  1.0  -0.1439
  C  C399  1  0.191000  0.962800  0.772700  1.0  -0.1789
  C  C400  1  0.116400  0.613800  0.748700  1.0  -0.2193
  C  C401  1  0.243100  0.537700  0.673200  1.0  -0.1677
  C  C402  1  0.275200  0.801500  0.549300  1.0  -0.135
  C  C403  1  0.351800  0.689000  0.512000  1.0  -0.2222
  C  C404  1  0.506500  0.705100  0.658400  1.0  -0.1199
  C  C405  1  0.531100  0.623300  0.592400  1.0  -0.1833
  C  C406  1  0.921600  0.328700  0.033400  1.0  -0.1353
  C  C407  1  0.959400  0.220400  0.002300  1.0  -0.1772
  C  C408  1  0.020000  0.482000  0.517300  1.0  0.0384
  C  C409  1  0.272300  0.112600  0.418200  1.0  0.0804
  C  C410  1  0.348300  0.209900  0.742900  1.0  0.0548
  C  C411  1  0.223000  0.021800  0.682700  1.0  0.039
  C  C412  1  0.399600  0.318600  0.454700  1.0  0.0673
  C  C413  1  0.987400  0.279900  0.915500  1.0  0.0791
  C  C414  1  0.240600  0.962500  0.711500  1.0  0.0372
  C  C415  1  0.170300  0.550900  0.714000  1.0  0.0361
  C  C416  1  0.307700  0.750500  0.504000  1.0  0.0344
  C  C417  1  0.547400  0.669500  0.600000  1.0  0.098
  C  C418  1  0.956800  0.274700  0.984200  1.0  0.0339
  C  C419  1  0.290300  0.052100  0.382200  1.0  0.0166
  C  C420  1  0.399700  0.214700  0.755800  1.0  0.0073
  C  C421  1  0.154500  0.498500  0.721200  1.0  0.0917
  C  C422  1  0.306900  0.759900  0.443600  1.0  0.0599
  C  C423  1  0.358400  0.012700  0.331200  1.0  -0.1652
  C  C424  1  0.236800  0.032400  0.404600  1.0  -0.1679
  C  C425  1  0.380300  0.234500  0.817300  1.0  -0.161
  C  C426  1  0.465400  0.203400  0.708300  1.0  -0.1173
  C  C427  1  0.087100  0.506900  0.734900  1.0  -0.1465
  C  C428  1  0.207400  0.435400  0.715000  1.0  -0.2287
  C  C429  1  0.366400  0.717200  0.385600  1.0  -0.1937
  C  C430  1  0.248500  0.812400  0.440100  1.0  -0.188
  C  C431  1  0.375200  0.955600  0.302800  1.0  -0.0564
  C  C432  1  0.256000  0.975000  0.376400  1.0  0.0092
  C  C433  1  0.429600  0.239500  0.828900  1.0  -0.0151
  C  C434  1  0.516200  0.209600  0.718200  1.0  0.0138
  C  C435  1  0.073800  0.456900  0.739300  1.0  0.0099
  C  C436  1  0.193900  0.387000  0.718500  1.0  0.0024
  C  C437  1  0.365100  0.729400  0.330100  1.0  0.0043
  C  C438  1  0.250300  0.821700  0.383800  1.0  -0.0114
  N  N439  1  0.212200  0.846100  0.230700  1.0  0.2726
  N  N440  1  0.230300  0.998400  0.224600  1.0  0.2959
  N  N441  1  0.364100  0.850300  0.063300  1.0  0.2826
  N  N442  1  0.463800  0.910000  0.119200  1.0  0.2943
  N  N443  1  0.445300  0.693400  0.139400  1.0  0.2563
  N  N444  1  0.985400  0.709900  0.363000  1.0  0.1731
  N  N445  1  0.890200  0.157700  0.243900  1.0  0.3279
  N  N446  1  0.263900  0.736000  0.891000  1.0  0.2946
  N  N447  1  0.683700  0.427000  0.204000  1.0  0.2682
  N  N448  1  0.910800  0.584900  0.415500  1.0  0.2853
  N  N449  1  0.761200  0.783900  0.511100  1.0  0.2348
  N  N450  1  0.744300  0.793100  0.292100  1.0  0.1652
  N  N451  1  0.806600  0.869500  0.371700  1.0  0.2132
  N  N452  1  0.698200  0.702200  0.437500  1.0  0.2088
  N  N453  1  0.962900  0.721200  0.212000  1.0  0.2228
  N  N454  1  0.733600  0.148800  0.239400  1.0  0.2288
  N  N455  1  0.792700  0.355400  0.299400  1.0  0.2635
  N  N456  1  0.678600  0.266200  0.387500  1.0  0.1703
  N  N457  1  0.566100  0.342900  0.302300  1.0  0.2528
  N  N458  1  0.102600  0.735100  0.889500  1.0  0.2575
  N  N459  1  0.677800  0.060700  0.674100  1.0  0.2451
  N  N460  1  0.506200  0.771200  0.220100  1.0  0.2305
  N  N461  1  0.871800  0.603000  0.269800  1.0  0.2307
  N  N462  1  0.692000  0.219700  0.670500  1.0  0.2824
  N  N463  1  0.787800  0.153900  0.769300  1.0  0.2705
  N  N464  1  0.769700  0.001600  0.775400  1.0  0.2985
  N  N465  1  0.635900  0.149700  0.936700  1.0  0.282
  N  N466  1  0.536200  0.090000  0.880800  1.0  0.297
  N  N467  1  0.554700  0.306600  0.860600  1.0  0.2581
  N  N468  1  0.014600  0.290100  0.637000  1.0  0.1739
  N  N469  1  0.109800  0.842300  0.756100  1.0  0.3269
  N  N470  1  0.736100  0.264000  0.109000  1.0  0.2952
  N  N471  1  0.316300  0.573000  0.796000  1.0  0.2696
  N  N472  1  0.089200  0.415100  0.584500  1.0  0.2838
  N  N473  1  0.238800  0.216100  0.488900  1.0  0.2371
  N  N474  1  0.255700  0.206900  0.707900  1.0  0.1661
  N  N475  1  0.193400  0.130500  0.628300  1.0  0.2151
  N  N476  1  0.301800  0.297800  0.562500  1.0  0.2059
  N  N477  1  0.037100  0.278800  0.788000  1.0  0.2225
  N  N478  1  0.266400  0.851200  0.760600  1.0  0.2269
  N  N479  1  0.207300  0.644600  0.700600  1.0  0.264
  N  N480  1  0.321400  0.733800  0.612500  1.0  0.1679
  N  N481  1  0.433900  0.657100  0.697700  1.0  0.2504
  N  N482  1  0.897400  0.264900  0.110500  1.0  0.2573
  N  N483  1  0.322200  0.939300  0.325900  1.0  0.2443
  N  N484  1  0.493800  0.228800  0.779900  1.0  0.2317
  N  N485  1  0.128200  0.397000  0.730200  1.0  0.2331
  N  N486  1  0.308000  0.780300  0.329500  1.0  0.2836
  O  O487  1  0.251700  0.874500  0.206600  1.0  -0.6376
  O  O488  1  0.295700  0.960900  0.221800  1.0  -0.6181
  O  O489  1  0.380500  0.870900  0.099500  1.0  -0.635
  O  O490  1  0.450900  0.875500  0.164300  1.0  -0.6253
  O  O491  1  0.399800  0.753900  0.137200  1.0  -0.6334
  O  O492  1  0.339600  0.882400  0.299100  1.0  -0.6393
  O  O493  1  0.460400  0.764000  0.208600  1.0  -0.6374
  O  O494  1  0.308300  0.792400  0.275500  1.0  -0.6304
  O  O495  1  0.940000  0.687400  0.385500  1.0  -0.6447
  O  O496  1  0.824300  0.180000  0.251200  1.0  -0.631
  O  O497  1  0.239100  0.715200  0.865000  1.0  -0.646
  O  O498  1  0.731900  0.383000  0.219200  1.0  -0.648
  O  O499  1  0.878100  0.614300  0.382600  1.0  -0.6343
  O  O500  1  0.778200  0.735000  0.473500  1.0  -0.6388
  O  O501  1  0.791100  0.793400  0.308000  1.0  -0.6554
  O  O502  1  0.821700  0.817700  0.396700  1.0  -0.6443
  O  O503  1  0.743500  0.711600  0.384800  1.0  -0.6552
  O  O504  1  0.943200  0.722200  0.274100  1.0  -0.6457
  O  O505  1  0.882600  0.653100  0.267800  1.0  -0.6377
  O  O506  1  0.722200  0.202800  0.214700  1.0  -0.6406
  O  O507  1  0.774800  0.310100  0.304400  1.0  -0.629
  O  O508  1  0.669200  0.274400  0.338500  1.0  -0.6749
  O  O509  1  0.624800  0.344700  0.254800  1.0  -0.6353
  O  O510  1  0.867700  0.259700  0.170900  1.0  -0.6289
  O  O511  1  0.748300  0.125500  0.793400  1.0  -0.6357
  O  O512  1  0.704300  0.039100  0.778200  1.0  -0.6168
  O  O513  1  0.619500  0.129100  0.900500  1.0  -0.6359
  O  O514  1  0.549100  0.124500  0.835700  1.0  -0.6258
  O  O515  1  0.600200  0.246100  0.862800  1.0  -0.6352
  O  O516  1  0.660400  0.117600  0.700900  1.0  -0.6394
  O  O517  1  0.539600  0.236000  0.791400  1.0  -0.638
  O  O518  1  0.691700  0.207600  0.724500  1.0  -0.629
  O  O519  1  0.060000  0.312600  0.614500  1.0  -0.6451
  O  O520  1  0.175700  0.820000  0.748800  1.0  -0.6327
  O  O521  1  0.760900  0.284800  0.135000  1.0  -0.6461
  O  O522  1  0.268100  0.617000  0.780800  1.0  -0.647
  O  O523  1  0.121900  0.385700  0.617400  1.0  -0.6345
  O  O524  1  0.221800  0.265000  0.526500  1.0  -0.6363
  O  O525  1  0.208900  0.206600  0.692000  1.0  -0.654
  O  O526  1  0.178300  0.182300  0.603300  1.0  -0.6451
  O  O527  1  0.256500  0.288400  0.615200  1.0  -0.6533
  O  O528  1  0.056800  0.277800  0.725900  1.0  -0.6461
  O  O529  1  0.117400  0.346900  0.732200  1.0  -0.6379
  O  O530  1  0.277800  0.797200  0.785300  1.0  -0.6411
  O  O531  1  0.225200  0.689900  0.695600  1.0  -0.6296
  O  O532  1  0.330800  0.725600  0.661500  1.0  -0.6742
  O  O533  1  0.375200  0.655300  0.745200  1.0  -0.6334
  O  O534  1  0.132300  0.740300  0.829100  1.0  -0.6279
