# generated using pymatgen
data_ErH32C40(NO)8
_symmetry_space_group_name_H-M   'P 1'
_cell_length_a   24.00100000
_cell_length_b   24.14230000
_cell_length_c   24.35640000
_cell_angle_alpha   85.62600000
_cell_angle_beta   61.31900000
_cell_angle_gamma   60.94400000
_symmetry_Int_Tables_number   1
_chemical_formula_structural   ErH32C40(NO)8
_chemical_formula_sum   'Er6 H192 C240 N48 O48'
_cell_volume   10594.49503077
_cell_formula_units_Z   6
loop_
 _symmetry_equiv_pos_site_id
 _symmetry_equiv_pos_as_xyz
  1  'x, y, z'
loop_
 _atom_site_type_symbol
 _atom_site_label
 _atom_site_symmetry_multiplicity
 _atom_site_fract_x
 _atom_site_fract_y
 _atom_site_fract_z
 _atom_site_occupancy
 _atom_site_charge
  Er  Er1  1  0.363590  0.845240  0.198910  1.0  1.2022
  Er  Er2  1  0.850740  0.714920  0.356190  1.0  1.2221
  Er  Er3  1  0.744700  0.280600  0.239610  1.0  1.2336
  Er  Er4  1  0.636410  0.154760  0.801090  1.0  1.2036
  Er  Er5  1  0.149260  0.285080  0.643810  1.0  1.222
  Er  Er6  1  0.255300  0.719400  0.760390  1.0  1.2354
  H  H7  1  0.276000  0.773800  0.151900  1.0  0.11
  H  H8  1  0.143500  0.908000  0.313000  1.0  0.1231
  H  H9  1  0.277300  0.005600  0.133200  1.0  0.1168
  H  H10  1  0.174300  0.999700  0.315700  1.0  0.106
  H  H11  1  0.259200  0.915100  0.108600  1.0  0.1045
  H  H12  1  0.469700  0.776400  0.005600  1.0  0.1181
  H  H13  1  0.392900  0.995600  0.178600  1.0  0.1231
  H  H14  1  0.543300  0.831400  0.047500  1.0  0.1032
  H  H15  1  0.365000  0.680000  0.201200  1.0  0.1155
  H  H16  1  0.540400  0.686100  0.068300  1.0  0.1203
  H  H17  1  0.202300  0.726800  0.193000  1.0  0.116
  H  H18  1  0.071400  0.861900  0.356500  1.0  0.119
  H  H19  1  0.165900  0.069800  0.136700  1.0  0.1043
  H  H20  1  0.058400  0.065300  0.323800  1.0  0.1117
  H  H21  1  0.229600  0.882900  0.045000  1.0  0.1195
  H  H22  1  0.442300  0.740400  0.940700  1.0  0.1075
  H  H23  1  0.415000  0.055000  0.099900  1.0  0.1162
  H  H24  1  0.569600  0.890600  0.964900  1.0  0.1215
  H  H25  1  0.439900  0.582300  0.215800  1.0  0.1062
  H  H26  1  0.618500  0.590900  0.080700  1.0  0.1116
  H  H27  1  0.148600  0.675800  0.243000  1.0  0.1186
  H  H28  1  0.993800  0.834700  0.382700  1.0  0.1155
  H  H29  1  0.059900  0.059600  0.145100  1.0  0.1175
  H  H30  1  0.964000  0.165300  0.320000  1.0  0.118
  H  H31  1  0.212900  0.866000  0.975400  1.0  0.1382
  H  H32  1  0.404800  0.687200  0.904600  1.0  0.1176
  H  H33  1  0.673900  0.477700  0.083700  1.0  0.0969
  H  H34  1  0.518900  0.550300  0.266300  1.0  0.0904
  H  H35  1  0.072400  0.633600  0.288900  1.0  0.1065
  H  H36  1  0.919400  0.793600  0.425300  1.0  0.1093
  H  H37  1  0.945600  0.107700  0.157300  1.0  0.1038
  H  H38  1  0.853500  0.207400  0.327900  1.0  0.1052
  H  H39  1  0.173600  0.826300  0.925500  1.0  0.1142
  H  H40  1  0.361500  0.656000  0.857200  1.0  0.0819
  H  H41  1  0.752700  0.393900  0.111100  1.0  0.1193
  H  H42  1  0.596700  0.470500  0.295700  1.0  0.1172
  H  H43  1  0.017600  0.537500  0.337400  1.0  0.1248
  H  H44  1  0.821600  0.621900  0.498500  1.0  0.12
  H  H45  1  0.858500  0.740100  0.510000  1.0  0.1166
  H  H46  1  0.661900  0.838500  0.522800  1.0  0.1042
  H  H47  1  0.656900  0.849300  0.367900  1.0  0.1085
  H  H48  1  0.827600  0.737000  0.202100  1.0  0.1013
  H  H49  1  0.912100  0.842100  0.309100  1.0  0.1039
  H  H50  1  0.698900  0.911200  0.426200  1.0  0.0997
  H  H51  1  0.624400  0.794200  0.473800  1.0  0.1085
  H  H52  1  0.769200  0.602100  0.411700  1.0  0.1204
  H  H53  1  0.887500  0.808100  0.223600  1.0  0.1022
  H  H54  1  0.043300  0.623800  0.179100  1.0  0.1081
  H  H55  1  0.636400  0.192500  0.324000  1.0  0.1056
  H  H56  1  0.828800  0.093300  0.162600  1.0  0.129
  H  H57  1  0.900700  0.293300  0.244900  1.0  0.1056
  H  H58  1  0.689400  0.425500  0.359100  1.0  0.1143
  H  H59  1  0.747000  0.169200  0.363000  1.0  0.1142
  H  H60  1  0.615900  0.361900  0.430600  1.0  0.1065
  H  H61  1  0.578100  0.274900  0.252900  1.0  0.1131
  H  H62  1  0.535500  0.414000  0.368300  1.0  0.1047
  H  H63  1  0.129200  0.641300  0.869500  1.0  0.1187
  H  H64  1  0.073200  0.822800  0.921500  1.0  0.1102
  H  H65  1  0.072900  0.486800  0.393200  1.0  0.1041
  H  H66  1  0.878500  0.569700  0.555900  1.0  0.1106
  H  H67  1  0.829400  0.827300  0.570700  1.0  0.1045
  H  H68  1  0.632200  0.924800  0.586600  1.0  0.1011
  H  H69  1  0.576600  0.848100  0.343000  1.0  0.1099
  H  H70  1  0.753000  0.732000  0.171800  1.0  0.1163
  H  H71  1  0.890400  0.930700  0.262000  1.0  0.1128
  H  H72  1  0.668200  0.003900  0.382400  1.0  0.123
  H  H73  1  0.542400  0.776300  0.561500  1.0  0.1077
  H  H74  1  0.684700  0.584600  0.502800  1.0  0.1047
  H  H75  1  0.931500  0.810600  0.114400  1.0  0.1174
  H  H76  1  0.090000  0.621700  0.070900  1.0  0.1176
  H  H77  1  0.655400  0.099600  0.366200  1.0  0.1179
  H  H78  1  0.855400  0.998800  0.202500  1.0  0.1087
  H  H79  1  0.935100  0.371600  0.224900  1.0  0.121
  H  H80  1  0.720200  0.508300  0.347300  1.0  0.1195
  H  H81  1  0.750800  0.156100  0.459000  1.0  0.1122
  H  H82  1  0.625700  0.349900  0.523400  1.0  0.1264
  H  H83  1  0.481700  0.264700  0.336000  1.0  0.0928
  H  H84  1  0.436400  0.405900  0.454800  1.0  0.1222
  H  H85  1  0.087700  0.629900  0.973100  1.0  0.1066
  H  H86  1  0.017900  0.815500  0.028500  1.0  0.1209
  H  H87  1  0.603700  0.977000  0.687200  1.0  0.1053
  H  H88  1  0.810100  0.939800  0.562500  1.0  0.104
  H  H89  1  0.672300  0.749800  0.144100  1.0  0.1167
  H  H90  1  0.520200  0.809500  0.333000  1.0  0.1077
  H  H91  1  0.951200  0.447400  0.262200  1.0  0.1032
  H  H92  1  0.751100  0.569900  0.287000  1.0  0.1062
  H  H93  1  0.590700  0.321400  0.616300  1.0  0.1197
  H  H94  1  0.791700  0.160500  0.523500  1.0  0.1145
  H  H95  1  0.577300  0.070300  0.737000  1.0  0.1057
  H  H96  1  0.781200  0.036200  0.606600  1.0  0.1124
  H  H97  1  0.586100  0.750600  0.124200  1.0  0.1164
  H  H98  1  0.442400  0.793300  0.313100  1.0  0.106
  H  H99  1  0.976800  0.530900  0.249300  1.0  0.1196
  H  H100  1  0.772400  0.655300  0.282200  1.0  0.1078
  H  H101  1  0.591100  0.298800  0.713400  1.0  0.0937
  H  H102  1  0.790800  0.144900  0.617200  1.0  0.1165
  H  H103  1  0.724000  0.226200  0.848100  1.0  0.1097
  H  H104  1  0.856500  0.092000  0.687000  1.0  0.1228
  H  H105  1  0.722700  0.994400  0.866800  1.0  0.1184
  H  H106  1  0.825700  0.000300  0.684300  1.0  0.1062
  H  H107  1  0.740800  0.084900  0.891400  1.0  0.1048
  H  H108  1  0.530300  0.223600  0.994400  1.0  0.1177
  H  H109  1  0.607100  0.004400  0.821400  1.0  0.1234
  H  H110  1  0.456700  0.168600  0.952500  1.0  0.1028
  H  H111  1  0.635000  0.320000  0.798800  1.0  0.1156
  H  H112  1  0.459600  0.313900  0.931700  1.0  0.1205
  H  H113  1  0.797700  0.273200  0.807000  1.0  0.116
  H  H114  1  0.928600  0.138100  0.643500  1.0  0.1196
  H  H115  1  0.834100  0.930200  0.863300  1.0  0.104
  H  H116  1  0.941600  0.934700  0.676200  1.0  0.1114
  H  H117  1  0.770400  0.117100  0.955000  1.0  0.1202
  H  H118  1  0.557700  0.259600  0.059300  1.0  0.1078
  H  H119  1  0.585000  0.945000  0.900100  1.0  0.1176
  H  H120  1  0.430400  0.109400  0.035100  1.0  0.1219
  H  H121  1  0.560100  0.417700  0.784200  1.0  0.1061
  H  H122  1  0.381500  0.409100  0.919300  1.0  0.1113
  H  H123  1  0.851400  0.324200  0.757000  1.0  0.1177
  H  H124  1  0.006200  0.165300  0.617300  1.0  0.1145
  H  H125  1  0.940100  0.940400  0.854900  1.0  0.1185
  H  H126  1  0.036000  0.834700  0.680000  1.0  0.1176
  H  H127  1  0.787100  0.134000  0.024600  1.0  0.1379
  H  H128  1  0.595200  0.312800  0.095400  1.0  0.1181
  H  H129  1  0.326100  0.522300  0.916300  1.0  0.0976
  H  H130  1  0.481100  0.449700  0.733700  1.0  0.0904
  H  H131  1  0.927600  0.366400  0.711100  1.0  0.1067
  H  H132  1  0.080600  0.206400  0.574700  1.0  0.1091
  H  H133  1  0.054400  0.892300  0.842700  1.0  0.1036
  H  H134  1  0.146500  0.792600  0.672100  1.0  0.105
  H  H135  1  0.826400  0.173700  0.074500  1.0  0.1145
  H  H136  1  0.638500  0.344000  0.142800  1.0  0.0822
  H  H137  1  0.247300  0.606100  0.888900  1.0  0.1196
  H  H138  1  0.403300  0.529500  0.704300  1.0  0.1175
  H  H139  1  0.982400  0.462500  0.662600  1.0  0.1255
  H  H140  1  0.178400  0.378100  0.501500  1.0  0.1196
  H  H141  1  0.141500  0.259900  0.490000  1.0  0.1173
  H  H142  1  0.338100  0.161500  0.477200  1.0  0.1052
  H  H143  1  0.343100  0.150700  0.632100  1.0  0.1087
  H  H144  1  0.172400  0.263000  0.797900  1.0  0.1009
  H  H145  1  0.087900  0.157900  0.690900  1.0  0.1038
  H  H146  1  0.301100  0.088800  0.573800  1.0  0.0994
  H  H147  1  0.375600  0.205800  0.526200  1.0  0.1091
  H  H148  1  0.230800  0.397900  0.588300  1.0  0.1197
  H  H149  1  0.112500  0.191900  0.776400  1.0  0.1016
  H  H150  1  0.956700  0.376200  0.820900  1.0  0.1084
  H  H151  1  0.363600  0.807500  0.676000  1.0  0.1061
  H  H152  1  0.171200  0.906700  0.837400  1.0  0.1292
  H  H153  1  0.099300  0.706700  0.755100  1.0  0.1062
  H  H154  1  0.310600  0.574500  0.640900  1.0  0.1139
  H  H155  1  0.253000  0.830800  0.637000  1.0  0.1139
  H  H156  1  0.384100  0.638100  0.569400  1.0  0.1069
  H  H157  1  0.421900  0.725100  0.747100  1.0  0.1141
  H  H158  1  0.464500  0.586000  0.631700  1.0  0.1046
  H  H159  1  0.870800  0.358700  0.130500  1.0  0.1185
  H  H160  1  0.926800  0.177200  0.078500  1.0  0.1092
  H  H161  1  0.927100  0.513200  0.606800  1.0  0.104
  H  H162  1  0.121500  0.430300  0.444100  1.0  0.1104
  H  H163  1  0.170600  0.172700  0.429300  1.0  0.104
  H  H164  1  0.367800  0.075200  0.413400  1.0  0.1009
  H  H165  1  0.423400  0.151900  0.657000  1.0  0.1091
  H  H166  1  0.247000  0.268000  0.828200  1.0  0.1168
  H  H167  1  0.109600  0.069300  0.738000  1.0  0.1133
  H  H168  1  0.331800  0.996100  0.617600  1.0  0.1234
  H  H169  1  0.457600  0.223700  0.438500  1.0  0.1075
  H  H170  1  0.315300  0.415400  0.497200  1.0  0.1048
  H  H171  1  0.068500  0.189400  0.885600  1.0  0.1171
  H  H172  1  0.910000  0.378300  0.929100  1.0  0.1178
  H  H173  1  0.344600  0.900400  0.633800  1.0  0.1181
  H  H174  1  0.144600  0.001200  0.797500  1.0  0.1097
  H  H175  1  0.064900  0.628400  0.775100  1.0  0.1211
  H  H176  1  0.279800  0.491700  0.652700  1.0  0.119
  H  H177  1  0.249200  0.843900  0.541000  1.0  0.1122
  H  H178  1  0.374300  0.650100  0.476600  1.0  0.1257
  H  H179  1  0.518300  0.735300  0.664000  1.0  0.0937
  H  H180  1  0.563600  0.594100  0.545200  1.0  0.1211
  H  H181  1  0.912300  0.370100  0.026900  1.0  0.1071
  H  H182  1  0.982100  0.184500  0.971500  1.0  0.1207
  H  H183  1  0.396300  0.023000  0.312800  1.0  0.1044
  H  H184  1  0.189900  0.060200  0.437500  1.0  0.1044
  H  H185  1  0.327700  0.250200  0.855900  1.0  0.1161
  H  H186  1  0.479800  0.190500  0.667000  1.0  0.108
  H  H187  1  0.048800  0.552600  0.737800  1.0  0.104
  H  H188  1  0.248900  0.430100  0.713000  1.0  0.1057
  H  H189  1  0.409300  0.678600  0.383700  1.0  0.1195
  H  H190  1  0.208300  0.839500  0.476500  1.0  0.1143
  H  H191  1  0.422700  0.929700  0.263000  1.0  0.1068
  H  H192  1  0.218800  0.963800  0.393400  1.0  0.1111
  H  H193  1  0.413900  0.249400  0.875800  1.0  0.1172
  H  H194  1  0.557600  0.206700  0.686900  1.0  0.1078
  H  H195  1  0.023200  0.469100  0.750700  1.0  0.1192
  H  H196  1  0.227600  0.344700  0.717800  1.0  0.1077
  H  H197  1  0.408900  0.701200  0.286600  1.0  0.0934
  H  H198  1  0.209200  0.855100  0.382800  1.0  0.1176
  C  C199  1  0.233300  0.791800  0.193500  1.0  0.0022
  C  C200  1  0.155100  0.871000  0.288900  1.0  -0.0201
  C  C201  1  0.232200  0.017300  0.171700  1.0  -0.0152
  C  C202  1  0.171400  0.013900  0.279200  1.0  -0.0085
  C  C203  1  0.296700  0.879500  0.073500  1.0  -0.0213
  C  C204  1  0.420600  0.797900  0.013400  1.0  0.0237
  C  C205  1  0.427700  0.974500  0.135000  1.0  -0.0044
  C  C206  1  0.516600  0.877300  0.057800  1.0  -0.0015
  C  C207  1  0.417100  0.661700  0.178300  1.0  0.0133
  C  C208  1  0.520900  0.665000  0.100100  1.0  0.0087
  C  C209  1  0.190200  0.763100  0.218600  1.0  -0.1506
  C  C210  1  0.113200  0.843100  0.314500  1.0  -0.1094
  C  C211  1  0.165900  0.055000  0.174000  1.0  -0.1533
  C  C212  1  0.102500  0.052500  0.283800  1.0  -0.1807
  C  C213  1  0.279100  0.859300  0.036400  1.0  -0.1421
  C  C214  1  0.403600  0.776200  0.975400  1.0  -0.1342
  C  C215  1  0.441400  0.009200  0.087900  1.0  -0.107
  C  C216  1  0.532400  0.912800  0.007800  1.0  -0.1699
  C  C217  1  0.461700  0.604100  0.187000  1.0  -0.1364
  C  C218  1  0.566600  0.609100  0.107300  1.0  -0.1605
  C  C219  1  0.129300  0.787000  0.281000  1.0  0.0504
  C  C220  1  0.098300  0.072400  0.229400  1.0  0.0764
  C  C221  1  0.330700  0.805700  0.986900  1.0  0.0649
  C  C222  1  0.491900  0.980600  0.023600  1.0  0.0353
  C  C223  1  0.538700  0.576000  0.154600  1.0  0.0729
  C  C224  1  0.080700  0.758100  0.307700  1.0  -0.0118
  C  C225  1  0.028000  0.105700  0.230300  1.0  0.0851
  C  C226  1  0.310600  0.781800  0.950700  1.0  -0.0056
  C  C227  1  0.588400  0.520500  0.170700  1.0  0.0744
  C  C228  1  0.101800  0.700100  0.280700  1.0  -0.1739
  C  C229  1  0.009900  0.793100  0.363000  1.0  -0.1297
  C  C230  1  0.018200  0.090100  0.183200  1.0  -0.189
  C  C231  1  0.961200  0.152100  0.286000  1.0  -0.1823
  C  C232  1  0.243100  0.822300  0.952900  1.0  -0.1703
  C  C233  1  0.357100  0.716100  0.910300  1.0  -0.1575
  C  C234  1  0.657000  0.475800  0.127600  1.0  -0.1673
  C  C235  1  0.567100  0.518300  0.234100  1.0  -0.151
  C  C236  1  0.055800  0.675700  0.307500  1.0  0.0638
  C  C237  1  0.966400  0.769500  0.387600  1.0  0.0413
  C  C238  1  0.950600  0.117600  0.191100  1.0  0.0201
  C  C239  1  0.896800  0.176300  0.290800  1.0  0.0155
  C  C240  1  0.220200  0.799100  0.922500  1.0  -0.0261
  C  C241  1  0.331400  0.698400  0.882700  1.0  0.0485
  C  C242  1  0.705200  0.426500  0.143400  1.0  0.0011
  C  C243  1  0.613000  0.471600  0.251800  1.0  -0.0156
  C  C244  1  0.988600  0.543500  0.382500  1.0  0.0122
  C  C245  1  0.873700  0.593100  0.476800  1.0  0.0144
  C  C246  1  0.812200  0.779000  0.524700  1.0  -0.0057
  C  C247  1  0.696800  0.836300  0.532400  1.0  -0.0201
  C  C248  1  0.676100  0.824100  0.328300  1.0  0.0433
  C  C249  1  0.775800  0.758300  0.231200  1.0  0.0307
  C  C250  1  0.862600  0.875500  0.323100  1.0  0.0154
  C  C251  1  0.737100  0.915900  0.392000  1.0  0.0205
  C  C252  1  0.636500  0.751200  0.479300  1.0  -0.0308
  C  C253  1  0.722700  0.637500  0.442200  1.0  0.0022
  C  C254  1  0.930300  0.771000  0.192000  1.0  0.0212
  C  C255  1  0.022400  0.662400  0.164900  1.0  -0.0142
  C  C256  1  0.680800  0.152400  0.299800  1.0  0.0145
  C  C257  1  0.794900  0.093800  0.204600  1.0  -0.0056
  C  C258  1  0.864000  0.337600  0.264000  1.0  -0.016
  C  C259  1  0.739100  0.415400  0.332300  1.0  0.0252
  C  C260  1  0.720700  0.205500  0.396200  1.0  0.0225
  C  C261  1  0.643700  0.319900  0.436300  1.0  -0.0093
  C  C262  1  0.549600  0.301500  0.294100  1.0  0.015
  C  C263  1  0.524300  0.383100  0.362100  1.0  0.0539
  C  C264  1  0.108400  0.676400  0.901900  1.0  0.0193
  C  C265  1  0.073800  0.784000  0.932600  1.0  -0.0439
  C  C266  1  0.020500  0.512900  0.415300  1.0  -0.1019
  C  C267  1  0.907300  0.561000  0.510600  1.0  -0.1606
  C  C268  1  0.794400  0.830600  0.560700  1.0  -0.1515
  C  C269  1  0.680100  0.887400  0.569600  1.0  -0.1579
  C  C270  1  0.628200  0.823400  0.313300  1.0  -0.1901
  C  C271  1  0.731800  0.755400  0.213000  1.0  -0.1751
  C  C272  1  0.849900  0.928300  0.295600  1.0  -0.1622
  C  C273  1  0.718500  0.971500  0.366900  1.0  -0.182
  C  C274  1  0.588600  0.740500  0.531200  1.0  -0.1298
  C  C275  1  0.671900  0.627600  0.496900  1.0  -0.1588
  C  C276  1  0.955700  0.772000  0.127000  1.0  -0.1755
  C  C277  1  0.049200  0.660600  0.101200  1.0  -0.1925
  C  C278  1  0.692000  0.097300  0.324900  1.0  -0.127
  C  C279  1  0.809800  0.037700  0.228000  1.0  -0.1647
  C  C280  1  0.885000  0.383700  0.253400  1.0  -0.167
  C  C281  1  0.757500  0.464900  0.325200  1.0  -0.1531
  C  C282  1  0.723900  0.198200  0.452800  1.0  -0.1318
  C  C283  1  0.648900  0.313000  0.491900  1.0  -0.1914
  C  C284  1  0.492100  0.295300  0.344400  1.0  -0.1498
  C  C285  1  0.465400  0.378000  0.414100  1.0  -0.158
  C  C286  1  0.081500  0.670600  0.963100  1.0  -0.1382
  C  C287  1  0.042000  0.779300  0.995900  1.0  -0.177
  C  C288  1  0.981200  0.516900  0.481000  1.0  0.0552
  C  C289  1  0.727800  0.888300  0.584000  1.0  0.0787
  C  C290  1  0.652600  0.788000  0.256200  1.0  0.0269
  C  C291  1  0.777900  0.978600  0.316400  1.0  -0.0079
  C  C292  1  0.605900  0.677100  0.541300  1.0  0.0623
  C  C293  1  0.015700  0.717000  0.080900  1.0  0.0795
  C  C294  1  0.758900  0.036800  0.288700  1.0  0.0014
  C  C295  1  0.831300  0.448000  0.285100  1.0  0.0357
  C  C296  1  0.688100  0.252100  0.499500  1.0  0.0618
  C  C297  1  0.451500  0.330900  0.403500  1.0  0.0947
  C  C298  1  0.045200  0.721900  0.012200  1.0  0.0813
  C  C299  1  0.708100  0.948600  0.619000  1.0  0.0949
  C  C300  1  0.603500  0.782700  0.241500  1.0  0.0212
  C  C301  1  0.848000  0.500200  0.276800  1.0  0.0644
  C  C302  1  0.689700  0.242100  0.560600  1.0  0.0755
  C  C303  1  0.640500  0.988600  0.670900  1.0  -0.1495
  C  C304  1  0.761500  0.967700  0.597000  1.0  -0.135
  C  C305  1  0.624100  0.762000  0.178500  1.0  -0.1405
  C  C306  1  0.535300  0.795000  0.290300  1.0  -0.1904
  C  C307  1  0.914400  0.489900  0.265500  1.0  -0.1528
  C  C308  1  0.796800  0.561600  0.281100  1.0  -0.1589
  C  C309  1  0.631300  0.284000  0.615800  1.0  -0.1705
  C  C310  1  0.749600  0.189800  0.562200  1.0  -0.1586
  C  C311  1  0.624200  0.044200  0.699900  1.0  -0.0394
  C  C312  1  0.745400  0.023400  0.623300  1.0  -0.0104
  C  C313  1  0.574600  0.759300  0.166900  1.0  0.036
  C  C314  1  0.488200  0.786800  0.278800  1.0  -0.0262
  C  C315  1  0.929600  0.539600  0.258800  1.0  0.0544
  C  C316  1  0.809700  0.612400  0.277200  1.0  -0.0386
  C  C317  1  0.632200  0.270600  0.673800  1.0  -0.0041
  C  C318  1  0.748800  0.180200  0.617400  1.0  0.0212
  C  C319  1  0.766700  0.208200  0.806500  1.0  0.0035
  C  C320  1  0.844900  0.129000  0.711100  1.0  -0.0201
  C  C321  1  0.767800  0.982700  0.828300  1.0  -0.0157
  C  C322  1  0.828600  0.986100  0.720800  1.0  -0.0088
  C  C323  1  0.703300  0.120500  0.926500  1.0  -0.0232
  C  C324  1  0.579400  0.202100  0.986600  1.0  0.0236
  C  C325  1  0.572300  0.025500  0.865000  1.0  -0.0038
  C  C326  1  0.483400  0.122700  0.942200  1.0  0.0
  C  C327  1  0.582900  0.338300  0.821700  1.0  0.0116
  C  C328  1  0.479100  0.335000  0.899900  1.0  0.0054
  C  C329  1  0.809800  0.236900  0.781400  1.0  -0.1506
  C  C330  1  0.886800  0.156900  0.685500  1.0  -0.1089
  C  C331  1  0.834100  0.945000  0.826000  1.0  -0.1534
  C  C332  1  0.897500  0.947500  0.716200  1.0  -0.1792
  C  C333  1  0.720900  0.140700  0.963600  1.0  -0.1435
  C  C334  1  0.596400  0.223800  0.024600  1.0  -0.1343
  C  C335  1  0.558600  0.990800  0.912100  1.0  -0.1028
  C  C336  1  0.467600  0.087200  0.992200  1.0  -0.1728
  C  C337  1  0.538300  0.395900  0.813000  1.0  -0.1376
  C  C338  1  0.433400  0.390900  0.892700  1.0  -0.1628
  C  C339  1  0.870700  0.213000  0.719000  1.0  0.0515
  C  C340  1  0.901700  0.927600  0.770600  1.0  0.0745
  C  C341  1  0.669300  0.194300  0.013100  1.0  0.0651
  C  C342  1  0.508100  0.019400  0.976400  1.0  0.0346
  C  C343  1  0.461300  0.424000  0.845400  1.0  0.0744
  C  C344  1  0.919300  0.241900  0.692300  1.0  -0.01
  C  C345  1  0.972000  0.894300  0.769700  1.0  0.0844
  C  C346  1  0.689400  0.218200  0.049300  1.0  -0.0054
  C  C347  1  0.411600  0.479500  0.829300  1.0  0.0745
  C  C348  1  0.898200  0.299900  0.719300  1.0  -0.1721
  C  C349  1  0.990100  0.206900  0.637000  1.0  -0.1315
  C  C350  1  0.981800  0.909900  0.816800  1.0  -0.1889
  C  C351  1  0.038800  0.847900  0.714000  1.0  -0.1824
  C  C352  1  0.756900  0.177700  0.047100  1.0  -0.1707
  C  C353  1  0.642900  0.283900  0.089700  1.0  -0.1564
  C  C354  1  0.343000  0.524200  0.872400  1.0  -0.1674
  C  C355  1  0.432900  0.481700  0.765900  1.0  -0.1514
  C  C356  1  0.944200  0.324300  0.692500  1.0  0.0656
  C  C357  1  0.033600  0.230500  0.612400  1.0  0.0382
  C  C358  1  0.049400  0.882400  0.808900  1.0  0.0246
  C  C359  1  0.103200  0.823700  0.709200  1.0  0.0137
  C  C360  1  0.779800  0.200900  0.077500  1.0  -0.0262
  C  C361  1  0.668600  0.301600  0.117300  1.0  0.0489
  C  C362  1  0.294800  0.573500  0.856600  1.0  0.0007
  C  C363  1  0.387000  0.528400  0.748200  1.0  -0.0161
  C  C364  1  0.011400  0.456500  0.617500  1.0  0.0148
  C  C365  1  0.126300  0.406900  0.523200  1.0  0.0155
  C  C366  1  0.187800  0.221000  0.475300  1.0  -0.0024
  C  C367  1  0.303200  0.163700  0.467600  1.0  -0.0191
  C  C368  1  0.323900  0.175900  0.671700  1.0  0.039
  C  C369  1  0.224200  0.241700  0.768800  1.0  0.0299
  C  C370  1  0.137400  0.124500  0.676900  1.0  0.0159
  C  C371  1  0.262900  0.084100  0.608000  1.0  0.0191
  C  C372  1  0.363500  0.248800  0.520700  1.0  -0.0341
  C  C373  1  0.277300  0.362500  0.557800  1.0  0.002
  C  C374  1  0.069700  0.229000  0.808000  1.0  0.019
  C  C375  1  0.977600  0.337600  0.835100  1.0  -0.0128
  C  C376  1  0.319200  0.847600  0.700200  1.0  0.0148
  C  C377  1  0.205100  0.906200  0.795400  1.0  -0.0049
  C  C378  1  0.136000  0.662400  0.736000  1.0  -0.0151
  C  C379  1  0.260900  0.584600  0.667700  1.0  0.0263
  C  C380  1  0.279300  0.794500  0.603800  1.0  0.0233
  C  C381  1  0.356300  0.680100  0.563700  1.0  -0.0102
  C  C382  1  0.450400  0.698500  0.705900  1.0  0.0156
  C  C383  1  0.475700  0.616900  0.637900  1.0  0.0523
  C  C384  1  0.891600  0.323600  0.098100  1.0  0.0211
  C  C385  1  0.926200  0.216000  0.067400  1.0  -0.0463
  C  C386  1  0.979500  0.487100  0.584700  1.0  -0.1021
  C  C387  1  0.092700  0.439000  0.489400  1.0  -0.1588
  C  C388  1  0.205600  0.169400  0.439300  1.0  -0.1511
  C  C389  1  0.319900  0.112600  0.430400  1.0  -0.1552
  C  C390  1  0.371800  0.176600  0.686700  1.0  -0.1902
  C  C391  1  0.268200  0.244600  0.787000  1.0  -0.1748
  C  C392  1  0.150100  0.071700  0.704400  1.0  -0.1647
  C  C393  1  0.281500  0.028500  0.633100  1.0  -0.1806
  C  C394  1  0.411400  0.259500  0.468800  1.0  -0.1297
  C  C395  1  0.328100  0.372400  0.503100  1.0  -0.1592
  C  C396  1  0.044300  0.228000  0.873000  1.0  -0.1772
  C  C397  1  0.950800  0.339400  0.898800  1.0  -0.1925
  C  C398  1  0.308000  0.902700  0.675100  1.0  -0.1251
  C  C399  1  0.190200  0.962300  0.772000  1.0  -0.1656
  C  C400  1  0.115000  0.616300  0.746600  1.0  -0.1696
  C  C401  1  0.242500  0.535100  0.674800  1.0  -0.1527
  C  C402  1  0.276100  0.801800  0.547200  1.0  -0.1314
  C  C403  1  0.351100  0.687000  0.508100  1.0  -0.1924
  C  C404  1  0.507900  0.704700  0.655600  1.0  -0.1511
  C  C405  1  0.534600  0.622000  0.585900  1.0  -0.1591
  C  C406  1  0.918500  0.329400  0.036900  1.0  -0.1385
  C  C407  1  0.958000  0.220700  0.004100  1.0  -0.177
  C  C408  1  0.018800  0.483100  0.519000  1.0  0.0561
  C  C409  1  0.272200  0.111700  0.416000  1.0  0.0782
  C  C410  1  0.347400  0.212000  0.743800  1.0  0.0272
  C  C411  1  0.222100  0.021400  0.683600  1.0  -0.0085
  C  C412  1  0.394100  0.322900  0.458700  1.0  0.0619
  C  C413  1  0.984300  0.283000  0.919100  1.0  0.0794
  C  C414  1  0.241100  0.963200  0.711300  1.0  -1e-04
  C  C415  1  0.168700  0.552000  0.714900  1.0  0.0359
  C  C416  1  0.311900  0.747900  0.500500  1.0  0.0613
  C  C417  1  0.548500  0.669100  0.596500  1.0  0.0947
  C  C418  1  0.954800  0.278100  0.987800  1.0  0.0805
  C  C419  1  0.291900  0.051400  0.381000  1.0  0.0953
  C  C420  1  0.396500  0.217300  0.758500  1.0  0.0207
  C  C421  1  0.152000  0.499800  0.723200  1.0  0.0646
  C  C422  1  0.310300  0.757900  0.439400  1.0  0.0756
  C  C423  1  0.359500  0.011400  0.329100  1.0  -0.1489
  C  C424  1  0.238500  0.032300  0.403000  1.0  -0.135
  C  C425  1  0.375900  0.238000  0.821500  1.0  -0.1422
  C  C426  1  0.464700  0.205000  0.709700  1.0  -0.1896
  C  C427  1  0.085600  0.510100  0.734500  1.0  -0.1521
  C  C428  1  0.203200  0.438400  0.718900  1.0  -0.1593
  C  C429  1  0.368700  0.716000  0.384200  1.0  -0.1712
  C  C430  1  0.250400  0.810200  0.437800  1.0  -0.1596
  C  C431  1  0.375800  0.955800  0.300100  1.0  -0.0369
  C  C432  1  0.254600  0.976600  0.376700  1.0  -0.013
  C  C433  1  0.425400  0.240700  0.833100  1.0  0.0359
  C  C434  1  0.511800  0.213200  0.721200  1.0  -0.0244
  C  C435  1  0.070400  0.460400  0.741200  1.0  0.052
  C  C436  1  0.190300  0.387600  0.722800  1.0  -0.0385
  C  C437  1  0.367800  0.729400  0.326200  1.0  -0.0044
  C  C438  1  0.251200  0.819800  0.382600  1.0  0.0207
  N  N439  1  0.213700  0.845000  0.228600  1.0  0.2724
  N  N440  1  0.232600  0.997400  0.223500  1.0  0.2834
  N  N441  1  0.366900  0.849200  0.060400  1.0  0.3185
  N  N442  1  0.466700  0.907100  0.116700  1.0  0.2434
  N  N443  1  0.447300  0.691800  0.137600  1.0  0.2731
  N  N444  1  0.988200  0.709400  0.359000  1.0  0.2028
  N  N445  1  0.891000  0.157800  0.243900  1.0  0.3139
  N  N446  1  0.264600  0.737000  0.888300  1.0  0.255
  N  N447  1  0.682800  0.426200  0.205700  1.0  0.3097
  N  N448  1  0.914100  0.583800  0.412800  1.0  0.323
  N  N449  1  0.763300  0.783300  0.509800  1.0  0.2574
  N  N450  1  0.747900  0.790700  0.289300  1.0  0.3114
  N  N451  1  0.806500  0.869600  0.369700  1.0  0.2969
  N  N452  1  0.702800  0.699300  0.434600  1.0  0.3047
  N  N453  1  0.966700  0.718000  0.208600  1.0  0.311
  N  N454  1  0.731100  0.150000  0.242400  1.0  0.246
  N  N455  1  0.793200  0.354700  0.300400  1.0  0.2638
  N  N456  1  0.677800  0.267500  0.390900  1.0  0.2399
  N  N457  1  0.563400  0.344600  0.305000  1.0  0.2807
  N  N458  1  0.106000  0.732800  0.886100  1.0  0.2482
  N  N459  1  0.675600  0.062700  0.675600  1.0  0.2534
  N  N460  1  0.509500  0.769100  0.216400  1.0  0.2426
  N  N461  1  0.876800  0.599700  0.266000  1.0  0.2812
  N  N462  1  0.689800  0.219400  0.672800  1.0  0.2867
  N  N463  1  0.786300  0.155000  0.771400  1.0  0.2714
  N  N464  1  0.767400  0.002600  0.776500  1.0  0.2809
  N  N465  1  0.633100  0.150800  0.939600  1.0  0.3162
  N  N466  1  0.533300  0.092900  0.883300  1.0  0.2449
  N  N467  1  0.552700  0.308200  0.862400  1.0  0.2735
  N  N468  1  0.011800  0.290600  0.641000  1.0  0.2055
  N  N469  1  0.109000  0.842200  0.756100  1.0  0.3129
  N  N470  1  0.735400  0.263000  0.111700  1.0  0.2551
  N  N471  1  0.317200  0.573800  0.794300  1.0  0.3102
  N  N472  1  0.085900  0.416200  0.587200  1.0  0.3212
  N  N473  1  0.236700  0.216700  0.490200  1.0  0.256
  N  N474  1  0.252100  0.209300  0.710700  1.0  0.3116
  N  N475  1  0.193500  0.130400  0.630300  1.0  0.2978
  N  N476  1  0.297200  0.300700  0.565400  1.0  0.3035
  N  N477  1  0.033300  0.282000  0.791400  1.0  0.3084
  N  N478  1  0.268900  0.850000  0.757600  1.0  0.244
  N  N479  1  0.206800  0.645300  0.699600  1.0  0.2657
  N  N480  1  0.322200  0.732500  0.609100  1.0  0.2401
  N  N481  1  0.436600  0.655400  0.695000  1.0  0.2771
  N  N482  1  0.894000  0.267200  0.113900  1.0  0.2468
  N  N483  1  0.324400  0.937300  0.324400  1.0  0.254
  N  N484  1  0.490500  0.230900  0.783600  1.0  0.243
  N  N485  1  0.123200  0.400300  0.734000  1.0  0.2795
  N  N486  1  0.310200  0.780600  0.327200  1.0  0.288
  O  O487  1  0.252900  0.874200  0.205500  1.0  -0.6274
  O  O488  1  0.297200  0.959300  0.220100  1.0  -0.6263
  O  O489  1  0.382300  0.869900  0.098100  1.0  -0.6204
  O  O490  1  0.454400  0.872300  0.160800  1.0  -0.6125
  O  O491  1  0.403200  0.752000  0.133200  1.0  -0.6228
  O  O492  1  0.342100  0.879700  0.297200  1.0  -0.6334
  O  O493  1  0.464200  0.761600  0.205000  1.0  -0.6291
  O  O494  1  0.311600  0.790900  0.272200  1.0  -0.6163
  O  O495  1  0.942600  0.686500  0.382300  1.0  -0.6455
  O  O496  1  0.822900  0.181300  0.252800  1.0  -0.6246
  O  O497  1  0.239500  0.716000  0.862000  1.0  -0.6278
  O  O498  1  0.727400  0.383100  0.223800  1.0  -0.6373
  O  O499  1  0.881400  0.612800  0.379800  1.0  -0.6237
  O  O500  1  0.780600  0.733900  0.470500  1.0  -0.6184
  O  O501  1  0.793500  0.790400  0.306000  1.0  -0.621
  O  O502  1  0.821800  0.817200  0.395700  1.0  -0.6236
  O  O503  1  0.747800  0.709800  0.381900  1.0  -0.6222
  O  O504  1  0.948400  0.718700  0.270300  1.0  -0.6313
  O  O505  1  0.887400  0.649500  0.264500  1.0  -0.6343
  O  O506  1  0.720100  0.204400  0.218300  1.0  -0.6334
  O  O507  1  0.773600  0.309800  0.306700  1.0  -0.6145
  O  O508  1  0.666900  0.276500  0.342200  1.0  -0.6245
  O  O509  1  0.622300  0.345300  0.259200  1.0  -0.6142
  O  O510  1  0.865500  0.260700  0.173400  1.0  -0.6377
  O  O511  1  0.747100  0.125800  0.794500  1.0  -0.6251
  O  O512  1  0.702800  0.040700  0.779900  1.0  -0.6249
  O  O513  1  0.617700  0.130100  0.901900  1.0  -0.6212
  O  O514  1  0.545600  0.127700  0.839200  1.0  -0.6129
  O  O515  1  0.596800  0.248000  0.866800  1.0  -0.6238
  O  O516  1  0.657900  0.120300  0.702800  1.0  -0.6334
  O  O517  1  0.535800  0.238400  0.795000  1.0  -0.63
  O  O518  1  0.688400  0.209100  0.727800  1.0  -0.6136
  O  O519  1  0.057400  0.313500  0.617700  1.0  -0.6466
  O  O520  1  0.177100  0.818700  0.747200  1.0  -0.6268
  O  O521  1  0.760500  0.284000  0.138000  1.0  -0.6289
  O  O522  1  0.272600  0.616900  0.776200  1.0  -0.6374
  O  O523  1  0.118600  0.387200  0.620200  1.0  -0.6238
  O  O524  1  0.219400  0.266100  0.529500  1.0  -0.6164
  O  O525  1  0.206500  0.209600  0.694000  1.0  -0.6191
  O  O526  1  0.178200  0.182800  0.604300  1.0  -0.6237
  O  O527  1  0.252200  0.290200  0.618100  1.0  -0.6203
  O  O528  1  0.051600  0.281300  0.729700  1.0  -0.6321
  O  O529  1  0.112600  0.350500  0.735500  1.0  -0.6345
  O  O530  1  0.279900  0.795600  0.781700  1.0  -0.6338
  O  O531  1  0.226400  0.690200  0.693300  1.0  -0.6157
  O  O532  1  0.333100  0.723500  0.657800  1.0  -0.625
  O  O533  1  0.377700  0.654700  0.740800  1.0  -0.613
  O  O534  1  0.134500  0.739300  0.826600  1.0  -0.6362
