# generated using pymatgen
data_DyH32C40(NO)8
_symmetry_space_group_name_H-M   'P 1'
_cell_length_a   24.02400000
_cell_length_b   24.18760000
_cell_length_c   24.39900000
_cell_angle_alpha   84.06700000
_cell_angle_beta   61.94300000
_cell_angle_gamma   61.65100000
_symmetry_Int_Tables_number   1
_chemical_formula_structural   DyH32C40(NO)8
_chemical_formula_sum   'Dy6 H192 C240 N48 O48'
_cell_volume   10878.98116045
_cell_formula_units_Z   6
loop_
 _symmetry_equiv_pos_site_id
 _symmetry_equiv_pos_as_xyz
  1  'x, y, z'
loop_
 _atom_site_type_symbol
 _atom_site_label
 _atom_site_symmetry_multiplicity
 _atom_site_fract_x
 _atom_site_fract_y
 _atom_site_fract_z
 _atom_site_occupancy
 _atom_site_charge
  Dy  Dy1  1  0.351310  0.856290  0.209680  1.0  2.2463
  Dy  Dy2  1  0.845160  0.717220  0.360430  1.0  2.2535
  Dy  Dy3  1  0.742780  0.279760  0.231530  1.0  2.2454
  Dy  Dy4  1  0.648690  0.143710  0.790320  1.0  2.2471
  Dy  Dy5  1  0.154840  0.282780  0.639570  1.0  2.252
  Dy  Dy6  1  0.257220  0.720240  0.768470  1.0  2.2453
  H  H7  1  0.264800  0.779600  0.165600  1.0  0.109
  H  H8  1  0.127200  0.916900  0.314600  1.0  0.1053
  H  H9  1  0.264600  0.010900  0.140100  1.0  0.0995
  H  H10  1  0.164200  0.012400  0.319500  1.0  0.067
  H  H11  1  0.251700  0.921500  0.114000  1.0  0.0787
  H  H12  1  0.457900  0.797700  0.016000  1.0  0.1014
  H  H13  1  0.381400  0.002000  0.182000  1.0  0.0938
  H  H14  1  0.537000  0.841500  0.070300  1.0  0.0744
  H  H15  1  0.358200  0.690600  0.219000  1.0  0.1155
  H  H16  1  0.525500  0.704000  0.079500  1.0  0.1047
  H  H17  1  0.197100  0.730500  0.208700  1.0  0.0763
  H  H18  1  0.068600  0.861700  0.362700  1.0  0.1044
  H  H19  1  0.157700  0.070200  0.138100  1.0  0.0948
  H  H20  1  0.048600  0.073000  0.323700  1.0  0.1118
  H  H21  1  0.222900  0.884300  0.052700  1.0  0.1069
  H  H22  1  0.434900  0.760300  0.945400  1.0  0.104
  H  H23  1  0.404200  0.060300  0.093200  1.0  0.1253
  H  H24  1  0.569700  0.893700  0.978000  1.0  0.105
  H  H25  1  0.438500  0.587900  0.229500  1.0  0.1044
  H  H26  1  0.603800  0.604700  0.085400  1.0  0.1033
  H  H27  1  0.142900  0.678000  0.250400  1.0  0.1147
  H  H28  1  0.996600  0.828200  0.387100  1.0  0.067
  H  H29  1  0.050600  0.062800  0.150900  1.0  0.102
  H  H30  1  0.965000  0.171300  0.310000  1.0  0.105
  H  H31  1  0.208600  0.865600  0.985800  1.0  0.1298
  H  H32  1  0.391900  0.709500  0.926500  1.0  0.104
  H  H33  1  0.654900  0.498500  0.086800  1.0  0.0945
  H  H34  1  0.518200  0.548700  0.272500  1.0  0.1107
  H  H35  1  0.060200  0.634800  0.301300  1.0  0.0941
  H  H36  1  0.918100  0.789700  0.431300  1.0  0.0903
  H  H37  1  0.934700  0.101300  0.164800  1.0  0.0924
  H  H38  1  0.851400  0.210300  0.317300  1.0  0.0708
  H  H39  1  0.173800  0.824100  0.933600  1.0  0.082
  H  H40  1  0.365700  0.661200  0.867200  1.0  0.1118
  H  H41  1  0.738800  0.409100  0.104400  1.0  0.1098
  H  H42  1  0.611400  0.465700  0.290100  1.0  0.0984
  H  H43  1  0.998200  0.539800  0.339800  1.0  0.092
  H  H44  1  0.822400  0.619800  0.502700  1.0  0.0953
  H  H45  1  0.854300  0.737300  0.517200  1.0  0.1172
  H  H46  1  0.672500  0.834000  0.512000  1.0  0.0812
  H  H47  1  0.662700  0.860800  0.363300  1.0  0.1061
  H  H48  1  0.820700  0.740300  0.208100  1.0  0.0859
  H  H49  1  0.912100  0.840600  0.304700  1.0  0.0965
  H  H50  1  0.703200  0.906500  0.424200  1.0  0.0992
  H  H51  1  0.617600  0.805500  0.474700  1.0  0.0925
  H  H52  1  0.753200  0.614600  0.427400  1.0  0.1083
  H  H53  1  0.894800  0.809500  0.220500  1.0  0.096
  H  H54  1  0.033200  0.627600  0.190000  1.0  0.0859
  H  H55  1  0.639400  0.185200  0.319000  1.0  0.1109
  H  H56  1  0.823500  0.098600  0.161300  1.0  0.0796
  H  H57  1  0.886200  0.303500  0.238900  1.0  0.0991
  H  H58  1  0.687300  0.420100  0.355700  1.0  0.0835
  H  H59  1  0.746300  0.172200  0.353500  1.0  0.0758
  H  H60  1  0.592700  0.349400  0.431500  1.0  0.105
  H  H61  1  0.581000  0.263400  0.244200  1.0  0.1097
  H  H62  1  0.525300  0.416500  0.354200  1.0  0.0981
  H  H63  1  0.144000  0.637800  0.869800  1.0  0.0861
  H  H64  1  0.069700  0.827000  0.921900  1.0  0.1089
  H  H65  1  0.065300  0.487200  0.397800  1.0  0.1143
  H  H66  1  0.886600  0.561200  0.556400  1.0  0.1317
  H  H67  1  0.834200  0.822600  0.567300  1.0  0.0832
  H  H68  1  0.637100  0.915400  0.581200  1.0  0.0947
  H  H69  1  0.570900  0.854200  0.345400  1.0  0.1565
  H  H70  1  0.743200  0.738000  0.179000  1.0  0.1149
  H  H71  1  0.889200  0.935700  0.262600  1.0  0.1117
  H  H72  1  0.677800  0.997000  0.382500  1.0  0.0922
  H  H73  1  0.534500  0.790700  0.565100  1.0  0.1002
  H  H74  1  0.671800  0.597800  0.518100  1.0  0.0897
  H  H75  1  0.936700  0.810500  0.114800  1.0  0.0934
  H  H76  1  0.086000  0.627800  0.080500  1.0  0.1086
  H  H77  1  0.663000  0.092200  0.357400  1.0  0.0799
  H  H78  1  0.849300  0.998700  0.197100  1.0  0.1146
  H  H79  1  0.918700  0.384300  0.223900  1.0  0.1152
  H  H80  1  0.712100  0.505100  0.347800  1.0  0.1429
  H  H81  1  0.764300  0.152000  0.446200  1.0  0.1513
  H  H82  1  0.615100  0.340200  0.517200  1.0  0.1121
  H  H83  1  0.487800  0.247800  0.334000  1.0  0.1065
  H  H84  1  0.443600  0.398300  0.435100  1.0  0.0795
  H  H85  1  0.082200  0.634000  0.987400  1.0  0.0891
  H  H86  1  0.017500  0.816600  0.027800  1.0  0.0947
  H  H87  1  0.619100  0.962300  0.676200  1.0  0.0952
  H  H88  1  0.812600  0.940800  0.553800  1.0  0.0916
  H  H89  1  0.659000  0.760600  0.152300  1.0  0.0984
  H  H90  1  0.518600  0.817700  0.338200  1.0  0.1561
  H  H91  1  0.942800  0.449700  0.248800  1.0  0.1065
  H  H92  1  0.734500  0.574300  0.308100  1.0  0.1018
  H  H93  1  0.591200  0.306000  0.608400  1.0  0.1029
  H  H94  1  0.792300  0.155300  0.514900  1.0  0.105
  H  H95  1  0.584900  0.063600  0.728800  1.0  0.0921
  H  H96  1  0.782400  0.033000  0.609400  1.0  0.0581
  H  H97  1  0.573700  0.754200  0.138000  1.0  0.0721
  H  H98  1  0.430000  0.810900  0.315500  1.0  0.0763
  H  H99  1  0.961800  0.540600  0.252800  1.0  0.0958
  H  H100  1  0.755800  0.660500  0.286700  1.0  0.0925
  H  H101  1  0.602600  0.288800  0.700600  1.0  0.0891
  H  H102  1  0.790600  0.141800  0.609100  1.0  0.0637
  H  H103  1  0.735200  0.220400  0.834400  1.0  0.1093
  H  H104  1  0.872800  0.083100  0.685400  1.0  0.1047
  H  H105  1  0.735400  0.989100  0.859900  1.0  0.0998
  H  H106  1  0.835800  0.987600  0.680500  1.0  0.0667
  H  H107  1  0.748300  0.078500  0.886000  1.0  0.0786
  H  H108  1  0.542100  0.202300  0.984000  1.0  0.1013
  H  H109  1  0.618600  0.998000  0.818000  1.0  0.0939
  H  H110  1  0.463000  0.158500  0.929700  1.0  0.0745
  H  H111  1  0.641800  0.309400  0.781000  1.0  0.1158
  H  H112  1  0.474500  0.296000  0.920500  1.0  0.1034
  H  H113  1  0.802900  0.269500  0.791300  1.0  0.0774
  H  H114  1  0.931400  0.138300  0.637300  1.0  0.1039
  H  H115  1  0.842300  0.929800  0.861900  1.0  0.0941
  H  H116  1  0.951400  0.927000  0.676300  1.0  0.1113
  H  H117  1  0.777100  0.115700  0.947300  1.0  0.1076
  H  H118  1  0.565100  0.239700  0.054600  1.0  0.1043
  H  H119  1  0.595800  0.939700  0.906800  1.0  0.1264
  H  H120  1  0.430300  0.106300  0.022000  1.0  0.1056
  H  H121  1  0.561500  0.412100  0.770500  1.0  0.104
  H  H122  1  0.396200  0.395300  0.914600  1.0  0.1035
  H  H123  1  0.857100  0.322000  0.749600  1.0  0.1146
  H  H124  1  0.003400  0.171800  0.612900  1.0  0.0657
  H  H125  1  0.949400  0.937200  0.849100  1.0  0.1014
  H  H126  1  0.035000  0.828700  0.690000  1.0  0.1048
  H  H127  1  0.791400  0.134400  0.014200  1.0  0.1302
  H  H128  1  0.608100  0.290500  0.073500  1.0  0.1042
  H  H129  1  0.345100  0.501500  0.913200  1.0  0.0946
  H  H130  1  0.481800  0.451300  0.727500  1.0  0.1112
  H  H131  1  0.939800  0.365200  0.698700  1.0  0.0939
  H  H132  1  0.081900  0.210300  0.568700  1.0  0.0901
  H  H133  1  0.065300  0.898700  0.835200  1.0  0.0925
  H  H134  1  0.148600  0.789700  0.682700  1.0  0.0709
  H  H135  1  0.826200  0.175900  0.066400  1.0  0.0816
  H  H136  1  0.634300  0.338800  0.132800  1.0  0.1132
  H  H137  1  0.261200  0.590900  0.895600  1.0  0.1103
  H  H138  1  0.388600  0.534300  0.709900  1.0  0.0986
  H  H139  1  0.001800  0.460200  0.660200  1.0  0.0931
  H  H140  1  0.177600  0.380200  0.497300  1.0  0.0949
  H  H141  1  0.145700  0.262700  0.482800  1.0  0.1172
  H  H142  1  0.327500  0.166000  0.488000  1.0  0.0805
  H  H143  1  0.337300  0.139200  0.636700  1.0  0.1055
  H  H144  1  0.179300  0.259700  0.791900  1.0  0.0866
  H  H145  1  0.087900  0.159400  0.695300  1.0  0.0962
  H  H146  1  0.296800  0.093500  0.575800  1.0  0.0999
  H  H147  1  0.382400  0.194500  0.525300  1.0  0.0931
  H  H148  1  0.246800  0.385400  0.572600  1.0  0.1085
  H  H149  1  0.105200  0.190500  0.779500  1.0  0.0966
  H  H150  1  0.966800  0.372400  0.810000  1.0  0.0867
  H  H151  1  0.360600  0.814800  0.681000  1.0  0.1114
  H  H152  1  0.176500  0.901400  0.838700  1.0  0.0797
  H  H153  1  0.113800  0.696500  0.761100  1.0  0.1012
  H  H154  1  0.312700  0.579900  0.644300  1.0  0.0842
  H  H155  1  0.253700  0.827800  0.646500  1.0  0.0756
  H  H156  1  0.407300  0.650600  0.568500  1.0  0.1056
  H  H157  1  0.419000  0.736600  0.755800  1.0  0.1099
  H  H158  1  0.474700  0.583500  0.645800  1.0  0.0984
  H  H159  1  0.856000  0.362200  0.130200  1.0  0.086
  H  H160  1  0.930300  0.173000  0.078100  1.0  0.1086
  H  H161  1  0.934700  0.512800  0.602200  1.0  0.1156
  H  H162  1  0.113400  0.438800  0.443600  1.0  0.1289
  H  H163  1  0.165800  0.177400  0.432700  1.0  0.083
  H  H164  1  0.362900  0.084600  0.418800  1.0  0.0939
  H  H165  1  0.429100  0.145800  0.654600  1.0  0.1544
  H  H166  1  0.256800  0.262000  0.821000  1.0  0.1147
  H  H167  1  0.110800  0.064300  0.737400  1.0  0.1121
  H  H168  1  0.322200  0.003000  0.617500  1.0  0.0926
  H  H169  1  0.465500  0.209300  0.434900  1.0  0.0996
  H  H170  1  0.328200  0.402200  0.481900  1.0  0.0897
  H  H171  1  0.063300  0.189500  0.885200  1.0  0.0934
  H  H172  1  0.914000  0.372200  0.919500  1.0  0.1079
  H  H173  1  0.337000  0.907800  0.642600  1.0  0.0813
  H  H174  1  0.150700  0.001300  0.802900  1.0  0.1154
  H  H175  1  0.081300  0.615700  0.776100  1.0  0.1144
  H  H176  1  0.287900  0.494900  0.652200  1.0  0.1403
  H  H177  1  0.235700  0.848000  0.553800  1.0  0.15
  H  H178  1  0.384900  0.659800  0.482800  1.0  0.1109
  H  H179  1  0.512200  0.752200  0.666000  1.0  0.1078
  H  H180  1  0.556400  0.601700  0.564900  1.0  0.0787
  H  H181  1  0.917800  0.366000  0.012600  1.0  0.0893
  H  H182  1  0.982500  0.183400  0.972200  1.0  0.0946
  H  H183  1  0.380900  0.037700  0.323800  1.0  0.0959
  H  H184  1  0.187400  0.059200  0.446200  1.0  0.0915
  H  H185  1  0.341000  0.239400  0.847700  1.0  0.0984
  H  H186  1  0.481400  0.182300  0.661800  1.0  0.154
  H  H187  1  0.057200  0.550300  0.751200  1.0  0.1073
  H  H188  1  0.265500  0.425700  0.691900  1.0  0.1015
  H  H189  1  0.408800  0.694000  0.391600  1.0  0.1027
  H  H190  1  0.207700  0.844700  0.485100  1.0  0.1047
  H  H191  1  0.415100  0.936400  0.271200  1.0  0.0922
  H  H192  1  0.217600  0.967000  0.390600  1.0  0.056
  H  H193  1  0.426300  0.245800  0.862000  1.0  0.0721
  H  H194  1  0.570000  0.189100  0.684500  1.0  0.0754
  H  H195  1  0.038200  0.459400  0.747200  1.0  0.0965
  H  H196  1  0.244200  0.339500  0.713300  1.0  0.0925
  H  H197  1  0.397400  0.711200  0.299400  1.0  0.0889
  H  H198  1  0.209400  0.858200  0.390900  1.0  0.0643
  C  C199  1  0.224000  0.796600  0.206300  1.0  -0.0114
  C  C200  1  0.144300  0.876200  0.294600  1.0  0.0318
  C  C201  1  0.220500  0.023000  0.177900  1.0  0.0045
  C  C202  1  0.162300  0.023600  0.281700  1.0  0.0235
  C  C203  1  0.289100  0.887200  0.080600  1.0  0.0215
  C  C204  1  0.410200  0.815100  0.022500  1.0  0.0203
  C  C205  1  0.417300  0.981000  0.140300  1.0  0.0456
  C  C206  1  0.509800  0.886300  0.073800  1.0  -0.011
  C  C207  1  0.408900  0.672000  0.192800  1.0  -0.0081
  C  C208  1  0.507900  0.680100  0.109600  1.0  0.0253
  C  C209  1  0.182700  0.768100  0.232400  1.0  -0.1147
  C  C210  1  0.107400  0.845800  0.320900  1.0  -0.1588
  C  C211  1  0.156600  0.057800  0.176700  1.0  -0.1854
  C  C212  1  0.091600  0.060500  0.284700  1.0  -0.1906
  C  C213  1  0.271800  0.865600  0.043700  1.0  -0.1931
  C  C214  1  0.396300  0.791900  0.980900  1.0  -0.1657
  C  C215  1  0.433000  0.015400  0.086600  1.0  -0.1271
  C  C216  1  0.531000  0.917100  0.018000  1.0  -0.1657
  C  C217  1  0.456500  0.612100  0.200300  1.0  -0.0971
  C  C218  1  0.553800  0.623600  0.114600  1.0  -0.1691
  C  C219  1  0.124400  0.787700  0.287700  1.0  -0.0024
  C  C220  1  0.088600  0.076300  0.231400  1.0  0.0905
  C  C221  1  0.325400  0.816500  0.993500  1.0  -0.0043
  C  C222  1  0.487100  0.985300  0.028400  1.0  -0.0549
  C  C223  1  0.526800  0.590900  0.165300  1.0  0.0578
  C  C224  1  0.075000  0.760400  0.319000  1.0  0.025
  C  C225  1  0.019400  0.110300  0.232500  1.0  0.1271
  C  C226  1  0.304800  0.790200  0.958200  1.0  0.0844
  C  C227  1  0.580600  0.534000  0.176900  1.0  0.041
  C  C228  1  0.098000  0.700100  0.287600  1.0  -0.1237
  C  C229  1  0.011100  0.788100  0.367900  1.0  -0.0632
  C  C230  1  0.009900  0.092200  0.187300  1.0  -0.1917
  C  C231  1  0.961200  0.155000  0.278900  1.0  -0.1758
  C  C232  1  0.240600  0.824200  0.961900  1.0  -0.1709
  C  C233  1  0.347100  0.733200  0.926400  1.0  -0.1152
  C  C234  1  0.644500  0.491500  0.128800  1.0  -0.1391
  C  C235  1  0.564500  0.522500  0.238200  1.0  -0.1742
  C  C236  1  0.047200  0.675800  0.317200  1.0  0.0213
  C  C237  1  0.963100  0.766600  0.394600  1.0  0.0469
  C  C238  1  0.940500  0.116800  0.194800  1.0  0.0118
  C  C239  1  0.892800  0.178900  0.282700  1.0  0.0246
  C  C240  1  0.220200  0.799100  0.930500  1.0  0.0487
  C  C241  1  0.332700  0.702600  0.891200  1.0  0.0544
  C  C242  1  0.694800  0.438500  0.138700  1.0  0.0101
  C  C243  1  0.618700  0.470700  0.248500  1.0  -0.0074
  C  C244  1  0.975000  0.545800  0.384000  1.0  0.0371
  C  C245  1  0.872700  0.590900  0.479800  1.0  0.028
  C  C246  1  0.810900  0.776300  0.528700  1.0  -0.0366
  C  C247  1  0.703400  0.830900  0.527400  1.0  0.0032
  C  C248  1  0.676800  0.833100  0.328800  1.0  0.0768
  C  C249  1  0.770200  0.762800  0.235800  1.0  0.0249
  C  C250  1  0.864100  0.874300  0.319300  1.0  -0.0281
  C  C251  1  0.740600  0.911900  0.390200  1.0  0.0416
  C  C252  1  0.627100  0.763700  0.483400  1.0  0.0114
  C  C253  1  0.708100  0.649000  0.455700  1.0  0.0058
  C  C254  1  0.933800  0.771700  0.192000  1.0  -0.0127
  C  C255  1  0.015000  0.666100  0.174200  1.0  0.0331
  C  C256  1  0.682600  0.147300  0.294300  1.0  -0.0114
  C  C257  1  0.790300  0.096200  0.201700  1.0  0.0161
  C  C258  1  0.850900  0.345700  0.260100  1.0  -0.0633
  C  C259  1  0.734800  0.413400  0.328600  1.0  -0.0059
  C  C260  1  0.720300  0.205600  0.387500  1.0  0.0099
  C  C261  1  0.630000  0.311300  0.433100  1.0  0.0184
  C  C262  1  0.553500  0.288700  0.284400  1.0  0.07
  C  C263  1  0.520500  0.380400  0.350700  1.0  0.0213
  C  C264  1  0.118100  0.673400  0.901500  1.0  0.0486
  C  C265  1  0.072600  0.787600  0.934600  1.0  0.0375
  C  C266  1  0.014300  0.512700  0.419900  1.0  -0.1504
  C  C267  1  0.911800  0.556000  0.511800  1.0  -0.1437
  C  C268  1  0.797800  0.825600  0.559300  1.0  -0.1437
  C  C269  1  0.684600  0.880400  0.564800  1.0  -0.1667
  C  C270  1  0.621100  0.832100  0.316500  1.0  -0.1406
  C  C271  1  0.724500  0.761600  0.218100  1.0  -0.1713
  C  C272  1  0.850800  0.929000  0.292900  1.0  -0.1323
  C  C273  1  0.726600  0.964200  0.364200  1.0  -0.0997
  C  C274  1  0.578400  0.755000  0.537200  1.0  -0.1378
  C  C275  1  0.660200  0.639800  0.509100  1.0  -0.1586
  C  C276  1  0.958400  0.771800  0.128800  1.0  -0.2057
  C  C277  1  0.044700  0.665100  0.108400  1.0  -0.1863
  C  C278  1  0.697900  0.092400  0.316900  1.0  -0.1112
  C  C279  1  0.807700  0.036900  0.223100  1.0  -0.1935
  C  C280  1  0.870800  0.392800  0.252600  1.0  -0.1762
  C  C281  1  0.749700  0.464000  0.325000  1.0  -0.1645
  C  C282  1  0.730800  0.192400  0.443200  1.0  -0.129
  C  C283  1  0.640100  0.304600  0.485800  1.0  -0.1777
  C  C284  1  0.497600  0.280600  0.337400  1.0  -0.0743
  C  C285  1  0.472000  0.370300  0.396500  1.0  -0.1277
  C  C286  1  0.080800  0.672700  0.973800  1.0  -0.1223
  C  C287  1  0.042600  0.780200  0.997300  1.0  -0.1412
  C  C288  1  0.978300  0.518400  0.483700  1.0  0.0626
  C  C289  1  0.734300  0.881700  0.580500  1.0  0.0214
  C  C290  1  0.649700  0.795400  0.258200  1.0  0.0412
  C  C291  1  0.777200  0.975700  0.312300  1.0  0.0206
  C  C292  1  0.593400  0.691300  0.551800  1.0  0.0045
  C  C293  1  0.012700  0.719200  0.084900  1.0  0.0732
  C  C294  1  0.758500  0.038000  0.286700  1.0  0.0029
  C  C295  1  0.817800  0.453200  0.288700  1.0  -0.0332
  C  C296  1  0.687100  0.244800  0.491800  1.0  -0.0354
  C  C297  1  0.458400  0.321900  0.393400  1.0  0.0497
  C  C298  1  0.046000  0.724000  0.019300  1.0  0.0667
  C  C299  1  0.722400  0.940700  0.611100  1.0  0.0233
  C  C300  1  0.599500  0.790900  0.243300  1.0  0.0231
  C  C301  1  0.836000  0.511800  0.280400  1.0  0.0068
  C  C302  1  0.690900  0.237200  0.552000  1.0  0.058
  C  C303  1  0.652900  0.977400  0.662000  1.0  -0.1434
  C  C304  1  0.767000  0.962700  0.590200  1.0  -0.1854
  C  C305  1  0.613200  0.771700  0.187600  1.0  -0.1801
  C  C306  1  0.530400  0.805400  0.296800  1.0  -0.137
  C  C307  1  0.905500  0.492700  0.261200  1.0  -0.1545
  C  C308  1  0.781300  0.568900  0.293400  1.0  -0.1351
  C  C309  1  0.634600  0.273000  0.606900  1.0  -0.1754
  C  C310  1  0.752400  0.183800  0.552200  1.0  -0.1928
  C  C311  1  0.630900  0.038300  0.693900  1.0  0.0377
  C  C312  1  0.747000  0.020100  0.622400  1.0  0.0691
  C  C313  1  0.561500  0.767100  0.179300  1.0  0.0398
  C  C314  1  0.477300  0.799800  0.282700  1.0  0.051
  C  C315  1  0.915800  0.547100  0.262100  1.0  0.0442
  C  C316  1  0.791600  0.619500  0.285800  1.0  0.0495
  C  C317  1  0.640400  0.261100  0.662200  1.0  -0.0266
  C  C318  1  0.750000  0.176500  0.607800  1.0  0.068
  C  C319  1  0.776000  0.203400  0.793700  1.0  -0.0114
  C  C320  1  0.855700  0.123800  0.705400  1.0  0.0326
  C  C321  1  0.779500  0.977000  0.822100  1.0  0.0068
  C  C322  1  0.837700  0.976400  0.718300  1.0  0.0211
  C  C323  1  0.710900  0.112800  0.919400  1.0  0.0212
  C  C324  1  0.589800  0.184900  0.977500  1.0  0.0214
  C  C325  1  0.582700  0.019000  0.859700  1.0  0.0441
  C  C326  1  0.490200  0.113700  0.926200  1.0  -0.0086
  C  C327  1  0.591100  0.328000  0.807200  1.0  -0.0082
  C  C328  1  0.492100  0.319900  0.890400  1.0  0.0207
  C  C329  1  0.817300  0.231900  0.767600  1.0  -0.1146
  C  C330  1  0.892600  0.154200  0.679100  1.0  -0.1568
  C  C331  1  0.843400  0.942200  0.823300  1.0  -0.1836
  C  C332  1  0.908400  0.939500  0.715300  1.0  -0.188
  C  C333  1  0.728200  0.134400  0.956300  1.0  -0.1941
  C  C334  1  0.603700  0.208100  0.019100  1.0  -0.167
  C  C335  1  0.567000  0.984600  0.913400  1.0  -0.1285
  C  C336  1  0.469000  0.082900  0.982000  1.0  -0.1671
  C  C337  1  0.543500  0.387900  0.799700  1.0  -0.0986
  C  C338  1  0.446200  0.376400  0.885400  1.0  -0.1702
  C  C339  1  0.875600  0.212300  0.712300  1.0  -0.0006
  C  C340  1  0.911400  0.923700  0.768600  1.0  0.0899
  C  C341  1  0.674600  0.183500  0.006500  1.0  -0.0045
  C  C342  1  0.512900  0.014700  0.971600  1.0  -0.0545
  C  C343  1  0.473200  0.409100  0.834700  1.0  0.0582
  C  C344  1  0.925000  0.239600  0.681000  1.0  0.0237
  C  C345  1  0.980600  0.889700  0.767500  1.0  0.1258
  C  C346  1  0.695200  0.209800  0.041800  1.0  0.0852
  C  C347  1  0.419400  0.466000  0.823100  1.0  0.0405
  C  C348  1  0.902000  0.299900  0.712400  1.0  -0.1218
  C  C349  1  0.988900  0.211900  0.632100  1.0  -0.0664
  C  C350  1  0.990100  0.907800  0.812700  1.0  -0.1919
  C  C351  1  0.038800  0.845000  0.721100  1.0  -0.1761
  C  C352  1  0.759400  0.175800  0.038100  1.0  -0.1714
  C  C353  1  0.652900  0.266800  0.073600  1.0  -0.1143
  C  C354  1  0.355500  0.508500  0.871200  1.0  -0.1392
  C  C355  1  0.435500  0.477500  0.761800  1.0  -0.1736
  C  C356  1  0.952800  0.324200  0.682800  1.0  0.022
  C  C357  1  0.036900  0.233400  0.605400  1.0  0.0466
  C  C358  1  0.059500  0.883200  0.805200  1.0  0.0121
  C  C359  1  0.107200  0.821100  0.717300  1.0  0.0183
  C  C360  1  0.779800  0.200900  0.069500  1.0  0.0488
  C  C361  1  0.667300  0.297400  0.108800  1.0  0.0534
  C  C362  1  0.305200  0.561500  0.861300  1.0  0.0087
  C  C363  1  0.381300  0.529300  0.751500  1.0  -0.0074
  C  C364  1  0.025000  0.454200  0.616000  1.0  0.0387
  C  C365  1  0.127300  0.409100  0.520200  1.0  0.0273
  C  C366  1  0.189100  0.223700  0.471300  1.0  -0.037
  C  C367  1  0.296600  0.169100  0.472600  1.0  0.006
  C  C368  1  0.323200  0.166900  0.671200  1.0  0.0752
  C  C369  1  0.229800  0.237200  0.764200  1.0  0.0261
  C  C370  1  0.135900  0.125700  0.680700  1.0  -0.0296
  C  C371  1  0.259400  0.088100  0.609800  1.0  0.0451
  C  C372  1  0.372900  0.236300  0.516600  1.0  0.01
  C  C373  1  0.291900  0.351000  0.544300  1.0  0.0037
  C  C374  1  0.066200  0.228300  0.808000  1.0  -0.0113
  C  C375  1  0.985000  0.333900  0.825800  1.0  0.0331
  C  C376  1  0.317400  0.852700  0.705700  1.0  -0.0129
  C  C377  1  0.209700  0.903800  0.798300  1.0  0.0181
  C  C378  1  0.149100  0.654300  0.739900  1.0  -0.0642
  C  C379  1  0.265200  0.586600  0.671400  1.0  -0.0074
  C  C380  1  0.279700  0.794400  0.612500  1.0  0.0104
  C  C381  1  0.370000  0.688700  0.566900  1.0  0.0199
  C  C382  1  0.446500  0.711300  0.715600  1.0  0.0707
  C  C383  1  0.479500  0.619600  0.649300  1.0  0.0197
  C  C384  1  0.881900  0.326600  0.098500  1.0  0.0512
  C  C385  1  0.927400  0.212400  0.065400  1.0  0.0391
  C  C386  1  0.985700  0.487300  0.580100  1.0  -0.1472
  C  C387  1  0.088200  0.444000  0.488200  1.0  -0.1408
  C  C388  1  0.202200  0.174400  0.440700  1.0  -0.1431
  C  C389  1  0.315400  0.119600  0.435200  1.0  -0.1639
  C  C390  1  0.378900  0.167900  0.683500  1.0  -0.1406
  C  C391  1  0.275500  0.238400  0.781900  1.0  -0.1695
  C  C392  1  0.149200  0.071000  0.707100  1.0  -0.1323
  C  C393  1  0.273400  0.035800  0.635800  1.0  -0.1001
  C  C394  1  0.421600  0.245000  0.462800  1.0  -0.1378
  C  C395  1  0.339800  0.360200  0.490900  1.0  -0.1587
  C  C396  1  0.041600  0.228200  0.871200  1.0  -0.2067
  C  C397  1  0.955300  0.334900  0.891600  1.0  -0.1864
  C  C398  1  0.302100  0.907600  0.683100  1.0  -0.1104
  C  C399  1  0.192300  0.963100  0.776900  1.0  -0.194
  C  C400  1  0.129200  0.607200  0.747400  1.0  -0.1764
  C  C401  1  0.250300  0.536000  0.675000  1.0  -0.1645
  C  C402  1  0.269200  0.807600  0.556800  1.0  -0.1273
  C  C403  1  0.359900  0.695400  0.514200  1.0  -0.1779
  C  C404  1  0.502400  0.719400  0.662600  1.0  -0.0759
  C  C405  1  0.528000  0.629700  0.603500  1.0  -0.1266
  C  C406  1  0.919200  0.327300  0.026200  1.0  -0.1206
  C  C407  1  0.957400  0.219800  0.002700  1.0  -0.1404
  C  C408  1  0.021700  0.481600  0.516300  1.0  0.0653
  C  C409  1  0.265700  0.118300  0.419500  1.0  0.0211
  C  C410  1  0.350300  0.204600  0.741800  1.0  0.0413
  C  C411  1  0.222800  0.024300  0.687700  1.0  0.0203
  C  C412  1  0.406600  0.308700  0.448200  1.0  0.0056
  C  C413  1  0.987300  0.280800  0.915100  1.0  0.0737
  C  C414  1  0.241500  0.962000  0.713300  1.0  0.0035
  C  C415  1  0.182200  0.546800  0.711300  1.0  -0.0338
  C  C416  1  0.312900  0.755200  0.508200  1.0  -0.0346
  C  C417  1  0.541600  0.678100  0.606600  1.0  0.0498
  C  C418  1  0.954000  0.276000  0.980700  1.0  0.0664
  C  C419  1  0.277600  0.059300  0.388900  1.0  0.0225
  C  C420  1  0.400500  0.209100  0.756700  1.0  0.0231
  C  C421  1  0.164000  0.488200  0.719600  1.0  0.006
  C  C422  1  0.309100  0.762800  0.448000  1.0  0.058
  C  C423  1  0.347100  0.022600  0.338000  1.0  -0.1399
  C  C424  1  0.233000  0.037300  0.409800  1.0  -0.1854
  C  C425  1  0.386800  0.228300  0.812400  1.0  -0.1824
  C  C426  1  0.469600  0.194600  0.703200  1.0  -0.1356
  C  C427  1  0.094500  0.507300  0.738800  1.0  -0.1534
  C  C428  1  0.218700  0.431100  0.706600  1.0  -0.1358
  C  C429  1  0.365400  0.727000  0.393100  1.0  -0.1769
  C  C430  1  0.247600  0.816200  0.447800  1.0  -0.1922
  C  C431  1  0.369100  0.961700  0.306100  1.0  0.0385
  C  C432  1  0.253000  0.979900  0.377600  1.0  0.0662
  C  C433  1  0.438500  0.232900  0.820700  1.0  0.0442
  C  C434  1  0.522700  0.200200  0.717300  1.0  0.0539
  C  C435  1  0.084200  0.452900  0.737900  1.0  0.046
  C  C436  1  0.208400  0.380500  0.714200  1.0  0.0485
  C  C437  1  0.359600  0.738900  0.337800  1.0  -0.0304
  C  C438  1  0.250000  0.823500  0.392200  1.0  0.066
  N  N439  1  0.206500  0.850300  0.239300  1.0  0.1847
  N  N440  1  0.221700  0.005800  0.230300  1.0  0.2182
  N  N441  1  0.354300  0.862100  0.071100  1.0  0.1782
  N  N442  1  0.457200  0.917900  0.125900  1.0  0.2247
  N  N443  1  0.438600  0.702800  0.145900  1.0  0.182
  N  N444  1  0.982600  0.710600  0.366400  1.0  0.2472
  N  N445  1  0.884700  0.159700  0.241000  1.0  0.2523
  N  N446  1  0.262600  0.742000  0.896700  1.0  0.0976
  N  N447  1  0.679200  0.429500  0.200300  1.0  0.2378
  N  N448  1  0.906900  0.583000  0.417900  1.0  0.1817
  N  N449  1  0.760200  0.781700  0.513200  1.0  0.1339
  N  N450  1  0.746600  0.793900  0.289600  1.0  0.275
  N  N451  1  0.806900  0.868700  0.367600  1.0  0.1062
  N  N452  1  0.686500  0.714900  0.444000  1.0  0.0922
  N  N453  1  0.963600  0.719400  0.214300  1.0  0.3253
  N  N454  1  0.730200  0.147900  0.235200  1.0  0.2276
  N  N455  1  0.783400  0.360000  0.296600  1.0  0.2375
  N  N456  1  0.675000  0.263300  0.384200  1.0  0.2658
  N  N457  1  0.563700  0.338100  0.298000  1.0  -0.0093
  N  N458  1  0.107600  0.733200  0.891000  1.0  0.1154
  N  N459  1  0.685800  0.054600  0.666667  1.0  0.2061
  N  N460  1  0.497600  0.779600  0.225000  1.0  0.2779
  N  N461  1  0.859000  0.608100  0.276400  1.0  0.1242
  N  N462  1  0.696300  0.213200  0.661100  1.0  0.1846
  N  N463  1  0.793500  0.149700  0.760700  1.0  0.1802
  N  N464  1  0.778300  0.994200  0.769700  1.0  0.2128
  N  N465  1  0.645700  0.137900  0.928900  1.0  0.1793
  N  N466  1  0.542800  0.082100  0.874100  1.0  0.2239
  N  N467  1  0.561400  0.297200  0.854100  1.0  0.1845
  N  N468  1  0.017400  0.289400  0.633600  1.0  0.2482
  N  N469  1  0.115300  0.840300  0.759000  1.0  0.2512
  N  N470  1  0.737400  0.258000  0.103300  1.0  0.0974
  N  N471  1  0.320800  0.570500  0.799700  1.0  0.2379
  N  N472  1  0.093100  0.417000  0.582100  1.0  0.1825
  N  N473  1  0.239800  0.218300  0.486800  1.0  0.1343
  N  N474  1  0.253400  0.206100  0.710400  1.0  0.2737
  N  N475  1  0.193100  0.131300  0.632400  1.0  0.1071
  N  N476  1  0.313500  0.285100  0.556000  1.0  0.0918
  N  N477  1  0.036400  0.280600  0.785700  1.0  0.3225
  N  N478  1  0.269800  0.852100  0.764800  1.0  0.2283
  N  N479  1  0.216600  0.640000  0.703400  1.0  0.2416
  N  N480  1  0.325000  0.736700  0.615800  1.0  0.2645
  N  N481  1  0.436300  0.661900  0.702000  1.0  -0.011
  N  N482  1  0.892400  0.266800  0.109000  1.0  0.1171
  N  N483  1  0.314200  0.945400  0.333333  1.0  0.2082
  N  N484  1  0.502400  0.220400  0.775000  1.0  0.2785
  N  N485  1  0.141000  0.391900  0.723600  1.0  0.1252
  N  N486  1  0.303700  0.786800  0.338900  1.0  0.1837
  O  O487  1  0.245300  0.880000  0.210500  1.0  -0.6372
  O  O488  1  0.283800  0.969000  0.228100  1.0  -0.6308
  O  O489  1  0.370200  0.882200  0.107900  1.0  -0.6331
  O  O490  1  0.439400  0.886800  0.174900  1.0  -0.612
  O  O491  1  0.390000  0.763200  0.145600  1.0  -0.6537
  O  O492  1  0.330100  0.891300  0.306300  1.0  -0.6058
  O  O493  1  0.453000  0.771700  0.214500  1.0  -0.6397
  O  O494  1  0.301300  0.798000  0.283500  1.0  -0.6547
  O  O495  1  0.937900  0.686800  0.387500  1.0  -0.6374
  O  O496  1  0.820000  0.183600  0.245300  1.0  -0.6191
  O  O497  1  0.241300  0.715100  0.871200  1.0  -0.6512
  O  O498  1  0.725500  0.382000  0.214000  1.0  -0.6256
  O  O499  1  0.870900  0.614300  0.384300  1.0  -0.6457
  O  O500  1  0.780300  0.731800  0.473600  1.0  -0.6443
  O  O501  1  0.792600  0.794000  0.307100  1.0  -0.6365
  O  O502  1  0.824000  0.812500  0.396500  1.0  -0.6498
  O  O503  1  0.736000  0.720600  0.390800  1.0  -0.6495
  O  O504  1  0.942100  0.720600  0.275200  1.0  -0.6405
  O  O505  1  0.871200  0.656800  0.274100  1.0  -0.6456
  O  O506  1  0.717500  0.202500  0.212800  1.0  -0.6329
  O  O507  1  0.768700  0.309500  0.301800  1.0  -0.6458
  O  O508  1  0.664800  0.274200  0.333100  1.0  -0.6363
  O  O509  1  0.623300  0.338100  0.246200  1.0  -0.6684
  O  O510  1  0.861400  0.264600  0.168300  1.0  -0.6504
  O  O511  1  0.754700  0.120000  0.789500  1.0  -0.6375
  O  O512  1  0.716200  0.031000  0.771900  1.0  -0.6309
  O  O513  1  0.629800  0.117800  0.892100  1.0  -0.633
  O  O514  1  0.560600  0.113200  0.825100  1.0  -0.6119
  O  O515  1  0.610000  0.236800  0.854400  1.0  -0.6538
  O  O516  1  0.669900  0.108700  0.693700  1.0  -0.6065
  O  O517  1  0.547000  0.228300  0.785500  1.0  -0.6391
  O  O518  1  0.698700  0.202000  0.716500  1.0  -0.6549
  O  O519  1  0.062100  0.313200  0.612500  1.0  -0.6378
  O  O520  1  0.180000  0.816400  0.754700  1.0  -0.6201
  O  O521  1  0.758700  0.284900  0.128800  1.0  -0.649
  O  O522  1  0.274500  0.618000  0.786000  1.0  -0.6267
  O  O523  1  0.129100  0.385700  0.615700  1.0  -0.6462
  O  O524  1  0.219700  0.268200  0.526400  1.0  -0.6431
  O  O525  1  0.207400  0.206000  0.692900  1.0  -0.6348
  O  O526  1  0.176000  0.187500  0.603500  1.0  -0.6506
  O  O527  1  0.264000  0.279400  0.609200  1.0  -0.6472
  O  O528  1  0.057900  0.279400  0.724800  1.0  -0.6399
  O  O529  1  0.128800  0.343200  0.725900  1.0  -0.6464
  O  O530  1  0.282500  0.797500  0.787200  1.0  -0.6331
  O  O531  1  0.231300  0.690500  0.698200  1.0  -0.646
  O  O532  1  0.335200  0.725800  0.666900  1.0  -0.6364
  O  O533  1  0.376700  0.661900  0.753800  1.0  -0.6666
  O  O534  1  0.138600  0.735400  0.831700  1.0  -0.6515
