# generated using pymatgen
data_TbH4C8NO7
_symmetry_space_group_name_H-M   'P 1'
_cell_length_a   10.54540000
_cell_length_b   17.59860000
_cell_length_c   19.99640000
_cell_angle_alpha   90.00000000
_cell_angle_beta   90.00000000
_cell_angle_gamma   91.28300000
_symmetry_Int_Tables_number   1
_chemical_formula_structural   TbH4C8NO7
_chemical_formula_sum   'Tb8 H32 C64 N8 O56'
_cell_volume   3710.08706140
_cell_formula_units_Z   8
loop_
 _symmetry_equiv_pos_site_id
 _symmetry_equiv_pos_as_xyz
  1  'x, y, z'
loop_
 _atom_site_type_symbol
 _atom_site_label
 _atom_site_symmetry_multiplicity
 _atom_site_fract_x
 _atom_site_fract_y
 _atom_site_fract_z
 _atom_site_occupancy
 _atom_site_charge
  Tb  Tb1  1  0.320930  0.999960  0.265300  1.0  2.2655
  Tb  Tb2  1  0.253440  0.492200  0.018360  1.0  2.2639
  Tb  Tb3  1  0.179070  0.000040  0.765300  1.0  2.2657
  Tb  Tb4  1  0.246560  0.507800  0.518360  1.0  2.2638
  Tb  Tb5  1  0.679070  0.000040  0.734700  1.0  2.2609
  Tb  Tb6  1  0.746560  0.507800  0.981640  1.0  2.2575
  Tb  Tb7  1  0.820930  0.999960  0.234700  1.0  2.2606
  Tb  Tb8  1  0.753440  0.492200  0.481640  1.0  2.2578
  H  H9  1  0.360200  0.201400  0.174700  1.0  0.1161
  H  H10  1  0.344200  0.301000  0.103300  1.0  0.1194
  H  H11  1  0.713700  0.283400  0.053000  1.0  0.1101
  H  H12  1  0.726400  0.177700  0.121000  1.0  0.118
  H  H13  1  0.211800  0.670300  0.100900  1.0  0.1258
  H  H14  1  0.243200  0.786800  0.156700  1.0  0.1071
  H  H15  1  0.866400  0.814400  0.170600  1.0  0.1194
  H  H16  1  0.832400  0.704000  0.108800  1.0  0.1112
  H  H17  1  0.139800  0.798600  0.674700  1.0  0.1161
  H  H18  1  0.155800  0.699000  0.603300  1.0  0.1195
  H  H19  1  0.786300  0.716600  0.553000  1.0  0.1102
  H  H20  1  0.773600  0.822300  0.621000  1.0  0.1184
  H  H21  1  0.288200  0.329700  0.600900  1.0  0.126
  H  H22  1  0.256800  0.213200  0.656700  1.0  0.1083
  H  H23  1  0.633600  0.185600  0.670600  1.0  0.1192
  H  H24  1  0.667600  0.296000  0.608800  1.0  0.1105
  H  H25  1  0.639800  0.798600  0.825300  1.0  0.1162
  H  H26  1  0.655800  0.699000  0.896700  1.0  0.1192
  H  H27  1  0.286300  0.716600  0.947000  1.0  0.1099
  H  H28  1  0.273600  0.822300  0.879000  1.0  0.1184
  H  H29  1  0.788200  0.329700  0.899100  1.0  0.1256
  H  H30  1  0.756800  0.213200  0.843300  1.0  0.1086
  H  H31  1  0.133600  0.185600  0.829400  1.0  0.1194
  H  H32  1  0.167600  0.296000  0.891200  1.0  0.11
  H  H33  1  0.860200  0.201400  0.325300  1.0  0.1162
  H  H34  1  0.844200  0.301000  0.396700  1.0  0.1193
  H  H35  1  0.213700  0.283400  0.447000  1.0  0.1098
  H  H36  1  0.226400  0.177700  0.379000  1.0  0.1184
  H  H37  1  0.711800  0.670300  0.399100  1.0  0.125
  H  H38  1  0.743200  0.786800  0.343300  1.0  0.1075
  H  H39  1  0.366400  0.814400  0.329400  1.0  0.1198
  H  H40  1  0.332400  0.704000  0.391200  1.0  0.111
  C  C41  1  0.558700  0.114600  0.201600  1.0  0.666
  C  C42  1  0.545200  0.180100  0.155400  1.0  -0.1257
  C  C43  1  0.432100  0.218000  0.149500  1.0  -0.0309
  C  C44  1  0.423500  0.277100  0.108800  1.0  -0.0638
  C  C45  1  0.530400  0.305300  0.073600  1.0  -0.1199
  C  C46  1  0.641800  0.266700  0.078000  1.0  -0.0327
  C  C47  1  0.649500  0.204500  0.118400  1.0  -0.0535
  C  C48  1  0.519100  0.376800  0.032500  1.0  0.7081
  C  C49  1  0.997100  0.605800  0.054400  1.0  0.7254
  C  C50  1  0.019000  0.677900  0.097000  1.0  -0.1248
  C  C51  1  0.142000  0.700300  0.113000  1.0  -0.0998
  C  C52  1  0.159000  0.768800  0.147600  1.0  -0.0303
  C  C53  1  0.060000  0.810200  0.168500  1.0  -0.1471
  C  C54  1  0.936200  0.786000  0.155100  1.0  -0.0587
  C  C55  1  0.916600  0.720600  0.119000  1.0  -0.0464
  C  C56  1  0.084000  0.887000  0.203700  1.0  0.7318
  C  C57  1  0.941300  0.885400  0.701600  1.0  0.6663
  C  C58  1  0.954800  0.819900  0.655400  1.0  -0.1257
  C  C59  1  0.067900  0.782000  0.649500  1.0  -0.0311
  C  C60  1  0.076500  0.722900  0.608800  1.0  -0.0639
  C  C61  1  0.969600  0.694700  0.573600  1.0  -0.1203
  C  C62  1  0.858200  0.733300  0.578000  1.0  -0.0332
  C  C63  1  0.850500  0.795500  0.618400  1.0  -0.0541
  C  C64  1  0.980900  0.623200  0.532500  1.0  0.7077
  C  C65  1  0.502900  0.394200  0.554400  1.0  0.725
  C  C66  1  0.481000  0.322100  0.597000  1.0  -0.1251
  C  C67  1  0.358000  0.299700  0.613000  1.0  -0.0995
  C  C68  1  0.341000  0.231200  0.647600  1.0  -0.0315
  C  C69  1  0.440000  0.189800  0.668500  1.0  -0.1466
  C  C70  1  0.563800  0.214000  0.655100  1.0  -0.0581
  C  C71  1  0.583400  0.279400  0.619000  1.0  -0.0461
  C  C72  1  0.416000  0.113000  0.703700  1.0  0.7323
  C  C73  1  0.441300  0.885400  0.798400  1.0  0.6677
  C  C74  1  0.454800  0.819900  0.844600  1.0  -0.1254
  C  C75  1  0.567900  0.782000  0.850500  1.0  -0.0321
  C  C76  1  0.576500  0.722900  0.891200  1.0  -0.0638
  C  C77  1  0.469600  0.694700  0.926400  1.0  -0.1195
  C  C78  1  0.358200  0.733300  0.922000  1.0  -0.0333
  C  C79  1  0.350500  0.795500  0.881600  1.0  -0.0545
  C  C80  1  0.480900  0.623200  0.967500  1.0  0.7102
  C  C81  1  0.002900  0.394200  0.945600  1.0  0.7255
  C  C82  1  0.981000  0.322100  0.903000  1.0  -0.1258
  C  C83  1  0.858000  0.299700  0.887000  1.0  -0.0994
  C  C84  1  0.841000  0.231200  0.852400  1.0  -0.0315
  C  C85  1  0.940000  0.189800  0.831500  1.0  -0.1468
  C  C86  1  0.063800  0.214000  0.844900  1.0  -0.0589
  C  C87  1  0.083400  0.279400  0.881000  1.0  -0.0461
  C  C88  1  0.916000  0.113000  0.796300  1.0  0.7314
  C  C89  1  0.058700  0.114600  0.298400  1.0  0.6667
  C  C90  1  0.045200  0.180100  0.344600  1.0  -0.1264
  C  C91  1  0.932100  0.218000  0.350500  1.0  -0.0315
  C  C92  1  0.923500  0.277100  0.391200  1.0  -0.0636
  C  C93  1  0.030400  0.305300  0.426400  1.0  -0.1196
  C  C94  1  0.141800  0.266700  0.422000  1.0  -0.0328
  C  C95  1  0.149500  0.204500  0.381600  1.0  -0.0535
  C  C96  1  0.019100  0.376800  0.467500  1.0  0.7091
  C  C97  1  0.497100  0.605800  0.445600  1.0  0.7261
  C  C98  1  0.519000  0.677900  0.403000  1.0  -0.1247
  C  C99  1  0.642000  0.700300  0.387000  1.0  -0.1
  C  C100  1  0.659000  0.768800  0.352400  1.0  -0.0304
  C  C101  1  0.560000  0.810200  0.331500  1.0  -0.1466
  C  C102  1  0.436200  0.786000  0.344900  1.0  -0.0591
  C  C103  1  0.416600  0.720600  0.381000  1.0  -0.0465
  C  C104  1  0.584000  0.887000  0.296300  1.0  0.7319
  N  N105  1  0.310000  0.023100  0.121800  1.0  0.879
  N  N106  1  0.261000  0.522800  0.877600  1.0  0.7458
  N  N107  1  0.190000  0.976900  0.621800  1.0  0.8799
  N  N108  1  0.239000  0.477200  0.377600  1.0  0.7455
  N  N109  1  0.690000  0.976900  0.878200  1.0  0.8773
  N  N110  1  0.739000  0.477200  0.122400  1.0  0.7433
  N  N111  1  0.810000  0.023100  0.378200  1.0  0.876
  N  N112  1  0.761000  0.522800  0.622400  1.0  0.7426
  O  O113  1  0.394000  0.984800  0.145800  1.0  -0.5615
  O  O114  1  0.241100  0.059300  0.162600  1.0  -0.6199
  O  O115  1  0.295300  0.029800  0.060200  1.0  -0.4631
  O  O116  1  0.468100  0.098000  0.242500  1.0  -0.7017
  O  O117  1  0.662500  0.078000  0.202800  1.0  -0.6835
  O  O118  1  0.414500  0.409400  0.029000  1.0  -0.7345
  O  O119  1  0.618100  0.400500  0.001500  1.0  -0.7264
  O  O120  1  0.335500  0.478100  0.900100  1.0  -0.5678
  O  O121  1  0.178900  0.552300  0.912800  1.0  -0.588
  O  O122  1  0.268000  0.542700  0.816700  1.0  -0.4796
  O  O123  1  0.885600  0.595600  0.032900  1.0  -0.7411
  O  O124  1  0.086200  0.562900  0.047400  1.0  -0.7141
  O  O125  1  0.988000  0.920400  0.225000  1.0  -0.7069
  O  O126  1  0.194800  0.908500  0.211500  1.0  -0.6894
  O  O127  1  0.106000  0.015200  0.645800  1.0  -0.5615
  O  O128  1  0.258900  0.940700  0.662600  1.0  -0.6198
  O  O129  1  0.204700  0.970200  0.560200  1.0  -0.4632
  O  O130  1  0.031900  0.902000  0.742500  1.0  -0.7013
  O  O131  1  0.837500  0.922000  0.702800  1.0  -0.6826
  O  O132  1  0.085500  0.590600  0.529000  1.0  -0.7352
  O  O133  1  0.881900  0.599500  0.501500  1.0  -0.7261
  O  O134  1  0.164500  0.521900  0.400100  1.0  -0.5674
  O  O135  1  0.321100  0.447700  0.412800  1.0  -0.588
  O  O136  1  0.232000  0.457300  0.316700  1.0  -0.4795
  O  O137  1  0.614400  0.404400  0.532900  1.0  -0.7409
  O  O138  1  0.413800  0.437100  0.547400  1.0  -0.7125
  O  O139  1  0.512000  0.079600  0.725000  1.0  -0.707
  O  O140  1  0.305200  0.091500  0.711500  1.0  -0.6889
  O  O141  1  0.606000  0.015200  0.854200  1.0  -0.5618
  O  O142  1  0.758900  0.940700  0.837400  1.0  -0.6187
  O  O143  1  0.704700  0.970200  0.939800  1.0  -0.4644
  O  O144  1  0.531900  0.902000  0.757500  1.0  -0.7012
  O  O145  1  0.337500  0.922000  0.797200  1.0  -0.682
  O  O146  1  0.585500  0.590600  0.971000  1.0  -0.735
  O  O147  1  0.381900  0.599500  0.998500  1.0  -0.7243
  O  O148  1  0.664500  0.521900  0.099900  1.0  -0.5661
  O  O149  1  0.821100  0.447700  0.087200  1.0  -0.5857
  O  O150  1  0.732000  0.457300  0.183300  1.0  -0.4752
  O  O151  1  0.114400  0.404400  0.967100  1.0  -0.7395
  O  O152  1  0.913800  0.437100  0.952600  1.0  -0.7132
  O  O153  1  0.012000  0.079600  0.775000  1.0  -0.7075
  O  O154  1  0.805200  0.091500  0.788500  1.0  -0.6891
  O  O155  1  0.894000  0.984800  0.354200  1.0  -0.5612
  O  O156  1  0.741100  0.059300  0.337400  1.0  -0.619
  O  O157  1  0.795300  0.029800  0.439800  1.0  -0.4651
  O  O158  1  0.968100  0.098000  0.257500  1.0  -0.7016
  O  O159  1  0.162500  0.078000  0.297200  1.0  -0.683
  O  O160  1  0.914500  0.409400  0.471000  1.0  -0.7345
  O  O161  1  0.118100  0.400500  0.498500  1.0  -0.7246
  O  O162  1  0.835500  0.478100  0.599900  1.0  -0.5671
  O  O163  1  0.678900  0.552300  0.587200  1.0  -0.5863
  O  O164  1  0.768000  0.542700  0.683300  1.0  -0.4759
  O  O165  1  0.385600  0.595600  0.467100  1.0  -0.7398
  O  O166  1  0.586200  0.562900  0.452600  1.0  -0.7143
  O  O167  1  0.488000  0.920400  0.275000  1.0  -0.7078
  O  O168  1  0.694800  0.908500  0.288500  1.0  -0.6895
