# generated using pymatgen
data_MnN9
_symmetry_space_group_name_H-M   'P 1'
_cell_length_a   8.46400000
_cell_length_b   9.32400000
_cell_length_c   12.88200000
_cell_angle_alpha   90.00000000
_cell_angle_beta   105.46600000
_cell_angle_gamma   90.00000000
_symmetry_Int_Tables_number   1
_chemical_formula_structural   MnN9
_chemical_formula_sum   'Mn4 N36'
_cell_volume   979.81282386
_cell_formula_units_Z   4
loop_
 _symmetry_equiv_pos_site_id
 _symmetry_equiv_pos_as_xyz
  1  'x, y, z'
loop_
 _atom_site_type_symbol
 _atom_site_label
 _atom_site_symmetry_multiplicity
 _atom_site_fract_x
 _atom_site_fract_y
 _atom_site_fract_z
 _atom_site_occupancy
 _atom_site_charge
  Mn  Mn1  1  0.255670  0.748780  0.009070  1.0  0.959
  Mn  Mn2  1  0.744330  0.248780  0.490930  1.0  0.9571
  Mn  Mn3  1  0.744330  0.251220  0.990930  1.0  0.9576
  Mn  Mn4  1  0.255670  0.751220  0.509070  1.0  0.9594
  N  N5  1  0.319200  0.796500  0.185760  1.0  -0.4255
  N  N6  1  0.265240  0.797810  0.260210  1.0  0.5171
  N  N7  1  0.212200  0.803900  0.334650  1.0  -0.4161
  N  N8  1  0.041800  0.619410  0.015190  1.0  -0.3989
  N  N9  1  0.103700  0.944550  0.970350  1.0  -0.405
  N  N10  1  0.478810  0.876570  0.006730  1.0  -0.3846
  N  N11  1  0.426300  0.560290  0.051780  1.0  -0.3557
  N  N12  1  0.680800  0.296500  0.314240  1.0  -0.4254
  N  N13  1  0.734760  0.297810  0.239790  1.0  0.517
  N  N14  1  0.787800  0.303900  0.165350  1.0  -0.4147
  N  N15  1  0.958200  0.119410  0.484810  1.0  -0.3986
  N  N16  1  0.896300  0.444550  0.529650  1.0  -0.4052
  N  N17  1  0.521190  0.376570  0.493270  1.0  -0.385
  N  N18  1  0.573700  0.060290  0.448220  1.0  -0.3571
  N  N19  1  0.680800  0.203500  0.814240  1.0  -0.4255
  N  N20  1  0.734760  0.202190  0.739790  1.0  0.5171
  N  N21  1  0.787800  0.196100  0.665350  1.0  -0.4143
  N  N22  1  0.958200  0.380590  0.984810  1.0  -0.3989
  N  N23  1  0.896300  0.055450  0.029650  1.0  -0.4037
  N  N24  1  0.521190  0.123430  0.993270  1.0  -0.3838
  N  N25  1  0.573700  0.439710  0.948220  1.0  -0.3586
  N  N26  1  0.319200  0.703500  0.685760  1.0  -0.4254
  N  N27  1  0.265240  0.702190  0.760210  1.0  0.5172
  N  N28  1  0.212200  0.696100  0.834650  1.0  -0.4155
  N  N29  1  0.041800  0.880590  0.515190  1.0  -0.3992
  N  N30  1  0.103700  0.555450  0.470350  1.0  -0.4041
  N  N31  1  0.478810  0.623430  0.506730  1.0  -0.3833
  N  N32  1  0.426300  0.939710  0.551780  1.0  -0.3571
  N  N33  1  0.000000  0.500000  0.000000  1.0  0.435
  N  N34  1  0.000000  0.000000  0.500000  1.0  0.4352
  N  N35  1  0.000000  0.000000  0.000000  1.0  0.4526
  N  N36  1  0.000000  0.500000  0.500000  1.0  0.4526
  N  N37  1  0.500000  0.000000  0.000000  1.0  0.4827
  N  N38  1  0.500000  0.500000  0.500000  1.0  0.4827
  N  N39  1  0.500000  0.500000  0.000000  1.0  0.4491
  N  N40  1  0.500000  0.000000  0.500000  1.0  0.4496
