# generated using pymatgen
data_MnN9
_symmetry_space_group_name_H-M   'P 1'
_cell_length_a   8.41360000
_cell_length_b   9.24740000
_cell_length_c   12.80740000
_cell_angle_alpha   90.00000000
_cell_angle_beta   105.96900000
_cell_angle_gamma   90.00000000
_symmetry_Int_Tables_number   1
_chemical_formula_structural   MnN9
_chemical_formula_sum   'Mn4 N36'
_cell_volume   958.01304905
_cell_formula_units_Z   4
loop_
 _symmetry_equiv_pos_site_id
 _symmetry_equiv_pos_as_xyz
  1  'x, y, z'
loop_
 _atom_site_type_symbol
 _atom_site_label
 _atom_site_symmetry_multiplicity
 _atom_site_fract_x
 _atom_site_fract_y
 _atom_site_fract_z
 _atom_site_occupancy
 _atom_site_charge
  Mn  Mn1  1  0.256960  0.748360  0.010370  1.0  1.0005
  Mn  Mn2  1  0.743040  0.248360  0.489630  1.0  0.999
  Mn  Mn3  1  0.743040  0.251640  0.989630  1.0  0.9996
  Mn  Mn4  1  0.256960  0.751640  0.510370  1.0  1.0011
  N  N5  1  0.326120  0.798870  0.188290  1.0  -0.4141
  N  N6  1  0.269140  0.801730  0.262010  1.0  0.4888
  N  N7  1  0.212300  0.808150  0.335640  1.0  -0.4207
  N  N8  1  0.041940  0.620590  0.017880  1.0  -0.4153
  N  N9  1  0.107130  0.947090  0.971020  1.0  -0.4187
  N  N10  1  0.481790  0.874580  0.006320  1.0  -0.3667
  N  N11  1  0.428670  0.558360  0.055090  1.0  -0.3427
  N  N12  1  0.673880  0.298870  0.311710  1.0  -0.4147
  N  N13  1  0.730860  0.301730  0.237990  1.0  0.4893
  N  N14  1  0.787700  0.308150  0.164360  1.0  -0.4194
  N  N15  1  0.958060  0.120590  0.482120  1.0  -0.415
  N  N16  1  0.892870  0.447090  0.528980  1.0  -0.4189
  N  N17  1  0.518210  0.374580  0.493680  1.0  -0.3671
  N  N18  1  0.571330  0.058360  0.444910  1.0  -0.3429
  N  N19  1  0.673880  0.201130  0.811710  1.0  -0.4147
  N  N20  1  0.730860  0.198270  0.737990  1.0  0.4895
  N  N21  1  0.787700  0.191850  0.664360  1.0  -0.4201
  N  N22  1  0.958060  0.379410  0.982120  1.0  -0.4144
  N  N23  1  0.892870  0.052910  0.028980  1.0  -0.4186
  N  N24  1  0.518210  0.125420  0.993680  1.0  -0.3667
  N  N25  1  0.571330  0.441640  0.944910  1.0  -0.3441
  N  N26  1  0.326120  0.701130  0.688290  1.0  -0.414
  N  N27  1  0.269140  0.698270  0.762010  1.0  0.4888
  N  N28  1  0.212300  0.691850  0.835640  1.0  -0.4216
  N  N29  1  0.041940  0.879410  0.517880  1.0  -0.4138
  N  N30  1  0.107130  0.552910  0.471020  1.0  -0.4188
  N  N31  1  0.481790  0.625420  0.506320  1.0  -0.3661
  N  N32  1  0.428670  0.941640  0.555090  1.0  -0.344
  N  N33  1  0.000000  0.500000  0.000000  1.0  0.4285
  N  N34  1  0.000000  0.000000  0.500000  1.0  0.4287
  N  N35  1  0.000000  0.000000  0.000000  1.0  0.4511
  N  N36  1  0.000000  0.500000  0.500000  1.0  0.4511
  N  N37  1  0.500000  0.000000  0.000000  1.0  0.4494
  N  N38  1  0.500000  0.500000  0.500000  1.0  0.4494
  N  N39  1  0.500000  0.500000  0.000000  1.0  0.4485
  N  N40  1  0.500000  0.000000  0.500000  1.0  0.4498
