# generated using pymatgen
data_MnN9
_symmetry_space_group_name_H-M   'P 1'
_cell_length_a   8.43770000
_cell_length_b   9.30150000
_cell_length_c   12.84800000
_cell_angle_alpha   90.00000000
_cell_angle_beta   105.56600000
_cell_angle_gamma   90.00000000
_symmetry_Int_Tables_number   1
_chemical_formula_structural   MnN9
_chemical_formula_sum   'Mn4 N36'
_cell_volume   971.36861423
_cell_formula_units_Z   4
loop_
 _symmetry_equiv_pos_site_id
 _symmetry_equiv_pos_as_xyz
  1  'x, y, z'
loop_
 _atom_site_type_symbol
 _atom_site_label
 _atom_site_symmetry_multiplicity
 _atom_site_fract_x
 _atom_site_fract_y
 _atom_site_fract_z
 _atom_site_occupancy
 _atom_site_charge
  Mn  Mn1  1  0.256290  0.748640  0.009900  1.0  0.9637
  Mn  Mn2  1  0.743710  0.248640  0.490100  1.0  0.9615
  Mn  Mn3  1  0.743710  0.251360  0.990100  1.0  0.962
  Mn  Mn4  1  0.256290  0.751360  0.509900  1.0  0.9642
  N  N5  1  0.321990  0.796730  0.187200  1.0  -0.4169
  N  N6  1  0.267170  0.798720  0.261280  1.0  0.5178
  N  N7  1  0.212970  0.805130  0.335380  1.0  -0.4221
  N  N8  1  0.042340  0.619530  0.016550  1.0  -0.4061
  N  N9  1  0.105120  0.945320  0.971110  1.0  -0.4058
  N  N10  1  0.479920  0.876010  0.007140  1.0  -0.3878
  N  N11  1  0.427700  0.559940  0.053070  1.0  -0.3529
  N  N12  1  0.678010  0.296730  0.312800  1.0  -0.4169
  N  N13  1  0.732830  0.298720  0.238720  1.0  0.5181
  N  N14  1  0.787030  0.305130  0.164620  1.0  -0.4215
  N  N15  1  0.957660  0.119530  0.483450  1.0  -0.4055
  N  N16  1  0.894880  0.445320  0.528890  1.0  -0.4059
  N  N17  1  0.520080  0.376010  0.492860  1.0  -0.3876
  N  N18  1  0.572300  0.059940  0.446930  1.0  -0.3544
  N  N19  1  0.678010  0.203270  0.812800  1.0  -0.4168
  N  N20  1  0.732830  0.201280  0.738720  1.0  0.5181
  N  N21  1  0.787030  0.194870  0.664620  1.0  -0.4213
  N  N22  1  0.957660  0.380470  0.983450  1.0  -0.4055
  N  N23  1  0.894880  0.054680  0.028890  1.0  -0.4045
  N  N24  1  0.520080  0.123990  0.992860  1.0  -0.3861
  N  N25  1  0.572300  0.440060  0.946930  1.0  -0.3557
  N  N26  1  0.321990  0.703270  0.687200  1.0  -0.4169
  N  N27  1  0.267170  0.701280  0.761280  1.0  0.5178
  N  N28  1  0.212970  0.694870  0.835380  1.0  -0.4218
  N  N29  1  0.042340  0.880470  0.516550  1.0  -0.406
  N  N30  1  0.105120  0.554680  0.471110  1.0  -0.4049
  N  N31  1  0.479920  0.623990  0.507140  1.0  -0.3864
  N  N32  1  0.427700  0.940060  0.553070  1.0  -0.3539
  N  N33  1  0.000000  0.500000  0.000000  1.0  0.4377
  N  N34  1  0.000000  0.000000  0.500000  1.0  0.4379
  N  N35  1  0.000000  0.000000  0.000000  1.0  0.4511
  N  N36  1  0.000000  0.500000  0.500000  1.0  0.4511
  N  N37  1  0.500000  0.000000  0.000000  1.0  0.4769
  N  N38  1  0.500000  0.500000  0.500000  1.0  0.4769
  N  N39  1  0.500000  0.500000  0.000000  1.0  0.4536
  N  N40  1  0.500000  0.000000  0.500000  1.0  0.4551
