# generated using pymatgen
data_MnN9
_symmetry_space_group_name_H-M   'P 1'
_cell_length_a   8.45290000
_cell_length_b   9.35810000
_cell_length_c   12.88400000
_cell_angle_alpha   90.00000000
_cell_angle_beta   105.26500000
_cell_angle_gamma   90.00000000
_symmetry_Int_Tables_number   1
_chemical_formula_structural   MnN9
_chemical_formula_sum   'Mn4 N36'
_cell_volume   983.20641652
_cell_formula_units_Z   4
loop_
 _symmetry_equiv_pos_site_id
 _symmetry_equiv_pos_as_xyz
  1  'x, y, z'
loop_
 _atom_site_type_symbol
 _atom_site_label
 _atom_site_symmetry_multiplicity
 _atom_site_fract_x
 _atom_site_fract_y
 _atom_site_fract_z
 _atom_site_occupancy
 _atom_site_charge
  Mn  Mn1  1  0.500000  0.000000  0.000000  1.0  0.8901
  Mn  Mn2  1  0.000000  0.500000  0.000000  1.0  0.8901
  Mn  Mn3  1  0.500000  0.000000  0.500000  1.0  0.8901
  Mn  Mn4  1  0.000000  0.500000  0.500000  1.0  0.8901
  N  N5  1  0.718600  0.129200  0.997500  1.0  -0.3811
  N  N6  1  0.551000  0.048300  0.175210  1.0  -0.4143
  N  N7  1  0.337800  0.190600  0.959400  1.0  -0.3806
  N  N8  1  0.218600  0.629200  0.997500  1.0  -0.3811
  N  N9  1  0.051000  0.548300  0.175210  1.0  -0.4143
  N  N10  1  0.837800  0.690600  0.959400  1.0  -0.3818
  N  N11  1  0.281400  0.129200  0.502500  1.0  -0.3819
  N  N12  1  0.449000  0.048300  0.324790  1.0  -0.4156
  N  N13  1  0.662200  0.190600  0.540600  1.0  -0.382
  N  N14  1  0.781400  0.629200  0.502500  1.0  -0.3819
  N  N15  1  0.949000  0.548300  0.324790  1.0  -0.4156
  N  N16  1  0.162200  0.690600  0.540600  1.0  -0.383
  N  N17  1  0.281400  0.870800  0.002500  1.0  -0.384
  N  N18  1  0.449000  0.951700  0.824790  1.0  -0.4183
  N  N19  1  0.662200  0.809400  0.040600  1.0  -0.3824
  N  N20  1  0.781400  0.370800  0.002500  1.0  -0.384
  N  N21  1  0.949000  0.451700  0.824790  1.0  -0.4183
  N  N22  1  0.162200  0.309400  0.040600  1.0  -0.3829
  N  N23  1  0.718600  0.870800  0.497500  1.0  -0.3829
  N  N24  1  0.551000  0.951700  0.675210  1.0  -0.4167
  N  N25  1  0.337800  0.809400  0.459400  1.0  -0.3817
  N  N26  1  0.218600  0.370800  0.497500  1.0  -0.3829
  N  N27  1  0.051000  0.451700  0.675210  1.0  -0.4167
  N  N28  1  0.837800  0.309400  0.459400  1.0  -0.3823
  N  N29  1  0.500000  0.045500  0.250000  1.0  0.4752
  N  N30  1  0.000000  0.545500  0.250000  1.0  0.4752
  N  N31  1  0.500000  0.954500  0.750000  1.0  0.4743
  N  N32  1  0.000000  0.454500  0.750000  1.0  0.4743
  N  N33  1  0.750000  0.250000  0.000000  1.0  0.5151
  N  N34  1  0.250000  0.250000  0.500000  1.0  0.5151
  N  N35  1  0.250000  0.750000  0.000000  1.0  0.5151
  N  N36  1  0.750000  0.750000  0.500000  1.0  0.5151
  N  N37  1  0.250000  0.250000  0.000000  1.0  0.4816
  N  N38  1  0.750000  0.250000  0.500000  1.0  0.4816
  N  N39  1  0.750000  0.750000  0.000000  1.0  0.4816
  N  N40  1  0.250000  0.750000  0.500000  1.0  0.4816
