# generated using pymatgen
data_MnN9
_symmetry_space_group_name_H-M   'P 1'
_cell_length_a   12.14910000
_cell_length_b   12.28400000
_cell_length_c   12.21600000
_cell_angle_alpha   90.00000000
_cell_angle_beta   90.00000000
_cell_angle_gamma   90.00000000
_symmetry_Int_Tables_number   1
_chemical_formula_structural   MnN9
_chemical_formula_sum   'Mn8 N72'
_cell_volume   1823.11027439
_cell_formula_units_Z   8
loop_
 _symmetry_equiv_pos_site_id
 _symmetry_equiv_pos_as_xyz
  1  'x, y, z'
loop_
 _atom_site_type_symbol
 _atom_site_label
 _atom_site_symmetry_multiplicity
 _atom_site_fract_x
 _atom_site_fract_y
 _atom_site_fract_z
 _atom_site_occupancy
 _atom_site_charge
  Mn  Mn1  1  0.500000  0.307940  0.194560  1.0  0.9319
  Mn  Mn2  1  0.000000  0.807940  0.194560  1.0  0.9319
  Mn  Mn3  1  0.500000  0.192060  0.694560  1.0  0.9309
  Mn  Mn4  1  0.000000  0.692060  0.694560  1.0  0.9309
  Mn  Mn5  1  0.500000  0.807940  0.305440  1.0  0.9321
  Mn  Mn6  1  0.000000  0.307940  0.305440  1.0  0.9321
  Mn  Mn7  1  0.500000  0.692060  0.805440  1.0  0.9308
  Mn  Mn8  1  0.000000  0.192060  0.805440  1.0  0.9308
  N  N9  1  0.318500  0.317500  0.186000  1.0  -0.3892
  N  N10  1  0.818500  0.817500  0.186000  1.0  -0.3892
  N  N11  1  0.681500  0.182500  0.686000  1.0  -0.3897
  N  N12  1  0.181500  0.682500  0.686000  1.0  -0.3897
  N  N13  1  0.681500  0.817500  0.314000  1.0  -0.3906
  N  N14  1  0.181500  0.317500  0.314000  1.0  -0.3906
  N  N15  1  0.318500  0.682500  0.814000  1.0  -0.3898
  N  N16  1  0.818500  0.182500  0.814000  1.0  -0.3898
  N  N17  1  0.681500  0.682500  0.814000  1.0  -0.3907
  N  N18  1  0.181500  0.182500  0.814000  1.0  -0.3907
  N  N19  1  0.318500  0.817500  0.314000  1.0  -0.3899
  N  N20  1  0.818500  0.317500  0.314000  1.0  -0.3899
  N  N21  1  0.318500  0.182500  0.686000  1.0  -0.3893
  N  N22  1  0.818500  0.682500  0.686000  1.0  -0.3893
  N  N23  1  0.681500  0.317500  0.186000  1.0  -0.3895
  N  N24  1  0.181500  0.817500  0.186000  1.0  -0.3895
  N  N25  1  0.500000  0.329100  0.375200  1.0  -0.3971
  N  N26  1  0.500000  0.265400  0.445500  1.0  0.4896
  N  N27  1  0.500000  0.201000  0.514700  1.0  -0.4015
  N  N28  1  0.500000  0.486700  0.170100  1.0  -0.3748
  N  N29  1  0.500000  0.559300  0.230200  1.0  0.4809
  N  N30  1  0.500000  0.630900  0.289500  1.0  -0.4279
  N  N31  1  0.000000  0.829100  0.375200  1.0  -0.3971
  N  N32  1  0.000000  0.765400  0.445500  1.0  0.4896
  N  N33  1  0.000000  0.701000  0.514700  1.0  -0.4015
  N  N34  1  0.000000  0.986700  0.170100  1.0  -0.3748
  N  N35  1  0.000000  0.059300  0.230200  1.0  0.4809
  N  N36  1  0.000000  0.130900  0.289500  1.0  -0.4279
  N  N37  1  0.500000  0.170900  0.875200  1.0  -0.3966
  N  N38  1  0.500000  0.234600  0.945500  1.0  0.4899
  N  N39  1  0.500000  0.299000  0.014700  1.0  -0.4013
  N  N40  1  0.500000  0.013300  0.670100  1.0  -0.3741
  N  N41  1  0.500000  0.940700  0.730200  1.0  0.4809
  N  N42  1  0.500000  0.869100  0.789500  1.0  -0.4278
  N  N43  1  0.000000  0.670900  0.875200  1.0  -0.3966
  N  N44  1  0.000000  0.734600  0.945500  1.0  0.4899
  N  N45  1  0.000000  0.799000  0.014700  1.0  -0.4013
  N  N46  1  0.000000  0.513300  0.670100  1.0  -0.3741
  N  N47  1  0.000000  0.440700  0.730200  1.0  0.4809
  N  N48  1  0.000000  0.369100  0.789500  1.0  -0.4278
  N  N49  1  0.500000  0.829100  0.124800  1.0  -0.3985
  N  N50  1  0.500000  0.765400  0.054500  1.0  0.4899
  N  N51  1  0.500000  0.701000  0.985300  1.0  -0.3999
  N  N52  1  0.500000  0.986700  0.329900  1.0  -0.3782
  N  N53  1  0.500000  0.059300  0.269800  1.0  0.4803
  N  N54  1  0.500000  0.130900  0.210500  1.0  -0.4228
  N  N55  1  0.000000  0.329100  0.124800  1.0  -0.3985
  N  N56  1  0.000000  0.265400  0.054500  1.0  0.4899
  N  N57  1  0.000000  0.201000  0.985300  1.0  -0.3999
  N  N58  1  0.000000  0.486700  0.329900  1.0  -0.3782
  N  N59  1  0.000000  0.559300  0.269800  1.0  0.4803
  N  N60  1  0.000000  0.630900  0.210500  1.0  -0.4228
  N  N61  1  0.500000  0.670900  0.624800  1.0  -0.3978
  N  N62  1  0.500000  0.734600  0.554500  1.0  0.4899
  N  N63  1  0.500000  0.799000  0.485300  1.0  -0.3996
  N  N64  1  0.500000  0.513300  0.829900  1.0  -0.3776
  N  N65  1  0.500000  0.440700  0.769800  1.0  0.4802
  N  N66  1  0.500000  0.369100  0.710500  1.0  -0.4242
  N  N67  1  0.000000  0.170900  0.624800  1.0  -0.3978
  N  N68  1  0.000000  0.234600  0.554500  1.0  0.4899
  N  N69  1  0.000000  0.299000  0.485300  1.0  -0.3996
  N  N70  1  0.000000  0.013300  0.829900  1.0  -0.3776
  N  N71  1  0.000000  0.940700  0.769800  1.0  0.4802
  N  N72  1  0.000000  0.869100  0.710500  1.0  -0.4242
  N  N73  1  0.250000  0.316500  0.250000  1.0  0.4778
  N  N74  1  0.750000  0.183500  0.750000  1.0  0.4778
  N  N75  1  0.750000  0.816500  0.250000  1.0  0.4778
  N  N76  1  0.250000  0.683500  0.750000  1.0  0.4778
  N  N77  1  0.750000  0.683500  0.750000  1.0  0.4778
  N  N78  1  0.250000  0.816500  0.250000  1.0  0.4778
  N  N79  1  0.250000  0.183500  0.750000  1.0  0.4778
  N  N80  1  0.750000  0.316500  0.250000  1.0  0.4778
