# generated using pymatgen
data_MnN9
_symmetry_space_group_name_H-M   'P 1'
_cell_length_a   8.50200000
_cell_length_b   9.43100000
_cell_length_c   12.93000000
_cell_angle_alpha   90.00000000
_cell_angle_beta   104.77000000
_cell_angle_gamma   90.00000000
_symmetry_Int_Tables_number   1
_chemical_formula_structural   MnN9
_chemical_formula_sum   'Mn4 N36'
_cell_volume   1002.50035544
_cell_formula_units_Z   4
loop_
 _symmetry_equiv_pos_site_id
 _symmetry_equiv_pos_as_xyz
  1  'x, y, z'
loop_
 _atom_site_type_symbol
 _atom_site_label
 _atom_site_symmetry_multiplicity
 _atom_site_fract_x
 _atom_site_fract_y
 _atom_site_fract_z
 _atom_site_occupancy
 _atom_site_charge
  Mn  Mn1  1  0.500000  0.000000  0.000000  1.0  0.8996
  Mn  Mn2  1  0.000000  0.500000  0.000000  1.0  0.8996
  Mn  Mn3  1  0.500000  0.000000  0.500000  1.0  0.8996
  Mn  Mn4  1  0.000000  0.500000  0.500000  1.0  0.8996
  N  N5  1  0.718500  0.129500  0.998100  1.0  -0.3867
  N  N6  1  0.550400  0.046300  0.175000  1.0  -0.4052
  N  N7  1  0.337300  0.189800  0.959700  1.0  -0.3911
  N  N8  1  0.218500  0.629500  0.998100  1.0  -0.3867
  N  N9  1  0.050400  0.546300  0.175000  1.0  -0.4052
  N  N10  1  0.837300  0.689800  0.959700  1.0  -0.3911
  N  N11  1  0.281500  0.129500  0.501900  1.0  -0.388
  N  N12  1  0.449600  0.046300  0.325000  1.0  -0.4065
  N  N13  1  0.662700  0.189800  0.540300  1.0  -0.3878
  N  N14  1  0.781500  0.629500  0.501900  1.0  -0.388
  N  N15  1  0.949600  0.546300  0.325000  1.0  -0.4063
  N  N16  1  0.162700  0.689800  0.540300  1.0  -0.3878
  N  N17  1  0.281500  0.870500  0.001900  1.0  -0.3909
  N  N18  1  0.449600  0.953700  0.825000  1.0  -0.4094
  N  N19  1  0.662700  0.810200  0.040300  1.0  -0.3874
  N  N20  1  0.781500  0.370500  0.001900  1.0  -0.3909
  N  N21  1  0.949600  0.453700  0.825000  1.0  -0.4094
  N  N22  1  0.162700  0.310200  0.040300  1.0  -0.3874
  N  N23  1  0.718500  0.870500  0.498100  1.0  -0.3894
  N  N24  1  0.550400  0.953700  0.675000  1.0  -0.4056
  N  N25  1  0.337300  0.810200  0.459700  1.0  -0.392
  N  N26  1  0.218500  0.370500  0.498100  1.0  -0.3894
  N  N27  1  0.050400  0.453700  0.675000  1.0  -0.4056
  N  N28  1  0.837300  0.310200  0.459700  1.0  -0.3918
  N  N29  1  0.500000  0.043600  0.250000  1.0  0.474
  N  N30  1  0.000000  0.543600  0.250000  1.0  0.474
  N  N31  1  0.500000  0.956400  0.750000  1.0  0.4736
  N  N32  1  0.000000  0.456400  0.750000  1.0  0.4736
  N  N33  1  0.750000  0.250000  0.000000  1.0  0.5081
  N  N34  1  0.250000  0.250000  0.500000  1.0  0.508
  N  N35  1  0.250000  0.750000  0.000000  1.0  0.5081
  N  N36  1  0.750000  0.750000  0.500000  1.0  0.508
  N  N37  1  0.250000  0.250000  0.000000  1.0  0.4885
  N  N38  1  0.750000  0.250000  0.500000  1.0  0.4885
  N  N39  1  0.750000  0.750000  0.000000  1.0  0.4881
  N  N40  1  0.250000  0.750000  0.500000  1.0  0.4886
