# generated using pymatgen
data_MnN9
_symmetry_space_group_name_H-M   'P 1'
_cell_length_a   8.42580000
_cell_length_b   9.27100000
_cell_length_c   12.82400000
_cell_angle_alpha   90.00000000
_cell_angle_beta   105.76000000
_cell_angle_gamma   90.00000000
_symmetry_Int_Tables_number   1
_chemical_formula_structural   MnN9
_chemical_formula_sum   'Mn4 N36'
_cell_volume   964.09624598
_cell_formula_units_Z   4
loop_
 _symmetry_equiv_pos_site_id
 _symmetry_equiv_pos_as_xyz
  1  'x, y, z'
loop_
 _atom_site_type_symbol
 _atom_site_label
 _atom_site_symmetry_multiplicity
 _atom_site_fract_x
 _atom_site_fract_y
 _atom_site_fract_z
 _atom_site_occupancy
 _atom_site_charge
  Mn  Mn1  1  0.257020  0.748410  0.010780  1.0  1.0086
  Mn  Mn2  1  0.742980  0.248410  0.489220  1.0  1.0071
  Mn  Mn3  1  0.742980  0.251590  0.989220  1.0  1.008
  Mn  Mn4  1  0.257020  0.751590  0.510780  1.0  1.0095
  N  N5  1  0.325620  0.797430  0.188600  1.0  -0.4179
  N  N6  1  0.269370  0.800100  0.262390  1.0  0.5107
  N  N7  1  0.213480  0.806780  0.336120  1.0  -0.4241
  N  N8  1  0.043000  0.619740  0.018240  1.0  -0.4116
  N  N9  1  0.107320  0.946430  0.972110  1.0  -0.4201
  N  N10  1  0.481620  0.875310  0.007420  1.0  -0.3843
  N  N11  1  0.429380  0.559150  0.054860  1.0  -0.3476
  N  N12  1  0.674380  0.297430  0.311400  1.0  -0.418
  N  N13  1  0.730630  0.300100  0.237610  1.0  0.511
  N  N14  1  0.786520  0.306780  0.163880  1.0  -0.4226
  N  N15  1  0.957000  0.119740  0.481760  1.0  -0.4112
  N  N16  1  0.892680  0.446430  0.527890  1.0  -0.4208
  N  N17  1  0.518380  0.375310  0.492580  1.0  -0.383
  N  N18  1  0.570620  0.059150  0.445140  1.0  -0.3483
  N  N19  1  0.674380  0.202570  0.811400  1.0  -0.4181
  N  N20  1  0.730630  0.199900  0.737610  1.0  0.511
  N  N21  1  0.786520  0.193220  0.663880  1.0  -0.4233
  N  N22  1  0.957000  0.380260  0.981760  1.0  -0.4109
  N  N23  1  0.892680  0.053570  0.027890  1.0  -0.4203
  N  N24  1  0.518380  0.124690  0.992580  1.0  -0.3816
  N  N25  1  0.570620  0.440850  0.945140  1.0  -0.3491
  N  N26  1  0.325620  0.702570  0.688600  1.0  -0.4179
  N  N27  1  0.269370  0.699900  0.762390  1.0  0.5107
  N  N28  1  0.213480  0.693220  0.836120  1.0  -0.425
  N  N29  1  0.043000  0.880260  0.518240  1.0  -0.4111
  N  N30  1  0.107320  0.553570  0.472110  1.0  -0.4198
  N  N31  1  0.481620  0.624690  0.507420  1.0  -0.3825
  N  N32  1  0.429380  0.940850  0.554860  1.0  -0.3475
  N  N33  1  0.000000  0.500000  0.000000  1.0  0.4189
  N  N34  1  0.000000  0.000000  0.500000  1.0  0.4187
  N  N35  1  0.000000  0.000000  0.000000  1.0  0.4452
  N  N36  1  0.000000  0.500000  0.500000  1.0  0.4452
  N  N37  1  0.500000  0.000000  0.000000  1.0  0.4581
  N  N38  1  0.500000  0.500000  0.500000  1.0  0.4581
  N  N39  1  0.500000  0.500000  0.000000  1.0  0.4473
  N  N40  1  0.500000  0.000000  0.500000  1.0  0.4486
