# generated using pymatgen
data_ZnH4C7N3O4
_symmetry_space_group_name_H-M   'P 1'
_cell_length_a   13.76200000
_cell_length_b   9.56300000
_cell_length_c   9.88300000
_cell_angle_alpha   90.00000000
_cell_angle_beta   101.07400000
_cell_angle_gamma   90.00000000
_symmetry_Int_Tables_number   1
_chemical_formula_structural   ZnH4C7N3O4
_chemical_formula_sum   'Zn4 H16 C28 N12 O16'
_cell_volume   1276.44373253
_cell_formula_units_Z   4
loop_
 _symmetry_equiv_pos_site_id
 _symmetry_equiv_pos_as_xyz
  1  'x, y, z'
loop_
 _atom_site_type_symbol
 _atom_site_label
 _atom_site_symmetry_multiplicity
 _atom_site_fract_x
 _atom_site_fract_y
 _atom_site_fract_z
 _atom_site_occupancy
 _atom_site_charge
  Zn  Zn1  1  0.595680  0.068240  0.900850  1.0  0.8319
  Zn  Zn2  1  0.404320  0.568240  0.599150  1.0  0.832
  Zn  Zn3  1  0.404320  0.931760  0.099150  1.0  0.8313
  Zn  Zn4  1  0.595680  0.431760  0.400850  1.0  0.8314
  H  H5  1  0.889300  0.893500  0.115700  1.0  0.1109
  H  H6  1  0.169200  0.772100  0.353000  1.0  0.3472
  H  H7  1  0.644100  0.176100  0.610500  1.0  0.0873
  H  H8  1  0.455200  0.329300  0.814800  1.0  0.0798
  H  H9  1  0.110700  0.393500  0.384300  1.0  0.1101
  H  H10  1  0.830800  0.272100  0.147000  1.0  0.3465
  H  H11  1  0.355900  0.676100  0.889500  1.0  0.087
  H  H12  1  0.544800  0.829300  0.685200  1.0  0.0787
  H  H13  1  0.110700  0.106500  0.884300  1.0  0.11
  H  H14  1  0.830800  0.227900  0.647000  1.0  0.3465
  H  H15  1  0.355900  0.823900  0.389500  1.0  0.0877
  H  H16  1  0.544800  0.670700  0.185200  1.0  0.0788
  H  H17  1  0.889300  0.606500  0.615700  1.0  0.111
  H  H18  1  0.169200  0.727900  0.853000  1.0  0.3464
  H  H19  1  0.644100  0.323900  0.110500  1.0  0.0878
  H  H20  1  0.455200  0.170700  0.314800  1.0  0.08
  C  C21  1  0.933700  0.936900  0.069200  1.0  -0.0745
  C  C22  1  0.791200  0.073900  0.947100  1.0  0.7019
  C  C23  1  0.033800  0.904800  0.104900  1.0  -0.1499
  C  C24  1  0.898500  0.032500  0.965300  1.0  -0.0508
  C  C25  1  0.596900  0.233300  0.638100  1.0  0.2637
  C  C26  1  0.494300  0.316400  0.748700  1.0  0.2707
  C  C27  1  0.064400  0.807900  0.224400  1.0  0.6567
  C  C28  1  0.066300  0.436900  0.430800  1.0  -0.0747
  C  C29  1  0.208800  0.573900  0.552900  1.0  0.7029
  C  C30  1  0.966200  0.404800  0.395100  1.0  -0.1508
  C  C31  1  0.101500  0.532500  0.534700  1.0  -0.0487
  C  C32  1  0.403100  0.733300  0.861900  1.0  0.2648
  C  C33  1  0.505700  0.816400  0.751300  1.0  0.2722
  C  C34  1  0.935600  0.307900  0.275600  1.0  0.6564
  C  C35  1  0.066300  0.063100  0.930800  1.0  -0.0724
  C  C36  1  0.208800  0.926100  0.052900  1.0  0.703
  C  C37  1  0.966200  0.095200  0.895100  1.0  -0.1511
  C  C38  1  0.101500  0.967500  0.034700  1.0  -0.0486
  C  C39  1  0.403100  0.766700  0.361900  1.0  0.2644
  C  C40  1  0.505700  0.683600  0.251300  1.0  0.2718
  C  C41  1  0.935600  0.192100  0.775600  1.0  0.6547
  C  C42  1  0.933700  0.563100  0.569200  1.0  -0.0724
  C  C43  1  0.791200  0.426100  0.447100  1.0  0.7019
  C  C44  1  0.033800  0.595200  0.604900  1.0  -0.1519
  C  C45  1  0.898500  0.467500  0.465300  1.0  -0.0499
  C  C46  1  0.596900  0.266700  0.138100  1.0  0.2637
  C  C47  1  0.494300  0.183600  0.248700  1.0  0.2705
  C  C48  1  0.064400  0.692100  0.724400  1.0  0.6547
  N  N49  1  0.558610  0.210300  0.751400  1.0  -0.4232
  N  N50  1  0.559820  0.346300  0.570500  1.0  -0.2592
  N  N51  1  0.492430  0.399400  0.643400  1.0  -0.2368
  N  N52  1  0.441390  0.710300  0.748600  1.0  -0.4229
  N  N53  1  0.440180  0.846300  0.929500  1.0  -0.2606
  N  N54  1  0.507570  0.899400  0.856600  1.0  -0.2365
  N  N55  1  0.441390  0.789700  0.248600  1.0  -0.4228
  N  N56  1  0.440180  0.653700  0.429500  1.0  -0.2604
  N  N57  1  0.507570  0.600600  0.356600  1.0  -0.2359
  N  N58  1  0.558610  0.289700  0.251400  1.0  -0.4232
  N  N59  1  0.559820  0.153700  0.070500  1.0  -0.259
  N  N60  1  0.492430  0.100600  0.143400  1.0  -0.2377
  O  O61  1  0.726910  0.986400  0.901700  1.0  -0.5722
  O  O62  1  0.771340  0.193800  0.983700  1.0  -0.6041
  O  O63  1  0.156000  0.827400  0.288600  1.0  -0.5037
  O  O64  1  0.008800  0.725300  0.261100  1.0  -0.4775
  O  O65  1  0.273090  0.486400  0.598300  1.0  -0.5725
  O  O66  1  0.228660  0.693800  0.516300  1.0  -0.6039
  O  O67  1  0.844000  0.327400  0.211400  1.0  -0.5029
  O  O68  1  0.991200  0.225300  0.238900  1.0  -0.4765
  O  O69  1  0.273090  0.013600  0.098300  1.0  -0.5706
  O  O70  1  0.228660  0.806200  0.016300  1.0  -0.6037
  O  O71  1  0.844000  0.172600  0.711400  1.0  -0.5033
  O  O72  1  0.991200  0.274700  0.738900  1.0  -0.4766
  O  O73  1  0.726910  0.513600  0.401700  1.0  -0.5705
  O  O74  1  0.771340  0.306200  0.483700  1.0  -0.6041
  O  O75  1  0.156000  0.672600  0.788600  1.0  -0.5042
  O  O76  1  0.008800  0.774700  0.761100  1.0  -0.4758
