# generated using pymatgen
data_Zr3H8(C3O4)4
_symmetry_space_group_name_H-M   'P 1'
_cell_length_a   17.93090000
_cell_length_b   17.93090000
_cell_length_c   17.93090000
_cell_angle_alpha   90.00000000
_cell_angle_beta   90.00000000
_cell_angle_gamma   90.00000000
_symmetry_Int_Tables_number   1
_chemical_formula_structural   Zr3H8(C3O4)4
_chemical_formula_sum   'Zr24 H64 C96 O128'
_cell_volume   5765.09230980
_cell_formula_units_Z   8
loop_
 _symmetry_equiv_pos_site_id
 _symmetry_equiv_pos_as_xyz
  1  'x, y, z'
loop_
 _atom_site_type_symbol
 _atom_site_label
 _atom_site_symmetry_multiplicity
 _atom_site_fract_x
 _atom_site_fract_y
 _atom_site_fract_z
 _atom_site_occupancy
 _atom_site_charge
  Zr  Zr1  1  0.991720  0.132650  0.991520  1.0  1.8146
  Zr  Zr2  1  0.132650  0.008480  0.008280  1.0  1.813
  Zr  Zr3  1  0.867450  0.990910  0.991100  1.0  1.8164
  Zr  Zr4  1  0.990910  0.008900  0.132550  1.0  1.8234
  Zr  Zr5  1  0.008480  0.991720  0.867350  1.0  1.82
  Zr  Zr6  1  0.008900  0.867450  0.009090  1.0  1.8167
  Zr  Zr7  1  0.491720  0.632650  0.991520  1.0  1.8146
  Zr  Zr8  1  0.632650  0.508480  0.008280  1.0  1.813
  Zr  Zr9  1  0.367450  0.490910  0.991100  1.0  1.8164
  Zr  Zr10  1  0.490910  0.508900  0.132550  1.0  1.8234
  Zr  Zr11  1  0.508480  0.491720  0.867350  1.0  1.82
  Zr  Zr12  1  0.508900  0.367450  0.009090  1.0  1.8167
  Zr  Zr13  1  0.991720  0.632650  0.491520  1.0  1.8147
  Zr  Zr14  1  0.132650  0.508480  0.508280  1.0  1.813
  Zr  Zr15  1  0.867450  0.490910  0.491100  1.0  1.8164
  Zr  Zr16  1  0.990910  0.508900  0.632550  1.0  1.8234
  Zr  Zr17  1  0.008480  0.491720  0.367350  1.0  1.82
  Zr  Zr18  1  0.008900  0.367450  0.509090  1.0  1.8167
  Zr  Zr19  1  0.491720  0.132650  0.491520  1.0  1.8147
  Zr  Zr20  1  0.632650  0.008480  0.508280  1.0  1.813
  Zr  Zr21  1  0.367450  0.990910  0.491100  1.0  1.8164
  Zr  Zr22  1  0.490910  0.008900  0.632550  1.0  1.8234
  Zr  Zr23  1  0.508480  0.991720  0.367350  1.0  1.82
  Zr  Zr24  1  0.508900  0.867450  0.509090  1.0  1.8167
  H  H25  1  0.088560  0.109520  0.098400  1.0  0.3522
  H  H26  1  0.901600  0.088560  0.890490  1.0  0.3525
  H  H27  1  0.901180  0.901180  0.098820  1.0  0.3631
  H  H28  1  0.109510  0.901600  0.911440  1.0  0.3519
  H  H29  1  0.588560  0.609520  0.098400  1.0  0.3522
  H  H30  1  0.401600  0.588560  0.890490  1.0  0.3525
  H  H31  1  0.401180  0.401180  0.098820  1.0  0.3631
  H  H32  1  0.609510  0.401600  0.911440  1.0  0.3519
  H  H33  1  0.088560  0.609510  0.598400  1.0  0.3521
  H  H34  1  0.901600  0.588560  0.390490  1.0  0.3525
  H  H35  1  0.901180  0.401180  0.598820  1.0  0.3631
  H  H36  1  0.109520  0.401600  0.411440  1.0  0.3519
  H  H37  1  0.588560  0.109510  0.598400  1.0  0.3521
  H  H38  1  0.401600  0.088560  0.390490  1.0  0.3525
  H  H39  1  0.401180  0.901180  0.598820  1.0  0.3631
  H  H40  1  0.609520  0.901600  0.411440  1.0  0.3519
  H  H41  1  0.187150  0.304650  0.988170  1.0  0.1643
  H  H42  1  0.314480  0.193970  0.005160  1.0  0.164
  H  H43  1  0.187150  0.804650  0.488180  1.0  0.1643
  H  H44  1  0.314480  0.693970  0.505160  1.0  0.164
  H  H45  1  0.814480  0.693970  0.005160  1.0  0.164
  H  H46  1  0.687150  0.804650  0.988170  1.0  0.1643
  H  H47  1  0.814480  0.193970  0.505160  1.0  0.164
  H  H48  1  0.687150  0.304650  0.488180  1.0  0.1643
  H  H49  1  0.694840  0.187160  0.989100  1.0  0.1637
  H  H50  1  0.805630  0.312310  0.018040  1.0  0.1611
  H  H51  1  0.694840  0.687160  0.489100  1.0  0.1637
  H  H52  1  0.805630  0.812310  0.518040  1.0  0.1611
  H  H53  1  0.305630  0.312310  0.518040  1.0  0.1611
  H  H54  1  0.194840  0.187160  0.489100  1.0  0.1637
  H  H55  1  0.305630  0.812310  0.018040  1.0  0.1611
  H  H56  1  0.194840  0.687160  0.989100  1.0  0.1637
  H  H57  1  0.981960  0.305630  0.187690  1.0  0.1636
  H  H58  1  0.010900  0.194840  0.312840  1.0  0.1656
  H  H59  1  0.510900  0.194840  0.812840  1.0  0.1656
  H  H60  1  0.481960  0.305630  0.687690  1.0  0.1638
  H  H61  1  0.010900  0.694840  0.812840  1.0  0.1656
  H  H62  1  0.981960  0.805630  0.687690  1.0  0.1638
  H  H63  1  0.481960  0.805630  0.187690  1.0  0.1636
  H  H64  1  0.510900  0.694840  0.312840  1.0  0.1656
  H  H65  1  0.994840  0.814480  0.306030  1.0  0.1643
  H  H66  1  0.011830  0.687150  0.195350  1.0  0.1624
  H  H67  1  0.511820  0.687150  0.695350  1.0  0.1624
  H  H68  1  0.494840  0.814480  0.806030  1.0  0.1643
  H  H69  1  0.494840  0.314480  0.306030  1.0  0.1643
  H  H70  1  0.511830  0.187150  0.195350  1.0  0.1624
  H  H71  1  0.011820  0.187150  0.695350  1.0  0.1624
  H  H72  1  0.994840  0.314480  0.806030  1.0  0.1643
  H  H73  1  0.187160  0.010900  0.305160  1.0  0.1641
  H  H74  1  0.312310  0.981960  0.194370  1.0  0.1606
  H  H75  1  0.312310  0.481960  0.694370  1.0  0.1608
  H  H76  1  0.187160  0.510900  0.805160  1.0  0.1641
  H  H77  1  0.812310  0.981960  0.694370  1.0  0.1608
  H  H78  1  0.687160  0.010900  0.805160  1.0  0.1641
  H  H79  1  0.687160  0.510900  0.305160  1.0  0.1641
  H  H80  1  0.812310  0.481960  0.194370  1.0  0.1606
  H  H81  1  0.304650  0.011820  0.812850  1.0  0.1613
  H  H82  1  0.193970  0.994840  0.685520  1.0  0.1625
  H  H83  1  0.193970  0.494840  0.185520  1.0  0.1625
  H  H84  1  0.304650  0.511820  0.312850  1.0  0.1613
  H  H85  1  0.693970  0.994840  0.185520  1.0  0.1625
  H  H86  1  0.804650  0.011820  0.312850  1.0  0.1613
  H  H87  1  0.804650  0.511820  0.812850  1.0  0.1613
  H  H88  1  0.693970  0.494840  0.685520  1.0  0.1625
  C  C89  1  0.816130  0.160270  0.992480  1.0  0.6368
  C  C90  1  0.160930  0.183550  0.996160  1.0  0.6448
  C  C91  1  0.986800  0.184350  0.160750  1.0  0.6179
  C  C92  1  0.003840  0.160930  0.816450  1.0  0.6428
  C  C93  1  0.184350  0.839250  0.013200  1.0  0.6197
  C  C94  1  0.840460  0.815250  0.998580  1.0  0.6371
  C  C95  1  0.160270  0.007520  0.183870  1.0  0.6352
  C  C96  1  0.183550  0.003840  0.839070  1.0  0.6483
  C  C97  1  0.839250  0.986800  0.815650  1.0  0.6164
  C  C98  1  0.815250  0.001420  0.159540  1.0  0.6386
  C  C99  1  0.001420  0.840460  0.184760  1.0  0.6358
  C  C100  1  0.007520  0.816130  0.839730  1.0  0.6358
  C  C101  1  0.316130  0.660270  0.992480  1.0  0.6368
  C  C102  1  0.660930  0.683550  0.996160  1.0  0.6448
  C  C103  1  0.486800  0.684350  0.160750  1.0  0.6179
  C  C104  1  0.503840  0.660930  0.816450  1.0  0.6428
  C  C105  1  0.684350  0.339250  0.013200  1.0  0.6197
  C  C106  1  0.340460  0.315250  0.998580  1.0  0.6371
  C  C107  1  0.660270  0.507520  0.183870  1.0  0.6352
  C  C108  1  0.683550  0.503840  0.839070  1.0  0.6483
  C  C109  1  0.339250  0.486800  0.815650  1.0  0.6164
  C  C110  1  0.315250  0.501420  0.159540  1.0  0.6386
  C  C111  1  0.501420  0.340460  0.184760  1.0  0.6358
  C  C112  1  0.507520  0.316130  0.839730  1.0  0.6358
  C  C113  1  0.816130  0.660270  0.492480  1.0  0.6368
  C  C114  1  0.160930  0.683550  0.496160  1.0  0.6449
  C  C115  1  0.986800  0.684350  0.660750  1.0  0.6179
  C  C116  1  0.003840  0.660930  0.316450  1.0  0.6429
  C  C117  1  0.184350  0.339250  0.513200  1.0  0.6197
  C  C118  1  0.840460  0.315250  0.498580  1.0  0.6371
  C  C119  1  0.160270  0.507520  0.683870  1.0  0.6353
  C  C120  1  0.183550  0.503840  0.339070  1.0  0.6482
  C  C121  1  0.839250  0.486800  0.315650  1.0  0.6164
  C  C122  1  0.815240  0.501420  0.659540  1.0  0.6386
  C  C123  1  0.001420  0.340460  0.684750  1.0  0.6358
  C  C124  1  0.007520  0.316130  0.339730  1.0  0.6356
  C  C125  1  0.316130  0.160270  0.492480  1.0  0.6368
  C  C126  1  0.660930  0.183550  0.496160  1.0  0.6449
  C  C127  1  0.486800  0.184350  0.660750  1.0  0.6179
  C  C128  1  0.503840  0.160930  0.316450  1.0  0.6429
  C  C129  1  0.684350  0.839250  0.513200  1.0  0.6197
  C  C130  1  0.340460  0.815250  0.498580  1.0  0.6371
  C  C131  1  0.660270  0.007520  0.683870  1.0  0.6353
  C  C132  1  0.683550  0.003840  0.339070  1.0  0.6482
  C  C133  1  0.339250  0.986800  0.315650  1.0  0.6164
  C  C134  1  0.315240  0.001420  0.659540  1.0  0.6386
  C  C135  1  0.501420  0.840460  0.684750  1.0  0.6358
  C  C136  1  0.507520  0.816130  0.339730  1.0  0.6356
  C  C137  1  0.213110  0.250410  0.994000  1.0  -0.0736
  C  C138  1  0.288490  0.248180  0.999240  1.0  -0.061
  C  C139  1  0.213110  0.750410  0.494000  1.0  -0.0736
  C  C140  1  0.288490  0.748180  0.499240  1.0  -0.061
  C  C141  1  0.788490  0.748180  0.999240  1.0  -0.061
  C  C142  1  0.713110  0.750410  0.994000  1.0  -0.0736
  C  C143  1  0.788490  0.248180  0.499240  1.0  -0.061
  C  C144  1  0.713110  0.250410  0.494000  1.0  -0.0736
  C  C145  1  0.749160  0.212490  0.996630  1.0  -0.0716
  C  C146  1  0.751320  0.286930  0.010600  1.0  -0.0482
  C  C147  1  0.749160  0.712490  0.496630  1.0  -0.0716
  C  C148  1  0.751320  0.786930  0.510600  1.0  -0.0482
  C  C149  1  0.251320  0.286930  0.510600  1.0  -0.0482
  C  C150  1  0.249160  0.212490  0.496630  1.0  -0.0716
  C  C151  1  0.251320  0.786930  0.010600  1.0  -0.0482
  C  C152  1  0.249160  0.712490  0.996630  1.0  -0.0716
  C  C153  1  0.989400  0.251320  0.213070  1.0  -0.0465
  C  C154  1  0.003370  0.249160  0.287510  1.0  -0.0689
  C  C155  1  0.503370  0.249160  0.787510  1.0  -0.0689
  C  C156  1  0.489400  0.251320  0.713070  1.0  -0.0465
  C  C157  1  0.003370  0.749160  0.787510  1.0  -0.0689
  C  C158  1  0.989400  0.751320  0.713070  1.0  -0.0465
  C  C159  1  0.489400  0.751320  0.213070  1.0  -0.0465
  C  C160  1  0.503370  0.749160  0.287510  1.0  -0.0689
  C  C161  1  0.000760  0.788490  0.251820  1.0  -0.0628
  C  C162  1  0.006000  0.713110  0.249590  1.0  -0.0755
  C  C163  1  0.506000  0.713110  0.749590  1.0  -0.0755
  C  C164  1  0.500760  0.788490  0.751820  1.0  -0.063
  C  C165  1  0.500760  0.288490  0.251820  1.0  -0.0628
  C  C166  1  0.506000  0.213110  0.249590  1.0  -0.0755
  C  C167  1  0.006000  0.213110  0.749590  1.0  -0.0755
  C  C168  1  0.000760  0.288490  0.751820  1.0  -0.063
  C  C169  1  0.212490  0.003370  0.250840  1.0  -0.072
  C  C170  1  0.286930  0.989400  0.248680  1.0  -0.0491
  C  C171  1  0.286930  0.489400  0.748680  1.0  -0.0491
  C  C172  1  0.212490  0.503370  0.750840  1.0  -0.072
  C  C173  1  0.786930  0.989400  0.748680  1.0  -0.0491
  C  C174  1  0.712490  0.003370  0.750840  1.0  -0.072
  C  C175  1  0.712490  0.503370  0.250840  1.0  -0.072
  C  C176  1  0.786930  0.489400  0.248680  1.0  -0.0491
  C  C177  1  0.250410  0.006000  0.786890  1.0  -0.0752
  C  C178  1  0.248180  0.000760  0.711510  1.0  -0.0625
  C  C179  1  0.248180  0.500760  0.211510  1.0  -0.0626
  C  C180  1  0.250410  0.506000  0.286890  1.0  -0.0752
  C  C181  1  0.748180  0.000760  0.211510  1.0  -0.0626
  C  C182  1  0.750410  0.006000  0.286890  1.0  -0.0752
  C  C183  1  0.750410  0.506000  0.786890  1.0  -0.0752
  C  C184  1  0.748180  0.500760  0.711510  1.0  -0.0625
  O  O185  1  0.800270  0.089280  0.989900  1.0  -0.5892
  O  O186  1  0.187400  0.115810  0.004210  1.0  -0.5778
  O  O187  1  0.986430  0.200150  0.089680  1.0  -0.5958
  O  O188  1  0.995790  0.187400  0.884190  1.0  -0.5832
  O  O189  1  0.009540  0.090170  0.800640  1.0  -0.5913
  O  O190  1  0.987010  0.116230  0.187440  1.0  -0.5825
  O  O191  1  0.090170  0.199360  0.990450  1.0  -0.5925
  O  O192  1  0.884190  0.187050  0.991660  1.0  -0.5839
  O  O193  1  0.067570  0.067570  0.932430  1.0  -0.9426
  O  O194  1  0.923490  0.067280  0.058750  1.0  -0.8798
  O  O195  1  0.059010  0.075380  0.066810  1.0  -0.8629
  O  O196  1  0.933190  0.059010  0.924620  1.0  -0.8649
  O  O197  1  0.200150  0.910320  0.013570  1.0  -0.5883
  O  O198  1  0.813750  0.882990  0.991480  1.0  -0.5877
  O  O199  1  0.089280  0.010100  0.199730  1.0  -0.5907
  O  O200  1  0.115810  0.995790  0.812600  1.0  -0.5802
  O  O201  1  0.910320  0.986430  0.799850  1.0  -0.5939
  O  O202  1  0.882990  0.008520  0.186250  1.0  -0.5914
  O  O203  1  0.008520  0.813750  0.117010  1.0  -0.5945
  O  O204  1  0.010100  0.800270  0.910720  1.0  -0.5937
  O  O205  1  0.993610  0.911100  0.200210  1.0  -0.5978
  O  O206  1  0.008340  0.884190  0.812950  1.0  -0.5844
  O  O207  1  0.187050  0.008340  0.115810  1.0  -0.5778
  O  O208  1  0.799790  0.993610  0.088900  1.0  -0.5976
  O  O209  1  0.812560  0.987010  0.883770  1.0  -0.5822
  O  O210  1  0.199360  0.009540  0.909830  1.0  -0.589
  O  O211  1  0.116230  0.812560  0.012990  1.0  -0.5864
  O  O212  1  0.911100  0.799790  0.006400  1.0  -0.5993
  O  O213  1  0.941250  0.923490  0.932720  1.0  -0.881
  O  O214  1  0.067280  0.941250  0.076510  1.0  -0.8822
  O  O215  1  0.932990  0.932990  0.067010  1.0  -0.8174
  O  O216  1  0.075380  0.933190  0.940990  1.0  -0.862
  O  O217  1  0.300270  0.589280  0.989900  1.0  -0.5892
  O  O218  1  0.687400  0.615810  0.004210  1.0  -0.5778
  O  O219  1  0.486430  0.700150  0.089680  1.0  -0.5958
  O  O220  1  0.495790  0.687400  0.884190  1.0  -0.5832
  O  O221  1  0.509540  0.590170  0.800640  1.0  -0.5913
  O  O222  1  0.487010  0.616230  0.187440  1.0  -0.5825
  O  O223  1  0.590170  0.699360  0.990450  1.0  -0.5925
  O  O224  1  0.384190  0.687050  0.991660  1.0  -0.5839
  O  O225  1  0.567570  0.567570  0.932430  1.0  -0.9426
  O  O226  1  0.423490  0.567280  0.058750  1.0  -0.8798
  O  O227  1  0.559010  0.575380  0.066810  1.0  -0.8629
  O  O228  1  0.433190  0.559010  0.924620  1.0  -0.8649
  O  O229  1  0.700150  0.410320  0.013570  1.0  -0.5883
  O  O230  1  0.313750  0.382990  0.991480  1.0  -0.5877
  O  O231  1  0.589280  0.510100  0.199730  1.0  -0.5907
  O  O232  1  0.615810  0.495790  0.812600  1.0  -0.5802
  O  O233  1  0.410320  0.486430  0.799850  1.0  -0.5939
  O  O234  1  0.382990  0.508520  0.186250  1.0  -0.5914
  O  O235  1  0.508520  0.313750  0.117010  1.0  -0.5945
  O  O236  1  0.510100  0.300270  0.910720  1.0  -0.5937
  O  O237  1  0.493610  0.411100  0.200210  1.0  -0.5978
  O  O238  1  0.508340  0.384190  0.812950  1.0  -0.5844
  O  O239  1  0.687050  0.508340  0.115810  1.0  -0.5778
  O  O240  1  0.299790  0.493610  0.088900  1.0  -0.5976
  O  O241  1  0.312560  0.487010  0.883770  1.0  -0.5822
  O  O242  1  0.699360  0.509540  0.909830  1.0  -0.589
  O  O243  1  0.616230  0.312560  0.012990  1.0  -0.5864
  O  O244  1  0.411100  0.299790  0.006400  1.0  -0.5993
  O  O245  1  0.441250  0.423490  0.932720  1.0  -0.881
  O  O246  1  0.567280  0.441250  0.076510  1.0  -0.8822
  O  O247  1  0.432990  0.432990  0.067010  1.0  -0.8174
  O  O248  1  0.575380  0.433190  0.940990  1.0  -0.862
  O  O249  1  0.800270  0.589280  0.489900  1.0  -0.5891
  O  O250  1  0.187400  0.615810  0.504210  1.0  -0.5778
  O  O251  1  0.986430  0.700150  0.589680  1.0  -0.5958
  O  O252  1  0.995790  0.687400  0.384190  1.0  -0.5832
  O  O253  1  0.009540  0.590170  0.300640  1.0  -0.5913
  O  O254  1  0.987010  0.616230  0.687440  1.0  -0.5825
  O  O255  1  0.090170  0.699360  0.490460  1.0  -0.5927
  O  O256  1  0.884190  0.687050  0.491660  1.0  -0.5839
  O  O257  1  0.067570  0.567570  0.432430  1.0  -0.9426
  O  O258  1  0.923490  0.567280  0.558750  1.0  -0.8798
  O  O259  1  0.059010  0.575380  0.566810  1.0  -0.8629
  O  O260  1  0.933190  0.559010  0.424620  1.0  -0.8649
  O  O261  1  0.200150  0.410320  0.513570  1.0  -0.5883
  O  O262  1  0.813750  0.382990  0.491480  1.0  -0.5876
  O  O263  1  0.089280  0.510100  0.699730  1.0  -0.5906
  O  O264  1  0.115810  0.495790  0.312600  1.0  -0.5802
  O  O265  1  0.910320  0.486430  0.299850  1.0  -0.5939
  O  O266  1  0.882990  0.508520  0.686250  1.0  -0.5912
  O  O267  1  0.008520  0.313750  0.617010  1.0  -0.5946
  O  O268  1  0.010100  0.300270  0.410720  1.0  -0.5941
  O  O269  1  0.993600  0.411100  0.700210  1.0  -0.5978
  O  O270  1  0.008340  0.384190  0.312950  1.0  -0.5844
  O  O271  1  0.187050  0.508340  0.615810  1.0  -0.5778
  O  O272  1  0.799790  0.493600  0.588900  1.0  -0.5977
  O  O273  1  0.812560  0.487010  0.383770  1.0  -0.5822
  O  O274  1  0.199360  0.509540  0.409830  1.0  -0.5889
  O  O275  1  0.116230  0.312560  0.512990  1.0  -0.5864
  O  O276  1  0.911100  0.299790  0.506390  1.0  -0.5993
  O  O277  1  0.941250  0.423490  0.432720  1.0  -0.881
  O  O278  1  0.067280  0.441250  0.576510  1.0  -0.8822
  O  O279  1  0.932990  0.432990  0.567010  1.0  -0.8174
  O  O280  1  0.075380  0.433190  0.440990  1.0  -0.862
  O  O281  1  0.300270  0.089280  0.489900  1.0  -0.5891
  O  O282  1  0.687400  0.115810  0.504210  1.0  -0.5778
  O  O283  1  0.486430  0.200150  0.589680  1.0  -0.5958
  O  O284  1  0.495790  0.187400  0.384190  1.0  -0.5832
  O  O285  1  0.509540  0.090170  0.300640  1.0  -0.5913
  O  O286  1  0.487010  0.116230  0.687440  1.0  -0.5825
  O  O287  1  0.590170  0.199360  0.490460  1.0  -0.5927
  O  O288  1  0.384190  0.187050  0.491660  1.0  -0.5839
  O  O289  1  0.567570  0.067570  0.432430  1.0  -0.9426
  O  O290  1  0.423490  0.067280  0.558750  1.0  -0.8798
  O  O291  1  0.559010  0.075380  0.566810  1.0  -0.8629
  O  O292  1  0.433190  0.059010  0.424620  1.0  -0.8649
  O  O293  1  0.700150  0.910320  0.513570  1.0  -0.5883
  O  O294  1  0.313750  0.882990  0.491480  1.0  -0.5876
  O  O295  1  0.589280  0.010100  0.699730  1.0  -0.5906
  O  O296  1  0.615810  0.995790  0.312600  1.0  -0.5802
  O  O297  1  0.410320  0.986430  0.299850  1.0  -0.5939
  O  O298  1  0.382990  0.008520  0.686250  1.0  -0.5912
  O  O299  1  0.508520  0.813750  0.617010  1.0  -0.5946
  O  O300  1  0.510100  0.800270  0.410720  1.0  -0.5941
  O  O301  1  0.493600  0.911100  0.700210  1.0  -0.5978
  O  O302  1  0.508340  0.884190  0.312950  1.0  -0.5844
  O  O303  1  0.687050  0.008340  0.615810  1.0  -0.5778
  O  O304  1  0.299790  0.993600  0.588900  1.0  -0.5977
  O  O305  1  0.312560  0.987010  0.383770  1.0  -0.5822
  O  O306  1  0.699360  0.009540  0.409830  1.0  -0.5889
  O  O307  1  0.616230  0.812560  0.512990  1.0  -0.5864
  O  O308  1  0.411100  0.799790  0.506390  1.0  -0.5993
  O  O309  1  0.441250  0.923490  0.432720  1.0  -0.881
  O  O310  1  0.567280  0.941250  0.576510  1.0  -0.8822
  O  O311  1  0.432990  0.932990  0.567010  1.0  -0.8174
  O  O312  1  0.575380  0.933190  0.440990  1.0  -0.862
