# generated using pymatgen
data_MoH27C22NO4
_symmetry_space_group_name_H-M   'P 1'
_cell_length_a   14.70310000
_cell_length_b   20.83790000
_cell_length_c   20.83790000
_cell_angle_alpha   82.85010000
_cell_angle_beta   69.34150000
_cell_angle_gamma   69.34160000
_symmetry_Int_Tables_number   1
_chemical_formula_structural   MoH27C22NO4
_chemical_formula_sum   'Mo8 H216 C176 N8 O32'
_cell_volume   5589.72162124
_cell_formula_units_Z   8
loop_
 _symmetry_equiv_pos_site_id
 _symmetry_equiv_pos_as_xyz
  1  'x, y, z'
loop_
 _atom_site_type_symbol
 _atom_site_label
 _atom_site_symmetry_multiplicity
 _atom_site_fract_x
 _atom_site_fract_y
 _atom_site_fract_z
 _atom_site_occupancy
 _atom_site_charge
  Mo  Mo1  1  0.510220  0.947110  0.003410  1.0  0.8983
  Mo  Mo2  1  0.960740  0.552890  0.496590  1.0  0.8992
  Mo  Mo3  1  0.513630  0.996590  0.447110  1.0  0.9
  Mo  Mo4  1  0.457330  0.503410  0.052890  1.0  0.8991
  Mo  Mo5  1  0.489780  0.052890  0.996590  1.0  0.8987
  Mo  Mo6  1  0.039260  0.447110  0.503410  1.0  0.8974
  Mo  Mo7  1  0.486370  0.003410  0.552890  1.0  0.8993
  Mo  Mo8  1  0.542670  0.496590  0.947110  1.0  0.8979
  H  H9  1  0.986700  0.933100  0.737300  1.0  0.1049
  H  H10  1  0.767100  0.041200  0.072200  1.0  0.1038
  H  H11  1  0.774800  0.945000  0.020400  1.0  0.0557
  H  H12  1  0.757400  0.063000  0.997800  1.0  0.1134
  H  H13  1  0.027800  0.934900  0.918100  1.0  0.0959
  H  H14  1  0.928300  0.864800  0.032200  1.0  0.1021
  H  H15  1  0.169000  0.913000  0.820000  1.0  0.0258
  H  H16  1  0.119600  0.003800  0.719800  1.0  0.1
  H  H17  1  0.131800  0.018700  0.789300  1.0  0.1052
  H  H18  1  0.864200  0.049600  0.010000  1.0  0.1025
  H  H19  1  0.976200  0.924400  0.025400  1.0  0.1019
  H  H20  1  0.879800  0.921400  0.091200  1.0  0.1108
  H  H21  1  0.165700  0.857300  0.712900  1.0  0.095
  H  H22  1  0.717100  0.947900  0.814100  1.0  0.0592
  H  H23  1  0.773000  0.892100  0.714500  1.0  0.1039
  H  H24  1  0.871000  0.917100  0.682500  1.0  0.1011
  H  H25  1  0.870400  0.858400  0.740000  1.0  0.1085
  H  H26  1  0.708700  0.031300  0.720100  1.0  0.1129
  H  H27  1  0.701200  0.062500  0.788900  1.0  0.1104
  H  H28  1  0.807300  0.043200  0.725800  1.0  0.1061
  H  H29  1  0.554700  0.891700  0.209700  1.0  0.1307
  H  H30  1  0.541400  0.089000  0.190400  1.0  0.1241
  H  H31  1  0.567700  0.893000  0.317200  1.0  0.0696
  H  H32  1  0.544600  0.083800  0.300400  1.0  0.0725
  H  H33  1  0.230800  0.976800  0.728600  1.0  0.1096
  H  H34  1  0.265400  0.853100  0.730100  1.0  0.1115
  H  H35  1  0.181600  0.822300  0.782700  1.0  0.1036
  H  H36  1  0.157100  0.566900  0.762700  1.0  0.1049
  H  H37  1  0.380500  0.458800  0.427800  1.0  0.1015
  H  H38  1  0.240200  0.555000  0.479600  1.0  0.061
  H  H39  1  0.318200  0.437000  0.502200  1.0  0.1126
  H  H40  1  0.380800  0.565100  0.581900  1.0  0.0968
  H  H41  1  0.325300  0.635200  0.467800  1.0  0.1026
  H  H42  1  0.402000  0.587000  0.680000  1.0  0.0247
  H  H43  1  0.343200  0.496200  0.780200  1.0  0.0988
  H  H44  1  0.439800  0.481300  0.710700  1.0  0.1056
  H  H45  1  0.423800  0.450400  0.490000  1.0  0.1001
  H  H46  1  0.426000  0.575600  0.474600  1.0  0.0992
  H  H47  1  0.392400  0.578600  0.408800  1.0  0.111
  H  H48  1  0.235900  0.642700  0.787100  1.0  0.0936
  H  H49  1  0.979100  0.552100  0.685900  1.0  0.0545
  H  H50  1  0.879600  0.607900  0.785500  1.0  0.1059
  H  H51  1  0.970600  0.582900  0.817500  1.0  0.1048
  H  H52  1  0.968800  0.641600  0.760000  1.0  0.1077
  H  H53  1  0.960100  0.468700  0.779900  1.0  0.1076
  H  H54  1  0.052600  0.437500  0.711100  1.0  0.1104
  H  H55  1  0.076300  0.456800  0.774200  1.0  0.1097
  H  H56  1  0.156100  0.608300  0.290300  1.0  0.1318
  H  H57  1  0.320800  0.411000  0.309600  1.0  0.1234
  H  H58  1  0.277900  0.607000  0.182800  1.0  0.0697
  H  H59  1  0.428800  0.416200  0.199600  1.0  0.0728
  H  H60  1  0.436200  0.523200  0.771400  1.0  0.1088
  H  H61  1  0.348600  0.646900  0.769900  1.0  0.1073
  H  H62  1  0.286600  0.677700  0.717300  1.0  0.1047
  H  H63  1  0.724000  0.262700  0.433100  1.0  0.1062
  H  H64  1  0.839300  0.927800  0.541200  1.0  0.1027
  H  H65  1  0.795200  0.979600  0.445000  1.0  0.062
  H  H66  1  0.755200  0.002200  0.563000  1.0  0.1109
  H  H67  1  0.945900  0.081900  0.434900  1.0  0.0956
  H  H68  1  0.960500  0.967800  0.364800  1.0  0.102
  H  H69  1  0.989000  0.180000  0.413000  1.0  0.0277
  H  H70  1  0.839400  0.280200  0.503800  1.0  0.0995
  H  H71  1  0.921100  0.210700  0.518700  1.0  0.1061
  H  H72  1  0.874200  0.990000  0.549600  1.0  0.0994
  H  H73  1  0.001600  0.974600  0.424400  1.0  0.0986
  H  H74  1  0.971000  0.908800  0.421400  1.0  0.1112
  H  H75  1  0.878600  0.287100  0.357300  1.0  0.0953
  H  H76  1  0.531200  0.185900  0.447900  1.0  0.0579
  H  H77  1  0.487500  0.285500  0.392100  1.0  0.103
  H  H78  1  0.553500  0.317500  0.417100  1.0  0.1025
  H  H79  1  0.610400  0.260000  0.358400  1.0  0.1054
  H  H80  1  0.428800  0.279900  0.531300  1.0  0.1102
  H  H81  1  0.490100  0.211100  0.562500  1.0  0.1128
  H  H82  1  0.533100  0.274200  0.543200  1.0  0.1101
  H  H83  1  0.764400  0.790300  0.391700  1.0  0.1316
  H  H84  1  0.731800  0.809600  0.589000  1.0  0.124
  H  H85  1  0.884900  0.682800  0.393000  1.0  0.0701
  H  H86  1  0.845000  0.699600  0.583800  1.0  0.0733
  H  H87  1  0.959400  0.271400  0.476800  1.0  0.1088
  H  H88  1  0.995500  0.269900  0.353100  1.0  0.111
  H  H89  1  0.964300  0.217300  0.322300  1.0  0.1043
  H  H90  1  0.919800  0.237300  0.066900  1.0  0.106
  H  H91  1  0.808300  0.572200  0.958800  1.0  0.1037
  H  H92  1  0.719800  0.520400  0.055000  1.0  0.0543
  H  H93  1  0.820400  0.497800  0.937000  1.0  0.113
  H  H94  1  0.962700  0.418100  0.065100  1.0  0.0952
  H  H95  1  0.793100  0.532200  0.135200  1.0  0.1043
  H  H96  1  0.082000  0.320000  0.087000  1.0  0.0285
  H  H97  1  0.123400  0.219800  0.996200  1.0  0.1016
  H  H98  1  0.150500  0.289300  0.981300  1.0  0.1075
  H  H99  1  0.913800  0.510000  0.950400  1.0  0.1023
  H  H100  1  0.900600  0.525400  0.075600  1.0  0.0987
  H  H101  1  0.801200  0.591200  0.078600  1.0  0.1112
  H  H102  1  0.023000  0.212900  0.142700  1.0  0.0957
  H  H103  1  0.665000  0.314100  0.052100  1.0  0.0598
  H  H104  1  0.665100  0.214500  0.107900  1.0  0.1052
  H  H105  1  0.788100  0.182500  0.082900  1.0  0.1013
  H  H106  1  0.728800  0.240000  0.141600  1.0  0.1069
  H  H107  1  0.740000  0.220100  0.968700  1.0  0.1136
  H  H108  1  0.763700  0.288900  0.937500  1.0  0.1121
  H  H109  1  0.850500  0.225800  0.956800  1.0  0.1082
  H  H110  1  0.446400  0.709700  0.108300  1.0  0.1319
  H  H111  1  0.630400  0.690400  0.911000  1.0  0.1243
  H  H112  1  0.460700  0.817200  0.107000  1.0  0.0704
  H  H113  1  0.628400  0.800400  0.916200  1.0  0.0728
  H  H114  1  0.207600  0.228600  0.023200  1.0  0.1105
  H  H115  1  0.118500  0.230100  0.146900  1.0  0.1074
  H  H116  1  0.003900  0.282700  0.177700  1.0  0.1022
  H  H117  1  0.013300  0.066900  0.262700  1.0  0.1049
  H  H118  1  0.232900  0.958800  0.927800  1.0  0.1034
  H  H119  1  0.225200  0.055000  0.979600  1.0  0.0543
  H  H120  1  0.242600  0.937000  0.002200  1.0  0.1129
  H  H121  1  0.972200  0.065100  0.081900  1.0  0.0959
  H  H122  1  0.071700  0.135200  0.967800  1.0  0.1031
  H  H123  1  0.831000  0.087000  0.180000  1.0  0.0257
  H  H124  1  0.880400  0.996200  0.280200  1.0  0.1004
  H  H125  1  0.868200  0.981300  0.210700  1.0  0.1053
  H  H126  1  0.135800  0.950400  0.990000  1.0  0.1007
  H  H127  1  0.023800  0.075600  0.974600  1.0  0.0986
  H  H128  1  0.120200  0.078600  0.908800  1.0  0.1108
  H  H129  1  0.834300  0.142700  0.287100  1.0  0.0934
  H  H130  1  0.282900  0.052100  0.185900  1.0  0.0544
  H  H131  1  0.227000  0.107900  0.285500  1.0  0.1056
  H  H132  1  0.129000  0.082900  0.317500  1.0  0.1023
  H  H133  1  0.129600  0.141600  0.260000  1.0  0.1078
  H  H134  1  0.291300  0.968700  0.279900  1.0  0.1135
  H  H135  1  0.298800  0.937500  0.211100  1.0  0.1109
  H  H136  1  0.192700  0.956800  0.274200  1.0  0.1067
  H  H137  1  0.445300  0.108300  0.790300  1.0  0.1311
  H  H138  1  0.458600  0.911000  0.809600  1.0  0.1238
  H  H139  1  0.432300  0.107000  0.682800  1.0  0.0697
  H  H140  1  0.455400  0.916200  0.699600  1.0  0.0722
  H  H141  1  0.769200  0.023200  0.271400  1.0  0.1068
  H  H142  1  0.734600  0.146900  0.269900  1.0  0.1109
  H  H143  1  0.818400  0.177700  0.217300  1.0  0.1036
  H  H144  1  0.842900  0.433100  0.237300  1.0  0.1051
  H  H145  1  0.619500  0.541200  0.572200  1.0  0.1026
  H  H146  1  0.759800  0.445000  0.520400  1.0  0.0603
  H  H147  1  0.681800  0.563000  0.497800  1.0  0.1126
  H  H148  1  0.619200  0.434900  0.418100  1.0  0.0961
  H  H149  1  0.674700  0.364800  0.532200  1.0  0.1025
  H  H150  1  0.598000  0.413000  0.320000  1.0  0.0246
  H  H151  1  0.656800  0.503800  0.219800  1.0  0.098
  H  H152  1  0.560200  0.518700  0.289300  1.0  0.1049
  H  H153  1  0.576200  0.549600  0.510000  1.0  0.1007
  H  H154  1  0.574000  0.424400  0.525400  1.0  0.0988
  H  H155  1  0.607600  0.421400  0.591200  1.0  0.1104
  H  H156  1  0.764100  0.357300  0.212900  1.0  0.0937
  H  H157  1  0.020900  0.447900  0.314100  1.0  0.0536
  H  H158  1  0.120400  0.392100  0.214500  1.0  0.1038
  H  H159  1  0.029400  0.417100  0.182500  1.0  0.1036
  H  H160  1  0.031200  0.358400  0.240000  1.0  0.1079
  H  H161  1  0.039900  0.531300  0.220100  1.0  0.1094
  H  H162  1  0.947400  0.562500  0.288900  1.0  0.1097
  H  H163  1  0.923700  0.543200  0.225800  1.0  0.1097
  H  H164  1  0.843900  0.391700  0.709700  1.0  0.1311
  H  H165  1  0.679200  0.589000  0.690400  1.0  0.1238
  H  H166  1  0.722100  0.393000  0.817200  1.0  0.0697
  H  H167  1  0.571200  0.583800  0.800400  1.0  0.0731
  H  H168  1  0.563800  0.476800  0.228600  1.0  0.1075
  H  H169  1  0.651400  0.353100  0.230100  1.0  0.1066
  H  H170  1  0.713400  0.322300  0.282700  1.0  0.1038
  H  H171  1  0.276000  0.737300  0.566900  1.0  0.1055
  H  H172  1  0.160700  0.072200  0.458800  1.0  0.1043
  H  H173  1  0.204800  0.020400  0.555000  1.0  0.06
  H  H174  1  0.244800  0.997800  0.437000  1.0  0.1112
  H  H175  1  0.054100  0.918100  0.565100  1.0  0.0955
  H  H176  1  0.039500  0.032200  0.635200  1.0  0.1027
  H  H177  1  0.011000  0.820000  0.587000  1.0  0.0283
  H  H178  1  0.160600  0.719800  0.496200  1.0  0.0997
  H  H179  1  0.078900  0.789300  0.481300  1.0  0.1074
  H  H180  1  0.125800  0.010000  0.450400  1.0  0.1009
  H  H181  1  0.998400  0.025400  0.575600  1.0  0.0974
  H  H182  1  0.029000  0.091200  0.578600  1.0  0.1111
  H  H183  1  0.121400  0.712900  0.642700  1.0  0.0939
  H  H184  1  0.468800  0.814100  0.552100  1.0  0.0567
  H  H185  1  0.512500  0.714500  0.607900  1.0  0.1038
  H  H186  1  0.446500  0.682500  0.582900  1.0  0.1027
  H  H187  1  0.389600  0.740000  0.641600  1.0  0.1059
  H  H188  1  0.571200  0.720100  0.468700  1.0  0.1132
  H  H189  1  0.509900  0.788900  0.437500  1.0  0.113
  H  H190  1  0.466900  0.725800  0.456800  1.0  0.1105
  H  H191  1  0.235600  0.209700  0.608300  1.0  0.1312
  H  H192  1  0.268200  0.190400  0.411000  1.0  0.1244
  H  H193  1  0.115100  0.317200  0.607000  1.0  0.0704
  H  H194  1  0.155000  0.300400  0.416200  1.0  0.0731
  H  H195  1  0.040600  0.728600  0.523200  1.0  0.1066
  H  H196  1  0.004500  0.730100  0.646900  1.0  0.11
  H  H197  1  0.035700  0.782700  0.677700  1.0  0.1038
  H  H198  1  0.080200  0.762700  0.933100  1.0  0.1059
  H  H199  1  0.191700  0.427800  0.041200  1.0  0.1027
  H  H200  1  0.280200  0.479600  0.945000  1.0  0.0534
  H  H201  1  0.179600  0.502200  0.063000  1.0  0.1132
  H  H202  1  0.037300  0.581900  0.934900  1.0  0.0947
  H  H203  1  0.206900  0.467800  0.864800  1.0  0.1036
  H  H204  1  0.918000  0.680000  0.913000  1.0  0.026
  H  H205  1  0.876600  0.780200  0.003800  1.0  0.0993
  H  H206  1  0.849500  0.710700  0.018700  1.0  0.1063
  H  H207  1  0.086200  0.490000  0.049600  1.0  0.0996
  H  H208  1  0.099400  0.474600  0.924400  1.0  0.0975
  H  H209  1  0.198800  0.408800  0.921400  1.0  0.1111
  H  H210  1  0.977000  0.787100  0.857300  1.0  0.0962
  H  H211  1  0.335000  0.685900  0.947900  1.0  0.0577
  H  H212  1  0.334900  0.785500  0.892100  1.0  0.1048
  H  H213  1  0.211900  0.817500  0.917100  1.0  0.1032
  H  H214  1  0.271200  0.760000  0.858400  1.0  0.1066
  H  H215  1  0.260000  0.779900  0.031300  1.0  0.1137
  H  H216  1  0.236300  0.711100  0.062500  1.0  0.1124
  H  H217  1  0.149500  0.774200  0.043200  1.0  0.1086
  H  H218  1  0.553600  0.290300  0.891700  1.0  0.1315
  H  H219  1  0.369600  0.309600  0.089000  1.0  0.124
  H  H220  1  0.539300  0.182800  0.893000  1.0  0.0701
  H  H221  1  0.371600  0.199600  0.083800  1.0  0.0733
  H  H222  1  0.792400  0.771400  0.976800  1.0  0.1105
  H  H223  1  0.881500  0.769900  0.853100  1.0  0.108
  H  H224  1  0.996100  0.717300  0.822300  1.0  0.1038
  C  C225  1  0.703000  0.971210  0.927790  1.0  0.6325
  C  C226  1  0.815810  0.957080  0.890300  1.0  -0.2084
  C  C227  1  0.881760  0.951040  0.926640  1.0  0.0833
  C  C228  1  0.983400  0.939200  0.892800  1.0  -0.2038
  C  C229  1  0.023700  0.933400  0.823000  1.0  0.0587
  C  C230  1  0.959000  0.938000  0.785800  1.0  -0.2107
  C  C231  1  0.853100  0.950010  0.819590  1.0  0.0668
  C  C232  1  0.837780  0.958920  0.004120  1.0  0.0703
  C  C233  1  0.803500  0.035100  0.022700  1.0  -0.3454
  C  C234  1  0.912300  0.913200  0.041800  1.0  -0.3403
  C  C235  1  0.140300  0.920200  0.781800  1.0  0.1273
  C  C236  1  0.157100  0.985400  0.752400  1.0  -0.3454
  C  C237  1  0.191700  0.859100  0.749700  1.0  -0.3635
  C  C238  1  0.780200  0.956000  0.780600  1.0  0.0685
  C  C239  1  0.828000  0.900900  0.724300  1.0  -0.3416
  C  C240  1  0.746200  0.030100  0.751100  1.0  -0.3488
  C  C241  1  0.533550  0.993770  0.120530  1.0  0.5773
  C  C242  1  0.543730  0.991630  0.188310  1.0  -0.0066
  C  C243  1  0.552720  0.932540  0.226820  1.0  -0.173
  C  C244  1  0.543670  0.047780  0.216080  1.0  -0.175
  C  C245  1  0.558800  0.934400  0.291600  1.0  0.1632
  C  C246  1  0.547000  0.043750  0.281450  1.0  0.1534
  C  C247  1  0.102000  0.528790  0.572210  1.0  0.6326
  C  C248  1  0.163190  0.542920  0.609700  1.0  -0.2082
  C  C249  1  0.259440  0.548960  0.573360  1.0  0.0798
  C  C250  1  0.315400  0.560800  0.607200  1.0  -0.2064
  C  C251  1  0.280100  0.566600  0.677000  1.0  0.0588
  C  C252  1  0.182800  0.562000  0.714200  1.0  -0.211
  C  C253  1  0.122700  0.549990  0.680410  1.0  0.065
  C  C254  1  0.300820  0.541080  0.495880  1.0  0.0682
  C  C255  1  0.361300  0.464900  0.477300  1.0  -0.3459
  C  C256  1  0.367300  0.586800  0.458200  1.0  -0.3415
  C  C257  1  0.342300  0.579800  0.718200  1.0  0.1267
  C  C258  1  0.394900  0.514600  0.747600  1.0  -0.3464
  C  C259  1  0.300500  0.640900  0.750300  1.0  -0.3615
  C  C260  1  0.016800  0.544000  0.719400  1.0  0.0676
  C  C261  1  0.953200  0.599100  0.775700  1.0  -0.3426
  C  C262  1  0.027400  0.469900  0.748900  1.0  -0.349
  C  C263  1  0.147850  0.506230  0.379470  1.0  0.5776
  C  C264  1  0.223670  0.508370  0.311690  1.0  -0.0089
  C  C265  1  0.212080  0.567460  0.273180  1.0  -0.1738
  C  C266  1  0.307530  0.452220  0.283920  1.0  -0.1748
  C  C267  1  0.284800  0.565600  0.208400  1.0  0.1611
  C  C268  1  0.372200  0.456250  0.218550  1.0  0.1522
  C  C269  1  0.630790  0.072210  0.471210  1.0  0.6326
  C  C270  1  0.706110  0.109700  0.457080  1.0  -0.2066
  C  C271  1  0.808400  0.073360  0.451040  1.0  0.0799
  C  C272  1  0.876200  0.107200  0.439200  1.0  -0.2046
  C  C273  1  0.846700  0.177000  0.433400  1.0  0.0596
  C  C274  1  0.744800  0.214200  0.438000  1.0  -0.2114
  C  C275  1  0.672690  0.180410  0.450010  1.0  0.067
  C  C276  1  0.841900  0.995880  0.458920  1.0  0.0679
  C  C277  1  0.826200  0.977300  0.535100  1.0  -0.3475
  C  C278  1  0.954100  0.958200  0.413200  1.0  -0.3411
  C  C279  1  0.922100  0.218200  0.420200  1.0  0.1286
  C  C280  1  0.909500  0.247600  0.485400  1.0  -0.3419
  C  C281  1  0.941400  0.250300  0.359100  1.0  -0.366
  C  C282  1  0.560800  0.219400  0.456000  1.0  0.07
  C  C283  1  0.552300  0.275700  0.400900  1.0  -0.3419
  C  C284  1  0.497300  0.248900  0.530100  1.0  -0.3498
  C  C285  1  0.654080  0.879470  0.493770  1.0  0.5788
  C  C286  1  0.732040  0.811690  0.491630  1.0  -0.0071
  C  C287  1  0.779540  0.773180  0.432540  1.0  -0.1698
  C  C288  1  0.759750  0.783920  0.547780  1.0  -0.1752
  C  C289  1  0.850400  0.708400  0.434400  1.0  0.1583
  C  C290  1  0.828450  0.718550  0.543750  1.0  0.1527
  C  C291  1  0.674210  0.427790  0.028790  1.0  0.633
  C  C292  1  0.772890  0.390300  0.042920  1.0  -0.2085
  C  C293  1  0.832800  0.426640  0.048960  1.0  0.0817
  C  C294  1  0.922600  0.392800  0.060800  1.0  -0.2052
  C  C295  1  0.957100  0.323000  0.066600  1.0  0.0587
  C  C296  1  0.897000  0.285800  0.062000  1.0  -0.2136
  C  C297  1  0.803110  0.319590  0.049990  1.0  0.0675
  C  C298  1  0.796700  0.504120  0.041080  1.0  0.068
  C  C299  1  0.838600  0.522700  0.964900  1.0  -0.3461
  C  C300  1  0.825500  0.541800  0.086800  1.0  -0.3412
  C  C301  1  0.060500  0.281800  0.079800  1.0  0.1263
  C  C302  1  0.142500  0.252400  0.014600  1.0  -0.346
  C  C303  1  0.050800  0.249700  0.140900  1.0  -0.3624
  C  C304  1  0.736200  0.280600  0.044000  1.0  0.0713
  C  C305  1  0.728900  0.224300  0.099100  1.0  -0.3434
  C  C306  1  0.776300  0.251100  0.969900  1.0  -0.3491
  C  C307  1  0.527320  0.620530  0.006230  1.0  0.5779
  C  C308  1  0.535360  0.688310  0.008370  1.0  -0.0045
  C  C309  1  0.485260  0.726820  0.067460  1.0  -0.1717
  C  C310  1  0.591450  0.716080  0.952220  1.0  -0.1719
  C  C311  1  0.493200  0.791600  0.065600  1.0  0.1589
  C  C312  1  0.590750  0.781450  0.956250  1.0  0.1519
  C  C313  1  0.297000  0.028790  0.072210  1.0  0.6336
  C  C314  1  0.184190  0.042920  0.109700  1.0  -0.2086
  C  C315  1  0.118240  0.048960  0.073360  1.0  0.0817
  C  C316  1  0.016600  0.060800  0.107200  1.0  -0.2062
  C  C317  1  0.976300  0.066600  0.177000  1.0  0.0594
  C  C318  1  0.041000  0.062000  0.214200  1.0  -0.2106
  C  C319  1  0.146900  0.049990  0.180410  1.0  0.0677
  C  C320  1  0.162220  0.041080  0.995880  1.0  0.0678
  C  C321  1  0.196500  0.964900  0.977300  1.0  -0.3453
  C  C322  1  0.087700  0.086800  0.958200  1.0  -0.3397
  C  C323  1  0.859700  0.079800  0.218200  1.0  0.1266
  C  C324  1  0.842900  0.014600  0.247600  1.0  -0.3457
  C  C325  1  0.808300  0.140900  0.250300  1.0  -0.3629
  C  C326  1  0.219800  0.044000  0.219400  1.0  0.0696
  C  C327  1  0.172000  0.099100  0.275700  1.0  -0.3426
  C  C328  1  0.253800  0.969900  0.248900  1.0  -0.35
  C  C329  1  0.466450  0.006230  0.879470  1.0  0.5789
  C  C330  1  0.456270  0.008370  0.811690  1.0  -0.0066
  C  C331  1  0.447280  0.067460  0.773180  1.0  -0.1721
  C  C332  1  0.456330  0.952220  0.783920  1.0  -0.1777
  C  C333  1  0.441200  0.065600  0.708400  1.0  0.1627
  C  C334  1  0.453000  0.956250  0.718550  1.0  0.1532
  C  C335  1  0.898000  0.471210  0.427790  1.0  0.6331
  C  C336  1  0.836810  0.457080  0.390300  1.0  -0.2081
  C  C337  1  0.740560  0.451040  0.426640  1.0  0.0797
  C  C338  1  0.684600  0.439200  0.392800  1.0  -0.2065
  C  C339  1  0.719900  0.433400  0.323000  1.0  0.0601
  C  C340  1  0.817200  0.438000  0.285800  1.0  -0.2101
  C  C341  1  0.877300  0.450010  0.319590  1.0  0.0658
  C  C342  1  0.699180  0.458920  0.504120  1.0  0.0685
  C  C343  1  0.638700  0.535100  0.522700  1.0  -0.345
  C  C344  1  0.632700  0.413200  0.541800  1.0  -0.3412
  C  C345  1  0.657700  0.420200  0.281800  1.0  0.1264
  C  C346  1  0.605100  0.485400  0.252400  1.0  -0.3448
  C  C347  1  0.699500  0.359100  0.249700  1.0  -0.362
  C  C348  1  0.983200  0.456000  0.280600  1.0  0.0692
  C  C349  1  0.046800  0.400900  0.224300  1.0  -0.3436
  C  C350  1  0.972600  0.530100  0.251100  1.0  -0.3497
  C  C351  1  0.852150  0.493770  0.620530  1.0  0.5774
  C  C352  1  0.776330  0.491630  0.688310  1.0  -0.0078
  C  C353  1  0.787920  0.432540  0.726820  1.0  -0.1744
  C  C354  1  0.692470  0.547780  0.716080  1.0  -0.1734
  C  C355  1  0.715200  0.434400  0.791600  1.0  0.1615
  C  C356  1  0.627800  0.543750  0.781450  1.0  0.1511
  C  C357  1  0.369210  0.927790  0.528790  1.0  0.6338
  C  C358  1  0.293890  0.890300  0.542920  1.0  -0.2076
  C  C359  1  0.191600  0.926640  0.548960  1.0  0.0793
  C  C360  1  0.123800  0.892800  0.560800  1.0  -0.2058
  C  C361  1  0.153300  0.823000  0.566600  1.0  0.0586
  C  C362  1  0.255200  0.785800  0.562000  1.0  -0.2128
  C  C363  1  0.327310  0.819590  0.549990  1.0  0.0664
  C  C364  1  0.158100  0.004120  0.541080  1.0  0.0663
  C  C365  1  0.173800  0.022700  0.464900  1.0  -0.3479
  C  C366  1  0.045900  0.041800  0.586800  1.0  -0.3415
  C  C367  1  0.077900  0.781800  0.579800  1.0  0.1278
  C  C368  1  0.090500  0.752400  0.514600  1.0  -0.3444
  C  C369  1  0.058600  0.749700  0.640900  1.0  -0.3646
  C  C370  1  0.439200  0.780600  0.544000  1.0  0.0702
  C  C371  1  0.447700  0.724300  0.599100  1.0  -0.3416
  C  C372  1  0.502700  0.751100  0.469900  1.0  -0.3489
  C  C373  1  0.345920  0.120530  0.506230  1.0  0.5783
  C  C374  1  0.267960  0.188310  0.508370  1.0  -0.0068
  C  C375  1  0.220460  0.226820  0.567460  1.0  -0.1718
  C  C376  1  0.240250  0.216080  0.452220  1.0  -0.1741
  C  C377  1  0.149600  0.291600  0.565600  1.0  0.1588
  C  C378  1  0.171550  0.281450  0.456250  1.0  0.1512
  C  C379  1  0.325790  0.572210  0.971210  1.0  0.6338
  C  C380  1  0.227110  0.609700  0.957080  1.0  -0.2079
  C  C381  1  0.167200  0.573360  0.951040  1.0  0.0805
  C  C382  1  0.077400  0.607200  0.939200  1.0  -0.206
  C  C383  1  0.042900  0.677000  0.933400  1.0  0.0582
  C  C384  1  0.103000  0.714200  0.938000  1.0  -0.2122
  C  C385  1  0.196890  0.680410  0.950010  1.0  0.0679
  C  C386  1  0.203300  0.495880  0.958920  1.0  0.0674
  C  C387  1  0.161400  0.477300  0.035100  1.0  -0.3456
  C  C388  1  0.174500  0.458200  0.913200  1.0  -0.3396
  C  C389  1  0.939500  0.718200  0.920200  1.0  0.1273
  C  C390  1  0.857500  0.747600  0.985400  1.0  -0.3469
  C  C391  1  0.949200  0.750300  0.859100  1.0  -0.3631
  C  C392  1  0.263800  0.719400  0.956000  1.0  0.0719
  C  C393  1  0.271100  0.775700  0.900900  1.0  -0.3437
  C  C394  1  0.223700  0.748900  0.030100  1.0  -0.3499
  C  C395  1  0.472680  0.379470  0.993770  1.0  0.5795
  C  C396  1  0.464640  0.311690  0.991630  1.0  -0.0058
  C  C397  1  0.514740  0.273180  0.932540  1.0  -0.1704
  C  C398  1  0.408550  0.283920  0.047780  1.0  -0.1731
  C  C399  1  0.506800  0.208400  0.934400  1.0  0.1597
  C  C400  1  0.409250  0.218550  0.043750  1.0  0.1518
  N  N401  1  0.553380  0.988330  0.319710  1.0  -0.3349
  N  N402  1  0.361420  0.511670  0.180290  1.0  -0.3342
  N  N403  1  0.873090  0.680290  0.488330  1.0  -0.337
  N  N404  1  0.541710  0.819710  0.011670  1.0  -0.3364
  N  N405  1  0.446620  0.011670  0.680290  1.0  -0.335
  N  N406  1  0.638580  0.488330  0.819710  1.0  -0.3337
  N  N407  1  0.126910  0.319710  0.511670  1.0  -0.3369
  N  N408  1  0.458290  0.180290  0.988330  1.0  -0.3366
  O  O409  1  0.668220  0.922060  0.947060  1.0  -0.5363
  O  O410  1  0.538370  0.938900  0.096520  1.0  -0.5286
  O  O411  1  0.646780  0.033820  0.939900  1.0  -0.5344
  O  O412  1  0.516740  0.050760  0.089340  1.0  -0.5309
  O  O413  1  0.037340  0.577940  0.552940  1.0  -0.5358
  O  O414  1  0.073790  0.561100  0.403480  1.0  -0.5284
  O  O415  1  0.120500  0.466180  0.560100  1.0  -0.5351
  O  O416  1  0.156840  0.449240  0.410660  1.0  -0.5305
  O  O417  1  0.615280  0.052940  0.422060  1.0  -0.5356
  O  O418  1  0.634890  0.903480  0.438900  1.0  -0.5304
  O  O419  1  0.586680  0.060100  0.533820  1.0  -0.5352
  O  O420  1  0.606080  0.910660  0.550760  1.0  -0.5292
  O  O421  1  0.590280  0.447060  0.077940  1.0  -0.5352
  O  O422  1  0.477270  0.596520  0.061100  1.0  -0.5279
  O  O423  1  0.680600  0.439900  0.966180  1.0  -0.5353
  O  O424  1  0.567500  0.589340  0.949240  1.0  -0.5336
  O  O425  1  0.331780  0.077940  0.052940  1.0  -0.5353
  O  O426  1  0.461630  0.061100  0.903480  1.0  -0.5282
  O  O427  1  0.353220  0.966180  0.060100  1.0  -0.5356
  O  O428  1  0.483260  0.949240  0.910660  1.0  -0.5296
  O  O429  1  0.962660  0.422060  0.447060  1.0  -0.5346
  O  O430  1  0.926210  0.438900  0.596520  1.0  -0.5273
  O  O431  1  0.879500  0.533820  0.439900  1.0  -0.5351
  O  O432  1  0.843160  0.550760  0.589340  1.0  -0.5324
  O  O433  1  0.384720  0.947060  0.577940  1.0  -0.5335
  O  O434  1  0.365110  0.096520  0.561100  1.0  -0.529
  O  O435  1  0.413320  0.939900  0.466180  1.0  -0.536
  O  O436  1  0.393920  0.089340  0.449240  1.0  -0.532
  O  O437  1  0.409720  0.552940  0.922060  1.0  -0.5354
  O  O438  1  0.522730  0.403480  0.938900  1.0  -0.5288
  O  O439  1  0.319400  0.560100  0.033820  1.0  -0.5342
  O  O440  1  0.432500  0.410660  0.050760  1.0  -0.5298
