# generated using pymatgen
data_TbH6(C2O)6
_symmetry_space_group_name_H-M   'P 1'
_cell_length_a   8.57900000
_cell_length_b   10.18400000
_cell_length_c   11.10700000
_cell_angle_alpha   64.78000000
_cell_angle_beta   71.73000000
_cell_angle_gamma   79.30000000
_symmetry_Int_Tables_number   1
_chemical_formula_structural   TbH6(C2O)6
_chemical_formula_sum   'Tb2 H12 C24 O12'
_cell_volume   832.11296252
_cell_formula_units_Z   2
loop_
 _symmetry_equiv_pos_site_id
 _symmetry_equiv_pos_as_xyz
  1  'x, y, z'
loop_
 _atom_site_type_symbol
 _atom_site_label
 _atom_site_symmetry_multiplicity
 _atom_site_fract_x
 _atom_site_fract_y
 _atom_site_fract_z
 _atom_site_occupancy
 _atom_site_charge
  Tb  Tb1  1  0.132000  0.938600  0.155150  1.0  2.1756
  Tb  Tb2  1  0.868010  0.061400  0.844840  1.0  2.1755
  H  H3  1  0.226400  0.561300  0.581800  1.0  0.0965
  H  H4  1  0.635900  0.620200  0.270600  1.0  0.0892
  H  H5  1  0.065200  0.721400  0.816500  1.0  0.0908
  H  H6  1  0.987400  0.471600  0.221200  1.0  0.1035
  H  H7  1  0.541400  0.853300  0.380000  1.0  0.0714
  H  H8  1  0.719100  0.116300  0.484300  1.0  0.0905
  H  H9  1  0.773600  0.438700  0.418200  1.0  0.0959
  H  H10  1  0.364100  0.379800  0.729400  1.0  0.0899
  H  H11  1  0.934800  0.278600  0.183500  1.0  0.0909
  H  H12  1  0.012600  0.528400  0.778800  1.0  0.1033
  H  H13  1  0.458600  0.146700  0.620000  1.0  0.0714
  H  H14  1  0.280900  0.883700  0.515700  1.0  0.0909
  C  C15  1  0.416800  0.611300  0.411400  1.0  -0.1391
  C  C16  1  0.336700  0.537100  0.548700  1.0  -0.04
  C  C17  1  0.581100  0.572500  0.362800  1.0  -0.0646
  C  C18  1  0.325000  0.731900  0.319400  1.0  0.6558
  C  C19  1  0.031500  0.615700  0.022000  1.0  -0.1193
  C  C20  1  0.039100  0.632800  0.890100  1.0  -0.0629
  C  C21  1  0.992400  0.482900  0.132500  1.0  -0.0626
  C  C22  1  0.064700  0.738300  0.050400  1.0  0.7181
  C  C23  1  0.656000  0.980700  0.418900  1.0  -0.1276
  C  C24  1  0.524800  0.912200  0.428400  1.0  -0.0368
  C  C25  1  0.631800  0.069600  0.490500  1.0  -0.0523
  C  C26  1  0.824000  0.958400  0.333333  1.0  0.6718
  C  C27  1  0.583200  0.388700  0.588600  1.0  -0.1385
  C  C28  1  0.663300  0.462900  0.451300  1.0  -0.0373
  C  C29  1  0.418900  0.427500  0.637200  1.0  -0.0614
  C  C30  1  0.675000  0.268100  0.680600  1.0  0.6551
  C  C31  1  0.968500  0.384300  0.978000  1.0  -0.1184
  C  C32  1  0.960900  0.367200  0.109900  1.0  -0.062
  C  C33  1  0.007600  0.517100  0.867500  1.0  -0.0632
  C  C34  1  0.935300  0.261700  0.949600  1.0  0.7185
  C  C35  1  0.344000  0.019300  0.581100  1.0  -0.1281
  C  C36  1  0.475200  0.087800  0.571600  1.0  -0.0371
  C  C37  1  0.368200  0.930400  0.509500  1.0  -0.0508
  C  C38  1  0.176000  0.041600  0.666667  1.0  0.6722
  O  O39  1  0.396700  0.801700  0.193800  1.0  -0.6459
  O  O40  1  0.176800  0.763100  0.370000  1.0  -0.6254
  O  O41  1  0.129300  0.707400  0.146600  1.0  -0.6303
  O  O42  1  0.030900  0.868300  0.977600  1.0  -0.8243
  O  O43  1  0.941600  0.020000  0.327800  1.0  -0.6593
  O  O44  1  0.843200  0.879200  0.267000  1.0  -0.6707
  O  O45  1  0.603300  0.198300  0.806200  1.0  -0.6541
  O  O46  1  0.823200  0.236900  0.630000  1.0  -0.6264
  O  O47  1  0.870700  0.292600  0.853400  1.0  -0.6296
  O  O48  1  0.969100  0.131700  0.022400  1.0  -0.8241
  O  O49  1  0.058400  0.980000  0.672200  1.0  -0.6585
  O  O50  1  0.156800  0.120800  0.733000  1.0  -0.6758
