# generated using pymatgen
data_TbH6(C2O)6
_symmetry_space_group_name_H-M   'P 1'
_cell_length_a   8.54660000
_cell_length_b   10.17030000
_cell_length_c   11.19210000
_cell_angle_alpha   65.53100000
_cell_angle_beta   71.88600000
_cell_angle_gamma   78.79600000
_symmetry_Int_Tables_number   1
_chemical_formula_structural   TbH6(C2O)6
_chemical_formula_sum   'Tb2 H12 C24 O12'
_cell_volume   839.15823765
_cell_formula_units_Z   2
loop_
 _symmetry_equiv_pos_site_id
 _symmetry_equiv_pos_as_xyz
  1  'x, y, z'
loop_
 _atom_site_type_symbol
 _atom_site_label
 _atom_site_symmetry_multiplicity
 _atom_site_fract_x
 _atom_site_fract_y
 _atom_site_fract_z
 _atom_site_occupancy
 _atom_site_charge
  Tb  Tb1  1  0.366880  0.060130  0.845970  1.0  2.168
  Tb  Tb2  1  0.633120  0.939870  0.154030  1.0  2.1681
  H  H3  1  0.864000  0.385300  0.725100  1.0  0.0985
  H  H4  1  0.272600  0.431900  0.420900  1.0  0.0969
  H  H5  1  0.782300  0.884300  0.513300  1.0  0.0991
  H  H6  1  0.959300  0.143700  0.623400  1.0  0.0794
  H  H7  1  0.431300  0.282500  0.182000  1.0  0.0898
  H  H8  1  0.513000  0.524300  0.781800  1.0  0.102
  H  H9  1  0.136000  0.614700  0.274900  1.0  0.098
  H  H10  1  0.727400  0.568100  0.579100  1.0  0.0986
  H  H11  1  0.217700  0.115700  0.486700  1.0  0.0986
  H  H12  1  0.040700  0.856300  0.376600  1.0  0.0789
  H  H13  1  0.568700  0.717500  0.818000  1.0  0.0899
  H  H14  1  0.487000  0.475700  0.218200  1.0  0.102
  C  C15  1  0.919400  0.431100  0.634600  1.0  -0.0781
  C  C16  1  0.083200  0.389500  0.588200  1.0  -0.1132
  C  C17  1  0.162400  0.459100  0.453300  1.0  -0.0336
  C  C18  1  0.175200  0.268000  0.681000  1.0  0.6589
  C  C19  1  0.869400  0.930600  0.508000  1.0  -0.064
  C  C20  1  0.844600  0.017600  0.582800  1.0  -0.1271
  C  C21  1  0.975900  0.085900  0.573700  1.0  -0.0462
  C  C22  1  0.676900  0.038300  0.669500  1.0  0.6662
  C  C23  1  0.459000  0.369300  0.109100  1.0  -0.0743
  C  C24  1  0.467800  0.383300  0.977900  1.0  -0.1228
  C  C25  1  0.508100  0.514500  0.869200  1.0  -0.0616
  C  C26  1  0.433500  0.261300  0.951400  1.0  0.7056
  C  C27  1  0.080600  0.568900  0.365400  1.0  -0.0769
  C  C28  1  0.916800  0.610500  0.411800  1.0  -0.113
  C  C29  1  0.837600  0.540900  0.546700  1.0  -0.0348
  C  C30  1  0.824800  0.732000  0.319000  1.0  0.66
  C  C31  1  0.130600  0.069400  0.492000  1.0  -0.0652
  C  C32  1  0.155400  0.982400  0.417200  1.0  -0.1255
  C  C33  1  0.024100  0.914100  0.426300  1.0  -0.046
  C  C34  1  0.323100  0.961700  0.330500  1.0  0.6671
  C  C35  1  0.541000  0.630700  0.890900  1.0  -0.0712
  C  C36  1  0.532200  0.616700  0.022100  1.0  -0.1236
  C  C37  1  0.491900  0.485500  0.130800  1.0  -0.0617
  C  C38  1  0.566500  0.738700  0.048600  1.0  0.7066
  O  O39  1  0.325300  0.234800  0.632800  1.0  -0.6354
  O  O40  1  0.101700  0.198400  0.805700  1.0  -0.7133
  O  O41  1  0.559800  0.975100  0.676400  1.0  -0.6667
  O  O42  1  0.654800  0.119100  0.736600  1.0  -0.5943
  O  O43  1  0.367800  0.290900  0.856900  1.0  -0.6175
  O  O44  1  0.468200  0.131300  0.022500  1.0  -0.8235
  O  O45  1  0.674700  0.765200  0.367200  1.0  -0.6346
  O  O46  1  0.898300  0.801600  0.194300  1.0  -0.7083
  O  O47  1  0.440200  0.024900  0.323600  1.0  -0.6677
  O  O48  1  0.345200  0.880900  0.263400  1.0  -0.5919
  O  O49  1  0.632200  0.709100  0.143100  1.0  -0.617
  O  O50  1  0.531800  0.868700  0.977500  1.0  -0.8229
