# generated using pymatgen
data_Mn8H12C36(S2O9)3
_symmetry_space_group_name_H-M   'P 1'
_cell_length_a   15.24290000
_cell_length_b   15.24290000
_cell_length_c   20.68940000
_cell_angle_alpha   68.38450000
_cell_angle_beta   68.38450000
_cell_angle_gamma   60.00000000
_symmetry_Int_Tables_number   1
_chemical_formula_structural   Mn8H12C36(S2O9)3
_chemical_formula_sum   'Mn16 H24 C72 S12 O54'
_cell_volume   3767.67147328
_cell_formula_units_Z   2
loop_
 _symmetry_equiv_pos_site_id
 _symmetry_equiv_pos_as_xyz
  1  'x, y, z'
loop_
 _atom_site_type_symbol
 _atom_site_label
 _atom_site_symmetry_multiplicity
 _atom_site_fract_x
 _atom_site_fract_y
 _atom_site_fract_z
 _atom_site_occupancy
 _atom_site_charge
  Mn  Mn1  1  0.376950  0.383120  0.254690  1.0  1.1094
  Mn  Mn2  1  0.383120  0.985240  0.254690  1.0  1.1084
  Mn  Mn3  1  0.985240  0.376950  0.254690  1.0  1.109
  Mn  Mn4  1  0.123050  0.514760  0.245310  1.0  1.1098
  Mn  Mn5  1  0.721660  0.721660  0.835020  1.0  1.0474
  Mn  Mn6  1  0.616880  0.014760  0.745310  1.0  1.1101
  Mn  Mn7  1  0.623050  0.616880  0.745310  1.0  1.1084
  Mn  Mn8  1  0.278340  0.278340  0.164980  1.0  1.0475
  Mn  Mn9  1  0.221660  0.221660  0.335020  1.0  1.0474
  Mn  Mn10  1  0.014760  0.623050  0.745310  1.0  1.1081
  Mn  Mn11  1  0.514760  0.116880  0.245310  1.0  1.1088
  Mn  Mn12  1  0.883120  0.876950  0.754690  1.0  1.1082
  Mn  Mn13  1  0.485240  0.883120  0.754690  1.0  1.1096
  Mn  Mn14  1  0.116880  0.123050  0.245310  1.0  1.1083
  Mn  Mn15  1  0.876950  0.485240  0.754690  1.0  1.109
  Mn  Mn16  1  0.778340  0.778340  0.664980  1.0  1.0475
  H  H17  1  0.627100  0.724200  0.503000  1.0  0.1198
  H  H18  1  0.724200  0.145700  0.503000  1.0  0.1212
  H  H19  1  0.854300  0.372900  0.497000  1.0  0.117
  H  H20  1  0.925400  0.297400  0.109200  1.0  0.1289
  H  H21  1  0.775800  0.872900  0.997000  1.0  0.1186
  H  H22  1  0.668000  0.925400  0.109200  1.0  0.1302
  H  H23  1  0.872900  0.354300  0.997000  1.0  0.1184
  H  H24  1  0.168000  0.797400  0.609200  1.0  0.1284
  H  H25  1  0.127100  0.645700  0.003000  1.0  0.1179
  H  H26  1  0.354300  0.775800  0.997000  1.0  0.1202
  H  H27  1  0.275800  0.854300  0.497000  1.0  0.1198
  H  H28  1  0.797400  0.425400  0.609200  1.0  0.1293
  H  H29  1  0.645700  0.224200  0.003000  1.0  0.1194
  H  H30  1  0.425400  0.168000  0.609200  1.0  0.13
  H  H31  1  0.574600  0.832000  0.390800  1.0  0.1304
  H  H32  1  0.202600  0.574600  0.390800  1.0  0.1304
  H  H33  1  0.074600  0.702600  0.890800  1.0  0.1295
  H  H34  1  0.224200  0.127100  0.003000  1.0  0.1188
  H  H35  1  0.702600  0.332000  0.890800  1.0  0.1292
  H  H36  1  0.145700  0.627100  0.503000  1.0  0.1158
  H  H37  1  0.832000  0.202600  0.390800  1.0  0.1284
  H  H38  1  0.297400  0.668000  0.109200  1.0  0.1291
  H  H39  1  0.372900  0.275800  0.497000  1.0  0.1194
  H  H40  1  0.332000  0.074600  0.890800  1.0  0.1305
  C  C41  1  0.438650  0.952050  0.942850  1.0  -0.191
  C  C42  1  0.939070  0.485870  0.368090  1.0  0.7215
  C  C43  1  0.809070  0.600470  0.613190  1.0  0.7192
  C  C44  1  0.477270  0.100470  0.113190  1.0  0.7186
  C  C45  1  0.069380  0.643580  0.999160  1.0  -0.0354
  C  C46  1  0.608160  0.332160  0.055620  1.0  -0.1999
  C  C47  1  0.643580  0.287880  0.999160  1.0  -0.0375
  C  C48  1  0.666450  0.438650  0.942850  1.0  -0.1922
  C  C49  1  0.690930  0.522730  0.886810  1.0  0.7183
  C  C50  1  0.014130  0.560930  0.131910  1.0  0.7248
  C  C51  1  0.977270  0.809070  0.613190  1.0  0.7199
  C  C52  1  0.309070  0.477270  0.113190  1.0  0.7182
  C  C53  1  0.047950  0.333550  0.057150  1.0  -0.1893
  C  C54  1  0.952050  0.666450  0.942850  1.0  -0.1896
  C  C55  1  0.060930  0.514130  0.631910  1.0  0.7254
  C  C56  1  0.108160  0.504060  0.555620  1.0  -0.2022
  C  C57  1  0.350130  0.038730  0.934510  1.0  -0.0309
  C  C58  1  0.667840  0.995940  0.944380  1.0  -0.2012
  C  C59  1  0.899530  0.690930  0.886810  1.0  0.7209
  C  C60  1  0.323370  0.649870  0.065490  1.0  -0.0335
  C  C61  1  0.399530  0.022730  0.386810  1.0  0.7188
  C  C62  1  0.787880  0.143580  0.499160  1.0  -0.0364
  C  C63  1  0.706970  0.985870  0.868090  1.0  0.7234
  C  C64  1  0.176630  0.538730  0.434510  1.0  -0.031
  C  C65  1  0.569380  0.787880  0.499160  1.0  -0.0365
  C  C66  1  0.143580  0.569380  0.499160  1.0  -0.0337
  C  C67  1  0.547950  0.061350  0.557150  1.0  -0.192
  C  C68  1  0.391840  0.667840  0.944380  1.0  -0.1999
  C  C69  1  0.166450  0.452050  0.442850  1.0  -0.1903
  C  C70  1  0.495940  0.167840  0.444380  1.0  -0.2007
  C  C71  1  0.600470  0.977270  0.613190  1.0  0.7184
  C  C72  1  0.561350  0.047950  0.057150  1.0  -0.1911
  C  C73  1  0.560930  0.293030  0.131910  1.0  0.7246
  C  C74  1  0.461270  0.149870  0.565490  1.0  -0.0327
  C  C75  1  0.514130  0.793030  0.631910  1.0  0.7235
  C  C76  1  0.938650  0.166450  0.442850  1.0  -0.1909
  C  C77  1  0.100470  0.309070  0.113190  1.0  0.7199
  C  C78  1  0.930620  0.356420  0.000840  1.0  -0.0358
  C  C79  1  0.823370  0.461270  0.565490  1.0  -0.0314
  C  C80  1  0.485870  0.206970  0.368090  1.0  0.7247
  C  C81  1  0.712120  0.930620  0.000840  1.0  -0.034
  C  C82  1  0.430620  0.212120  0.500840  1.0  -0.0366
  C  C83  1  0.190930  0.399530  0.386810  1.0  0.719
  C  C84  1  0.004060  0.608160  0.055620  1.0  -0.2009
  C  C85  1  0.522730  0.899530  0.886810  1.0  0.7199
  C  C86  1  0.452050  0.938650  0.442850  1.0  -0.1919
  C  C87  1  0.332160  0.004060  0.055620  1.0  -0.2008
  C  C88  1  0.287880  0.069380  0.999160  1.0  -0.0348
  C  C89  1  0.149870  0.823370  0.565490  1.0  -0.032
  C  C90  1  0.293030  0.014130  0.131910  1.0  0.7249
  C  C91  1  0.333550  0.561350  0.057150  1.0  -0.1921
  C  C92  1  0.649870  0.961270  0.065490  1.0  -0.0328
  C  C93  1  0.832160  0.108160  0.555620  1.0  -0.2017
  C  C94  1  0.439070  0.706970  0.868090  1.0  0.7249
  C  C95  1  0.850130  0.176630  0.434510  1.0  -0.0309
  C  C96  1  0.961270  0.323370  0.065490  1.0  -0.031
  C  C97  1  0.212120  0.856420  0.500840  1.0  -0.038
  C  C98  1  0.022730  0.190930  0.386810  1.0  0.7194
  C  C99  1  0.356420  0.712120  0.000840  1.0  -0.0372
  C  C100  1  0.167840  0.891840  0.444380  1.0  -0.2
  C  C101  1  0.538730  0.850130  0.434510  1.0  -0.0328
  C  C102  1  0.985870  0.439070  0.868090  1.0  0.7254
  C  C103  1  0.206970  0.939070  0.368090  1.0  0.7217
  C  C104  1  0.891840  0.495940  0.444380  1.0  -0.2018
  C  C105  1  0.676630  0.350130  0.934510  1.0  -0.0327
  C  C106  1  0.793030  0.060930  0.631910  1.0  0.7209
  C  C107  1  0.856420  0.430620  0.500840  1.0  -0.033
  C  C108  1  0.995940  0.391840  0.944380  1.0  -0.2003
  C  C109  1  0.504060  0.832160  0.555620  1.0  -0.1989
  C  C110  1  0.061350  0.833550  0.557150  1.0  -0.19
  C  C111  1  0.833550  0.547950  0.557150  1.0  -0.1909
  C  C112  1  0.038730  0.676630  0.934510  1.0  -0.0323
  S  S113  1  0.385550  0.550690  0.970390  1.0  0.1782
  S  S114  1  0.949310  0.114450  0.529610  1.0  0.1758
  S  S115  1  0.050690  0.885550  0.470390  1.0  0.1791
  S  S116  1  0.614450  0.449310  0.029610  1.0  0.1761
  S  S117  1  0.593370  0.050690  0.470390  1.0  0.1749
  S  S118  1  0.885550  0.593370  0.470390  1.0  0.1794
  S  S119  1  0.906630  0.614450  0.029610  1.0  0.1803
  S  S120  1  0.406630  0.949310  0.529610  1.0  0.1767
  S  S121  1  0.093370  0.385550  0.970390  1.0  0.1761
  S  S122  1  0.550690  0.093370  0.970390  1.0  0.1768
  S  S123  1  0.114450  0.406630  0.529610  1.0  0.18
  S  S124  1  0.449310  0.906630  0.029610  1.0  0.1788
  O  O125  1  0.425230  0.300730  0.350810  1.0  -0.6162
  O  O126  1  0.750000  0.858150  0.750000  1.0  -0.8356
  O  O127  1  0.818460  0.680260  0.905320  1.0  -0.5412
  O  O128  1  0.404040  0.181540  0.094680  1.0  -0.5476
  O  O129  1  0.484800  0.057400  0.177600  1.0  -0.6828
  O  O130  1  0.858150  0.641850  0.750000  1.0  -0.8357
  O  O131  1  0.095960  0.180260  0.405320  1.0  -0.5422
  O  O132  1  0.143270  0.988770  0.329390  1.0  -0.6066
  O  O133  1  0.076770  0.574770  0.649190  1.0  -0.6117
  O  O134  1  0.800730  0.925230  0.850810  1.0  -0.6101
  O  O135  1  0.904040  0.819740  0.594680  1.0  -0.542
  O  O136  1  0.423230  0.800730  0.850810  1.0  -0.6205
  O  O137  1  0.923230  0.425230  0.350810  1.0  -0.6119
  O  O138  1  0.984800  0.780200  0.677600  1.0  -0.6819
  O  O139  1  0.925230  0.423230  0.850810  1.0  -0.6145
  O  O140  1  0.219800  0.442600  0.322400  1.0  -0.6818
  O  O141  1  0.199270  0.074770  0.149190  1.0  -0.6109
  O  O142  1  0.074770  0.576770  0.149190  1.0  -0.6122
  O  O143  1  0.641850  0.750000  0.750000  1.0  -0.8356
  O  O144  1  0.719800  0.515200  0.822400  1.0  -0.6822
  O  O145  1  0.988770  0.538570  0.329390  1.0  -0.6065
  O  O146  1  0.442600  0.015200  0.322400  1.0  -0.6808
  O  O147  1  0.680260  0.595960  0.905320  1.0  -0.5447
  O  O148  1  0.576770  0.199270  0.149190  1.0  -0.6217
  O  O149  1  0.038570  0.488770  0.829390  1.0  -0.61
  O  O150  1  0.250000  0.141850  0.250000  1.0  -0.836
  O  O151  1  0.280200  0.484800  0.177600  1.0  -0.6814
  O  O152  1  0.461430  0.856730  0.670610  1.0  -0.6087
  O  O153  1  0.557400  0.984800  0.677600  1.0  -0.6819
  O  O154  1  0.856730  0.011230  0.670610  1.0  -0.6086
  O  O155  1  0.511230  0.356730  0.170610  1.0  -0.6108
  O  O156  1  0.319740  0.404040  0.094680  1.0  -0.5444
  O  O157  1  0.488770  0.643270  0.829390  1.0  -0.6115
  O  O158  1  0.318460  0.095960  0.405320  1.0  -0.548
  O  O159  1  0.011230  0.461430  0.670610  1.0  -0.6085
  O  O160  1  0.574770  0.699270  0.649190  1.0  -0.6168
  O  O161  1  0.780200  0.557400  0.677600  1.0  -0.6831
  O  O162  1  0.699270  0.076770  0.649190  1.0  -0.6166
  O  O163  1  0.356730  0.961430  0.170610  1.0  -0.6078
  O  O164  1  0.181540  0.319740  0.094680  1.0  -0.5397
  O  O165  1  0.180260  0.318460  0.405320  1.0  -0.5395
  O  O166  1  0.595960  0.818460  0.905320  1.0  -0.5483
  O  O167  1  0.358150  0.250000  0.250000  1.0  -0.8356
  O  O168  1  0.942600  0.719800  0.822400  1.0  -0.6825
  O  O169  1  0.515200  0.942600  0.822400  1.0  -0.6822
  O  O170  1  0.141850  0.358150  0.250000  1.0  -0.8354
  O  O171  1  0.057400  0.280200  0.177600  1.0  -0.6834
  O  O172  1  0.961430  0.511230  0.170610  1.0  -0.6101
  O  O173  1  0.015200  0.219800  0.322400  1.0  -0.6809
  O  O174  1  0.300730  0.923230  0.350810  1.0  -0.6183
  O  O175  1  0.538570  0.143270  0.329390  1.0  -0.6118
  O  O176  1  0.819740  0.681540  0.594680  1.0  -0.5395
  O  O177  1  0.643270  0.038570  0.829390  1.0  -0.607
  O  O178  1  0.681540  0.904040  0.594680  1.0  -0.5481
