# generated using pymatgen
data_ZnH13C20N2O5
_symmetry_space_group_name_H-M   'P 1'
_cell_length_a   12.34400000
_cell_length_b   26.32300000
_cell_length_c   15.66300000
_cell_angle_alpha   90.00000000
_cell_angle_beta   97.56000000
_cell_angle_gamma   90.00000000
_symmetry_Int_Tables_number   1
_chemical_formula_structural   ZnH13C20N2O5
_chemical_formula_sum   'Zn8 H104 C160 N16 O40'
_cell_volume   5045.15709953
_cell_formula_units_Z   8
loop_
 _symmetry_equiv_pos_site_id
 _symmetry_equiv_pos_as_xyz
  1  'x, y, z'
loop_
 _atom_site_type_symbol
 _atom_site_label
 _atom_site_symmetry_multiplicity
 _atom_site_fract_x
 _atom_site_fract_y
 _atom_site_fract_z
 _atom_site_occupancy
 _atom_site_charge
  Zn  Zn1  1  0.223680  0.240990  0.221200  1.0  0.9411
  Zn  Zn2  1  0.382790  0.263240  0.408340  1.0  0.9228
  Zn  Zn3  1  0.776320  0.740990  0.278800  1.0  0.9423
  Zn  Zn4  1  0.617210  0.763240  0.091660  1.0  0.9222
  Zn  Zn5  1  0.776320  0.759010  0.778800  1.0  0.942
  Zn  Zn6  1  0.617210  0.736760  0.591660  1.0  0.9213
  Zn  Zn7  1  0.223680  0.259010  0.721200  1.0  0.9411
  Zn  Zn8  1  0.382790  0.236760  0.908340  1.0  0.9215
  H  H9  1  0.576600  0.368900  0.318900  1.0  0.1131
  H  H10  1  0.677500  0.432800  0.261600  1.0  0.1061
  H  H11  1  0.532300  0.398200  0.022700  1.0  0.1145
  H  H12  1  0.422900  0.337800  0.080500  1.0  0.102
  H  H13  1  0.798400  0.526100  0.064300  1.0  0.1359
  H  H14  1  0.768100  0.613800  0.069600  1.0  0.1036
  H  H15  1  0.484700  0.589400  0.162700  1.0  0.1016
  H  H16  1  0.512400  0.501800  0.159800  1.0  0.1213
  H  H17  1  0.153500  0.376700  0.494400  1.0  0.1014
  H  H18  1  0.010800  0.432500  0.510100  1.0  0.1113
  H  H19  1  0.841900  0.380000  0.288800  1.0  0.116
  H  H20  1  0.983700  0.321900  0.274200  1.0  0.1116
  H  H21  1  0.682700  0.508400  0.417400  1.0  0.1359
  H  H22  1  0.672100  0.592000  0.364900  1.0  0.0971
  H  H23  1  0.957200  0.573700  0.269200  1.0  0.1047
  H  H24  1  0.970900  0.490700  0.321200  1.0  0.1253
  H  H25  1  0.612500  0.236700  0.482400  1.0  0.0836
  H  H26  1  0.724700  0.241500  0.610600  1.0  0.1184
  H  H27  1  0.486600  0.319900  0.709300  1.0  0.1291
  H  H28  1  0.379200  0.313600  0.577000  1.0  0.0905
  H  H29  1  0.646400  0.290100  0.810500  1.0  0.1107
  H  H30  1  0.954600  0.290000  0.820100  1.0  0.1044
  H  H31  1  0.123500  0.307900  0.922300  1.0  0.1159
  H  H32  1  0.227400  0.296300  0.053300  1.0  0.079
  H  H33  1  0.987200  0.227200  0.146600  1.0  0.0875
  H  H34  1  0.876900  0.234900  0.016600  1.0  0.0997
  H  H35  1  0.423400  0.868900  0.181100  1.0  0.1134
  H  H36  1  0.322500  0.932800  0.238400  1.0  0.1059
  H  H37  1  0.467700  0.898200  0.477300  1.0  0.1143
  H  H38  1  0.577100  0.837800  0.419500  1.0  0.1018
  H  H39  1  0.201600  0.026100  0.435700  1.0  0.1361
  H  H40  1  0.231900  0.113800  0.430400  1.0  0.104
  H  H41  1  0.515300  0.089400  0.337300  1.0  0.1026
  H  H42  1  0.487600  0.001800  0.340200  1.0  0.1228
  H  H43  1  0.846500  0.876700  0.005600  1.0  0.1016
  H  H44  1  0.989200  0.932500  0.989900  1.0  0.1113
  H  H45  1  0.158100  0.880000  0.211200  1.0  0.1167
  H  H46  1  0.016300  0.821900  0.225800  1.0  0.1113
  H  H47  1  0.317300  0.008400  0.082600  1.0  0.1356
  H  H48  1  0.327900  0.092000  0.135100  1.0  0.0975
  H  H49  1  0.042800  0.073700  0.230800  1.0  0.1042
  H  H50  1  0.029100  0.990700  0.178800  1.0  0.1258
  H  H51  1  0.387500  0.736700  0.017600  1.0  0.0841
  H  H52  1  0.275300  0.741500  0.889400  1.0  0.1174
  H  H53  1  0.513400  0.819900  0.790700  1.0  0.1298
  H  H54  1  0.620800  0.813600  0.923000  1.0  0.0903
  H  H55  1  0.353600  0.790100  0.689500  1.0  0.1108
  H  H56  1  0.045400  0.790000  0.679900  1.0  0.1042
  H  H57  1  0.876500  0.807900  0.577700  1.0  0.1156
  H  H58  1  0.772600  0.796300  0.446700  1.0  0.0794
  H  H59  1  0.012800  0.727200  0.353400  1.0  0.087
  H  H60  1  0.123100  0.734900  0.483400  1.0  0.1003
  H  H61  1  0.423400  0.631100  0.681100  1.0  0.1135
  H  H62  1  0.322500  0.567200  0.738400  1.0  0.1061
  H  H63  1  0.467700  0.601800  0.977300  1.0  0.1143
  H  H64  1  0.577100  0.662200  0.919500  1.0  0.1016
  H  H65  1  0.201600  0.473900  0.935700  1.0  0.1358
  H  H66  1  0.231900  0.386200  0.930400  1.0  0.1041
  H  H67  1  0.515300  0.410600  0.837300  1.0  0.1024
  H  H68  1  0.487600  0.498200  0.840200  1.0  0.1227
  H  H69  1  0.846500  0.623300  0.505600  1.0  0.1012
  H  H70  1  0.989200  0.567500  0.489900  1.0  0.1105
  H  H71  1  0.158100  0.620000  0.711200  1.0  0.1163
  H  H72  1  0.016300  0.678100  0.725800  1.0  0.1115
  H  H73  1  0.317300  0.491600  0.582600  1.0  0.136
  H  H74  1  0.327900  0.408000  0.635100  1.0  0.0977
  H  H75  1  0.042800  0.426300  0.730800  1.0  0.1042
  H  H76  1  0.029100  0.509300  0.678800  1.0  0.126
  H  H77  1  0.387500  0.763300  0.517600  1.0  0.0839
  H  H78  1  0.275300  0.758500  0.389400  1.0  0.1174
  H  H79  1  0.513400  0.680100  0.290700  1.0  0.1298
  H  H80  1  0.620800  0.686400  0.423000  1.0  0.0907
  H  H81  1  0.353600  0.709900  0.189500  1.0  0.1107
  H  H82  1  0.045400  0.710000  0.179900  1.0  0.104
  H  H83  1  0.876500  0.692100  0.077700  1.0  0.1159
  H  H84  1  0.772600  0.703700  0.946700  1.0  0.0783
  H  H85  1  0.012800  0.772800  0.853400  1.0  0.087
  H  H86  1  0.123100  0.765100  0.983400  1.0  0.1003
  H  H87  1  0.576600  0.131100  0.818900  1.0  0.1135
  H  H88  1  0.677500  0.067200  0.761600  1.0  0.1061
  H  H89  1  0.532300  0.101800  0.522700  1.0  0.1143
  H  H90  1  0.422900  0.162200  0.580500  1.0  0.1017
  H  H91  1  0.798400  0.973900  0.564300  1.0  0.136
  H  H92  1  0.768100  0.886200  0.569600  1.0  0.1038
  H  H93  1  0.484700  0.910600  0.662700  1.0  0.1015
  H  H94  1  0.512400  0.998200  0.659800  1.0  0.1216
  H  H95  1  0.153500  0.123300  0.994400  1.0  0.1014
  H  H96  1  0.010800  0.067500  0.010100  1.0  0.1107
  H  H97  1  0.841900  0.120000  0.788800  1.0  0.1159
  H  H98  1  0.983700  0.178100  0.774200  1.0  0.1109
  H  H99  1  0.682700  0.991600  0.917400  1.0  0.1357
  H  H100  1  0.672100  0.908000  0.864900  1.0  0.097
  H  H101  1  0.957200  0.926300  0.769200  1.0  0.1044
  H  H102  1  0.970900  0.009300  0.821200  1.0  0.1254
  H  H103  1  0.612500  0.263300  0.982400  1.0  0.0832
  H  H104  1  0.724700  0.258500  0.110600  1.0  0.1181
  H  H105  1  0.486600  0.180100  0.209300  1.0  0.1292
  H  H106  1  0.379200  0.186400  0.077000  1.0  0.0897
  H  H107  1  0.646400  0.209900  0.310500  1.0  0.1107
  H  H108  1  0.954600  0.210000  0.320100  1.0  0.1041
  H  H109  1  0.123500  0.192100  0.422300  1.0  0.116
  H  H110  1  0.227400  0.203700  0.553300  1.0  0.0788
  H  H111  1  0.987200  0.272800  0.646600  1.0  0.0871
  H  H112  1  0.876900  0.265100  0.516600  1.0  0.0996
  C  C113  1  0.424700  0.307800  0.243900  1.0  0.6827
  C  C114  1  0.491300  0.346600  0.205700  1.0  -0.1462
  C  C115  1  0.566500  0.375100  0.258700  1.0  0.0133
  C  C116  1  0.627400  0.412600  0.224900  1.0  -0.2211
  C  C117  1  0.613300  0.419900  0.136300  1.0  0.2872
  C  C118  1  0.540100  0.392600  0.083100  1.0  -0.1829
  C  C119  1  0.476500  0.356200  0.117300  1.0  -0.0508
  C  C120  1  0.656200  0.506200  0.110000  1.0  0.2849
  C  C121  1  0.734200  0.539000  0.084100  1.0  -0.2387
  C  C122  1  0.716000  0.591000  0.087800  1.0  0.0068
  C  C123  1  0.623400  0.610100  0.117400  1.0  -0.0405
  C  C124  1  0.548800  0.576500  0.142900  1.0  -0.0486
  C  C125  1  0.564200  0.524400  0.140700  1.0  -0.1785
  C  C126  1  0.600000  0.665400  0.115300  1.0  0.6575
  C  C127  1  0.172500  0.308600  0.370100  1.0  0.6913
  C  C128  1  0.083900  0.344600  0.382500  1.0  -0.1364
  C  C129  1  0.090600  0.377300  0.452400  1.0  0.0097
  C  C130  1  0.006500  0.410700  0.461400  1.0  -0.1905
  C  C131  1  0.917300  0.412200  0.400000  1.0  0.2923
  C  C132  1  0.905700  0.379200  0.329900  1.0  -0.1968
  C  C133  1  0.989900  0.344900  0.321300  1.0  -0.0082
  C  C134  1  0.829600  0.492900  0.375300  1.0  0.2477
  C  C135  1  0.738900  0.521900  0.388000  1.0  -0.2447
  C  C136  1  0.733000  0.571500  0.356300  1.0  -0.0071
  C  C137  1  0.814200  0.591800  0.312200  1.0  -0.1315
  C  C138  1  0.901700  0.560700  0.299800  1.0  -0.028
  C  C139  1  0.910500  0.511300  0.330600  1.0  -0.1464
  C  C140  1  0.812400  0.646100  0.286400  1.0  0.6203
  C  C141  1  0.586800  0.253600  0.529400  1.0  0.1746
  C  C142  1  0.653200  0.255500  0.605200  1.0  -0.1728
  C  C143  1  0.614300  0.278200  0.674500  1.0  -0.0498
  C  C144  1  0.512100  0.301900  0.663300  1.0  -0.2025
  C  C145  1  0.449800  0.298500  0.584400  1.0  0.1756
  C  C146  1  0.678700  0.278800  0.762100  1.0  0.1369
  C  C147  1  0.922700  0.276300  0.867100  1.0  0.122
  C  C148  1  0.985900  0.272000  0.952500  1.0  -0.0038
  C  C149  1  0.093500  0.290500  0.966900  1.0  -0.2257
  C  C150  1  0.155000  0.283300  0.045300  1.0  0.1805
  C  C151  1  0.015700  0.242900  0.099700  1.0  0.1471
  C  C152  1  0.949200  0.248000  0.022300  1.0  -0.1222
  C  C153  1  0.575300  0.807800  0.256100  1.0  0.6843
  C  C154  1  0.508700  0.846600  0.294300  1.0  -0.1449
  C  C155  1  0.433500  0.875100  0.241300  1.0  0.0143
  C  C156  1  0.372600  0.912600  0.275100  1.0  -0.2199
  C  C157  1  0.386700  0.919900  0.363700  1.0  0.2834
  C  C158  1  0.459900  0.892600  0.416900  1.0  -0.1846
  C  C159  1  0.523500  0.856200  0.382700  1.0  -0.0511
  C  C160  1  0.343800  0.006200  0.390000  1.0  0.285
  C  C161  1  0.265800  0.039000  0.415900  1.0  -0.2382
  C  C162  1  0.284000  0.091000  0.412200  1.0  0.0049
  C  C163  1  0.376600  0.110100  0.382600  1.0  -0.0386
  C  C164  1  0.451200  0.076500  0.357100  1.0  -0.0475
  C  C165  1  0.435800  0.024400  0.359300  1.0  -0.1766
  C  C166  1  0.400000  0.165400  0.384700  1.0  0.6568
  C  C167  1  0.827500  0.808600  0.129900  1.0  0.6909
  C  C168  1  0.916100  0.844600  0.117500  1.0  -0.1365
  C  C169  1  0.909400  0.877300  0.047600  1.0  0.0083
  C  C170  1  0.993500  0.910700  0.038600  1.0  -0.1898
  C  C171  1  0.082700  0.912200  0.100000  1.0  0.2944
  C  C172  1  0.094300  0.879200  0.170100  1.0  -0.1965
  C  C173  1  0.010100  0.844900  0.178700  1.0  -0.0086
  C  C174  1  0.170400  0.992900  0.124700  1.0  0.2477
  C  C175  1  0.261100  0.021900  0.112000  1.0  -0.2413
  C  C176  1  0.267000  0.071500  0.143700  1.0  -0.0075
  C  C177  1  0.185800  0.091800  0.187800  1.0  -0.1325
  C  C178  1  0.098300  0.060700  0.200200  1.0  -0.0316
  C  C179  1  0.089500  0.011300  0.169400  1.0  -0.1474
  C  C180  1  0.187600  0.146100  0.213600  1.0  0.6217
  C  C181  1  0.413200  0.753600  0.970600  1.0  0.1762
  C  C182  1  0.346800  0.755500  0.894800  1.0  -0.1739
  C  C183  1  0.385700  0.778200  0.825500  1.0  -0.0501
  C  C184  1  0.487900  0.801900  0.836700  1.0  -0.2025
  C  C185  1  0.550200  0.798500  0.915600  1.0  0.1746
  C  C186  1  0.321300  0.778800  0.737900  1.0  0.1379
  C  C187  1  0.077300  0.776300  0.632900  1.0  0.121
  C  C188  1  0.014100  0.772000  0.547500  1.0  -0.0059
  C  C189  1  0.906500  0.790500  0.533100  1.0  -0.2253
  C  C190  1  0.845000  0.783300  0.454700  1.0  0.181
  C  C191  1  0.984300  0.742900  0.400300  1.0  0.1473
  C  C192  1  0.050800  0.748000  0.477700  1.0  -0.1208
  C  C193  1  0.575300  0.692200  0.756100  1.0  0.6831
  C  C194  1  0.508700  0.653400  0.794300  1.0  -0.1436
  C  C195  1  0.433500  0.624900  0.741300  1.0  0.0149
  C  C196  1  0.372600  0.587400  0.775100  1.0  -0.2197
  C  C197  1  0.386700  0.580100  0.863700  1.0  0.2834
  C  C198  1  0.459900  0.607400  0.916900  1.0  -0.1838
  C  C199  1  0.523500  0.643800  0.882700  1.0  -0.0509
  C  C200  1  0.343800  0.493800  0.890000  1.0  0.2846
  C  C201  1  0.265800  0.461000  0.915900  1.0  -0.2397
  C  C202  1  0.284000  0.409000  0.912200  1.0  0.005
  C  C203  1  0.376600  0.389900  0.882600  1.0  -0.0394
  C  C204  1  0.451200  0.423500  0.857100  1.0  -0.0479
  C  C205  1  0.435800  0.475600  0.859300  1.0  -0.1764
  C  C206  1  0.400000  0.334600  0.884700  1.0  0.6573
  C  C207  1  0.827500  0.691400  0.629900  1.0  0.6912
  C  C208  1  0.916100  0.655400  0.617500  1.0  -0.137
  C  C209  1  0.909400  0.622700  0.547600  1.0  0.0091
  C  C210  1  0.993500  0.589300  0.538600  1.0  -0.1891
  C  C211  1  0.082700  0.587800  0.600000  1.0  0.2943
  C  C212  1  0.094300  0.620800  0.670100  1.0  -0.1965
  C  C213  1  0.010100  0.655100  0.678700  1.0  -0.0081
  C  C214  1  0.170400  0.507100  0.624700  1.0  0.2488
  C  C215  1  0.261100  0.478100  0.612000  1.0  -0.2416
  C  C216  1  0.267000  0.428500  0.643700  1.0  -0.0076
  C  C217  1  0.185800  0.408200  0.687800  1.0  -0.1326
  C  C218  1  0.098300  0.439300  0.700200  1.0  -0.0312
  C  C219  1  0.089500  0.488700  0.669400  1.0  -0.1471
  C  C220  1  0.187600  0.353900  0.713600  1.0  0.6222
  C  C221  1  0.413200  0.746400  0.470600  1.0  0.1765
  C  C222  1  0.346800  0.744500  0.394800  1.0  -0.1737
  C  C223  1  0.385700  0.721800  0.325500  1.0  -0.0497
  C  C224  1  0.487900  0.698100  0.336700  1.0  -0.204
  C  C225  1  0.550200  0.701500  0.415600  1.0  0.1741
  C  C226  1  0.321300  0.721200  0.237900  1.0  0.138
  C  C227  1  0.077300  0.723700  0.132900  1.0  0.1206
  C  C228  1  0.014100  0.728000  0.047500  1.0  -0.008
  C  C229  1  0.906500  0.709500  0.033100  1.0  -0.2251
  C  C230  1  0.845000  0.716700  0.954700  1.0  0.1795
  C  C231  1  0.984300  0.757100  0.900300  1.0  0.1474
  C  C232  1  0.050800  0.752000  0.977700  1.0  -0.1213
  C  C233  1  0.424700  0.192200  0.743900  1.0  0.6831
  C  C234  1  0.491300  0.153400  0.705700  1.0  -0.1466
  C  C235  1  0.566500  0.124900  0.758700  1.0  0.0142
  C  C236  1  0.627400  0.087400  0.724900  1.0  -0.221
  C  C237  1  0.613300  0.080100  0.636300  1.0  0.2872
  C  C238  1  0.540100  0.107400  0.583100  1.0  -0.1823
  C  C239  1  0.476500  0.143800  0.617300  1.0  -0.0499
  C  C240  1  0.656200  0.993800  0.610000  1.0  0.2855
  C  C241  1  0.734200  0.961000  0.584100  1.0  -0.2392
  C  C242  1  0.716000  0.909000  0.587800  1.0  0.0075
  C  C243  1  0.623400  0.889900  0.617400  1.0  -0.0413
  C  C244  1  0.548800  0.923500  0.642900  1.0  -0.0486
  C  C245  1  0.564200  0.975600  0.640700  1.0  -0.1785
  C  C246  1  0.600000  0.834600  0.615300  1.0  0.6578
  C  C247  1  0.172500  0.191400  0.870100  1.0  0.6904
  C  C248  1  0.083900  0.155400  0.882500  1.0  -0.1364
  C  C249  1  0.090600  0.122700  0.952400  1.0  0.01
  C  C250  1  0.006500  0.089300  0.961400  1.0  -0.1892
  C  C251  1  0.917300  0.087800  0.900000  1.0  0.2924
  C  C252  1  0.905700  0.120800  0.829900  1.0  -0.1968
  C  C253  1  0.989900  0.155100  0.821300  1.0  -0.0074
  C  C254  1  0.829600  0.007100  0.875300  1.0  0.2478
  C  C255  1  0.738900  0.978100  0.888000  1.0  -0.245
  C  C256  1  0.733000  0.928500  0.856300  1.0  -0.0075
  C  C257  1  0.814200  0.908200  0.812200  1.0  -0.1316
  C  C258  1  0.901700  0.939300  0.799800  1.0  -0.0283
  C  C259  1  0.910500  0.988700  0.830600  1.0  -0.1454
  C  C260  1  0.812400  0.853900  0.786400  1.0  0.621
  C  C261  1  0.586800  0.246400  0.029400  1.0  0.1746
  C  C262  1  0.653200  0.244500  0.105200  1.0  -0.1732
  C  C263  1  0.614300  0.221800  0.174500  1.0  -0.0503
  C  C264  1  0.512100  0.198100  0.163300  1.0  -0.2021
  C  C265  1  0.449800  0.201500  0.084400  1.0  0.175
  C  C266  1  0.678700  0.221200  0.262100  1.0  0.1366
  C  C267  1  0.922700  0.223700  0.367100  1.0  0.1222
  C  C268  1  0.985900  0.228000  0.452500  1.0  -0.0056
  C  C269  1  0.093500  0.209500  0.466900  1.0  -0.2267
  C  C270  1  0.155000  0.216700  0.545300  1.0  0.1798
  C  C271  1  0.015700  0.257100  0.599700  1.0  0.1477
  C  C272  1  0.949200  0.252000  0.522300  1.0  -0.1219
  N  N273  1  0.485100  0.274600  0.516700  1.0  -0.3352
  N  N274  1  0.779000  0.263600  0.771100  1.0  -0.2412
  N  N275  1  0.825600  0.261700  0.857400  1.0  -0.1871
  N  N276  1  0.119600  0.259450  0.110800  1.0  -0.313
  N  N277  1  0.514900  0.774600  0.983300  1.0  -0.3348
  N  N278  1  0.221000  0.763600  0.728900  1.0  -0.2398
  N  N279  1  0.174400  0.761700  0.642600  1.0  -0.1869
  N  N280  1  0.880400  0.759450  0.389200  1.0  -0.3147
  N  N281  1  0.514900  0.725400  0.483300  1.0  -0.3362
  N  N282  1  0.221000  0.736400  0.228900  1.0  -0.2399
  N  N283  1  0.174400  0.738300  0.142600  1.0  -0.1866
  N  N284  1  0.880400  0.740550  0.889200  1.0  -0.315
  N  N285  1  0.485100  0.225400  0.016700  1.0  -0.3367
  N  N286  1  0.779000  0.236400  0.271100  1.0  -0.241
  N  N287  1  0.825600  0.238300  0.357400  1.0  -0.1859
  N  N288  1  0.119600  0.240550  0.610800  1.0  -0.3124
  O  O289  1  0.454300  0.297500  0.321900  1.0  -0.5964
  O  O290  1  0.343900  0.288810  0.197400  1.0  -0.6122
  O  O291  1  0.678200  0.455220  0.100800  1.0  -0.2872
  O  O292  1  0.508000  0.681710  0.125700  1.0  -0.6
  O  O293  1  0.677700  0.694780  0.098300  1.0  -0.5814
  O  O294  1  0.259900  0.309810  0.422200  1.0  -0.5975
  O  O295  1  0.154600  0.278110  0.307100  1.0  -0.6462
  O  O296  1  0.829500  0.444000  0.410100  1.0  -0.2768
  O  O297  1  0.889500  0.665680  0.255800  1.0  -0.5833
  O  O298  1  0.727900  0.672330  0.301000  1.0  -0.5826
  O  O299  1  0.545700  0.797500  0.178100  1.0  -0.5969
  O  O300  1  0.656100  0.788810  0.302600  1.0  -0.613
  O  O301  1  0.321800  0.955220  0.399200  1.0  -0.2888
  O  O302  1  0.492000  0.181710  0.374300  1.0  -0.6001
  O  O303  1  0.322300  0.194780  0.401700  1.0  -0.582
  O  O304  1  0.740100  0.809810  0.077800  1.0  -0.597
  O  O305  1  0.845400  0.778110  0.192900  1.0  -0.6463
  O  O306  1  0.170500  0.944000  0.089900  1.0  -0.2745
  O  O307  1  0.110500  0.165680  0.244200  1.0  -0.5838
  O  O308  1  0.272100  0.172330  0.199000  1.0  -0.5829
  O  O309  1  0.545700  0.702500  0.678100  1.0  -0.597
  O  O310  1  0.656100  0.711190  0.802600  1.0  -0.6128
  O  O311  1  0.321800  0.544780  0.899200  1.0  -0.2882
  O  O312  1  0.492000  0.318290  0.874300  1.0  -0.6
  O  O313  1  0.322300  0.305220  0.901700  1.0  -0.5822
  O  O314  1  0.740100  0.690190  0.577800  1.0  -0.5972
  O  O315  1  0.845400  0.721890  0.692900  1.0  -0.6463
  O  O316  1  0.170500  0.556000  0.589900  1.0  -0.2739
  O  O317  1  0.110500  0.334320  0.744200  1.0  -0.5839
  O  O318  1  0.272100  0.327670  0.699000  1.0  -0.583
  O  O319  1  0.454300  0.202500  0.821900  1.0  -0.5968
  O  O320  1  0.343900  0.211190  0.697400  1.0  -0.6121
  O  O321  1  0.678200  0.044780  0.600800  1.0  -0.2874
  O  O322  1  0.508000  0.818290  0.625700  1.0  -0.5999
  O  O323  1  0.677700  0.805220  0.598300  1.0  -0.5815
  O  O324  1  0.259900  0.190190  0.922200  1.0  -0.5979
  O  O325  1  0.154600  0.221890  0.807100  1.0  -0.6472
  O  O326  1  0.829500  0.056000  0.910100  1.0  -0.2769
  O  O327  1  0.889500  0.834320  0.755800  1.0  -0.5828
  O  O328  1  0.727900  0.827670  0.801000  1.0  -0.5829
