# generated using pymatgen
data_InH4C4NO8
_symmetry_space_group_name_H-M   'P 1'
_cell_length_a   9.02500000
_cell_length_b   9.02500000
_cell_length_c   11.34300000
_cell_angle_alpha   90.00000000
_cell_angle_beta   90.00000000
_cell_angle_gamma   120.00000000
_symmetry_Int_Tables_number   1
_chemical_formula_structural   InH4C4NO8
_chemical_formula_sum   'In3 H12 C12 N3 O24'
_cell_volume   800.11605491
_cell_formula_units_Z   3
loop_
 _symmetry_equiv_pos_site_id
 _symmetry_equiv_pos_as_xyz
  1  'x, y, z'
loop_
 _atom_site_type_symbol
 _atom_site_label
 _atom_site_symmetry_multiplicity
 _atom_site_fract_x
 _atom_site_fract_y
 _atom_site_fract_z
 _atom_site_occupancy
 _atom_site_charge
  In  In1  1  0.500000  0.000000  0.666667  1.0  1.5998
  In  In2  1  0.500000  0.500000  0.000000  1.0  1.5997
  In  In3  1  0.000000  0.500000  0.333333  1.0  1.5999
  H  H4  1  0.895800  0.972100  0.052600  1.0  0.4086
  H  H5  1  0.104200  0.027900  0.052600  1.0  0.4069
  H  H6  1  0.972100  0.895800  0.947400  1.0  0.4045
  H  H7  1  0.027900  0.104200  0.947400  1.0  0.4055
  H  H8  1  0.076300  0.104200  0.385930  1.0  0.4047
  H  H9  1  0.923700  0.895800  0.385930  1.0  0.4061
  H  H10  1  0.923700  0.027900  0.280730  1.0  0.4084
  H  H11  1  0.076300  0.972100  0.280730  1.0  0.4067
  H  H12  1  0.027900  0.923700  0.719270  1.0  0.4039
  H  H13  1  0.972100  0.076300  0.719270  1.0  0.4056
  H  H14  1  0.104200  0.076300  0.614070  1.0  0.4042
  H  H15  1  0.895800  0.923700  0.614070  1.0  0.4045
  C  C16  1  0.789050  0.210950  0.500000  1.0  0.5628
  C  C17  1  0.690250  0.309750  0.500000  1.0  0.5443
  C  C18  1  0.421900  0.210950  0.833330  1.0  0.5627
  C  C19  1  0.619500  0.309750  0.833330  1.0  0.5454
  C  C20  1  0.789050  0.578100  0.166670  1.0  0.5642
  C  C21  1  0.690250  0.380500  0.166670  1.0  0.5442
  C  C22  1  0.210950  0.789050  0.500000  1.0  0.5634
  C  C23  1  0.309750  0.690250  0.500000  1.0  0.5444
  C  C24  1  0.578100  0.789050  0.833330  1.0  0.564
  C  C25  1  0.380500  0.690250  0.833330  1.0  0.5431
  C  C26  1  0.210950  0.421900  0.166670  1.0  0.5629
  C  C27  1  0.309750  0.619500  0.166670  1.0  0.5428
  N  N28  1  0.000000  0.000000  0.000000  1.0  -0.757
  N  N29  1  0.000000  0.000000  0.333333  1.0  -0.757
  N  N30  1  0.000000  0.000000  0.666667  1.0  -0.7571
  O  O31  1  0.731900  0.078700  0.561400  1.0  -0.5959
  O  O32  1  0.553100  0.241400  0.555400  1.0  -0.5754
  O  O33  1  0.346800  0.268100  0.894730  1.0  -0.5936
  O  O34  1  0.688300  0.446900  0.888730  1.0  -0.5763
  O  O35  1  0.921300  0.653200  0.228070  1.0  -0.5937
  O  O36  1  0.758600  0.311700  0.222070  1.0  -0.5765
  O  O37  1  0.268100  0.921300  0.561400  1.0  -0.5953
  O  O38  1  0.446900  0.758600  0.555400  1.0  -0.575
  O  O39  1  0.653200  0.731900  0.894730  1.0  -0.5938
  O  O40  1  0.311700  0.553100  0.888730  1.0  -0.5775
  O  O41  1  0.078700  0.346800  0.228070  1.0  -0.5942
  O  O42  1  0.241400  0.688300  0.222070  1.0  -0.5752
  O  O43  1  0.653200  0.921300  0.771930  1.0  -0.596
  O  O44  1  0.311700  0.758600  0.777930  1.0  -0.5741
  O  O45  1  0.078700  0.731900  0.438600  1.0  -0.5938
  O  O46  1  0.241400  0.553100  0.444600  1.0  -0.5762
  O  O47  1  0.268100  0.346800  0.105270  1.0  -0.5941
  O  O48  1  0.446900  0.688300  0.111270  1.0  -0.5761
  O  O49  1  0.346800  0.078700  0.771930  1.0  -0.5955
  O  O50  1  0.688300  0.241400  0.777930  1.0  -0.5745
  O  O51  1  0.921300  0.268100  0.438600  1.0  -0.5935
  O  O52  1  0.758600  0.446900  0.444600  1.0  -0.5767
  O  O53  1  0.731900  0.653200  0.105270  1.0  -0.5938
  O  O54  1  0.553100  0.311700  0.111270  1.0  -0.5753
