# generated using pymatgen
data_CdH17C20N3O4
_symmetry_space_group_name_H-M   'P 1'
_cell_length_a   10.42970000
_cell_length_b   11.21900000
_cell_length_c   11.21900000
_cell_angle_alpha   98.50860000
_cell_angle_beta   109.59200000
_cell_angle_gamma   109.59200000
_symmetry_Int_Tables_number   1
_chemical_formula_structural   CdH17C20N3O4
_chemical_formula_sum   'Cd2 H34 C40 N6 O8'
_cell_volume   1113.86698805
_cell_formula_units_Z   2
loop_
 _symmetry_equiv_pos_site_id
 _symmetry_equiv_pos_as_xyz
  1  'x, y, z'
loop_
 _atom_site_type_symbol
 _atom_site_label
 _atom_site_symmetry_multiplicity
 _atom_site_fract_x
 _atom_site_fract_y
 _atom_site_fract_z
 _atom_site_occupancy
 _atom_site_charge
  Cd  Cd1  1  0.250940  0.974830  0.066750  1.0  0.921
  Cd  Cd2  1  0.750940  0.066750  0.974830  1.0  0.9235
  H  H3  1  0.129300  0.209700  0.040100  1.0  0.0809
  H  H4  1  0.178000  0.406100  0.984300  1.0  0.1222
  H  H5  1  0.359800  0.474400  0.900800  1.0  0.1017
  H  H6  1  0.418900  0.783500  0.032500  1.0  0.0759
  H  H7  1  0.503000  0.637900  0.126500  1.0  0.1283
  H  H8  1  0.299200  0.668800  0.370600  1.0  0.1152
  H  H9  1  0.234500  0.822900  0.280500  1.0  0.0854
  H  H10  1  0.388300  0.488000  0.352000  1.0  0.0972
  H  H11  1  0.480400  0.484700  0.263100  1.0  0.0996
  H  H12  1  0.681800  0.685600  0.421400  1.0  0.0846
  H  H13  1  0.590800  0.679500  0.511700  1.0  0.0841
  H  H14  1  0.709600  0.491200  0.457600  1.0  0.1052
  H  H15  1  0.611600  0.478400  0.542600  1.0  0.1005
  H  H16  1  0.949200  0.724700  0.550100  1.0  0.1283
  H  H17  1  0.148000  0.874100  0.740900  1.0  0.0837
  H  H18  1  0.956400  0.716600  0.961600  1.0  0.0851
  H  H19  1  0.747900  0.567600  0.776800  1.0  0.1302
  H  H20  1  0.629300  0.040100  0.209700  1.0  0.0809
  H  H21  1  0.678000  0.984300  0.406100  1.0  0.1212
  H  H22  1  0.859800  0.900800  0.474400  1.0  0.1026
  H  H23  1  0.918900  0.032500  0.783500  1.0  0.0765
  H  H24  1  0.003000  0.126500  0.637900  1.0  0.1273
  H  H25  1  0.799200  0.370600  0.668800  1.0  0.1146
  H  H26  1  0.734500  0.280500  0.822900  1.0  0.0856
  H  H27  1  0.888300  0.352000  0.488000  1.0  0.0951
  H  H28  1  0.980400  0.263100  0.484700  1.0  0.1004
  H  H29  1  0.181800  0.421400  0.685600  1.0  0.0849
  H  H30  1  0.090800  0.511700  0.679500  1.0  0.0827
  H  H31  1  0.209600  0.457600  0.491200  1.0  0.1042
  H  H32  1  0.111600  0.542600  0.478400  1.0  0.0992
  H  H33  1  0.449200  0.550100  0.724700  1.0  0.1256
  H  H34  1  0.648000  0.740900  0.874100  1.0  0.0836
  H  H35  1  0.456400  0.961600  0.716600  1.0  0.0855
  H  H36  1  0.247900  0.776800  0.567600  1.0  0.1303
  C  C37  1  0.205000  0.238850  0.008650  1.0  0.1522
  C  C38  1  0.232100  0.354840  0.974560  1.0  -0.1413
  C  C39  1  0.340000  0.394990  0.925730  1.0  -0.0475
  C  C40  1  0.419900  0.319420  0.912860  1.0  -0.0645
  C  C41  1  0.534200  0.368130  0.855070  1.0  0.6385
  C  C42  1  0.389100  0.205770  0.954390  1.0  0.0952
  C  C43  1  0.479800  0.123460  0.961400  1.0  0.6185
  C  C44  1  0.397200  0.762010  0.104390  1.0  0.1657
  C  C45  1  0.445600  0.672940  0.158460  1.0  -0.2315
  C  C46  1  0.409100  0.635390  0.260290  1.0  0.1475
  C  C47  1  0.328000  0.692390  0.302610  1.0  -0.2098
  C  C48  1  0.288100  0.783400  0.247400  1.0  0.1884
  C  C49  1  0.464100  0.543730  0.325870  1.0  -0.2096
  C  C50  1  0.610300  0.624750  0.448050  1.0  -0.0789
  C  C51  1  0.683100  0.542040  0.518160  1.0  -0.2026
  C  C52  1  0.821700  0.630840  0.640760  1.0  0.1617
  C  C53  1  0.946500  0.723120  0.633680  1.0  -0.2288
  C  C54  1  0.065300  0.811450  0.748150  1.0  0.174
  C  C55  1  0.953000  0.720260  0.876540  1.0  0.1741
  C  C56  1  0.828500  0.630010  0.766590  1.0  -0.239
  C  C57  1  0.705000  0.008650  0.238850  1.0  0.1509
  C  C58  1  0.732100  0.974560  0.354840  1.0  -0.1417
  C  C59  1  0.840000  0.925730  0.394990  1.0  -0.0439
  C  C60  1  0.919900  0.912860  0.319420  1.0  -0.063
  C  C61  1  0.034200  0.855070  0.368130  1.0  0.6346
  C  C62  1  0.889100  0.954390  0.205770  1.0  0.0968
  C  C63  1  0.979800  0.961400  0.123460  1.0  0.6193
  C  C64  1  0.897200  0.104390  0.762010  1.0  0.1638
  C  C65  1  0.945600  0.158460  0.672940  1.0  -0.235
  C  C66  1  0.909100  0.260290  0.635390  1.0  0.1462
  C  C67  1  0.828000  0.302610  0.692390  1.0  -0.2235
  C  C68  1  0.788100  0.247400  0.783400  1.0  0.1839
  C  C69  1  0.964100  0.325870  0.543730  1.0  -0.217
  C  C70  1  0.110300  0.448050  0.624750  1.0  -0.0781
  C  C71  1  0.183100  0.518160  0.542040  1.0  -0.2059
  C  C72  1  0.321700  0.640760  0.630840  1.0  0.1614
  C  C73  1  0.446500  0.633680  0.723120  1.0  -0.2301
  C  C74  1  0.565300  0.748150  0.811450  1.0  0.1752
  C  C75  1  0.453000  0.876540  0.720260  1.0  0.1719
  C  C76  1  0.328500  0.766590  0.630010  1.0  -0.2412
  N  N77  1  0.281200  0.165340  0.999220  1.0  -0.3489
  N  N78  1  0.321900  0.818660  0.148700  1.0  -0.3569
  N  N79  1  0.069600  0.813070  0.869330  1.0  -0.3675
  N  N80  1  0.781200  0.999220  0.165340  1.0  -0.3526
  N  N81  1  0.821900  0.148700  0.818660  1.0  -0.3615
  N  N82  1  0.569600  0.869330  0.813070  1.0  -0.3684
  O  O83  1  0.438830  0.018200  0.990680  1.0  -0.6102
  O  O84  1  0.594870  0.170700  0.939900  1.0  -0.5572
  O  O85  1  0.655210  0.463240  0.931520  1.0  -0.6096
  O  O86  1  0.493900  0.316680  0.734840  1.0  -0.6155
  O  O87  1  0.938830  0.990680  0.018200  1.0  -0.6102
  O  O88  1  0.094870  0.939900  0.170700  1.0  -0.5593
  O  O89  1  0.155210  0.931520  0.463240  1.0  -0.6082
  O  O90  1  0.993900  0.734840  0.316680  1.0  -0.6143
