# generated using pymatgen
data_Zn2H4C8O9
_symmetry_space_group_name_H-M   'P 1'
_cell_length_a   9.02900000
_cell_length_b   10.93400000
_cell_length_c   13.14600000
_cell_angle_alpha   90.03100000
_cell_angle_beta   90.00000000
_cell_angle_gamma   90.00000000
_symmetry_Int_Tables_number   1
_chemical_formula_structural   Zn2H4C8O9
_chemical_formula_sum   'Zn8 H16 C32 O36'
_cell_volume   1297.81349860
_cell_formula_units_Z   4
loop_
 _symmetry_equiv_pos_site_id
 _symmetry_equiv_pos_as_xyz
  1  'x, y, z'
loop_
 _atom_site_type_symbol
 _atom_site_label
 _atom_site_symmetry_multiplicity
 _atom_site_fract_x
 _atom_site_fract_y
 _atom_site_fract_z
 _atom_site_occupancy
 _atom_site_charge
  Zn  Zn1  1  0.805830  0.105520  0.803060  1.0  1.0731
  Zn  Zn2  1  0.486940  0.265470  0.071470  1.0  1.0913
  Zn  Zn3  1  0.305830  0.394480  0.696940  1.0  1.075
  Zn  Zn4  1  0.986940  0.234530  0.428530  1.0  1.0948
  Zn  Zn5  1  0.194170  0.894480  0.196940  1.0  1.0751
  Zn  Zn6  1  0.513060  0.734530  0.928530  1.0  1.0954
  Zn  Zn7  1  0.694170  0.605520  0.303060  1.0  1.0768
  Zn  Zn8  1  0.013060  0.765470  0.571470  1.0  1.0915
  H  H9  1  0.649500  0.937200  0.124100  1.0  0.1176
  H  H10  1  0.607200  0.087300  0.297700  1.0  0.1119
  H  H11  1  0.897800  0.984900  0.111600  1.0  0.1226
  H  H12  1  0.859400  0.216900  0.126800  1.0  0.1174
  H  H13  1  0.149500  0.562800  0.375900  1.0  0.1181
  H  H14  1  0.107200  0.412700  0.202300  1.0  0.1118
  H  H15  1  0.397800  0.515100  0.388400  1.0  0.1221
  H  H16  1  0.359400  0.283100  0.373200  1.0  0.1174
  H  H17  1  0.350500  0.062800  0.875900  1.0  0.118
  H  H18  1  0.392800  0.912700  0.702300  1.0  0.1123
  H  H19  1  0.102200  0.015100  0.888400  1.0  0.1226
  H  H20  1  0.140600  0.783100  0.873200  1.0  0.1168
  H  H21  1  0.850500  0.437200  0.624100  1.0  0.1173
  H  H22  1  0.892800  0.587300  0.797700  1.0  0.1122
  H  H23  1  0.602200  0.484900  0.611600  1.0  0.1231
  H  H24  1  0.640600  0.716900  0.626800  1.0  0.1172
  C  C25  1  0.749100  0.140780  0.003370  1.0  0.6578
  C  C26  1  0.692100  0.968700  0.187430  1.0  -0.1784
  C  C27  1  0.435500  0.052900  0.196480  1.0  0.6345
  C  C28  1  0.596900  0.076730  0.224020  1.0  0.0596
  C  C29  1  0.842000  0.032000  0.162130  1.0  -0.2015
  C  C30  1  0.785400  0.152500  0.116750  1.0  0.0692
  C  C31  1  0.698700  0.864700  0.264450  1.0  0.7017
  C  C32  1  0.934700  0.054600  0.257230  1.0  0.7284
  C  C33  1  0.249100  0.359220  0.496630  1.0  0.6489
  C  C34  1  0.192100  0.531300  0.312570  1.0  -0.1807
  C  C35  1  0.935500  0.447100  0.303520  1.0  0.6348
  C  C36  1  0.096900  0.423270  0.275980  1.0  0.0597
  C  C37  1  0.342000  0.468000  0.337870  1.0  -0.2017
  C  C38  1  0.285400  0.347500  0.383250  1.0  0.0697
  C  C39  1  0.198700  0.635300  0.235550  1.0  0.7018
  C  C40  1  0.434700  0.445400  0.242770  1.0  0.7282
  C  C41  1  0.250900  0.859220  0.996630  1.0  0.6491
  C  C42  1  0.307900  0.031300  0.812570  1.0  -0.1803
  C  C43  1  0.564500  0.947100  0.803520  1.0  0.6347
  C  C44  1  0.403100  0.923270  0.775980  1.0  0.0605
  C  C45  1  0.158000  0.968000  0.837870  1.0  -0.2043
  C  C46  1  0.214600  0.847500  0.883250  1.0  0.0699
  C  C47  1  0.301300  0.135300  0.735550  1.0  0.7016
  C  C48  1  0.065300  0.945400  0.742770  1.0  0.7281
  C  C49  1  0.750900  0.640780  0.503370  1.0  0.6584
  C  C50  1  0.807900  0.468700  0.687430  1.0  -0.1782
  C  C51  1  0.064500  0.552900  0.696480  1.0  0.6345
  C  C52  1  0.903100  0.576730  0.724020  1.0  0.0609
  C  C53  1  0.658000  0.532000  0.662130  1.0  -0.2048
  C  C54  1  0.714600  0.652500  0.616750  1.0  0.0691
  C  C55  1  0.801300  0.364700  0.764450  1.0  0.7018
  C  C56  1  0.565300  0.554600  0.757230  1.0  0.7276
  O  O57  1  0.652360  0.182710  0.171550  1.0  -0.3334
  O  O58  1  0.893640  0.138900  0.313900  1.0  -0.6079
  O  O59  1  0.622400  0.161720  0.971470  1.0  -0.5697
  O  O60  1  0.858290  0.110660  0.946860  1.0  -0.5746
  O  O61  1  0.687300  0.758360  0.226570  1.0  -0.6476
  O  O62  1  0.374260  0.111860  0.127410  1.0  -0.586
  O  O63  1  0.045500  0.987230  0.274630  1.0  -0.6328
  O  O64  1  0.712700  0.886570  0.355210  1.0  -0.5943
  O  O65  1  0.378450  0.966260  0.245960  1.0  -0.5573
  O  O66  1  0.152360  0.317290  0.328450  1.0  -0.3343
  O  O67  1  0.393640  0.361100  0.186100  1.0  -0.6089
  O  O68  1  0.122400  0.338280  0.528530  1.0  -0.5693
  O  O69  1  0.358290  0.389340  0.553140  1.0  -0.5727
  O  O70  1  0.187300  0.741640  0.273430  1.0  -0.6481
  O  O71  1  0.874260  0.388140  0.372590  1.0  -0.5847
  O  O72  1  0.545500  0.512770  0.225370  1.0  -0.6307
  O  O73  1  0.212700  0.613430  0.144790  1.0  -0.5943
  O  O74  1  0.878450  0.533740  0.254040  1.0  -0.5577
  O  O75  1  0.347640  0.817290  0.828450  1.0  -0.3333
  O  O76  1  0.106360  0.861100  0.686100  1.0  -0.6094
  O  O77  1  0.377600  0.838280  0.028530  1.0  -0.5695
  O  O78  1  0.141710  0.889340  0.053140  1.0  -0.5741
  O  O79  1  0.312700  0.241640  0.773430  1.0  -0.6474
  O  O80  1  0.625740  0.888140  0.872590  1.0  -0.5856
  O  O81  1  0.954500  0.012770  0.725370  1.0  -0.6305
  O  O82  1  0.287300  0.113430  0.644790  1.0  -0.594
  O  O83  1  0.621550  0.033740  0.754040  1.0  -0.5577
  O  O84  1  0.847640  0.682710  0.671550  1.0  -0.3336
  O  O85  1  0.606360  0.638900  0.813900  1.0  -0.6088
  O  O86  1  0.877600  0.661720  0.471470  1.0  -0.5697
  O  O87  1  0.641710  0.610660  0.446860  1.0  -0.5759
  O  O88  1  0.812700  0.258360  0.726570  1.0  -0.6478
  O  O89  1  0.125740  0.611860  0.627410  1.0  -0.5862
  O  O90  1  0.454500  0.487230  0.774630  1.0  -0.6334
  O  O91  1  0.787300  0.386570  0.855210  1.0  -0.5944
  O  O92  1  0.121550  0.466260  0.745960  1.0  -0.5562
