# generated using pymatgen
data_ZnH7C9NO5
_symmetry_space_group_name_H-M   'P 1'
_cell_length_a   9.27320000
_cell_length_b   14.32180000
_cell_length_c   16.97920000
_cell_angle_alpha   98.65900000
_cell_angle_beta   90.00000000
_cell_angle_gamma   108.88900000
_symmetry_Int_Tables_number   1
_chemical_formula_structural   ZnH7C9NO5
_chemical_formula_sum   'Zn8 H56 C72 N8 O40'
_cell_volume   2106.36846110
_cell_formula_units_Z   8
loop_
 _symmetry_equiv_pos_site_id
 _symmetry_equiv_pos_as_xyz
  1  'x, y, z'
loop_
 _atom_site_type_symbol
 _atom_site_label
 _atom_site_symmetry_multiplicity
 _atom_site_fract_x
 _atom_site_fract_y
 _atom_site_fract_z
 _atom_site_occupancy
 _atom_site_charge
  Zn  Zn1  1  0.970350  0.346200  0.342330  1.0  0.8931
  Zn  Zn2  1  0.566060  0.344740  0.549490  1.0  0.9634
  Zn  Zn3  1  0.624150  0.653800  0.157670  1.0  0.8924
  Zn  Zn4  1  0.221320  0.655260  0.950510  1.0  0.9627
  Zn  Zn5  1  0.029650  0.653800  0.657670  1.0  0.8928
  Zn  Zn6  1  0.433940  0.655260  0.450510  1.0  0.963
  Zn  Zn7  1  0.375850  0.346200  0.842330  1.0  0.894
  Zn  Zn8  1  0.778680  0.344740  0.049490  1.0  0.9632
  H  H9  1  0.148500  0.255800  0.367700  1.0  0.4433
  H  H10  1  0.067000  0.311800  0.397200  1.0  0.3416
  H  H11  1  0.682000  0.475000  0.325400  1.0  0.0903
  H  H12  1  0.896100  0.593800  0.447100  1.0  0.1122
  H  H13  1  0.038300  0.699000  0.368300  1.0  0.1181
  H  H14  1  0.054700  0.562000  0.256500  1.0  0.1034
  H  H15  1  0.625200  0.262800  0.273100  1.0  0.0741
  H  H16  1  0.466200  0.130000  0.188200  1.0  0.1228
  H  H17  1  0.815400  0.025000  0.151800  1.0  0.13
  H  H18  1  0.960900  0.158600  0.241200  1.0  0.0783
  H  H19  1  0.171300  0.832200  0.060000  1.0  0.0878
  H  H20  1  0.316100  0.972200  0.144200  1.0  0.1279
  H  H21  1  0.689200  0.936400  0.044000  1.0  0.1278
  H  H22  1  0.534400  0.796200  0.963300  1.0  0.081
  H  H23  1  0.892700  0.744200  0.132300  1.0  0.4436
  H  H24  1  0.755200  0.688200  0.102800  1.0  0.3399
  H  H25  1  0.207000  0.525000  0.174600  1.0  0.0903
  H  H26  1  0.302300  0.406200  0.052900  1.0  0.1146
  H  H27  1  0.339300  0.301000  0.131700  1.0  0.1182
  H  H28  1  0.492700  0.438000  0.243500  1.0  0.1029
  H  H29  1  0.362400  0.737200  0.226900  1.0  0.0747
  H  H30  1  0.336200  0.870000  0.311800  1.0  0.1228
  H  H31  1  0.790400  0.975000  0.348200  1.0  0.1298
  H  H32  1  0.802300  0.841400  0.258800  1.0  0.078
  H  H33  1  0.339100  0.167800  0.440000  1.0  0.0868
  H  H34  1  0.343900  0.027800  0.355800  1.0  0.1274
  H  H35  1  0.752800  0.063600  0.456000  1.0  0.1285
  H  H36  1  0.738200  0.203800  0.536700  1.0  0.0809
  H  H37  1  0.851500  0.744200  0.632300  1.0  0.4433
  H  H38  1  0.933000  0.688200  0.602800  1.0  0.3408
  H  H39  1  0.318000  0.525000  0.674600  1.0  0.0899
  H  H40  1  0.103900  0.406200  0.552900  1.0  0.1137
  H  H41  1  0.961700  0.301000  0.631700  1.0  0.1183
  H  H42  1  0.945300  0.438000  0.743500  1.0  0.1032
  H  H43  1  0.374800  0.737200  0.726900  1.0  0.074
  H  H44  1  0.533800  0.870000  0.811800  1.0  0.1233
  H  H45  1  0.184600  0.975000  0.848200  1.0  0.1293
  H  H46  1  0.039100  0.841400  0.758800  1.0  0.0778
  H  H47  1  0.828700  0.167800  0.940000  1.0  0.0868
  H  H48  1  0.683900  0.027800  0.855800  1.0  0.1284
  H  H49  1  0.310800  0.063600  0.956000  1.0  0.13
  H  H50  1  0.465600  0.203800  0.036700  1.0  0.0808
  H  H51  1  0.107300  0.255800  0.867700  1.0  0.4428
  H  H52  1  0.244800  0.311800  0.897200  1.0  0.3434
  H  H53  1  0.793000  0.475000  0.825400  1.0  0.09
  H  H54  1  0.697700  0.593800  0.947100  1.0  0.112
  H  H55  1  0.660700  0.699000  0.868300  1.0  0.1187
  H  H56  1  0.507300  0.562000  0.756500  1.0  0.1029
  H  H57  1  0.637600  0.262800  0.773100  1.0  0.0743
  H  H58  1  0.663800  0.130000  0.688200  1.0  0.1234
  H  H59  1  0.209600  0.025000  0.651800  1.0  0.1293
  H  H60  1  0.197700  0.158600  0.741200  1.0  0.0781
  H  H61  1  0.660900  0.832200  0.560000  1.0  0.0872
  H  H62  1  0.656100  0.972200  0.644200  1.0  0.1284
  H  H63  1  0.247200  0.936400  0.544000  1.0  0.1302
  H  H64  1  0.261800  0.796200  0.463300  1.0  0.0809
  C  C65  1  0.774030  0.484060  0.358100  1.0  0.0576
  C  C66  1  0.838650  0.593100  0.398400  1.0  -0.1865
  C  C67  1  0.956820  0.641640  0.339740  1.0  -0.1982
  C  C68  1  0.018000  0.555800  0.310250  1.0  0.0534
  C  C69  1  0.735160  0.412120  0.418230  1.0  0.62
  C  C70  1  0.725230  0.646860  0.423020  1.0  0.6863
  C  C71  1  0.891920  0.671040  0.267650  1.0  0.6788
  C  C72  1  0.148790  0.555380  0.366180  1.0  0.6477
  C  C73  1  0.663750  0.213900  0.248880  1.0  0.1901
  C  C74  1  0.566910  0.133820  0.197540  1.0  -0.1972
  C  C75  1  0.620180  0.059160  0.159830  1.0  0.0878
  C  C76  1  0.772430  0.071460  0.176400  1.0  -0.19
  C  C77  1  0.860190  0.153180  0.229600  1.0  0.1799
  C  C78  1  0.276890  0.852980  0.057220  1.0  0.1905
  C  C79  1  0.363330  0.937460  0.108000  1.0  -0.201
  C  C80  1  0.521750  0.970300  0.104650  1.0  0.0825
  C  C81  1  0.584160  0.916320  0.048930  1.0  -0.1856
  C  C82  1  0.490060  0.831920  0.000290  1.0  0.1956
  C  C83  1  0.289970  0.515940  0.141900  1.0  0.0587
  C  C84  1  0.245550  0.406900  0.101600  1.0  -0.1869
  C  C85  1  0.315180  0.358360  0.160260  1.0  -0.1989
  C  C86  1  0.462200  0.444200  0.189750  1.0  0.0536
  C  C87  1  0.323040  0.587880  0.081770  1.0  0.6195
  C  C88  1  0.078370  0.353140  0.076980  1.0  0.6862
  C  C89  1  0.220880  0.328960  0.232350  1.0  0.6801
  C  C90  1  0.593410  0.444620  0.133820  1.0  0.6486
  C  C91  1  0.449850  0.786100  0.251120  1.0  0.1906
  C  C92  1  0.433090  0.866180  0.302460  1.0  -0.1973
  C  C93  1  0.561020  0.940840  0.340170  1.0  0.0875
  C  C94  1  0.700970  0.928540  0.323600  1.0  -0.19
  C  C95  1  0.707010  0.846820  0.270400  1.0  0.1794
  C  C96  1  0.423910  0.147020  0.442780  1.0  0.1906
  C  C97  1  0.425870  0.062540  0.392000  1.0  -0.2009
  C  C98  1  0.551450  0.029700  0.395350  1.0  0.0831
  C  C99  1  0.667840  0.083680  0.451070  1.0  -0.1852
  C  C100  1  0.658140  0.168080  0.499710  1.0  0.196
  C  C101  1  0.225970  0.515940  0.641900  1.0  0.0584
  C  C102  1  0.161350  0.406900  0.601600  1.0  -0.1873
  C  C103  1  0.043180  0.358360  0.660260  1.0  -0.1987
  C  C104  1  0.982000  0.444200  0.689750  1.0  0.0529
  C  C105  1  0.264840  0.587880  0.581770  1.0  0.6193
  C  C106  1  0.274770  0.353140  0.576980  1.0  0.6863
  C  C107  1  0.108080  0.328960  0.732350  1.0  0.68
  C  C108  1  0.851210  0.444620  0.633820  1.0  0.6473
  C  C109  1  0.336250  0.786100  0.751120  1.0  0.1907
  C  C110  1  0.433090  0.866180  0.802460  1.0  -0.197
  C  C111  1  0.379820  0.940840  0.840170  1.0  0.0874
  C  C112  1  0.227570  0.928540  0.823600  1.0  -0.1884
  C  C113  1  0.139810  0.846820  0.770400  1.0  0.1801
  C  C114  1  0.723110  0.147020  0.942780  1.0  0.1914
  C  C115  1  0.636670  0.062540  0.892000  1.0  -0.2012
  C  C116  1  0.478250  0.029700  0.895350  1.0  0.0831
  C  C117  1  0.415840  0.083680  0.951070  1.0  -0.1844
  C  C118  1  0.509940  0.168080  0.999710  1.0  0.1962
  C  C119  1  0.710030  0.484060  0.858100  1.0  0.0575
  C  C120  1  0.754450  0.593100  0.898400  1.0  -0.1874
  C  C121  1  0.684820  0.641640  0.839740  1.0  -0.1987
  C  C122  1  0.537800  0.555800  0.810250  1.0  0.0534
  C  C123  1  0.676960  0.412120  0.918230  1.0  0.6198
  C  C124  1  0.921630  0.646860  0.923020  1.0  0.6872
  C  C125  1  0.779120  0.671040  0.767650  1.0  0.6797
  C  C126  1  0.406590  0.555380  0.866180  1.0  0.6469
  C  C127  1  0.550150  0.213900  0.748880  1.0  0.1904
  C  C128  1  0.566910  0.133820  0.697540  1.0  -0.1968
  C  C129  1  0.438980  0.059160  0.659830  1.0  0.0877
  C  C130  1  0.299030  0.071460  0.676400  1.0  -0.189
  C  C131  1  0.292990  0.153180  0.729600  1.0  0.1802
  C  C132  1  0.576090  0.852980  0.557220  1.0  0.1907
  C  C133  1  0.574130  0.937460  0.608000  1.0  -0.2016
  C  C134  1  0.448550  0.970300  0.604650  1.0  0.0827
  C  C135  1  0.332160  0.916320  0.548930  1.0  -0.1847
  C  C136  1  0.341860  0.831920  0.500290  1.0  0.196
  N  N137  1  0.808110  0.224620  0.265380  1.0  -0.3302
  N  N138  1  0.338510  0.799620  0.004130  1.0  -0.3639
  N  N139  1  0.583490  0.775380  0.234620  1.0  -0.3288
  N  N140  1  0.538890  0.200380  0.495870  1.0  -0.3615
  N  N141  1  0.191890  0.775380  0.734620  1.0  -0.3286
  N  N142  1  0.661490  0.200380  0.995870  1.0  -0.3603
  N  N143  1  0.416510  0.224620  0.765380  1.0  -0.3298
  N  N144  1  0.461110  0.799620  0.504130  1.0  -0.3624
  O  O145  1  0.890300  0.465580  0.306890  1.0  -0.2934
  O  O146  1  0.069370  0.254740  0.389580  1.0  -0.7249
  O  O147  1  0.811330  0.355660  0.424910  1.0  -0.5721
  O  O148  1  0.622740  0.415880  0.458340  1.0  -0.5428
  O  O149  1  0.585630  0.604020  0.400840  1.0  -0.5959
  O  O150  1  0.777120  0.730440  0.466200  1.0  -0.6195
  O  O151  1  0.751300  0.636400  0.252550  1.0  -0.5796
  O  O152  1  0.987070  0.727340  0.228580  1.0  -0.6486
  O  O153  1  0.262240  0.634860  0.374290  1.0  -0.586
  O  O154  1  0.134680  0.481360  0.398700  1.0  -0.5575
  O  O155  1  0.424720  0.534420  0.193110  1.0  -0.295
  O  O156  1  0.814630  0.745260  0.110420  1.0  -0.7221
  O  O157  1  0.455670  0.644340  0.075090  1.0  -0.5717
  O  O158  1  0.206860  0.584120  0.041660  1.0  -0.5433
  O  O159  1  0.981610  0.395980  0.099160  1.0  -0.5964
  O  O160  1  0.046680  0.269560  0.033800  1.0  -0.616
  O  O161  1  0.114900  0.363600  0.247450  1.0  -0.5795
  O  O162  1  0.259730  0.272660  0.271420  1.0  -0.6488
  O  O163  1  0.627380  0.365140  0.125710  1.0  -0.5864
  O  O164  1  0.653320  0.518640  0.101300  1.0  -0.5592
  O  O165  1  0.109700  0.534420  0.693110  1.0  -0.295
  O  O166  1  0.930630  0.745260  0.610420  1.0  -0.7224
  O  O167  1  0.188670  0.644340  0.575090  1.0  -0.5715
  O  O168  1  0.377260  0.584120  0.541660  1.0  -0.5431
  O  O169  1  0.414370  0.395980  0.599160  1.0  -0.5959
  O  O170  1  0.222880  0.269560  0.533800  1.0  -0.6163
  O  O171  1  0.248700  0.363600  0.747450  1.0  -0.5796
  O  O172  1  0.012930  0.272660  0.771420  1.0  -0.6477
  O  O173  1  0.737760  0.365140  0.625710  1.0  -0.5868
  O  O174  1  0.865320  0.518640  0.601300  1.0  -0.5587
  O  O175  1  0.575280  0.465580  0.806890  1.0  -0.2935
  O  O176  1  0.185370  0.254740  0.889580  1.0  -0.7236
  O  O177  1  0.544330  0.355660  0.924910  1.0  -0.5719
  O  O178  1  0.793140  0.415880  0.958340  1.0  -0.5428
  O  O179  1  0.018390  0.604020  0.900840  1.0  -0.5957
  O  O180  1  0.953320  0.730440  0.966200  1.0  -0.6196
  O  O181  1  0.885100  0.636400  0.752550  1.0  -0.5797
  O  O182  1  0.740270  0.727340  0.728580  1.0  -0.6477
  O  O183  1  0.372620  0.634860  0.874290  1.0  -0.5865
  O  O184  1  0.346680  0.481360  0.898700  1.0  -0.557
