# generated using pymatgen
data_Cd3H20(C11O4)4
_symmetry_space_group_name_H-M   'P 1'
_cell_length_a   11.21950000
_cell_length_b   15.81700000
_cell_length_c   18.09890000
_cell_angle_alpha   102.09900000
_cell_angle_beta   96.38500000
_cell_angle_gamma   98.94700000
_symmetry_Int_Tables_number   1
_chemical_formula_structural   Cd3H20(C11O4)4
_chemical_formula_sum   'Cd6 H40 C88 O32'
_cell_volume   3067.67821013
_cell_formula_units_Z   2
loop_
 _symmetry_equiv_pos_site_id
 _symmetry_equiv_pos_as_xyz
  1  'x, y, z'
loop_
 _atom_site_type_symbol
 _atom_site_label
 _atom_site_symmetry_multiplicity
 _atom_site_fract_x
 _atom_site_fract_y
 _atom_site_fract_z
 _atom_site_occupancy
 _atom_site_charge
  Cd  Cd1  1  0.730900  0.250030  0.635840  1.0  1.0724
  Cd  Cd2  1  0.641480  0.678810  0.884700  1.0  1.0825
  Cd  Cd3  1  0.635290  0.493210  0.697170  1.0  0.8269
  Cd  Cd4  1  0.269100  0.749970  0.364160  1.0  1.071
  Cd  Cd5  1  0.358520  0.321190  0.115300  1.0  1.0826
  Cd  Cd6  1  0.364710  0.506790  0.302830  1.0  0.8269
  H  H7  1  0.302400  0.139100  0.573900  1.0  0.1341
  H  H8  1  0.019100  0.243400  0.506000  1.0  0.1348
  H  H9  1  0.148100  0.376200  0.518900  1.0  0.1166
  H  H10  1  0.352800  0.393900  0.565200  1.0  0.1405
  H  H11  1  0.806000  0.972900  0.526400  1.0  0.1198
  H  H12  1  0.831900  0.336600  0.909400  1.0  0.137
  H  H13  1  0.812900  0.336400  0.034500  1.0  0.1101
  H  H14  1  0.690900  0.222200  0.065800  1.0  0.1296
  H  H15  1  0.599200  0.105100  0.844200  1.0  0.1332
  H  H16  1  0.364900  0.015800  0.086900  1.0  0.1319
  H  H17  1  0.134300  0.629100  0.547800  1.0  0.1243
  H  H18  1  0.206700  0.606600  0.679500  1.0  0.1305
  H  H19  1  0.235700  0.690400  0.802500  1.0  0.1318
  H  H20  1  0.071600  0.728300  0.858700  1.0  0.1277
  H  H21  1  0.845800  0.606500  0.663300  1.0  0.1277
  H  H22  1  0.269700  0.426000  0.692800  1.0  0.1147
  H  H23  1  0.070000  0.360700  0.685500  1.0  0.1153
  H  H24  1  0.972100  0.383500  0.791400  1.0  0.13
  H  H25  1  0.279000  0.534300  0.914000  1.0  0.132
  H  H26  1  0.930700  0.537300  0.888600  1.0  0.1177
  H  H27  1  0.697600  0.860900  0.426100  1.0  0.1341
  H  H28  1  0.980900  0.756600  0.494000  1.0  0.1344
  H  H29  1  0.851900  0.623800  0.481100  1.0  0.1172
  H  H30  1  0.647200  0.606100  0.434800  1.0  0.1393
  H  H31  1  0.194000  0.027100  0.473600  1.0  0.1194
  H  H32  1  0.168100  0.663400  0.090600  1.0  0.1373
  H  H33  1  0.187100  0.663600  0.965500  1.0  0.1099
  H  H34  1  0.309100  0.777800  0.934200  1.0  0.129
  H  H35  1  0.400800  0.894900  0.155800  1.0  0.1336
  H  H36  1  0.635100  0.984200  0.913100  1.0  0.133
  H  H37  1  0.865700  0.370900  0.452200  1.0  0.1249
  H  H38  1  0.793300  0.393400  0.320500  1.0  0.1316
  H  H39  1  0.764300  0.309600  0.197500  1.0  0.1325
  H  H40  1  0.928400  0.271700  0.141300  1.0  0.1276
  H  H41  1  0.154200  0.393500  0.336700  1.0  0.1281
  H  H42  1  0.730300  0.574000  0.307200  1.0  0.1142
  H  H43  1  0.930000  0.639300  0.314500  1.0  0.115
  H  H44  1  0.027900  0.616500  0.208600  1.0  0.1303
  H  H45  1  0.721000  0.465700  0.086000  1.0  0.1319
  H  H46  1  0.069300  0.462700  0.111400  1.0  0.1167
  C  C47  1  0.349300  0.268200  0.575200  1.0  -0.0971
  C  C48  1  0.270900  0.187300  0.563800  1.0  -0.0646
  C  C49  1  0.146200  0.176900  0.537500  1.0  0.0272
  C  C50  1  0.102000  0.248600  0.522400  1.0  -0.0883
  C  C51  1  0.179400  0.329000  0.531300  1.0  -0.0904
  C  C52  1  0.302100  0.339600  0.558300  1.0  -0.0799
  C  C53  1  0.068100  0.087300  0.521800  1.0  0.0341
  C  C54  1  0.948200  0.069600  0.536400  1.0  0.0128
  C  C55  1  0.885100  0.983800  0.515200  1.0  -0.0945
  C  C56  1  0.483900  0.277200  0.603600  1.0  0.7741
  C  C57  1  0.883400  0.137000  0.580100  1.0  0.709
  C  C58  1  0.717500  0.222300  0.780500  1.0  0.7418
  C  C59  1  0.712600  0.221700  0.863200  1.0  -0.1295
  C  C60  1  0.780500  0.290800  0.921200  1.0  -0.0595
  C  C61  1  0.769800  0.289800  0.995800  1.0  -0.0673
  C  C62  1  0.696500  0.221300  0.014800  1.0  -0.0963
  C  C63  1  0.631100  0.151200  0.958000  1.0  0.0466
  C  C64  1  0.641300  0.152200  0.882800  1.0  -0.0433
  C  C65  1  0.559400  0.074700  0.978600  1.0  0.0321
  C  C66  1  0.477100  0.083200  0.030100  1.0  -0.0584
  C  C67  1  0.419100  0.009000  0.051600  1.0  -0.0729
  C  C68  1  0.438900  0.170400  0.062800  1.0  0.7172
  C  C69  1  0.845900  0.413500  0.593800  1.0  0.7368
  C  C70  1  0.925000  0.464000  0.547900  1.0  -0.0848
  C  C71  1  0.007000  0.544000  0.578100  1.0  0.0327
  C  C72  1  0.079300  0.576500  0.528300  1.0  -0.1093
  C  C73  1  0.024000  0.595400  0.658100  1.0  0.0479
  C  C74  1  0.139600  0.622500  0.701100  1.0  -0.0902
  C  C75  1  0.157300  0.672300  0.775200  1.0  -0.0557
  C  C76  1  0.059500  0.695100  0.808700  1.0  0.0061
  C  C77  1  0.942600  0.668800  0.768000  1.0  -0.1355
  C  C78  1  0.923600  0.621000  0.691500  1.0  -0.0362
  C  C79  1  0.831900  0.683400  0.805900  1.0  0.7041
  C  C80  1  0.420100  0.541900  0.805500  1.0  0.7602
  C  C81  1  0.293200  0.490700  0.803100  1.0  -0.1638
  C  C82  1  0.230800  0.436000  0.735700  1.0  -0.0065
  C  C83  1  0.111800  0.396300  0.731500  1.0  -0.0878
  C  C84  1  0.053700  0.408600  0.795000  1.0  -0.1032
  C  C85  1  0.117900  0.459000  0.864600  1.0  0.0438
  C  C86  1  0.236300  0.499900  0.867700  1.0  -0.0437
  C  C87  1  0.958900  0.522500  0.933600  1.0  -0.0734
  C  C88  1  0.056700  0.476700  0.934100  1.0  0.0457
  C  C89  1  0.096800  0.453900  0.003600  1.0  -0.0861
  C  C90  1  0.195700  0.399800  0.007800  1.0  0.7316
  C  C91  1  0.650700  0.731800  0.424800  1.0  -0.0968
  C  C92  1  0.729100  0.812700  0.436200  1.0  -0.065
  C  C93  1  0.853800  0.823100  0.462500  1.0  0.0272
  C  C94  1  0.898000  0.751400  0.477600  1.0  -0.0881
  C  C95  1  0.820600  0.671000  0.468700  1.0  -0.0922
  C  C96  1  0.697900  0.660400  0.441700  1.0  -0.0764
  C  C97  1  0.931900  0.912700  0.478200  1.0  0.035
  C  C98  1  0.051800  0.930400  0.463600  1.0  0.0185
  C  C99  1  0.114900  0.016200  0.484800  1.0  -0.0947
  C  C100  1  0.516100  0.722800  0.396400  1.0  0.7741
  C  C101  1  0.116600  0.863000  0.419900  1.0  0.7077
  C  C102  1  0.282500  0.777700  0.219500  1.0  0.7406
  C  C103  1  0.287400  0.778300  0.136800  1.0  -0.1319
  C  C104  1  0.219500  0.709200  0.078800  1.0  -0.0603
  C  C105  1  0.230200  0.710200  0.004200  1.0  -0.067
  C  C106  1  0.303500  0.778700  0.985200  1.0  -0.0971
  C  C107  1  0.368900  0.848800  0.042000  1.0  0.0467
  C  C108  1  0.358700  0.847800  0.117200  1.0  -0.0451
  C  C109  1  0.440600  0.925300  0.021400  1.0  0.0321
  C  C110  1  0.522900  0.916800  0.969900  1.0  -0.0579
  C  C111  1  0.580900  0.991000  0.948400  1.0  -0.0729
  C  C112  1  0.561100  0.829600  0.937200  1.0  0.7192
  C  C113  1  0.154100  0.586500  0.406200  1.0  0.7367
  C  C114  1  0.075000  0.536000  0.452100  1.0  -0.085
  C  C115  1  0.993000  0.456000  0.421900  1.0  0.0333
  C  C116  1  0.920700  0.423500  0.471700  1.0  -0.1084
  C  C117  1  0.976000  0.404600  0.341900  1.0  0.0471
  C  C118  1  0.860400  0.377500  0.298900  1.0  -0.0898
  C  C119  1  0.842700  0.327700  0.224800  1.0  -0.0575
  C  C120  1  0.940500  0.304900  0.191300  1.0  0.0051
  C  C121  1  0.057400  0.331200  0.232000  1.0  -0.1356
  C  C122  1  0.076400  0.379000  0.308500  1.0  -0.0373
  C  C123  1  0.168100  0.316600  0.194100  1.0  0.7017
  C  C124  1  0.579900  0.458100  0.194500  1.0  0.7613
  C  C125  1  0.706800  0.509300  0.196900  1.0  -0.1625
  C  C126  1  0.769200  0.564000  0.264300  1.0  -0.0064
  C  C127  1  0.888200  0.603700  0.268500  1.0  -0.0878
  C  C128  1  0.946300  0.591400  0.205000  1.0  -0.1042
  C  C129  1  0.882100  0.541000  0.135400  1.0  0.043
  C  C130  1  0.763700  0.500100  0.132300  1.0  -0.0435
  C  C131  1  0.041100  0.477500  0.066400  1.0  -0.0743
  C  C132  1  0.943300  0.523300  0.065900  1.0  0.0447
  C  C133  1  0.903200  0.546100  0.996400  1.0  -0.0886
  C  C134  1  0.804300  0.600200  0.992200  1.0  0.7315
  O  O135  1  0.529900  0.210400  0.590800  1.0  -0.5541
  O  O136  1  0.544100  0.350600  0.637600  1.0  -0.7687
  O  O137  1  0.933400  0.188900  0.638700  1.0  -0.5429
  O  O138  1  0.773500  0.134900  0.550200  1.0  -0.5997
  O  O139  1  0.677000  0.154900  0.729600  1.0  -0.6082
  O  O140  1  0.760300  0.293700  0.764700  1.0  -0.5748
  O  O141  1  0.408000  0.215300  0.017800  1.0  -0.5669
  O  O142  1  0.436500  0.192500  0.132600  1.0  -0.5855
  O  O143  1  0.818300  0.334800  0.567900  1.0  -0.5653
  O  O144  1  0.811400  0.449800  0.651000  1.0  -0.5981
  O  O145  1  0.729000  0.636800  0.773600  1.0  -0.7067
  O  O146  1  0.844600  0.736400  0.869100  1.0  -0.604
  O  O147  1  0.467700  0.530700  0.747300  1.0  -0.7064
  O  O148  1  0.463800  0.592600  0.867100  1.0  -0.566
  O  O149  1  0.196400  0.336400  0.955100  1.0  -0.4905
  O  O150  1  0.270000  0.422100  0.068100  1.0  -0.567
  O  O151  1  0.470100  0.789600  0.409200  1.0  -0.5523
  O  O152  1  0.455900  0.649400  0.362400  1.0  -0.768
  O  O153  1  0.066600  0.811100  0.361300  1.0  -0.5416
  O  O154  1  0.226500  0.865100  0.449800  1.0  -0.6032
  O  O155  1  0.323000  0.845100  0.270400  1.0  -0.6099
  O  O156  1  0.239700  0.706300  0.235300  1.0  -0.5733
  O  O157  1  0.592000  0.784700  0.982200  1.0  -0.5704
  O  O158  1  0.563500  0.807500  0.867400  1.0  -0.5848
  O  O159  1  0.181700  0.665200  0.432100  1.0  -0.5627
  O  O160  1  0.188600  0.550200  0.349000  1.0  -0.5967
  O  O161  1  0.271000  0.363200  0.226400  1.0  -0.704
  O  O162  1  0.155400  0.263600  0.130900  1.0  -0.6042
  O  O163  1  0.532300  0.469300  0.252700  1.0  -0.7058
  O  O164  1  0.536200  0.407400  0.132900  1.0  -0.5662
  O  O165  1  0.803600  0.663600  0.044900  1.0  -0.4913
  O  O166  1  0.730000  0.577900  0.931900  1.0  -0.5668
