# generated using pymatgen
data_CdH10(C11O4)2
_symmetry_space_group_name_H-M   'P 1'
_cell_length_a   13.56670000
_cell_length_b   9.56660000
_cell_length_c   23.14320000
_cell_angle_alpha   90.00000000
_cell_angle_beta   122.67200000
_cell_angle_gamma   90.00000000
_symmetry_Int_Tables_number   1
_chemical_formula_structural   CdH10(C11O4)2
_chemical_formula_sum   'Cd4 H40 C88 O32'
_cell_volume   2528.43102379
_cell_formula_units_Z   4
loop_
 _symmetry_equiv_pos_site_id
 _symmetry_equiv_pos_as_xyz
  1  'x, y, z'
loop_
 _atom_site_type_symbol
 _atom_site_label
 _atom_site_symmetry_multiplicity
 _atom_site_fract_x
 _atom_site_fract_y
 _atom_site_fract_z
 _atom_site_occupancy
 _atom_site_charge
  Cd  Cd1  1  0.226790  0.750740  0.744120  1.0  1.1043
  Cd  Cd2  1  0.773210  0.250740  0.755880  1.0  1.1044
  Cd  Cd3  1  0.773210  0.249260  0.255880  1.0  1.1043
  Cd  Cd4  1  0.226790  0.749260  0.244120  1.0  1.1037
  H  H5  1  0.073600  0.083400  0.556500  1.0  0.1255
  H  H6  1  0.391800  0.932400  0.617600  1.0  0.13
  H  H7  1  0.218700  0.172500  0.449300  1.0  0.1296
  H  H8  1  0.065900  0.194500  0.465900  1.0  0.1241
  H  H9  1  0.305900  0.957300  0.422000  1.0  0.1337
  H  H10  1  0.819000  0.583700  0.607800  1.0  0.1267
  H  H11  1  0.692800  0.295200  0.459100  1.0  0.1263
  H  H12  1  0.875300  0.276400  0.475800  1.0  0.1166
  H  H13  1  0.029800  0.408100  0.558200  1.0  0.129
  H  H14  1  0.534000  0.460500  0.414000  1.0  0.1349
  H  H15  1  0.926400  0.583400  0.943500  1.0  0.1255
  H  H16  1  0.608200  0.432400  0.882400  1.0  0.1301
  H  H17  1  0.781300  0.672500  0.050700  1.0  0.1289
  H  H18  1  0.934100  0.694500  0.034100  1.0  0.1238
  H  H19  1  0.694100  0.457300  0.078000  1.0  0.1333
  H  H20  1  0.181000  0.083700  0.892200  1.0  0.1271
  H  H21  1  0.307200  0.795200  0.040900  1.0  0.1263
  H  H22  1  0.124700  0.776400  0.024200  1.0  0.1165
  H  H23  1  0.970200  0.908100  0.941800  1.0  0.1284
  H  H24  1  0.466000  0.960500  0.086000  1.0  0.1345
  H  H25  1  0.926400  0.916600  0.443500  1.0  0.1254
  H  H26  1  0.608200  0.067600  0.382400  1.0  0.1303
  H  H27  1  0.781300  0.827500  0.550700  1.0  0.1292
  H  H28  1  0.934100  0.805500  0.534100  1.0  0.124
  H  H29  1  0.694100  0.042700  0.578000  1.0  0.1333
  H  H30  1  0.181000  0.416300  0.392200  1.0  0.127
  H  H31  1  0.307200  0.704800  0.540900  1.0  0.1262
  H  H32  1  0.124700  0.723600  0.524200  1.0  0.1163
  H  H33  1  0.970200  0.591900  0.441800  1.0  0.1282
  H  H34  1  0.466000  0.539500  0.586000  1.0  0.1344
  H  H35  1  0.073600  0.416600  0.056500  1.0  0.1255
  H  H36  1  0.391800  0.567600  0.117600  1.0  0.1303
  H  H37  1  0.218700  0.327500  0.949300  1.0  0.1301
  H  H38  1  0.065900  0.305500  0.965900  1.0  0.1239
  H  H39  1  0.305900  0.542700  0.922000  1.0  0.1334
  H  H40  1  0.819000  0.916300  0.107800  1.0  0.1269
  H  H41  1  0.692800  0.204800  0.959100  1.0  0.1264
  H  H42  1  0.875300  0.223600  0.975800  1.0  0.1163
  H  H43  1  0.029800  0.091900  0.058200  1.0  0.1287
  H  H44  1  0.534000  0.039500  0.914000  1.0  0.1349
  C  C45  1  0.236700  0.918600  0.654500  1.0  0.6705
  C  C46  1  0.233500  0.996600  0.596400  1.0  -0.1284
  C  C47  1  0.135900  0.075300  0.550500  1.0  0.0094
  C  C48  1  0.326300  0.984800  0.586900  1.0  -0.0366
  C  C49  1  0.322200  0.050400  0.531800  1.0  0.0687
  C  C50  1  0.223200  0.128400  0.486500  1.0  -0.0936
  C  C51  1  0.131100  0.141200  0.496200  1.0  -0.0728
  C  C52  1  0.416200  0.027900  0.517600  1.0  0.0252
  C  C53  1  0.384800  0.974400  0.454000  1.0  -0.0851
  C  C54  1  0.534300  0.055600  0.565000  1.0  -0.0443
  C  C55  1  0.582100  0.121200  0.634200  1.0  0.7277
  C  C56  1  0.939200  0.510300  0.591800  1.0  -0.1696
  C  C57  1  0.830100  0.521400  0.581000  1.0  -0.0505
  C  C58  1  0.734000  0.442900  0.531100  1.0  0.0735
  C  C59  1  0.753900  0.350000  0.492300  1.0  -0.1191
  C  C60  1  0.863700  0.338400  0.502500  1.0  -0.0559
  C  C61  1  0.956200  0.417100  0.551800  1.0  -0.0192
  C  C62  1  0.614700  0.468500  0.517000  1.0  0.0124
  C  C63  1  0.040400  0.593400  0.648000  1.0  0.7098
  C  C64  1  0.593900  0.487600  0.569200  1.0  0.0163
  C  C65  1  0.520700  0.477700  0.448800  1.0  -0.0598
  C  C66  1  0.686300  0.467800  0.646000  1.0  0.7272
  C  C67  1  0.763300  0.418600  0.845500  1.0  0.6718
  C  C68  1  0.766500  0.496600  0.903600  1.0  -0.1284
  C  C69  1  0.864100  0.575300  0.949500  1.0  0.0069
  C  C70  1  0.673700  0.484800  0.913100  1.0  -0.0371
  C  C71  1  0.677800  0.550400  0.968200  1.0  0.069
  C  C72  1  0.776800  0.628400  0.013500  1.0  -0.0931
  C  C73  1  0.868900  0.641200  0.003800  1.0  -0.0728
  C  C74  1  0.583800  0.527900  0.982400  1.0  0.0254
  C  C75  1  0.615200  0.474400  0.046000  1.0  -0.0836
  C  C76  1  0.465700  0.555600  0.935000  1.0  -0.0456
  C  C77  1  0.417900  0.621200  0.865800  1.0  0.7264
  C  C78  1  0.060800  0.010300  0.908200  1.0  -0.1696
  C  C79  1  0.169900  0.021400  0.919000  1.0  -0.0518
  C  C80  1  0.266000  0.942900  0.968900  1.0  0.0737
  C  C81  1  0.246100  0.850000  0.007700  1.0  -0.1198
  C  C82  1  0.136300  0.838400  0.997500  1.0  -0.056
  C  C83  1  0.043800  0.917100  0.948200  1.0  -0.0179
  C  C84  1  0.385300  0.968500  0.983000  1.0  0.0115
  C  C85  1  0.959600  0.093400  0.852000  1.0  0.7092
  C  C86  1  0.406100  0.987600  0.930800  1.0  0.0154
  C  C87  1  0.479300  0.977700  0.051200  1.0  -0.0607
  C  C88  1  0.313700  0.967800  0.854000  1.0  0.73
  C  C89  1  0.763300  0.081400  0.345500  1.0  0.6712
  C  C90  1  0.766500  0.003400  0.403600  1.0  -0.1277
  C  C91  1  0.864100  0.924700  0.449500  1.0  0.0065
  C  C92  1  0.673700  0.015200  0.413100  1.0  -0.0373
  C  C93  1  0.677800  0.949600  0.468200  1.0  0.0686
  C  C94  1  0.776800  0.871600  0.513500  1.0  -0.0935
  C  C95  1  0.868900  0.858800  0.503800  1.0  -0.073
  C  C96  1  0.583800  0.972100  0.482400  1.0  0.0245
  C  C97  1  0.615200  0.025600  0.546000  1.0  -0.0836
  C  C98  1  0.465700  0.944400  0.435000  1.0  -0.0457
  C  C99  1  0.417900  0.878800  0.365800  1.0  0.7255
  C  C100  1  0.060800  0.489700  0.408200  1.0  -0.1694
  C  C101  1  0.169900  0.478600  0.419000  1.0  -0.0511
  C  C102  1  0.266000  0.557100  0.468900  1.0  0.0736
  C  C103  1  0.246100  0.650000  0.507700  1.0  -0.1198
  C  C104  1  0.136300  0.661600  0.497500  1.0  -0.0555
  C  C105  1  0.043800  0.582900  0.448200  1.0  -0.0177
  C  C106  1  0.385300  0.531500  0.483000  1.0  0.014
  C  C107  1  0.959600  0.406600  0.352000  1.0  0.7095
  C  C108  1  0.406100  0.512400  0.430800  1.0  0.0152
  C  C109  1  0.479300  0.522300  0.551200  1.0  -0.0604
  C  C110  1  0.313700  0.532200  0.354000  1.0  0.7306
  C  C111  1  0.236700  0.581400  0.154500  1.0  0.6704
  C  C112  1  0.233500  0.503400  0.096400  1.0  -0.1291
  C  C113  1  0.135900  0.424700  0.050500  1.0  0.0092
  C  C114  1  0.326300  0.515200  0.086900  1.0  -0.0363
  C  C115  1  0.322200  0.449600  0.031800  1.0  0.0685
  C  C116  1  0.223200  0.371600  0.986500  1.0  -0.0938
  C  C117  1  0.131100  0.358800  0.996200  1.0  -0.0728
  C  C118  1  0.416200  0.472100  0.017600  1.0  0.0246
  C  C119  1  0.384800  0.525600  0.954000  1.0  -0.0853
  C  C120  1  0.534300  0.444400  0.065000  1.0  -0.0441
  C  C121  1  0.582100  0.378800  0.134200  1.0  0.7263
  C  C122  1  0.939200  0.989700  0.091800  1.0  -0.169
  C  C123  1  0.830100  0.978600  0.081000  1.0  -0.0495
  C  C124  1  0.734000  0.057100  0.031100  1.0  0.0734
  C  C125  1  0.753900  0.150000  0.992300  1.0  -0.1189
  C  C126  1  0.863700  0.161600  0.002500  1.0  -0.0556
  C  C127  1  0.956200  0.082900  0.051800  1.0  -0.0188
  C  C128  1  0.614700  0.031500  0.017000  1.0  0.0149
  C  C129  1  0.040400  0.906600  0.148000  1.0  0.7096
  C  C130  1  0.593900  0.012400  0.069200  1.0  0.0168
  C  C131  1  0.520700  0.022300  0.948800  1.0  -0.0602
  C  C132  1  0.686300  0.032200  0.146000  1.0  0.7281
  O  O133  1  0.150900  0.932400  0.660600  1.0  -0.5602
  O  O134  1  0.321300  0.841400  0.692300  1.0  -0.5828
  O  O135  1  0.528300  0.219600  0.640700  1.0  -0.4769
  O  O136  1  0.680800  0.073800  0.682900  1.0  -0.6018
  O  O137  1  0.026800  0.660600  0.688600  1.0  -0.573
  O  O138  1  0.136700  0.589500  0.651400  1.0  -0.5975
  O  O139  1  0.753900  0.365400  0.664100  1.0  -0.5795
  O  O140  1  0.685500  0.556500  0.685600  1.0  -0.5087
  O  O141  1  0.849100  0.432400  0.839400  1.0  -0.5603
  O  O142  1  0.678700  0.341400  0.807700  1.0  -0.5831
  O  O143  1  0.471700  0.719600  0.859300  1.0  -0.4802
  O  O144  1  0.319200  0.573800  0.817100  1.0  -0.6012
  O  O145  1  0.973200  0.160600  0.811400  1.0  -0.5765
  O  O146  1  0.863300  0.089500  0.848600  1.0  -0.5994
  O  O147  1  0.246100  0.865400  0.835900  1.0  -0.5796
  O  O148  1  0.314500  0.056500  0.814400  1.0  -0.5118
  O  O149  1  0.849100  0.067600  0.339400  1.0  -0.5601
  O  O150  1  0.678700  0.158600  0.307700  1.0  -0.5827
  O  O151  1  0.471700  0.780400  0.359300  1.0  -0.4808
  O  O152  1  0.319200  0.926200  0.317100  1.0  -0.6002
  O  O153  1  0.973200  0.339400  0.311400  1.0  -0.5765
  O  O154  1  0.863300  0.410500  0.348600  1.0  -0.5995
  O  O155  1  0.246100  0.634600  0.335900  1.0  -0.58
  O  O156  1  0.314500  0.443500  0.314400  1.0  -0.512
  O  O157  1  0.150900  0.567600  0.160600  1.0  -0.5601
  O  O158  1  0.321300  0.658600  0.192300  1.0  -0.5828
  O  O159  1  0.528300  0.280400  0.140700  1.0  -0.4768
  O  O160  1  0.680800  0.426200  0.182900  1.0  -0.6012
  O  O161  1  0.026800  0.839400  0.188600  1.0  -0.5734
  O  O162  1  0.136700  0.910500  0.151400  1.0  -0.5977
  O  O163  1  0.753900  0.134600  0.164100  1.0  -0.5801
  O  O164  1  0.685500  0.943500  0.185600  1.0  -0.5035
