# generated using pymatgen
data_HoH12(C5O2)3
_symmetry_space_group_name_H-M   'P 1'
_cell_length_a   21.70250000
_cell_length_b   10.03560000
_cell_length_c   14.03430000
_cell_angle_alpha   90.00000000
_cell_angle_beta   91.71100000
_cell_angle_gamma   90.00000000
_symmetry_Int_Tables_number   1
_chemical_formula_structural   HoH12(C5O2)3
_chemical_formula_sum   'Ho8 H96 C120 O48'
_cell_volume   3055.27417074
_cell_formula_units_Z   8
loop_
 _symmetry_equiv_pos_site_id
 _symmetry_equiv_pos_as_xyz
  1  'x, y, z'
loop_
 _atom_site_type_symbol
 _atom_site_label
 _atom_site_symmetry_multiplicity
 _atom_site_fract_x
 _atom_site_fract_y
 _atom_site_fract_z
 _atom_site_occupancy
 _atom_site_charge
  Ho  Ho1  1  0.759100  0.565380  0.271700  1.0  2.1602
  Ho  Ho2  1  0.749390  0.752420  0.027000  1.0  2.2234
  Ho  Ho3  1  0.240900  0.065380  0.228300  1.0  2.161
  Ho  Ho4  1  0.250610  0.252420  0.473000  1.0  2.2243
  Ho  Ho5  1  0.240900  0.434620  0.728300  1.0  2.1641
  Ho  Ho6  1  0.250610  0.247580  0.973000  1.0  2.2243
  Ho  Ho7  1  0.759100  0.934620  0.771700  1.0  2.1633
  Ho  Ho8  1  0.749390  0.747580  0.527000  1.0  2.2228
  H  H9  1  0.587600  0.681300  0.454700  1.0  0.1339
  H  H10  1  0.596600  0.531900  0.491500  1.0  0.1324
  H  H11  1  0.496300  0.733700  0.369500  1.0  0.086
  H  H12  1  0.546800  0.348700  0.382900  1.0  0.0944
  H  H13  1  0.871000  0.367700  0.590400  1.0  0.1193
  H  H14  1  0.876100  0.297400  0.488400  1.0  0.1215
  H  H15  1  0.972000  0.417300  0.647300  1.0  0.0838
  H  H16  1  0.930000  0.495700  0.370700  1.0  0.0984
  H  H17  1  0.079300  0.317200  0.945500  1.0  0.1284
  H  H18  1  0.093700  0.468900  0.971700  1.0  0.1392
  H  H19  1  0.984900  0.262600  0.874900  1.0  0.0837
  H  H20  1  0.838100  0.614500  0.723600  1.0  0.1105
  H  H21  1  0.812200  0.478700  0.767700  1.0  0.1255
  H  H22  1  0.938500  0.705100  0.811400  1.0  0.0984
  H  H23  1  0.886700  0.320300  0.822000  1.0  0.1039
  H  H24  1  0.037400  0.645400  0.863700  1.0  0.1074
  H  H25  1  0.634900  0.351100  0.055600  1.0  0.1228
  H  H26  1  0.616200  0.421000  0.152900  1.0  0.1168
  H  H27  1  0.573700  0.400600  0.906800  1.0  0.1021
  H  H28  1  0.521500  0.544200  0.160200  1.0  0.0988
  H  H29  1  0.339200  0.515600  0.216200  1.0  0.1197
  H  H30  1  0.369700  0.376900  0.187000  1.0  0.1151
  H  H31  1  0.454100  0.288200  0.308900  1.0  0.0878
  H  H32  1  0.404300  0.673900  0.293500  1.0  0.0991
  H  H33  1  0.412400  0.181300  0.045300  1.0  0.1339
  H  H34  1  0.403400  0.031900  0.008500  1.0  0.1322
  H  H35  1  0.503700  0.233700  0.130500  1.0  0.0862
  H  H36  1  0.453200  0.848700  0.117100  1.0  0.0944
  H  H37  1  0.129000  0.867700  0.909600  1.0  0.1192
  H  H38  1  0.123900  0.797400  0.011600  1.0  0.1227
  H  H39  1  0.028000  0.917300  0.852700  1.0  0.0845
  H  H40  1  0.070000  0.995700  0.129300  1.0  0.0991
  H  H41  1  0.920700  0.817200  0.554500  1.0  0.1282
  H  H42  1  0.906300  0.968900  0.528300  1.0  0.1398
  H  H43  1  0.015100  0.762600  0.625100  1.0  0.0837
  H  H44  1  0.161900  0.114500  0.776400  1.0  0.1115
  H  H45  1  0.187800  0.978700  0.732300  1.0  0.126
  H  H46  1  0.061500  0.205100  0.688600  1.0  0.098
  H  H47  1  0.113300  0.820300  0.678000  1.0  0.1049
  H  H48  1  0.962600  0.145400  0.636300  1.0  0.1076
  H  H49  1  0.365100  0.851100  0.444400  1.0  0.1235
  H  H50  1  0.383800  0.921000  0.347100  1.0  0.1161
  H  H51  1  0.426300  0.900600  0.593200  1.0  0.1033
  H  H52  1  0.478500  0.044200  0.339800  1.0  0.0996
  H  H53  1  0.660800  0.015600  0.283800  1.0  0.1179
  H  H54  1  0.630300  0.876900  0.313000  1.0  0.1159
  H  H55  1  0.545900  0.788200  0.191100  1.0  0.0874
  H  H56  1  0.595700  0.173900  0.206500  1.0  0.0999
  H  H57  1  0.412400  0.318700  0.545300  1.0  0.135
  H  H58  1  0.403400  0.468100  0.508500  1.0  0.1325
  H  H59  1  0.503700  0.266300  0.630500  1.0  0.0861
  H  H60  1  0.453200  0.651300  0.617100  1.0  0.0946
  H  H61  1  0.129000  0.632300  0.409600  1.0  0.1197
  H  H62  1  0.123900  0.702600  0.511600  1.0  0.1227
  H  H63  1  0.028000  0.582700  0.352700  1.0  0.0846
  H  H64  1  0.070000  0.504300  0.629300  1.0  0.0989
  H  H65  1  0.920700  0.682800  0.054500  1.0  0.1283
  H  H66  1  0.906300  0.531100  0.028300  1.0  0.139
  H  H67  1  0.015100  0.737400  0.125100  1.0  0.0841
  H  H68  1  0.161900  0.385500  0.276400  1.0  0.1116
  H  H69  1  0.187800  0.521300  0.232300  1.0  0.1248
  H  H70  1  0.061500  0.294900  0.188600  1.0  0.0979
  H  H71  1  0.113300  0.679700  0.178000  1.0  0.105
  H  H72  1  0.962600  0.354600  0.136300  1.0  0.1074
  H  H73  1  0.365100  0.648900  0.944400  1.0  0.1234
  H  H74  1  0.383800  0.579000  0.847100  1.0  0.1162
  H  H75  1  0.426300  0.599400  0.093200  1.0  0.1026
  H  H76  1  0.478500  0.455800  0.839800  1.0  0.0993
  H  H77  1  0.660800  0.484400  0.783800  1.0  0.1187
  H  H78  1  0.630300  0.623100  0.813000  1.0  0.1158
  H  H79  1  0.545900  0.711800  0.691100  1.0  0.0874
  H  H80  1  0.595700  0.326100  0.706500  1.0  0.1004
  H  H81  1  0.587600  0.818700  0.954700  1.0  0.1356
  H  H82  1  0.596600  0.968100  0.991500  1.0  0.1325
  H  H83  1  0.496300  0.766300  0.869500  1.0  0.0855
  H  H84  1  0.546800  0.151300  0.882900  1.0  0.0941
  H  H85  1  0.871000  0.132300  0.090400  1.0  0.1188
  H  H86  1  0.876100  0.202600  0.988400  1.0  0.1222
  H  H87  1  0.972000  0.082700  0.147300  1.0  0.0835
  H  H88  1  0.930000  0.004300  0.870700  1.0  0.0983
  H  H89  1  0.079300  0.182800  0.445500  1.0  0.1278
  H  H90  1  0.093700  0.031100  0.471700  1.0  0.1393
  H  H91  1  0.984900  0.237400  0.374900  1.0  0.0841
  H  H92  1  0.838100  0.885500  0.223600  1.0  0.1106
  H  H93  1  0.812200  0.021300  0.267700  1.0  0.1257
  H  H94  1  0.938500  0.794900  0.311400  1.0  0.0982
  H  H95  1  0.886700  0.179700  0.322000  1.0  0.1046
  H  H96  1  0.037400  0.854600  0.363700  1.0  0.1073
  H  H97  1  0.634900  0.148900  0.555600  1.0  0.1225
  H  H98  1  0.616200  0.079000  0.652900  1.0  0.1168
  H  H99  1  0.573700  0.099400  0.406800  1.0  0.1023
  H  H100  1  0.521500  0.955800  0.660200  1.0  0.0987
  H  H101  1  0.339200  0.984400  0.716200  1.0  0.119
  H  H102  1  0.369700  0.123100  0.687000  1.0  0.1154
  H  H103  1  0.454100  0.211800  0.808900  1.0  0.0878
  H  H104  1  0.404300  0.826100  0.793500  1.0  0.0989
  C  C105  1  0.648740  0.575400  0.376500  1.0  0.7626
  C  C106  1  0.591300  0.587600  0.433600  1.0  -0.3971
  C  C107  1  0.531610  0.548100  0.383200  1.0  0.1151
  C  C108  1  0.488220  0.642300  0.356600  1.0  -0.1229
  C  C109  1  0.517880  0.415800  0.364800  1.0  -0.1133
  C  C110  1  0.828180  0.475700  0.481700  1.0  0.7813
  C  C111  1  0.877970  0.384100  0.522000  1.0  -0.3968
  C  C112  1  0.940970  0.446100  0.510700  1.0  0.1011
  C  C113  1  0.983350  0.450700  0.586900  1.0  -0.1359
  C  C114  1  0.958400  0.496900  0.423500  1.0  -0.1323
  C  C115  1  0.135140  0.407500  0.851600  1.0  0.7804
  C  C116  1  0.082970  0.407800  0.918300  1.0  -0.4254
  C  C117  1  0.020590  0.448000  0.877200  1.0  0.1001
  C  C118  1  0.975490  0.353600  0.862800  1.0  -0.1533
  C  C119  1  0.808210  0.637300  0.860900  1.0  0.7544
  C  C120  1  0.837050  0.559400  0.782100  1.0  -0.3759
  C  C121  1  0.902120  0.519400  0.812700  1.0  0.1089
  C  C122  1  0.947610  0.614300  0.824800  1.0  -0.126
  C  C123  1  0.917030  0.387700  0.831200  1.0  -0.1856
  C  C124  1  0.006500  0.578800  0.856400  1.0  -0.1507
  C  C125  1  0.666950  0.542300  0.068100  1.0  0.7839
  C  C126  1  0.620020  0.435300  0.083600  1.0  -0.3911
  C  C127  1  0.557680  0.466700  0.040900  1.0  0.1188
  C  C128  1  0.543660  0.441300  0.945200  1.0  -0.1449
  C  C129  1  0.513000  0.525900  0.094700  1.0  -0.1395
  C  C130  1  0.317090  0.362400  0.305300  1.0  0.7639
  C  C131  1  0.360110  0.434900  0.241700  1.0  -0.3579
  C  C132  1  0.419670  0.475400  0.292400  1.0  0.1004
  C  C133  1  0.462680  0.379700  0.320400  1.0  -0.1181
  C  C134  1  0.433220  0.606700  0.311500  1.0  -0.169
  C  C135  1  0.351260  0.075400  0.123500  1.0  0.7624
  C  C136  1  0.408700  0.087600  0.066400  1.0  -0.3962
  C  C137  1  0.468390  0.048100  0.116800  1.0  0.1143
  C  C138  1  0.511780  0.142300  0.143400  1.0  -0.1229
  C  C139  1  0.482120  0.915800  0.135200  1.0  -0.1118
  C  C140  1  0.171820  0.975700  0.018300  1.0  0.7781
  C  C141  1  0.122030  0.884100  0.978000  1.0  -0.3964
  C  C142  1  0.059030  0.946100  0.989300  1.0  0.1026
  C  C143  1  0.016650  0.950700  0.913100  1.0  -0.134
  C  C144  1  0.041600  0.996900  0.076500  1.0  -0.1363
  C  C145  1  0.864860  0.907500  0.648400  1.0  0.7772
  C  C146  1  0.917030  0.907800  0.581700  1.0  -0.4214
  C  C147  1  0.979410  0.948000  0.622800  1.0  0.0999
  C  C148  1  0.024510  0.853600  0.637200  1.0  -0.1541
  C  C149  1  0.191790  0.137300  0.639100  1.0  0.7572
  C  C150  1  0.162950  0.059400  0.717900  1.0  -0.3785
  C  C151  1  0.097880  0.019400  0.687300  1.0  0.1105
  C  C152  1  0.052390  0.114300  0.675200  1.0  -0.125
  C  C153  1  0.082970  0.887700  0.668800  1.0  -0.1877
  C  C154  1  0.993500  0.078800  0.643600  1.0  -0.1498
  C  C155  1  0.333050  0.042300  0.431900  1.0  0.7837
  C  C156  1  0.379980  0.935300  0.416400  1.0  -0.3913
  C  C157  1  0.442320  0.966700  0.459100  1.0  0.1176
  C  C158  1  0.456340  0.941300  0.554800  1.0  -0.1433
  C  C159  1  0.487000  0.025900  0.405300  1.0  -0.1404
  C  C160  1  0.682910  0.862400  0.194700  1.0  0.7665
  C  C161  1  0.639890  0.934900  0.258300  1.0  -0.3587
  C  C162  1  0.580330  0.975400  0.207600  1.0  0.1011
  C  C163  1  0.537320  0.879700  0.179600  1.0  -0.1182
  C  C164  1  0.566780  0.106700  0.188500  1.0  -0.1715
  C  C165  1  0.351260  0.424600  0.623500  1.0  0.7622
  C  C166  1  0.408700  0.412400  0.566400  1.0  -0.3955
  C  C167  1  0.468390  0.451900  0.616800  1.0  0.1142
  C  C168  1  0.511780  0.357700  0.643400  1.0  -0.1232
  C  C169  1  0.482120  0.584200  0.635200  1.0  -0.1124
  C  C170  1  0.171820  0.524300  0.518300  1.0  0.7779
  C  C171  1  0.122030  0.615900  0.478000  1.0  -0.396
  C  C172  1  0.059030  0.553900  0.489300  1.0  0.1025
  C  C173  1  0.016650  0.549300  0.413100  1.0  -0.1265
  C  C174  1  0.041600  0.503100  0.576500  1.0  -0.1362
  C  C175  1  0.864860  0.592500  0.148400  1.0  0.7776
  C  C176  1  0.917030  0.592200  0.081700  1.0  -0.4217
  C  C177  1  0.979410  0.552000  0.122800  1.0  0.0997
  C  C178  1  0.024510  0.646400  0.137200  1.0  -0.154
  C  C179  1  0.191790  0.362700  0.139100  1.0  0.7571
  C  C180  1  0.162950  0.440600  0.217900  1.0  -0.3779
  C  C181  1  0.097880  0.480600  0.187300  1.0  0.11
  C  C182  1  0.052390  0.385700  0.175200  1.0  -0.1248
  C  C183  1  0.082970  0.612300  0.168800  1.0  -0.1877
  C  C184  1  0.993500  0.421200  0.143600  1.0  -0.1491
  C  C185  1  0.333050  0.457700  0.931900  1.0  0.7837
  C  C186  1  0.379980  0.564700  0.916400  1.0  -0.3912
  C  C187  1  0.442320  0.533300  0.959100  1.0  0.1173
  C  C188  1  0.456340  0.558700  0.054800  1.0  -0.1353
  C  C189  1  0.487000  0.474100  0.905300  1.0  -0.1421
  C  C190  1  0.682910  0.637600  0.694700  1.0  0.7671
  C  C191  1  0.639890  0.565100  0.758300  1.0  -0.3583
  C  C192  1  0.580330  0.524600  0.707600  1.0  0.1011
  C  C193  1  0.537320  0.620300  0.679600  1.0  -0.1187
  C  C194  1  0.566780  0.393300  0.688500  1.0  -0.1706
  C  C195  1  0.648740  0.924600  0.876500  1.0  0.7628
  C  C196  1  0.591300  0.912400  0.933600  1.0  -0.3961
  C  C197  1  0.531610  0.951900  0.883200  1.0  0.1151
  C  C198  1  0.488220  0.857700  0.856600  1.0  -0.1227
  C  C199  1  0.517880  0.084200  0.864800  1.0  -0.1133
  C  C200  1  0.828180  0.024300  0.981700  1.0  0.7807
  C  C201  1  0.877970  0.115900  0.022000  1.0  -0.3967
  C  C202  1  0.940970  0.053900  0.010700  1.0  0.1011
  C  C203  1  0.983350  0.049300  0.086900  1.0  -0.1279
  C  C204  1  0.958400  0.003100  0.923500  1.0  -0.1325
  C  C205  1  0.135140  0.092500  0.351600  1.0  0.781
  C  C206  1  0.082970  0.092200  0.418300  1.0  -0.4256
  C  C207  1  0.020590  0.052000  0.377200  1.0  0.0999
  C  C208  1  0.975490  0.146400  0.362800  1.0  -0.153
  C  C209  1  0.808210  0.862700  0.360900  1.0  0.7549
  C  C210  1  0.837050  0.940600  0.282100  1.0  -0.3752
  C  C211  1  0.902120  0.980600  0.312700  1.0  0.1087
  C  C212  1  0.947610  0.885700  0.324800  1.0  -0.1253
  C  C213  1  0.917030  0.112300  0.331200  1.0  -0.1865
  C  C214  1  0.006500  0.921200  0.356400  1.0  -0.1501
  C  C215  1  0.666950  0.957700  0.568100  1.0  0.7837
  C  C216  1  0.620020  0.064700  0.583600  1.0  -0.3918
  C  C217  1  0.557680  0.033300  0.540900  1.0  0.1186
  C  C218  1  0.543660  0.058700  0.445200  1.0  -0.137
  C  C219  1  0.513000  0.974100  0.594700  1.0  -0.1409
  C  C220  1  0.317090  0.137600  0.805300  1.0  0.7638
  C  C221  1  0.360110  0.065100  0.741700  1.0  -0.357
  C  C222  1  0.419670  0.024600  0.792400  1.0  0.101
  C  C223  1  0.462680  0.120300  0.820400  1.0  -0.1191
  C  C224  1  0.433220  0.893300  0.811500  1.0  -0.1672
  O  O225  1  0.718380  0.538200  0.113610  1.0  -0.8123
  O  O226  1  0.650350  0.517000  0.299300  1.0  -0.6497
  O  O227  1  0.698470  0.627200  0.409590  1.0  -0.7375
  O  O228  1  0.810020  0.762900  0.861720  1.0  -0.769
  O  O229  1  0.287410  0.264200  0.277700  1.0  -0.6813
  O  O230  1  0.808090  0.455000  0.398780  1.0  -0.7091
  O  O231  1  0.811110  0.566900  0.534600  1.0  -0.6524
  O  O232  1  0.309990  0.403700  0.387300  1.0  -0.6222
  O  O233  1  0.784040  0.576900  0.928570  1.0  -0.6412
  O  O234  1  0.656710  0.633300  0.009900  1.0  -0.6298
  O  O235  1  0.139670  0.487600  0.785320  1.0  -0.6255
  O  O236  1  0.177420  0.321900  0.864660  1.0  -0.7335
  O  O237  1  0.281620  0.038200  0.386390  1.0  -0.8122
  O  O238  1  0.349650  0.017000  0.200700  1.0  -0.6498
  O  O239  1  0.301530  0.127200  0.090410  1.0  -0.7382
  O  O240  1  0.189980  0.262900  0.638280  1.0  -0.7676
  O  O241  1  0.712590  0.764200  0.222300  1.0  -0.6816
  O  O242  1  0.191910  0.955000  0.101220  1.0  -0.7097
  O  O243  1  0.188890  0.066900  0.965400  1.0  -0.6528
  O  O244  1  0.690010  0.903700  0.112700  1.0  -0.6207
  O  O245  1  0.215960  0.076900  0.571430  1.0  -0.6405
  O  O246  1  0.343290  0.133300  0.490100  1.0  -0.6301
  O  O247  1  0.860330  0.987600  0.714680  1.0  -0.6267
  O  O248  1  0.822580  0.821900  0.635340  1.0  -0.7338
  O  O249  1  0.281620  0.461800  0.886390  1.0  -0.8102
  O  O250  1  0.349650  0.483000  0.700700  1.0  -0.649
  O  O251  1  0.301530  0.372800  0.590410  1.0  -0.7356
  O  O252  1  0.189980  0.237100  0.138280  1.0  -0.7684
  O  O253  1  0.712590  0.735800  0.722300  1.0  -0.6825
  O  O254  1  0.191910  0.545000  0.601220  1.0  -0.7103
  O  O255  1  0.188890  0.433100  0.465400  1.0  -0.652
  O  O256  1  0.690010  0.596300  0.612700  1.0  -0.6214
  O  O257  1  0.215960  0.423100  0.071430  1.0  -0.6398
  O  O258  1  0.343290  0.366700  0.990100  1.0  -0.6296
  O  O259  1  0.860330  0.512400  0.214680  1.0  -0.6258
  O  O260  1  0.822580  0.678100  0.135340  1.0  -0.7334
  O  O261  1  0.718380  0.961800  0.613610  1.0  -0.8114
  O  O262  1  0.650350  0.983000  0.799300  1.0  -0.6476
  O  O263  1  0.698470  0.872800  0.909590  1.0  -0.7349
  O  O264  1  0.810020  0.737100  0.361720  1.0  -0.7688
  O  O265  1  0.287410  0.235800  0.777700  1.0  -0.6817
  O  O266  1  0.808090  0.045000  0.898780  1.0  -0.7091
  O  O267  1  0.811110  0.933100  0.034600  1.0  -0.652
  O  O268  1  0.309990  0.096300  0.887300  1.0  -0.6213
  O  O269  1  0.784040  0.923100  0.428570  1.0  -0.6429
  O  O270  1  0.656710  0.866700  0.509900  1.0  -0.6293
  O  O271  1  0.139670  0.012400  0.285320  1.0  -0.6263
  O  O272  1  0.177420  0.178100  0.364660  1.0  -0.733
