# generated using pymatgen
data_Fe5P6(HO3)6
_symmetry_space_group_name_H-M   'P 1'
_cell_length_a   10.38620000
_cell_length_b   10.38620000
_cell_length_c   9.20890000
_cell_angle_alpha   90.00000000
_cell_angle_beta   90.00000000
_cell_angle_gamma   120.00000000
_symmetry_Int_Tables_number   1
_chemical_formula_structural   Fe5P6(HO3)6
_chemical_formula_sum   'Fe10 P12 H12 O36'
_cell_volume   860.30362165
_cell_formula_units_Z   2
loop_
 _symmetry_equiv_pos_site_id
 _symmetry_equiv_pos_as_xyz
  1  'x, y, z'
loop_
 _atom_site_type_symbol
 _atom_site_label
 _atom_site_symmetry_multiplicity
 _atom_site_fract_x
 _atom_site_fract_y
 _atom_site_fract_z
 _atom_site_occupancy
 _atom_site_charge
  Fe  Fe1  1  0.613300  0.000000  0.250000  1.0  1.0556
  Fe  Fe2  1  0.000000  0.613300  0.250000  1.0  1.0568
  Fe  Fe3  1  0.386700  0.386700  0.250000  1.0  1.0568
  Fe  Fe4  1  0.386700  0.000000  0.750000  1.0  1.0568
  Fe  Fe5  1  0.000000  0.386700  0.750000  1.0  1.0547
  Fe  Fe6  1  0.613300  0.613300  0.750000  1.0  1.0552
  Fe  Fe7  1  0.666667  0.333333  0.334530  1.0  0.8501
  Fe  Fe8  1  0.333333  0.666667  0.165470  1.0  0.8513
  Fe  Fe9  1  0.333333  0.666667  0.665470  1.0  0.8513
  Fe  Fe10  1  0.666667  0.333333  0.834530  1.0  0.8501
  P  P11  1  0.880020  0.293520  0.090440  1.0  1.5764
  P  P12  1  0.706480  0.586500  0.090440  1.0  1.5593
  P  P13  1  0.413500  0.119980  0.090440  1.0  1.5768
  P  P14  1  0.293520  0.880020  0.409560  1.0  1.5664
  P  P15  1  0.586500  0.706480  0.409560  1.0  1.5762
  P  P16  1  0.119980  0.413500  0.409560  1.0  1.566
  P  P17  1  0.119980  0.706480  0.909560  1.0  1.5691
  P  P18  1  0.293520  0.413500  0.909560  1.0  1.5725
  P  P19  1  0.586500  0.880020  0.909560  1.0  1.5685
  P  P20  1  0.706480  0.119980  0.590440  1.0  1.5789
  P  P21  1  0.413500  0.293520  0.590440  1.0  1.5692
  P  P22  1  0.880020  0.586500  0.590440  1.0  1.5662
  H  H23  1  0.020000  0.343000  0.091000  1.0  -0.0645
  H  H24  1  0.657000  0.677000  0.091000  1.0  -0.0656
  H  H25  1  0.323000  0.980000  0.091000  1.0  -0.0659
  H  H26  1  0.343000  0.020000  0.409000  1.0  -0.065
  H  H27  1  0.677000  0.657000  0.409000  1.0  -0.0641
  H  H28  1  0.980000  0.323000  0.409000  1.0  -0.0665
  H  H29  1  0.980000  0.657000  0.909000  1.0  -0.0653
  H  H30  1  0.343000  0.323000  0.909000  1.0  -0.0655
  H  H31  1  0.677000  0.020000  0.909000  1.0  -0.0652
  H  H32  1  0.657000  0.980000  0.591000  1.0  -0.0663
  H  H33  1  0.323000  0.343000  0.591000  1.0  -0.065
  H  H34  1  0.020000  0.677000  0.591000  1.0  -0.0654
  O  O35  1  0.851200  0.393500  0.192700  1.0  -0.788
  O  O36  1  0.840400  0.310200  0.933500  1.0  -0.7679
  O  O37  1  0.806300  0.134500  0.144000  1.0  -0.758
  O  O38  1  0.606500  0.457700  0.192700  1.0  -0.7884
  O  O39  1  0.689800  0.530200  0.933500  1.0  -0.7677
  O  O40  1  0.865500  0.671800  0.144000  1.0  -0.7654
  O  O41  1  0.542300  0.148800  0.192700  1.0  -0.7886
  O  O42  1  0.469800  0.159600  0.933500  1.0  -0.7687
  O  O43  1  0.328200  0.193700  0.144000  1.0  -0.7588
  O  O44  1  0.393500  0.851200  0.307300  1.0  -0.7875
  O  O45  1  0.310200  0.840400  0.566500  1.0  -0.7683
  O  O46  1  0.134500  0.806300  0.356000  1.0  -0.7592
  O  O47  1  0.457700  0.606500  0.307300  1.0  -0.7872
  O  O48  1  0.530200  0.689800  0.566500  1.0  -0.7676
  O  O49  1  0.671800  0.865500  0.356000  1.0  -0.7597
  O  O50  1  0.148800  0.542300  0.307300  1.0  -0.7878
  O  O51  1  0.159600  0.469800  0.566500  1.0  -0.7672
  O  O52  1  0.193700  0.328200  0.356000  1.0  -0.7637
  O  O53  1  0.148800  0.606500  0.807300  1.0  -0.7877
  O  O54  1  0.159600  0.689800  0.066500  1.0  -0.7679
  O  O55  1  0.193700  0.865500  0.856000  1.0  -0.7626
  O  O56  1  0.393500  0.542300  0.807300  1.0  -0.7875
  O  O57  1  0.310200  0.469800  0.066500  1.0  -0.7671
  O  O58  1  0.134500  0.328200  0.856000  1.0  -0.7634
  O  O59  1  0.457700  0.851200  0.807300  1.0  -0.7879
  O  O60  1  0.530200  0.840400  0.066500  1.0  -0.7679
  O  O61  1  0.671800  0.806300  0.856000  1.0  -0.7565
  O  O62  1  0.606500  0.148800  0.692700  1.0  -0.7889
  O  O63  1  0.689800  0.159600  0.433500  1.0  -0.768
  O  O64  1  0.865500  0.193700  0.644000  1.0  -0.757
  O  O65  1  0.542300  0.393500  0.692700  1.0  -0.7885
  O  O66  1  0.469800  0.310200  0.433500  1.0  -0.768
  O  O67  1  0.328200  0.134500  0.644000  1.0  -0.7602
  O  O68  1  0.851200  0.457700  0.692700  1.0  -0.7881
  O  O69  1  0.840400  0.530200  0.433500  1.0  -0.7676
  O  O70  1  0.806300  0.671800  0.644000  1.0  -0.7653
