# generated using pymatgen
data_Eu2H4C5O13
_symmetry_space_group_name_H-M   'P 1'
_cell_length_a   6.29240000
_cell_length_b   8.67020000
_cell_length_c   12.95270000
_cell_angle_alpha   105.43200000
_cell_angle_beta   90.45100000
_cell_angle_gamma   105.11800000
_symmetry_Int_Tables_number   1
_chemical_formula_structural   Eu2H4C5O13
_chemical_formula_sum   'Eu4 H8 C10 O26'
_cell_volume   655.32938219
_cell_formula_units_Z   2
loop_
 _symmetry_equiv_pos_site_id
 _symmetry_equiv_pos_as_xyz
  1  'x, y, z'
loop_
 _atom_site_type_symbol
 _atom_site_label
 _atom_site_symmetry_multiplicity
 _atom_site_fract_x
 _atom_site_fract_y
 _atom_site_fract_z
 _atom_site_occupancy
 _atom_site_charge
  Eu  Eu1  1  0.441370  0.471330  0.742640  1.0  2.0821
  Eu  Eu2  1  0.190800  0.833360  0.924830  1.0  2.0155
  Eu  Eu3  1  0.558630  0.528670  0.257360  1.0  2.0803
  Eu  Eu4  1  0.809200  0.166640  0.075170  1.0  2.0111
  H  H5  1  0.165000  0.711100  0.674900  1.0  0.2635
  H  H6  1  0.133200  0.646100  0.790800  1.0  0.219
  H  H7  1  0.609800  0.279400  0.659900  1.0  0.3494
  H  H8  1  0.769200  0.324800  0.602300  1.0  0.4406
  H  H9  1  0.835000  0.288900  0.325100  1.0  0.2642
  H  H10  1  0.866800  0.353900  0.209200  1.0  0.2181
  H  H11  1  0.390200  0.720600  0.340100  1.0  0.3433
  H  H12  1  0.230800  0.675200  0.397700  1.0  0.4404
  C  C13  1  0.945600  0.551900  0.045800  1.0  0.6423
  C  C14  1  0.405200  0.420500  0.479500  1.0  0.6672
  C  C15  1  0.265700  0.104500  0.780500  1.0  0.6087
  C  C16  1  0.716900  0.792700  0.868700  1.0  0.9261
  C  C17  1  0.456500  0.196700  0.871100  1.0  0.6676
  C  C18  1  0.054400  0.448100  0.954200  1.0  0.6417
  C  C19  1  0.594800  0.579500  0.520500  1.0  0.6671
  C  C20  1  0.734300  0.895500  0.219500  1.0  0.6062
  C  C21  1  0.283100  0.207300  0.131300  1.0  0.926
  C  C22  1  0.543500  0.803300  0.128900  1.0  0.6672
  O  O23  1  0.512500  0.769200  0.839500  1.0  -0.7682
  O  O24  1  0.797500  0.669000  0.838700  1.0  -0.6897
  O  O25  1  0.839700  0.931900  0.924500  1.0  -0.7507
  O  O26  1  0.360600  0.371400  0.380600  1.0  -0.633
  O  O27  1  0.314000  0.350800  0.546400  1.0  -0.6391
  O  O28  1  0.165100  0.960400  0.777000  1.0  -0.6508
  O  O29  1  0.233700  0.183500  0.716800  1.0  -0.6981
  O  O30  1  0.557500  0.341100  0.873600  1.0  -0.633
  O  O31  1  0.494200  0.116000  0.933500  1.0  -0.7456
  O  O32  1  0.980200  0.702100  0.055400  1.0  -0.611
  O  O33  1  0.140700  0.601600  0.705200  1.0  -0.5852
  O  O34  1  0.732200  0.328600  0.661700  1.0  -0.7927
  O  O35  1  0.826700  0.471500  0.103200  1.0  -0.6726
  O  O36  1  0.487500  0.230800  0.160500  1.0  -0.7691
  O  O37  1  0.202500  0.331000  0.161300  1.0  -0.6886
  O  O38  1  0.160300  0.068100  0.075500  1.0  -0.7533
  O  O39  1  0.639400  0.628600  0.619400  1.0  -0.6353
  O  O40  1  0.686000  0.649200  0.453600  1.0  -0.6391
  O  O41  1  0.834900  0.039600  0.223000  1.0  -0.6498
  O  O42  1  0.766300  0.816500  0.283200  1.0  -0.698
  O  O43  1  0.442500  0.658900  0.126400  1.0  -0.6344
  O  O44  1  0.505800  0.884000  0.066500  1.0  -0.7446
  O  O45  1  0.019800  0.297900  0.944600  1.0  -0.6109
  O  O46  1  0.859300  0.398400  0.294800  1.0  -0.5869
  O  O47  1  0.267800  0.671400  0.338300  1.0  -0.7951
  O  O48  1  0.173300  0.528500  0.896800  1.0  -0.6729
