# generated using pymatgen
data_ZnH8C14(N2O)2
_symmetry_space_group_name_H-M   'P 1'
_cell_length_a   8.38600000
_cell_length_b   17.19900000
_cell_length_c   25.13200000
_cell_angle_alpha   90.00000000
_cell_angle_beta   94.18200000
_cell_angle_gamma   90.00000000
_symmetry_Int_Tables_number   1
_chemical_formula_structural   ZnH8C14(N2O)2
_chemical_formula_sum   'Zn8 H64 C112 N32 O16'
_cell_volume   3615.15753368
_cell_formula_units_Z   8
loop_
 _symmetry_equiv_pos_site_id
 _symmetry_equiv_pos_as_xyz
  1  'x, y, z'
loop_
 _atom_site_type_symbol
 _atom_site_label
 _atom_site_symmetry_multiplicity
 _atom_site_fract_x
 _atom_site_fract_y
 _atom_site_fract_z
 _atom_site_occupancy
 _atom_site_charge
  Zn  Zn1  1  0.833950  0.593930  0.132720  1.0  1.0181
  Zn  Zn2  1  0.153720  0.745320  0.125270  1.0  0.9987
  Zn  Zn3  1  0.333950  0.093930  0.132720  1.0  1.0181
  Zn  Zn4  1  0.653720  0.245320  0.125270  1.0  0.9987
  Zn  Zn5  1  0.833950  0.406070  0.632720  1.0  1.0177
  Zn  Zn6  1  0.153720  0.254680  0.625270  1.0  0.9988
  Zn  Zn7  1  0.333950  0.906070  0.632720  1.0  1.0177
  Zn  Zn8  1  0.653720  0.754680  0.625270  1.0  0.9988
  H  H9  1  0.296800  0.828500  0.882400  1.0  0.1115
  H  H10  1  0.718200  0.491300  0.727500  1.0  0.098
  H  H11  1  0.090200  0.741800  0.957100  1.0  0.1023
  H  H12  1  0.953900  0.685900  0.696800  1.0  0.106
  H  H13  1  0.419400  0.832300  0.967900  1.0  0.1058
  H  H14  1  0.438100  0.805200  0.056600  1.0  0.0938
  H  H15  1  0.064900  0.715600  0.867700  1.0  0.0991
  H  H16  1  0.794400  0.503500  0.816700  1.0  0.1534
  H  H17  1  0.609900  0.685600  0.774300  1.0  0.0803
  H  H18  1  0.300500  0.856800  0.792600  1.0  0.0834
  H  H19  1  0.848700  0.549200  0.983700  1.0  0.0971
  H  H20  1  0.610700  0.656800  0.863800  1.0  0.0886
  H  H21  1  0.026700  0.699600  0.786900  1.0  0.1141
  H  H22  1  0.845700  0.519000  0.894400  1.0  0.1328
  H  H23  1  0.517700  0.611100  0.936700  1.0  0.1044
  H  H24  1  0.521500  0.582300  0.026400  1.0  0.1045
  H  H25  1  0.796800  0.328500  0.882400  1.0  0.1115
  H  H26  1  0.218200  0.991300  0.727500  1.0  0.098
  H  H27  1  0.590200  0.241800  0.957100  1.0  0.1023
  H  H28  1  0.453900  0.185900  0.696800  1.0  0.106
  H  H29  1  0.919400  0.332300  0.967900  1.0  0.1058
  H  H30  1  0.938100  0.305200  0.056600  1.0  0.0938
  H  H31  1  0.564900  0.215600  0.867700  1.0  0.0991
  H  H32  1  0.294400  0.003500  0.816700  1.0  0.1538
  H  H33  1  0.109900  0.185600  0.774300  1.0  0.0803
  H  H34  1  0.800500  0.356800  0.792600  1.0  0.0834
  H  H35  1  0.348700  0.049200  0.983700  1.0  0.0971
  H  H36  1  0.110700  0.156800  0.863800  1.0  0.0886
  H  H37  1  0.526700  0.199600  0.786900  1.0  0.1141
  H  H38  1  0.345700  0.019000  0.894400  1.0  0.1328
  H  H39  1  0.017700  0.111100  0.936700  1.0  0.1044
  H  H40  1  0.021500  0.082300  0.026400  1.0  0.1045
  H  H41  1  0.296800  0.171500  0.382400  1.0  0.1118
  H  H42  1  0.718200  0.508700  0.227500  1.0  0.0984
  H  H43  1  0.090200  0.258200  0.457100  1.0  0.1023
  H  H44  1  0.953900  0.314100  0.196800  1.0  0.1063
  H  H45  1  0.419400  0.167700  0.467900  1.0  0.1055
  H  H46  1  0.438100  0.194800  0.556600  1.0  0.0938
  H  H47  1  0.064900  0.284400  0.367700  1.0  0.0989
  H  H48  1  0.794400  0.496500  0.316700  1.0  0.1533
  H  H49  1  0.609900  0.314400  0.274300  1.0  0.0805
  H  H50  1  0.300500  0.143200  0.292600  1.0  0.0833
  H  H51  1  0.848700  0.450800  0.483700  1.0  0.0971
  H  H52  1  0.610700  0.343200  0.363800  1.0  0.0883
  H  H53  1  0.026700  0.300400  0.286900  1.0  0.1136
  H  H54  1  0.845700  0.481000  0.394400  1.0  0.1331
  H  H55  1  0.517700  0.388900  0.436700  1.0  0.1049
  H  H56  1  0.521500  0.417700  0.526400  1.0  0.1044
  H  H57  1  0.796800  0.671500  0.382400  1.0  0.1118
  H  H58  1  0.218200  0.008700  0.227500  1.0  0.0984
  H  H59  1  0.590200  0.758200  0.457100  1.0  0.1023
  H  H60  1  0.453900  0.814100  0.196800  1.0  0.1063
  H  H61  1  0.919400  0.667700  0.467900  1.0  0.1055
  H  H62  1  0.938100  0.694800  0.556600  1.0  0.0938
  H  H63  1  0.564900  0.784400  0.367700  1.0  0.0989
  H  H64  1  0.294400  0.996500  0.316700  1.0  0.1537
  H  H65  1  0.109900  0.814400  0.274300  1.0  0.0805
  H  H66  1  0.800500  0.643200  0.292600  1.0  0.0833
  H  H67  1  0.348700  0.950800  0.483700  1.0  0.0971
  H  H68  1  0.110700  0.843200  0.363800  1.0  0.0883
  H  H69  1  0.526700  0.800400  0.286900  1.0  0.1136
  H  H70  1  0.345700  0.981000  0.394400  1.0  0.1331
  H  H71  1  0.017700  0.888900  0.436700  1.0  0.1049
  H  H72  1  0.021500  0.917700  0.526400  1.0  0.1044
  C  C73  1  0.822300  0.589400  0.703430  1.0  -0.0659
  C  C74  1  0.947500  0.616600  0.870790  1.0  0.0273
  C  C75  1  0.478900  0.672000  0.108630  1.0  0.3388
  C  C76  1  0.362900  0.800500  0.861200  1.0  -0.1323
  C  C77  1  0.976600  0.667300  0.038230  1.0  0.7471
  C  C78  1  0.779000  0.533900  0.739510  1.0  -0.0781
  C  C79  1  0.036700  0.697100  0.944900  1.0  -0.1226
  C  C80  1  0.973400  0.648100  0.979980  1.0  -0.0991
  C  C81  1  0.762400  0.582600  0.646760  1.0  0.3261
  C  C82  1  0.918600  0.604700  0.812220  1.0  0.042
  C  C83  1  0.463800  0.795200  0.716690  1.0  0.7556
  C  C84  1  0.918700  0.650000  0.721020  1.0  -0.0946
  C  C85  1  0.442300  0.781800  0.979300  1.0  -0.1333
  C  C86  1  0.451200  0.765200  0.032400  1.0  -0.1046
  C  C87  1  0.021800  0.680800  0.891100  1.0  -0.1089
  C  C88  1  0.825300  0.541100  0.792910  1.0  -0.1369
  C  C89  1  0.548800  0.715300  0.796100  1.0  -0.0279
  C  C90  1  0.457500  0.776400  0.774530  1.0  -0.1506
  C  C91  1  0.364700  0.816900  0.807070  1.0  -0.0211
  C  C92  1  0.479100  0.691300  0.051300  1.0  -0.0157
  C  C93  1  0.460100  0.742200  0.883500  1.0  0.0413
  C  C94  1  0.896600  0.582600  0.960500  1.0  -0.0646
  C  C95  1  0.549700  0.698200  0.849900  1.0  -0.1182
  C  C96  1  0.963900  0.657500  0.775360  1.0  -0.0916
  C  C97  1  0.890100  0.565800  0.906600  1.0  -0.1562
  C  C98  1  0.498500  0.650500  0.960800  1.0  -0.1148
  C  C99  1  0.466700  0.724400  0.941800  1.0  0.0376
  C  C100  1  0.502700  0.633100  0.014800  1.0  -0.1036
  C  C101  1  0.322300  0.089400  0.703430  1.0  -0.0659
  C  C102  1  0.447500  0.116600  0.870790  1.0  0.0273
  C  C103  1  0.978900  0.172000  0.108630  1.0  0.3388
  C  C104  1  0.862900  0.300500  0.861200  1.0  -0.1323
  C  C105  1  0.476600  0.167300  0.038230  1.0  0.7471
  C  C106  1  0.279000  0.033900  0.739510  1.0  -0.0781
  C  C107  1  0.536700  0.197100  0.944900  1.0  -0.1226
  C  C108  1  0.473400  0.148100  0.979980  1.0  -0.0991
  C  C109  1  0.262400  0.082600  0.646760  1.0  0.3261
  C  C110  1  0.418600  0.104700  0.812220  1.0  0.042
  C  C111  1  0.963800  0.295200  0.716690  1.0  0.7556
  C  C112  1  0.418700  0.150000  0.721020  1.0  -0.0946
  C  C113  1  0.942300  0.281800  0.979300  1.0  -0.1333
  C  C114  1  0.951200  0.265200  0.032400  1.0  -0.1046
  C  C115  1  0.521800  0.180800  0.891100  1.0  -0.1089
  C  C116  1  0.325300  0.041100  0.792910  1.0  -0.1369
  C  C117  1  0.048800  0.215300  0.796100  1.0  -0.0279
  C  C118  1  0.957500  0.276400  0.774530  1.0  -0.1506
  C  C119  1  0.864700  0.316900  0.807070  1.0  -0.0211
  C  C120  1  0.979100  0.191300  0.051300  1.0  -0.0157
  C  C121  1  0.960100  0.242200  0.883500  1.0  0.0413
  C  C122  1  0.396600  0.082600  0.960500  1.0  -0.0646
  C  C123  1  0.049700  0.198200  0.849900  1.0  -0.1182
  C  C124  1  0.463900  0.157500  0.775360  1.0  -0.0916
  C  C125  1  0.390100  0.065800  0.906600  1.0  -0.1562
  C  C126  1  0.998500  0.150500  0.960800  1.0  -0.1148
  C  C127  1  0.966700  0.224400  0.941800  1.0  0.0376
  C  C128  1  0.002700  0.133100  0.014800  1.0  -0.1036
  C  C129  1  0.822300  0.410600  0.203430  1.0  -0.0657
  C  C130  1  0.947500  0.383400  0.370790  1.0  0.0276
  C  C131  1  0.478900  0.328000  0.608630  1.0  0.3385
  C  C132  1  0.362900  0.199500  0.361200  1.0  -0.1328
  C  C133  1  0.976600  0.332700  0.538230  1.0  0.7471
  C  C134  1  0.779000  0.466100  0.239510  1.0  -0.079
  C  C135  1  0.036700  0.302900  0.444900  1.0  -0.1221
  C  C136  1  0.973400  0.351900  0.479980  1.0  -0.0988
  C  C137  1  0.762400  0.417400  0.146760  1.0  0.3256
  C  C138  1  0.918600  0.395300  0.312220  1.0  0.0418
  C  C139  1  0.463800  0.204800  0.216690  1.0  0.7555
  C  C140  1  0.918700  0.350000  0.221020  1.0  -0.0943
  C  C141  1  0.442300  0.218200  0.479300  1.0  -0.1324
  C  C142  1  0.451200  0.234800  0.532400  1.0  -0.1048
  C  C143  1  0.021800  0.319200  0.391100  1.0  -0.1085
  C  C144  1  0.825300  0.458900  0.292910  1.0  -0.1351
  C  C145  1  0.548800  0.284700  0.296100  1.0  -0.0275
  C  C146  1  0.457500  0.223600  0.274530  1.0  -0.1504
  C  C147  1  0.364700  0.183100  0.307070  1.0  -0.0214
  C  C148  1  0.479100  0.308700  0.551300  1.0  -0.0158
  C  C149  1  0.460100  0.257800  0.383500  1.0  0.0411
  C  C150  1  0.896600  0.417400  0.460500  1.0  -0.0634
  C  C151  1  0.549700  0.301800  0.349900  1.0  -0.1185
  C  C152  1  0.963900  0.342500  0.275360  1.0  -0.0921
  C  C153  1  0.890100  0.434200  0.406600  1.0  -0.1555
  C  C154  1  0.498500  0.349500  0.460800  1.0  -0.1149
  C  C155  1  0.466700  0.275600  0.441800  1.0  0.0378
  C  C156  1  0.502700  0.366900  0.514800  1.0  -0.1048
  C  C157  1  0.322300  0.910600  0.203430  1.0  -0.0657
  C  C158  1  0.447500  0.883400  0.370790  1.0  0.0276
  C  C159  1  0.978900  0.828000  0.608630  1.0  0.3385
  C  C160  1  0.862900  0.699500  0.361200  1.0  -0.1328
  C  C161  1  0.476600  0.832700  0.538230  1.0  0.7471
  C  C162  1  0.279000  0.966100  0.239510  1.0  -0.079
  C  C163  1  0.536700  0.802900  0.444900  1.0  -0.1221
  C  C164  1  0.473400  0.851900  0.479980  1.0  -0.0988
  C  C165  1  0.262400  0.917400  0.146760  1.0  0.3256
  C  C166  1  0.418600  0.895300  0.312220  1.0  0.0418
  C  C167  1  0.963800  0.704800  0.216690  1.0  0.7555
  C  C168  1  0.418700  0.850000  0.221020  1.0  -0.0943
  C  C169  1  0.942300  0.718200  0.479300  1.0  -0.1324
  C  C170  1  0.951200  0.734800  0.532400  1.0  -0.1048
  C  C171  1  0.521800  0.819200  0.391100  1.0  -0.1085
  C  C172  1  0.325300  0.958900  0.292910  1.0  -0.1351
  C  C173  1  0.048800  0.784700  0.296100  1.0  -0.0275
  C  C174  1  0.957500  0.723600  0.274530  1.0  -0.1504
  C  C175  1  0.864700  0.683100  0.307070  1.0  -0.0214
  C  C176  1  0.979100  0.808700  0.551300  1.0  -0.0158
  C  C177  1  0.960100  0.757800  0.383500  1.0  0.0411
  C  C178  1  0.396600  0.917400  0.460500  1.0  -0.0634
  C  C179  1  0.049700  0.801800  0.349900  1.0  -0.1185
  C  C180  1  0.463900  0.842500  0.275360  1.0  -0.0921
  C  C181  1  0.390100  0.934200  0.406600  1.0  -0.1555
  C  C182  1  0.998500  0.849500  0.460800  1.0  -0.1149
  C  C183  1  0.966700  0.775600  0.441800  1.0  0.0378
  C  C184  1  0.002700  0.866900  0.514800  1.0  -0.1048
  N  N185  1  0.596000  0.635800  0.137420  1.0  -0.3074
  N  N186  1  0.754800  0.516600  0.619960  1.0  -0.1993
  N  N187  1  0.689500  0.533800  0.570600  1.0  -0.076
  N  N188  1  0.355200  0.687500  0.138360  1.0  -0.3617
  N  N189  1  0.656900  0.607500  0.568590  1.0  -0.1211
  N  N190  1  0.400300  0.657300  0.187190  1.0  -0.1043
  N  N191  1  0.700800  0.640000  0.616140  1.0  -0.2924
  N  N192  1  0.539400  0.625200  0.186390  1.0  -0.0916
  N  N193  1  0.096000  0.135800  0.137420  1.0  -0.3074
  N  N194  1  0.254800  0.016600  0.619960  1.0  -0.1993
  N  N195  1  0.189500  0.033800  0.570600  1.0  -0.076
  N  N196  1  0.855200  0.187500  0.138360  1.0  -0.3617
  N  N197  1  0.156900  0.107500  0.568590  1.0  -0.1211
  N  N198  1  0.900300  0.157300  0.187190  1.0  -0.1043
  N  N199  1  0.200800  0.140000  0.616140  1.0  -0.2924
  N  N200  1  0.039400  0.125200  0.186390  1.0  -0.0916
  N  N201  1  0.596000  0.364200  0.637420  1.0  -0.3075
  N  N202  1  0.754800  0.483400  0.119960  1.0  -0.1996
  N  N203  1  0.689500  0.466200  0.070600  1.0  -0.0757
  N  N204  1  0.355200  0.312500  0.638360  1.0  -0.3618
  N  N205  1  0.656900  0.392500  0.068590  1.0  -0.1224
  N  N206  1  0.400300  0.342700  0.687190  1.0  -0.1055
  N  N207  1  0.700800  0.360000  0.116140  1.0  -0.2936
  N  N208  1  0.539400  0.374800  0.686390  1.0  -0.0928
  N  N209  1  0.096000  0.864200  0.637420  1.0  -0.3075
  N  N210  1  0.254800  0.983400  0.119960  1.0  -0.1996
  N  N211  1  0.189500  0.966200  0.070600  1.0  -0.0757
  N  N212  1  0.855200  0.812500  0.638360  1.0  -0.3618
  N  N213  1  0.156900  0.892500  0.068590  1.0  -0.1224
  N  N214  1  0.900300  0.842700  0.687190  1.0  -0.1055
  N  N215  1  0.200800  0.860000  0.116140  1.0  -0.2936
  N  N216  1  0.039400  0.874800  0.686390  1.0  -0.0928
  O  O217  1  0.065500  0.717200  0.055940  1.0  -0.6192
  O  O218  1  0.394500  0.856300  0.701240  1.0  -0.6232
  O  O219  1  0.531800  0.751400  0.687730  1.0  -0.6213
  O  O220  1  0.878300  0.634200  0.064210  1.0  -0.6487
  O  O221  1  0.565500  0.217200  0.055940  1.0  -0.6192
  O  O222  1  0.894500  0.356300  0.701240  1.0  -0.6231
  O  O223  1  0.031800  0.251400  0.687730  1.0  -0.6213
  O  O224  1  0.378300  0.134200  0.064210  1.0  -0.6487
  O  O225  1  0.065500  0.282800  0.555940  1.0  -0.6187
  O  O226  1  0.394500  0.143700  0.201240  1.0  -0.6232
  O  O227  1  0.531800  0.248600  0.187730  1.0  -0.6219
  O  O228  1  0.878300  0.365800  0.564210  1.0  -0.6482
  O  O229  1  0.565500  0.782800  0.555940  1.0  -0.6187
  O  O230  1  0.894500  0.643700  0.201240  1.0  -0.6231
  O  O231  1  0.031800  0.748600  0.187730  1.0  -0.6219
  O  O232  1  0.378300  0.865800  0.564210  1.0  -0.6482
