# generated using pymatgen
data_Co9H72C108(N9O20)2
_symmetry_space_group_name_H-M   'P 1'
_cell_length_a   12.65300000
_cell_length_b   25.49700000
_cell_length_c   28.55100000
_cell_angle_alpha   90.00000000
_cell_angle_beta   90.94500000
_cell_angle_gamma   90.00000000
_symmetry_Int_Tables_number   1
_chemical_formula_structural   Co9H72C108(N9O20)2
_chemical_formula_sum   'Co18 H144 C216 N36 O80'
_cell_volume   9209.68640712
_cell_formula_units_Z   2
loop_
 _symmetry_equiv_pos_site_id
 _symmetry_equiv_pos_as_xyz
  1  'x, y, z'
loop_
 _atom_site_type_symbol
 _atom_site_label
 _atom_site_symmetry_multiplicity
 _atom_site_fract_x
 _atom_site_fract_y
 _atom_site_fract_z
 _atom_site_occupancy
 _atom_site_charge
  Co  Co1  1  0.744780  0.998150  0.813030  1.0  1.0846
  Co  Co2  1  0.245730  0.499640  0.187070  1.0  1.0486
  Co  Co3  1  0.886870  0.750650  0.032380  1.0  1.0304
  Co  Co4  1  0.604570  0.748990  0.024270  1.0  1.084
  Co  Co5  1  0.755220  0.998150  0.686970  1.0  1.0844
  Co  Co6  1  0.254270  0.499640  0.312930  1.0  1.0491
  Co  Co7  1  0.613130  0.750650  0.467620  1.0  1.0311
  Co  Co8  1  0.895430  0.748990  0.475730  1.0  1.0843
  Co  Co9  1  0.255220  0.001850  0.186970  1.0  1.0842
  Co  Co10  1  0.754270  0.500360  0.812930  1.0  1.0491
  Co  Co11  1  0.113130  0.249350  0.967620  1.0  1.0302
  Co  Co12  1  0.395430  0.251010  0.975730  1.0  1.0843
  Co  Co13  1  0.244780  0.001850  0.313030  1.0  1.0844
  Co  Co14  1  0.745730  0.500360  0.687070  1.0  1.0488
  Co  Co15  1  0.386870  0.249350  0.532380  1.0  1.0301
  Co  Co16  1  0.104570  0.251010  0.524270  1.0  1.0841
  Co  Co17  1  0.250000  0.749010  0.750000  1.0  0.7274
  Co  Co18  1  0.750000  0.250990  0.250000  1.0  0.7274
  H  H19  1  0.903700  0.949800  0.882000  1.0  0.0988
  H  H20  1  0.915300  0.882700  0.936700  1.0  0.1273
  H  H21  1  0.596500  0.872900  0.931800  1.0  0.1138
  H  H22  1  0.592800  0.940800  0.878200  1.0  0.0961
  H  H23  1  0.518000  0.044400  0.796700  1.0  0.0934
  H  H24  1  0.400700  0.104000  0.829200  1.0  0.1232
  H  H25  1  0.607300  0.124300  0.936800  1.0  0.1248
  H  H26  1  0.716200  0.062600  0.902700  1.0  0.0892
  H  H27  1  0.599400  0.550200  0.881400  1.0  0.1007
  H  H28  1  0.594400  0.616200  0.936100  1.0  0.1175
  H  H29  1  0.912700  0.623100  0.934500  1.0  0.1279
  H  H30  1  0.910100  0.557100  0.879500  1.0  0.0949
  H  H31  1  0.177800  0.552700  0.096200  1.0  0.0797
  H  H32  1  0.061700  0.614600  0.065200  1.0  0.1252
  H  H33  1  0.897700  0.606200  0.183900  1.0  0.1224
  H  H34  1  0.021200  0.546700  0.213600  1.0  0.0912
  H  H35  1  0.002800  0.143800  0.966500  1.0  0.0865
  H  H36  1  0.927200  0.081400  0.917500  1.0  0.1269
  H  H37  1  0.014800  0.173000  0.807600  1.0  0.1183
  H  H38  1  0.090300  0.230600  0.861700  1.0  0.0905
  H  H39  1  0.480700  0.644500  0.026500  1.0  0.0802
  H  H40  1  0.398800  0.586900  0.077600  1.0  0.1278
  H  H41  1  0.489100  0.683200  0.184000  1.0  0.1269
  H  H42  1  0.561500  0.738800  0.128900  1.0  0.0919
  H  H43  1  0.358400  0.757200  0.015600  1.0  0.0981
  H  H44  1  0.225700  0.759300  0.958000  1.0  0.1143
  H  H45  1  0.450700  0.739900  0.859700  1.0  0.1175
  H  H46  1  0.576900  0.740000  0.919700  1.0  0.0985
  H  H47  1  0.330000  0.657300  0.811600  1.0  0.0875
  H  H48  1  0.454100  0.591500  0.814900  1.0  0.1248
  H  H49  1  0.551300  0.635300  0.686200  1.0  0.108
  H  H50  1  0.427800  0.702000  0.687200  1.0  0.0894
  H  H51  1  0.422700  0.798400  0.684600  1.0  0.0932
  H  H52  1  0.544700  0.865100  0.682900  1.0  0.1181
  H  H53  1  0.458900  0.904600  0.813800  1.0  0.1148
  H  H54  1  0.335500  0.839400  0.811200  1.0  0.0827
  H  H55  1  0.596300  0.949800  0.618000  1.0  0.097
  H  H56  1  0.584700  0.882700  0.563300  1.0  0.1277
  H  H57  1  0.903500  0.872900  0.568200  1.0  0.1149
  H  H58  1  0.907200  0.940800  0.621800  1.0  0.0956
  H  H59  1  0.982000  0.044400  0.703300  1.0  0.0935
  H  H60  1  0.099300  0.104000  0.670800  1.0  0.123
  H  H61  1  0.892700  0.124300  0.563200  1.0  0.1251
  H  H62  1  0.783800  0.062600  0.597300  1.0  0.0887
  H  H63  1  0.900600  0.550200  0.618600  1.0  0.1011
  H  H64  1  0.905600  0.616200  0.563900  1.0  0.1174
  H  H65  1  0.587300  0.623100  0.565500  1.0  0.1279
  H  H66  1  0.589900  0.557100  0.620500  1.0  0.0946
  H  H67  1  0.322200  0.552700  0.403800  1.0  0.0799
  H  H68  1  0.438300  0.614600  0.434800  1.0  0.1244
  H  H69  1  0.602300  0.606200  0.316100  1.0  0.1229
  H  H70  1  0.478800  0.546700  0.286400  1.0  0.0907
  H  H71  1  0.497200  0.143800  0.533500  1.0  0.0851
  H  H72  1  0.572800  0.081400  0.582500  1.0  0.1269
  H  H73  1  0.485200  0.173000  0.692400  1.0  0.1182
  H  H74  1  0.409700  0.230600  0.638300  1.0  0.0904
  H  H75  1  0.019300  0.644500  0.473500  1.0  0.0796
  H  H76  1  0.101200  0.586900  0.422400  1.0  0.1272
  H  H77  1  0.010900  0.683200  0.316000  1.0  0.1269
  H  H78  1  0.938500  0.738800  0.371100  1.0  0.0917
  H  H79  1  0.141600  0.757200  0.484400  1.0  0.0972
  H  H80  1  0.274300  0.759300  0.542000  1.0  0.1143
  H  H81  1  0.049300  0.739900  0.640300  1.0  0.1169
  H  H82  1  0.923100  0.740000  0.580300  1.0  0.0986
  H  H83  1  0.170000  0.657300  0.688400  1.0  0.0871
  H  H84  1  0.045900  0.591500  0.685100  1.0  0.1246
  H  H85  1  0.948700  0.635300  0.813800  1.0  0.1087
  H  H86  1  0.072200  0.702000  0.812800  1.0  0.0905
  H  H87  1  0.077300  0.798400  0.815400  1.0  0.0948
  H  H88  1  0.955300  0.865100  0.817100  1.0  0.1178
  H  H89  1  0.041100  0.904600  0.686200  1.0  0.1151
  H  H90  1  0.164500  0.839400  0.688800  1.0  0.0828
  H  H91  1  0.096300  0.050200  0.118000  1.0  0.0977
  H  H92  1  0.084700  0.117300  0.063300  1.0  0.1277
  H  H93  1  0.403500  0.127100  0.068200  1.0  0.115
  H  H94  1  0.407200  0.059200  0.121800  1.0  0.0956
  H  H95  1  0.482000  0.955600  0.203300  1.0  0.0936
  H  H96  1  0.599300  0.896000  0.170800  1.0  0.1229
  H  H97  1  0.392700  0.875700  0.063200  1.0  0.1259
  H  H98  1  0.283800  0.937400  0.097300  1.0  0.0887
  H  H99  1  0.400600  0.449800  0.118600  1.0  0.1009
  H  H100  1  0.405600  0.383800  0.063900  1.0  0.1172
  H  H101  1  0.087300  0.376900  0.065500  1.0  0.1279
  H  H102  1  0.089900  0.442900  0.120500  1.0  0.0946
  H  H103  1  0.822200  0.447300  0.903800  1.0  0.0799
  H  H104  1  0.938300  0.385400  0.934800  1.0  0.1244
  H  H105  1  0.102300  0.393800  0.816100  1.0  0.1228
  H  H106  1  0.978800  0.453300  0.786400  1.0  0.0901
  H  H107  1  0.997200  0.856200  0.033500  1.0  0.0852
  H  H108  1  0.072800  0.918600  0.082500  1.0  0.127
  H  H109  1  0.985200  0.827000  0.192400  1.0  0.1188
  H  H110  1  0.909700  0.769400  0.138300  1.0  0.0909
  H  H111  1  0.519300  0.355500  0.973500  1.0  0.0793
  H  H112  1  0.601200  0.413100  0.922400  1.0  0.1272
  H  H113  1  0.510900  0.316800  0.816000  1.0  0.1266
  H  H114  1  0.438500  0.261200  0.871100  1.0  0.092
  H  H115  1  0.641600  0.242800  0.984400  1.0  0.0972
  H  H116  1  0.774300  0.240700  0.042000  1.0  0.1143
  H  H117  1  0.549300  0.260100  0.140300  1.0  0.1166
  H  H118  1  0.423100  0.260000  0.080300  1.0  0.0984
  H  H119  1  0.670000  0.342700  0.188400  1.0  0.0872
  H  H120  1  0.545900  0.408500  0.185100  1.0  0.1248
  H  H121  1  0.448700  0.364700  0.313800  1.0  0.1087
  H  H122  1  0.572200  0.298000  0.312800  1.0  0.0908
  H  H123  1  0.577300  0.201600  0.315400  1.0  0.094
  H  H124  1  0.455300  0.134900  0.317100  1.0  0.1179
  H  H125  1  0.541100  0.095400  0.186200  1.0  0.1145
  H  H126  1  0.664500  0.160600  0.188800  1.0  0.0828
  H  H127  1  0.403700  0.050200  0.382000  1.0  0.0983
  H  H128  1  0.415300  0.117300  0.436700  1.0  0.1272
  H  H129  1  0.096500  0.127100  0.431800  1.0  0.1138
  H  H130  1  0.092800  0.059200  0.378200  1.0  0.0961
  H  H131  1  0.018000  0.955600  0.296700  1.0  0.0932
  H  H132  1  0.900700  0.896000  0.329200  1.0  0.123
  H  H133  1  0.107300  0.875700  0.436800  1.0  0.1255
  H  H134  1  0.216200  0.937400  0.402700  1.0  0.0891
  H  H135  1  0.099400  0.449800  0.381400  1.0  0.1004
  H  H136  1  0.094400  0.383800  0.436100  1.0  0.1169
  H  H137  1  0.412700  0.376900  0.434500  1.0  0.1281
  H  H138  1  0.410100  0.442900  0.379500  1.0  0.0949
  H  H139  1  0.677800  0.447300  0.596200  1.0  0.0797
  H  H140  1  0.561700  0.385400  0.565200  1.0  0.1252
  H  H141  1  0.397700  0.393800  0.683900  1.0  0.1227
  H  H142  1  0.521200  0.453300  0.713600  1.0  0.091
  H  H143  1  0.502800  0.856200  0.466500  1.0  0.0862
  H  H144  1  0.427200  0.918600  0.417500  1.0  0.1269
  H  H145  1  0.514800  0.827000  0.307600  1.0  0.1185
  H  H146  1  0.590300  0.769400  0.361700  1.0  0.0908
  H  H147  1  0.980700  0.355500  0.526500  1.0  0.0799
  H  H148  1  0.898800  0.413100  0.577600  1.0  0.1277
  H  H149  1  0.989100  0.316800  0.684000  1.0  0.1267
  H  H150  1  0.061500  0.261200  0.628900  1.0  0.0924
  H  H151  1  0.858400  0.242800  0.515600  1.0  0.0983
  H  H152  1  0.725700  0.240700  0.458000  1.0  0.1145
  H  H153  1  0.950700  0.260100  0.359700  1.0  0.1173
  H  H154  1  0.076900  0.260000  0.419700  1.0  0.0983
  H  H155  1  0.830000  0.342700  0.311600  1.0  0.0877
  H  H156  1  0.954100  0.408500  0.314900  1.0  0.1243
  H  H157  1  0.051300  0.364700  0.186200  1.0  0.1081
  H  H158  1  0.927800  0.298000  0.187200  1.0  0.0893
  H  H159  1  0.922700  0.201600  0.184600  1.0  0.0928
  H  H160  1  0.044700  0.134900  0.182900  1.0  0.1182
  H  H161  1  0.958900  0.095400  0.313800  1.0  0.1143
  H  H162  1  0.835500  0.160600  0.311200  1.0  0.0827
  C  C163  1  0.840500  0.933720  0.892360  1.0  0.1577
  C  C164  1  0.848300  0.893660  0.924760  1.0  -0.1428
  C  C165  1  0.754900  0.869560  0.939690  1.0  -0.0906
  C  C166  1  0.661000  0.888100  0.921950  1.0  -0.0959
  C  C167  1  0.659100  0.928590  0.889880  1.0  0.1625
  C  C168  1  0.759300  0.823650  0.972870  1.0  0.7239
  C  C169  1  0.537400  0.061410  0.825170  1.0  0.1636
  C  C170  1  0.466200  0.096800  0.844540  1.0  -0.1258
  C  C171  1  0.492400  0.121170  0.886430  1.0  -0.1109
  C  C172  1  0.587100  0.108500  0.907840  1.0  -0.1349
  C  C173  1  0.652900  0.072300  0.886600  1.0  0.1694
  C  C174  1  0.421200  0.161880  0.906910  1.0  0.7148
  C  C175  1  0.664000  0.565580  0.891960  1.0  0.1549
  C  C176  1  0.660500  0.604780  0.924570  1.0  -0.159
  C  C177  1  0.752800  0.627770  0.940690  1.0  -0.1053
  C  C178  1  0.847200  0.608990  0.923670  1.0  -0.143
  C  C179  1  0.844900  0.569750  0.891030  1.0  0.1534
  C  C180  1  0.750900  0.673320  0.974890  1.0  0.7259
  C  C181  1  0.122300  0.564900  0.115400  1.0  0.1601
  C  C182  1  0.052300  0.601600  0.096100  1.0  -0.1468
  C  C183  1  0.970300  0.618500  0.122440  1.0  -0.0867
  C  C184  1  0.957100  0.596900  0.165800  1.0  -0.1073
  C  C185  1  0.031300  0.561000  0.183300  1.0  0.1532
  C  C186  1  0.900500  0.661800  0.104000  1.0  0.7152
  C  C187  1  0.004800  0.149600  0.933700  1.0  0.1856
  C  C188  1  0.958700  0.112000  0.905000  1.0  -0.1141
  C  C189  1  0.960500  0.121200  0.856700  1.0  -0.1157
  C  C190  1  0.011000  0.166100  0.840200  1.0  -0.1581
  C  C191  1  0.055200  0.200200  0.872900  1.0  0.1672
  C  C192  1  0.905200  0.084500  0.823600  1.0  0.7014
  C  C193  1  0.481900  0.652900  0.058900  1.0  0.1824
  C  C194  1  0.433800  0.617300  0.089170  1.0  -0.1338
  C  C195  1  0.438900  0.628000  0.136100  1.0  -0.1143
  C  C196  1  0.486400  0.674400  0.151600  1.0  -0.1438
  C  C197  1  0.529400  0.707200  0.118400  1.0  0.1616
  C  C198  1  0.389600  0.591900  0.170960  1.0  0.6913
  C  C199  1  0.377000  0.753780  0.983600  1.0  0.1444
  C  C200  1  0.297300  0.754800  0.949300  1.0  -0.0927
  C  C201  1  0.322600  0.749300  0.902500  1.0  -0.0667
  C  C202  1  0.430000  0.743610  0.891400  1.0  -0.1103
  C  C203  1  0.504300  0.743470  0.927120  1.0  0.1541
  C  C204  1  0.237100  0.749030  0.864400  1.0  0.6587
  C  C205  1  0.376500  0.653120  0.786050  1.0  0.1657
  C  C206  1  0.449800  0.613690  0.788210  1.0  -0.1218
  C  C207  1  0.518900  0.606250  0.750580  1.0  -0.0915
  C  C208  1  0.507600  0.639560  0.712700  1.0  -0.1229
  C  C209  1  0.432900  0.678980  0.713360  1.0  0.1764
  C  C210  1  0.600600  0.563120  0.751890  1.0  0.7183
  C  C211  1  0.430200  0.820410  0.711260  1.0  0.1761
  C  C212  1  0.503800  0.859880  0.710150  1.0  -0.144
  C  C213  1  0.518300  0.892230  0.748950  1.0  -0.095
  C  C214  1  0.452800  0.883200  0.786620  1.0  -0.1465
  C  C215  1  0.380100  0.844000  0.785060  1.0  0.1639
  C  C216  1  0.599900  0.934650  0.749350  1.0  0.7307
  C  C217  1  0.659500  0.933720  0.607640  1.0  0.1577
  C  C218  1  0.651700  0.893660  0.575240  1.0  -0.1446
  C  C219  1  0.745100  0.869560  0.560310  1.0  -0.0926
  C  C220  1  0.839000  0.888100  0.578050  1.0  -0.095
  C  C221  1  0.840900  0.928590  0.610120  1.0  0.1639
  C  C222  1  0.740700  0.823650  0.527130  1.0  0.7238
  C  C223  1  0.962600  0.061410  0.674830  1.0  0.1633
  C  C224  1  0.033800  0.096800  0.655460  1.0  -0.1239
  C  C225  1  0.007600  0.121170  0.613570  1.0  -0.11
  C  C226  1  0.912900  0.108500  0.592160  1.0  -0.1344
  C  C227  1  0.847100  0.072300  0.613400  1.0  0.1694
  C  C228  1  0.078800  0.161880  0.593090  1.0  0.7137
  C  C229  1  0.836000  0.565580  0.608040  1.0  0.1557
  C  C230  1  0.839500  0.604780  0.575430  1.0  -0.1599
  C  C231  1  0.747200  0.627770  0.559310  1.0  -0.1023
  C  C232  1  0.652800  0.608990  0.576330  1.0  -0.1438
  C  C233  1  0.655100  0.569750  0.608970  1.0  0.154
  C  C234  1  0.749100  0.673320  0.525110  1.0  0.7255
  C  C235  1  0.377700  0.564900  0.384600  1.0  0.1603
  C  C236  1  0.447700  0.601600  0.403900  1.0  -0.1478
  C  C237  1  0.529700  0.618500  0.377560  1.0  -0.0883
  C  C238  1  0.542900  0.596900  0.334200  1.0  -0.1055
  C  C239  1  0.468700  0.561000  0.316700  1.0  0.1534
  C  C240  1  0.599500  0.661800  0.396000  1.0  0.7152
  C  C241  1  0.495200  0.149600  0.566300  1.0  0.1847
  C  C242  1  0.541300  0.112000  0.595000  1.0  -0.1129
  C  C243  1  0.539500  0.121200  0.643300  1.0  -0.1156
  C  C244  1  0.489000  0.166100  0.659800  1.0  -0.1594
  C  C245  1  0.444800  0.200200  0.627100  1.0  0.1666
  C  C246  1  0.594800  0.084500  0.676400  1.0  0.6992
  C  C247  1  0.018100  0.652900  0.441100  1.0  0.1826
  C  C248  1  0.066200  0.617300  0.410830  1.0  -0.134
  C  C249  1  0.061100  0.628000  0.363900  1.0  -0.1154
  C  C250  1  0.013600  0.674400  0.348400  1.0  -0.1444
  C  C251  1  0.970600  0.707200  0.381600  1.0  0.1632
  C  C252  1  0.110400  0.591900  0.329040  1.0  0.6927
  C  C253  1  0.123000  0.753780  0.516400  1.0  0.1415
  C  C254  1  0.202700  0.754800  0.550700  1.0  -0.0887
  C  C255  1  0.177400  0.749300  0.597500  1.0  -0.067
  C  C256  1  0.070000  0.743610  0.608600  1.0  -0.1089
  C  C257  1  0.995700  0.743470  0.572880  1.0  0.154
  C  C258  1  0.262900  0.749030  0.635600  1.0  0.6602
  C  C259  1  0.123500  0.653120  0.713950  1.0  0.165
  C  C260  1  0.050200  0.613690  0.711790  1.0  -0.1238
  C  C261  1  0.981100  0.606250  0.749420  1.0  -0.0926
  C  C262  1  0.992400  0.639560  0.787300  1.0  -0.1226
  C  C263  1  0.067100  0.678980  0.786640  1.0  0.1764
  C  C264  1  0.899400  0.563120  0.748110  1.0  0.7188
  C  C265  1  0.069800  0.820410  0.788740  1.0  0.1754
  C  C266  1  0.996200  0.859880  0.789850  1.0  -0.1445
  C  C267  1  0.981700  0.892230  0.751050  1.0  -0.0971
  C  C268  1  0.047200  0.883200  0.713380  1.0  -0.1458
  C  C269  1  0.119900  0.844000  0.714940  1.0  0.1632
  C  C270  1  0.900100  0.934650  0.750650  1.0  0.7309
  C  C271  1  0.159500  0.066280  0.107640  1.0  0.1578
  C  C272  1  0.151700  0.106340  0.075240  1.0  -0.1446
  C  C273  1  0.245100  0.130440  0.060310  1.0  -0.0921
  C  C274  1  0.339000  0.111900  0.078050  1.0  -0.0955
  C  C275  1  0.340900  0.071410  0.110120  1.0  0.1638
  C  C276  1  0.240700  0.176350  0.027130  1.0  0.7246
  C  C277  1  0.462600  0.938590  0.174830  1.0  0.1643
  C  C278  1  0.533800  0.903200  0.155460  1.0  -0.1238
  C  C279  1  0.507600  0.878830  0.113570  1.0  -0.1096
  C  C280  1  0.412900  0.891500  0.092160  1.0  -0.1336
  C  C281  1  0.347100  0.927700  0.113400  1.0  0.1695
  C  C282  1  0.578800  0.838120  0.093090  1.0  0.7139
  C  C283  1  0.336000  0.434420  0.108040  1.0  0.1555
  C  C284  1  0.339500  0.395220  0.075430  1.0  -0.16
  C  C285  1  0.247200  0.372230  0.059310  1.0  -0.1048
  C  C286  1  0.152800  0.391010  0.076330  1.0  -0.1441
  C  C287  1  0.155100  0.430250  0.108970  1.0  0.1543
  C  C288  1  0.249100  0.326680  0.025110  1.0  0.7244
  C  C289  1  0.877700  0.435100  0.884600  1.0  0.1604
  C  C290  1  0.947700  0.398400  0.903900  1.0  -0.1472
  C  C291  1  0.029700  0.381500  0.877560  1.0  -0.0878
  C  C292  1  0.042900  0.403100  0.834200  1.0  -0.1056
  C  C293  1  0.968700  0.439000  0.816700  1.0  0.1538
  C  C294  1  0.099500  0.338200  0.896000  1.0  0.7148
  C  C295  1  0.995200  0.850400  0.066300  1.0  0.1842
  C  C296  1  0.041300  0.888000  0.095000  1.0  -0.1131
  C  C297  1  0.039500  0.878800  0.143300  1.0  -0.1153
  C  C298  1  0.989000  0.833900  0.159800  1.0  -0.1586
  C  C299  1  0.944800  0.799800  0.127100  1.0  0.1665
  C  C300  1  0.094800  0.915500  0.176400  1.0  0.6998
  C  C301  1  0.518100  0.347100  0.941100  1.0  0.1829
  C  C302  1  0.566200  0.382700  0.910830  1.0  -0.1329
  C  C303  1  0.561100  0.372000  0.863900  1.0  -0.1146
  C  C304  1  0.513600  0.325600  0.848400  1.0  -0.1441
  C  C305  1  0.470600  0.292800  0.881600  1.0  0.1627
  C  C306  1  0.610400  0.408100  0.829040  1.0  0.6928
  C  C307  1  0.623000  0.246220  0.016400  1.0  0.1411
  C  C308  1  0.702700  0.245200  0.050700  1.0  -0.0891
  C  C309  1  0.677400  0.250700  0.097500  1.0  -0.0672
  C  C310  1  0.570000  0.256390  0.108600  1.0  -0.1089
  C  C311  1  0.495700  0.256530  0.072880  1.0  0.1539
  C  C312  1  0.762900  0.250970  0.135600  1.0  0.6614
  C  C313  1  0.623500  0.346880  0.213950  1.0  0.1652
  C  C314  1  0.550200  0.386310  0.211790  1.0  -0.1234
  C  C315  1  0.481100  0.393750  0.249420  1.0  -0.0921
  C  C316  1  0.492400  0.360440  0.287300  1.0  -0.1218
  C  C317  1  0.567100  0.321020  0.286640  1.0  0.1757
  C  C318  1  0.399400  0.436880  0.248110  1.0  0.7194
  C  C319  1  0.569800  0.179590  0.288740  1.0  0.1758
  C  C320  1  0.496200  0.140120  0.289850  1.0  -0.1448
  C  C321  1  0.481700  0.107770  0.251050  1.0  -0.0975
  C  C322  1  0.547200  0.116800  0.213380  1.0  -0.1463
  C  C323  1  0.619900  0.156000  0.214940  1.0  0.1624
  C  C324  1  0.400100  0.065350  0.250650  1.0  0.7303
  C  C325  1  0.340500  0.066280  0.392360  1.0  0.1584
  C  C326  1  0.348300  0.106340  0.424760  1.0  -0.1428
  C  C327  1  0.254900  0.130440  0.439690  1.0  -0.0911
  C  C328  1  0.161000  0.111900  0.421950  1.0  -0.096
  C  C329  1  0.159100  0.071410  0.389880  1.0  0.1626
  C  C330  1  0.259300  0.176350  0.472870  1.0  0.7244
  C  C331  1  0.037400  0.938590  0.325170  1.0  0.1639
  C  C332  1  0.966200  0.903200  0.344540  1.0  -0.1262
  C  C333  1  0.992400  0.878830  0.386430  1.0  -0.1106
  C  C334  1  0.087100  0.891500  0.407840  1.0  -0.1345
  C  C335  1  0.152900  0.927700  0.386600  1.0  0.1694
  C  C336  1  0.921200  0.838120  0.406910  1.0  0.7146
  C  C337  1  0.164000  0.434420  0.391960  1.0  0.1551
  C  C338  1  0.160500  0.395220  0.424570  1.0  -0.1591
  C  C339  1  0.252800  0.372230  0.440690  1.0  -0.1051
  C  C340  1  0.347200  0.391010  0.423670  1.0  -0.1435
  C  C341  1  0.344900  0.430250  0.391030  1.0  0.1533
  C  C342  1  0.250900  0.326680  0.474890  1.0  0.7251
  C  C343  1  0.622300  0.435100  0.615400  1.0  0.1599
  C  C344  1  0.552300  0.398400  0.596100  1.0  -0.1465
  C  C345  1  0.470300  0.381500  0.622440  1.0  -0.0863
  C  C346  1  0.457100  0.403100  0.665800  1.0  -0.107
  C  C347  1  0.531300  0.439000  0.683300  1.0  0.1535
  C  C348  1  0.400500  0.338200  0.604000  1.0  0.7147
  C  C349  1  0.504800  0.850400  0.433700  1.0  0.1851
  C  C350  1  0.458700  0.888000  0.405000  1.0  -0.1139
  C  C351  1  0.460500  0.878800  0.356700  1.0  -0.1153
  C  C352  1  0.511000  0.833900  0.340200  1.0  -0.157
  C  C353  1  0.555200  0.799800  0.372900  1.0  0.1664
  C  C354  1  0.405200  0.915500  0.323600  1.0  0.702
  C  C355  1  0.981900  0.347100  0.558900  1.0  0.1834
  C  C356  1  0.933800  0.382700  0.589170  1.0  -0.1327
  C  C357  1  0.938900  0.372000  0.636100  1.0  -0.1143
  C  C358  1  0.986400  0.325600  0.651600  1.0  -0.1434
  C  C359  1  0.029400  0.292800  0.618400  1.0  0.1619
  C  C360  1  0.889600  0.408100  0.670960  1.0  0.6923
  C  C361  1  0.877000  0.246220  0.483600  1.0  0.1446
  C  C362  1  0.797300  0.245200  0.449300  1.0  -0.093
  C  C363  1  0.822600  0.250700  0.402500  1.0  -0.0667
  C  C364  1  0.930000  0.256390  0.391400  1.0  -0.1102
  C  C365  1  0.004300  0.256530  0.427120  1.0  0.154
  C  C366  1  0.737100  0.250970  0.364400  1.0  0.6578
  C  C367  1  0.876500  0.346880  0.286050  1.0  0.1647
  C  C368  1  0.949800  0.386310  0.288210  1.0  -0.1232
  C  C369  1  0.018900  0.393750  0.250580  1.0  -0.0915
  C  C370  1  0.007600  0.360440  0.212700  1.0  -0.1227
  C  C371  1  0.932900  0.321020  0.213360  1.0  0.1762
  C  C372  1  0.100600  0.436880  0.251890  1.0  0.719
  C  C373  1  0.930200  0.179590  0.211260  1.0  0.1764
  C  C374  1  0.003800  0.140120  0.210150  1.0  -0.1444
  C  C375  1  0.018300  0.107770  0.248950  1.0  -0.0957
  C  C376  1  0.952800  0.116800  0.286620  1.0  -0.1458
  C  C377  1  0.880100  0.156000  0.285060  1.0  0.1633
  C  C378  1  0.099900  0.065350  0.249350  1.0  0.7303
  N  N379  1  0.747400  0.951130  0.874730  1.0  -0.3257
  N  N380  1  0.633100  0.050030  0.845050  1.0  -0.3223
  N  N381  1  0.754400  0.548080  0.874370  1.0  -0.3324
  N  N382  1  0.117200  0.545720  0.158840  1.0  -0.3384
  N  N383  1  0.051000  0.192710  0.919330  1.0  -0.3227
  N  N384  1  0.528700  0.696990  0.071310  1.0  -0.337
  N  N385  1  0.476500  0.748240  0.973020  1.0  -0.3092
  N  N386  1  0.366800  0.686420  0.749420  1.0  -0.343
  N  N387  1  0.368000  0.811300  0.748460  1.0  -0.3307
  N  N388  1  0.752600  0.951130  0.625270  1.0  -0.3266
  N  N389  1  0.866900  0.050030  0.654950  1.0  -0.3234
  N  N390  1  0.745600  0.548080  0.625630  1.0  -0.3314
  N  N391  1  0.382800  0.545720  0.341160  1.0  -0.3396
  N  N392  1  0.449000  0.192710  0.580670  1.0  -0.3225
  N  N393  1  0.971300  0.696990  0.428690  1.0  -0.338
  N  N394  1  0.023500  0.748240  0.526980  1.0  -0.31
  N  N395  1  0.133200  0.686420  0.750580  1.0  -0.3428
  N  N396  1  0.132000  0.811300  0.751540  1.0  -0.329
  N  N397  1  0.252600  0.048870  0.125270  1.0  -0.3267
  N  N398  1  0.366900  0.949970  0.154950  1.0  -0.3237
  N  N399  1  0.245600  0.451920  0.125630  1.0  -0.3318
  N  N400  1  0.882800  0.454280  0.841160  1.0  -0.3398
  N  N401  1  0.949000  0.807290  0.080670  1.0  -0.3226
  N  N402  1  0.471300  0.303010  0.928690  1.0  -0.3378
  N  N403  1  0.523500  0.251760  0.026980  1.0  -0.3099
  N  N404  1  0.633200  0.313580  0.250580  1.0  -0.343
  N  N405  1  0.632000  0.188700  0.251540  1.0  -0.3294
  N  N406  1  0.247400  0.048870  0.374730  1.0  -0.326
  N  N407  1  0.133100  0.949970  0.345050  1.0  -0.3226
  N  N408  1  0.254400  0.451920  0.374370  1.0  -0.3324
  N  N409  1  0.617200  0.454280  0.658840  1.0  -0.3386
  N  N410  1  0.551000  0.807290  0.419330  1.0  -0.3216
  N  N411  1  0.028700  0.303010  0.571310  1.0  -0.3371
  N  N412  1  0.976500  0.251760  0.473020  1.0  -0.309
  N  N413  1  0.866800  0.313580  0.249420  1.0  -0.3429
  N  N414  1  0.868000  0.188700  0.248460  1.0  -0.331
  O  O415  1  0.741700  0.749590  0.070630  1.0  -0.5072
  O  O416  1  0.846200  0.812500  0.990270  1.0  -0.5712
  O  O417  1  0.672700  0.800720  0.979090  1.0  -0.6114
  O  O418  1  0.460200  0.188680  0.940410  1.0  -0.6083
  O  O419  1  0.333100  0.169430  0.888020  1.0  -0.5551
  O  O420  1  0.660900  0.683620  0.991250  1.0  -0.6194
  O  O421  1  0.834800  0.695590  0.983690  1.0  -0.6059
  O  O422  1  0.941800  0.689540  0.073320  1.0  -0.6081
  O  O423  1  0.810000  0.668610  0.120900  1.0  -0.5405
  O  O424  1  0.865100  0.044230  0.841180  1.0  -0.6078
  O  O425  1  0.902300  0.096800  0.781130  1.0  -0.5378
  O  O426  1  0.346500  0.550940  0.154170  1.0  -0.6138
  O  O427  1  0.391100  0.604330  0.213340  1.0  -0.5522
  O  O428  1  0.270200  0.749110  0.822390  1.0  -0.615
  O  O429  1  0.145200  0.747990  0.876870  1.0  -0.5266
  O  O430  1  0.641400  0.553700  0.713090  1.0  -0.6112
  O  O431  1  0.620800  0.542130  0.790010  1.0  -0.5996
  O  O432  1  0.616400  0.956500  0.788370  1.0  -0.6066
  O  O433  1  0.646600  0.943670  0.712160  1.0  -0.6064
  O  O434  1  0.758300  0.749590  0.429370  1.0  -0.5076
  O  O435  1  0.653800  0.812500  0.509730  1.0  -0.5703
  O  O436  1  0.827300  0.800720  0.520910  1.0  -0.6111
  O  O437  1  0.039800  0.188680  0.559590  1.0  -0.6088
  O  O438  1  0.166900  0.169430  0.611980  1.0  -0.5564
  O  O439  1  0.839100  0.683620  0.508750  1.0  -0.6201
  O  O440  1  0.665200  0.695590  0.516310  1.0  -0.6051
  O  O441  1  0.558200  0.689540  0.426680  1.0  -0.6079
  O  O442  1  0.690000  0.668610  0.379100  1.0  -0.5404
  O  O443  1  0.634900  0.044230  0.658820  1.0  -0.6066
  O  O444  1  0.597700  0.096800  0.718870  1.0  -0.5402
  O  O445  1  0.153500  0.550940  0.345830  1.0  -0.613
  O  O446  1  0.108900  0.604330  0.286660  1.0  -0.5501
  O  O447  1  0.229800  0.749110  0.677610  1.0  -0.6165
  O  O448  1  0.354800  0.747990  0.623130  1.0  -0.528
  O  O449  1  0.858600  0.553700  0.786910  1.0  -0.6123
  O  O450  1  0.879200  0.542130  0.709990  1.0  -0.5991
  O  O451  1  0.883600  0.956500  0.711630  1.0  -0.6076
  O  O452  1  0.853400  0.943670  0.787840  1.0  -0.6067
  O  O453  1  0.258300  0.250410  0.929370  1.0  -0.5077
  O  O454  1  0.153800  0.187500  0.009730  1.0  -0.5703
  O  O455  1  0.327300  0.199280  0.020910  1.0  -0.6111
  O  O456  1  0.539800  0.811320  0.059590  1.0  -0.6086
  O  O457  1  0.666900  0.830570  0.111980  1.0  -0.5561
  O  O458  1  0.339100  0.316380  0.008750  1.0  -0.6198
  O  O459  1  0.165200  0.304410  0.016310  1.0  -0.6053
  O  O460  1  0.058200  0.310460  0.926680  1.0  -0.6077
  O  O461  1  0.190000  0.331390  0.879100  1.0  -0.5413
  O  O462  1  0.134900  0.955770  0.158820  1.0  -0.6074
  O  O463  1  0.097700  0.903200  0.218870  1.0  -0.5396
  O  O464  1  0.653500  0.449060  0.845830  1.0  -0.613
  O  O465  1  0.608900  0.395670  0.786660  1.0  -0.5494
  O  O466  1  0.729800  0.250890  0.177610  1.0  -0.6164
  O  O467  1  0.854800  0.252010  0.123130  1.0  -0.5278
  O  O468  1  0.358600  0.446300  0.286910  1.0  -0.6123
  O  O469  1  0.379200  0.457870  0.209990  1.0  -0.6002
  O  O470  1  0.383600  0.043500  0.211630  1.0  -0.6085
  O  O471  1  0.353400  0.056330  0.287840  1.0  -0.6063
  O  O472  1  0.241700  0.250410  0.570630  1.0  -0.5073
  O  O473  1  0.346200  0.187500  0.490270  1.0  -0.5714
  O  O474  1  0.172700  0.199280  0.479090  1.0  -0.6119
  O  O475  1  0.960200  0.811320  0.440410  1.0  -0.6089
  O  O476  1  0.833100  0.830570  0.388020  1.0  -0.5552
  O  O477  1  0.160900  0.316380  0.491250  1.0  -0.6191
  O  O478  1  0.334800  0.304410  0.483690  1.0  -0.6057
  O  O479  1  0.441800  0.310460  0.573320  1.0  -0.6077
  O  O480  1  0.310000  0.331390  0.620900  1.0  -0.5416
  O  O481  1  0.365100  0.955770  0.341180  1.0  -0.6077
  O  O482  1  0.402300  0.903200  0.281130  1.0  -0.5369
  O  O483  1  0.846500  0.449060  0.654170  1.0  -0.6135
  O  O484  1  0.891100  0.395670  0.713340  1.0  -0.551
  O  O485  1  0.770200  0.250890  0.322390  1.0  -0.615
  O  O486  1  0.645200  0.252010  0.376870  1.0  -0.5267
  O  O487  1  0.141400  0.446300  0.213090  1.0  -0.6115
  O  O488  1  0.120800  0.457870  0.290010  1.0  -0.6001
  O  O489  1  0.116400  0.043500  0.288370  1.0  -0.6077
  O  O490  1  0.146600  0.056330  0.212160  1.0  -0.6059
  O  O491  1  0.750000  0.042430  0.750000  1.0  -0.4892
  O  O492  1  0.250000  0.957570  0.250000  1.0  -0.4904
  O  O493  1  0.250000  0.545770  0.250000  1.0  -0.459
  O  O494  1  0.750000  0.454230  0.750000  1.0  -0.46
