# generated using pymatgen
data_CuH2(C3N4)2
_symmetry_space_group_name_H-M   'P 1'
_cell_length_a   18.62330000
_cell_length_b   18.62330000
_cell_length_c   18.62330000
_cell_angle_alpha   90.00000000
_cell_angle_beta   90.00000000
_cell_angle_gamma   90.00000000
_symmetry_Int_Tables_number   1
_chemical_formula_structural   CuH2(C3N4)2
_chemical_formula_sum   'Cu12 H24 C72 N96'
_cell_volume   6459.06890991
_cell_formula_units_Z   12
loop_
 _symmetry_equiv_pos_site_id
 _symmetry_equiv_pos_as_xyz
  1  'x, y, z'
loop_
 _atom_site_type_symbol
 _atom_site_label
 _atom_site_symmetry_multiplicity
 _atom_site_fract_x
 _atom_site_fract_y
 _atom_site_fract_z
 _atom_site_occupancy
 _atom_site_charge
  Cu  Cu1  1  0.500000  0.131440  0.000000  1.0  0.4935
  Cu  Cu2  1  0.500000  0.868560  0.000000  1.0  0.4929
  Cu  Cu3  1  0.000000  0.500000  0.131440  1.0  0.4905
  Cu  Cu4  1  0.000000  0.500000  0.868560  1.0  0.4918
  Cu  Cu5  1  0.131440  0.000000  0.500000  1.0  0.4922
  Cu  Cu6  1  0.868560  0.000000  0.500000  1.0  0.4898
  Cu  Cu7  1  0.131440  0.500000  0.000000  1.0  0.4931
  Cu  Cu8  1  0.868560  0.500000  0.000000  1.0  0.4911
  Cu  Cu9  1  0.500000  0.000000  0.868560  1.0  0.4926
  Cu  Cu10  1  0.500000  0.000000  0.131440  1.0  0.4913
  Cu  Cu11  1  0.000000  0.131440  0.500000  1.0  0.4943
  Cu  Cu12  1  0.000000  0.868560  0.500000  1.0  0.4938
  H  H13  1  0.260400  0.260400  0.107300  1.0  0.1169
  H  H14  1  0.739600  0.739600  0.107300  1.0  0.1171
  H  H15  1  0.739600  0.260400  0.892700  1.0  0.1174
  H  H16  1  0.260400  0.739600  0.892700  1.0  0.1175
  H  H17  1  0.107300  0.260400  0.260400  1.0  0.117
  H  H18  1  0.107300  0.739600  0.739600  1.0  0.1167
  H  H19  1  0.892700  0.739600  0.260400  1.0  0.1173
  H  H20  1  0.892700  0.260400  0.739600  1.0  0.1166
  H  H21  1  0.260400  0.107300  0.260400  1.0  0.1171
  H  H22  1  0.739600  0.107300  0.739600  1.0  0.1164
  H  H23  1  0.260400  0.892700  0.739600  1.0  0.1163
  H  H24  1  0.739600  0.892700  0.260400  1.0  0.117
  H  H25  1  0.260400  0.260400  0.892700  1.0  0.1174
  H  H26  1  0.739600  0.739600  0.892700  1.0  0.1176
  H  H27  1  0.260400  0.739600  0.107300  1.0  0.1171
  H  H28  1  0.739600  0.260400  0.107300  1.0  0.117
  H  H29  1  0.260400  0.107300  0.739600  1.0  0.1166
  H  H30  1  0.739600  0.107300  0.260400  1.0  0.1169
  H  H31  1  0.739600  0.892700  0.739600  1.0  0.1165
  H  H32  1  0.260400  0.892700  0.260400  1.0  0.1167
  H  H33  1  0.107300  0.260400  0.739600  1.0  0.1167
  H  H34  1  0.107300  0.739600  0.260400  1.0  0.1173
  H  H35  1  0.892700  0.260400  0.260400  1.0  0.1171
  H  H36  1  0.892700  0.739600  0.739600  1.0  0.1167
  C  C37  1  0.240200  0.240200  0.148300  1.0  -0.0115
  C  C38  1  0.759800  0.759800  0.148300  1.0  -0.0117
  C  C39  1  0.759800  0.240200  0.851700  1.0  -0.0114
  C  C40  1  0.240200  0.759800  0.851700  1.0  -0.0108
  C  C41  1  0.148300  0.240200  0.240200  1.0  -0.0127
  C  C42  1  0.148300  0.759800  0.759800  1.0  -0.0127
  C  C43  1  0.851700  0.759800  0.240200  1.0  -0.0119
  C  C44  1  0.851700  0.240200  0.759800  1.0  -0.0116
  C  C45  1  0.240200  0.148300  0.240200  1.0  -0.0125
  C  C46  1  0.759800  0.148300  0.759800  1.0  -0.0127
  C  C47  1  0.240200  0.851700  0.759800  1.0  -0.0129
  C  C48  1  0.759800  0.851700  0.240200  1.0  -0.0136
  C  C49  1  0.240200  0.240200  0.851700  1.0  -0.0111
  C  C50  1  0.759800  0.759800  0.851700  1.0  -0.011
  C  C51  1  0.240200  0.759800  0.148300  1.0  -0.0117
  C  C52  1  0.759800  0.240200  0.148300  1.0  -0.0115
  C  C53  1  0.240200  0.148300  0.759800  1.0  -0.0127
  C  C54  1  0.759800  0.148300  0.240200  1.0  -0.0126
  C  C55  1  0.759800  0.851700  0.759800  1.0  -0.0129
  C  C56  1  0.240200  0.851700  0.240200  1.0  -0.0137
  C  C57  1  0.148300  0.240200  0.759800  1.0  -0.0124
  C  C58  1  0.148300  0.759800  0.240200  1.0  -0.0124
  C  C59  1  0.851700  0.240200  0.240200  1.0  -0.0119
  C  C60  1  0.851700  0.759800  0.759800  1.0  -0.0117
  C  C61  1  0.270900  0.179200  0.179200  1.0  -0.0429
  C  C62  1  0.336200  0.147100  0.147100  1.0  0.366
  C  C63  1  0.729100  0.820800  0.179200  1.0  -0.0439
  C  C64  1  0.663800  0.852900  0.147100  1.0  0.3658
  C  C65  1  0.729100  0.179200  0.820800  1.0  -0.0438
  C  C66  1  0.663800  0.147100  0.852900  1.0  0.3663
  C  C67  1  0.270900  0.820800  0.820800  1.0  -0.0431
  C  C68  1  0.336200  0.852900  0.852900  1.0  0.366
  C  C69  1  0.179200  0.270900  0.179200  1.0  -0.0432
  C  C70  1  0.147100  0.336200  0.147100  1.0  0.3653
  C  C71  1  0.179200  0.729100  0.820800  1.0  -0.0438
  C  C72  1  0.147100  0.663800  0.852900  1.0  0.3659
  C  C73  1  0.820800  0.729100  0.179200  1.0  -0.0439
  C  C74  1  0.852900  0.663800  0.147100  1.0  0.3656
  C  C75  1  0.820800  0.270900  0.820800  1.0  -0.0432
  C  C76  1  0.852900  0.336200  0.852900  1.0  0.3653
  C  C77  1  0.179200  0.179200  0.270900  1.0  -0.0451
  C  C78  1  0.147100  0.147100  0.336200  1.0  0.3666
  C  C79  1  0.820800  0.179200  0.729100  1.0  -0.0451
  C  C80  1  0.852900  0.147100  0.663800  1.0  0.3664
  C  C81  1  0.179200  0.820800  0.729100  1.0  -0.045
  C  C82  1  0.147100  0.852900  0.663800  1.0  0.3662
  C  C83  1  0.820800  0.820800  0.270900  1.0  -0.0453
  C  C84  1  0.852900  0.852900  0.336200  1.0  0.3663
  C  C85  1  0.179200  0.270900  0.820800  1.0  -0.0432
  C  C86  1  0.147100  0.336200  0.852900  1.0  0.3654
  C  C87  1  0.820800  0.729100  0.820800  1.0  -0.0437
  C  C88  1  0.852900  0.663800  0.852900  1.0  0.3656
  C  C89  1  0.179200  0.729100  0.179200  1.0  -0.044
  C  C90  1  0.147100  0.663800  0.147100  1.0  0.3659
  C  C91  1  0.820800  0.270900  0.179200  1.0  -0.0432
  C  C92  1  0.852900  0.336200  0.147100  1.0  0.3651
  C  C93  1  0.270900  0.179200  0.820800  1.0  -0.0428
  C  C94  1  0.336200  0.147100  0.852900  1.0  0.3661
  C  C95  1  0.729100  0.179200  0.179200  1.0  -0.044
  C  C96  1  0.663800  0.147100  0.147100  1.0  0.3662
  C  C97  1  0.729100  0.820800  0.820800  1.0  -0.0438
  C  C98  1  0.663800  0.852900  0.852900  1.0  0.366
  C  C99  1  0.270900  0.820800  0.179200  1.0  -0.0431
  C  C100  1  0.336200  0.852900  0.147100  1.0  0.3658
  C  C101  1  0.179200  0.179200  0.729100  1.0  -0.0452
  C  C102  1  0.147100  0.147100  0.663800  1.0  0.3664
  C  C103  1  0.179200  0.820800  0.270900  1.0  -0.0453
  C  C104  1  0.147100  0.852900  0.336200  1.0  0.3665
  C  C105  1  0.820800  0.179200  0.270900  1.0  -0.0451
  C  C106  1  0.852900  0.147100  0.336200  1.0  0.3666
  C  C107  1  0.820800  0.820800  0.729100  1.0  -0.0449
  C  C108  1  0.852900  0.852900  0.663800  1.0  0.366
  N  N109  1  0.368990  0.173890  0.088540  1.0  -0.3177
  N  N110  1  0.424620  0.128730  0.077810  1.0  -0.0184
  N  N111  1  0.631010  0.826110  0.088540  1.0  -0.3195
  N  N112  1  0.575380  0.871270  0.077810  1.0  -0.0181
  N  N113  1  0.631010  0.173890  0.911460  1.0  -0.3176
  N  N114  1  0.575380  0.128730  0.922190  1.0  -0.0184
  N  N115  1  0.368990  0.826110  0.911460  1.0  -0.3185
  N  N116  1  0.424620  0.871270  0.922190  1.0  -0.0184
  N  N117  1  0.088540  0.368990  0.173890  1.0  -0.3193
  N  N118  1  0.077810  0.424620  0.128730  1.0  -0.017
  N  N119  1  0.088540  0.631010  0.826110  1.0  -0.3193
  N  N120  1  0.077810  0.575380  0.871270  1.0  -0.0168
  N  N121  1  0.911460  0.631010  0.173890  1.0  -0.3195
  N  N122  1  0.922190  0.575380  0.128730  1.0  -0.0172
  N  N123  1  0.911460  0.368990  0.826110  1.0  -0.32
  N  N124  1  0.922190  0.424620  0.871270  1.0  -0.0184
  N  N125  1  0.173890  0.088540  0.368990  1.0  -0.3171
  N  N126  1  0.128730  0.077810  0.424620  1.0  -0.017
  N  N127  1  0.826110  0.088540  0.631010  1.0  -0.3184
  N  N128  1  0.871270  0.077810  0.575380  1.0  -0.0174
  N  N129  1  0.173890  0.911460  0.631010  1.0  -0.3182
  N  N130  1  0.128730  0.922190  0.575380  1.0  -0.0177
  N  N131  1  0.826110  0.911460  0.368990  1.0  -0.3182
  N  N132  1  0.871270  0.922190  0.424620  1.0  -0.0183
  N  N133  1  0.173890  0.368990  0.911460  1.0  -0.3185
  N  N134  1  0.128730  0.424620  0.922190  1.0  -0.0158
  N  N135  1  0.826110  0.631010  0.911460  1.0  -0.3187
  N  N136  1  0.871270  0.575380  0.922190  1.0  -0.016
  N  N137  1  0.173890  0.631010  0.088540  1.0  -0.3191
  N  N138  1  0.128730  0.575380  0.077810  1.0  -0.0156
  N  N139  1  0.826110  0.368990  0.088540  1.0  -0.3191
  N  N140  1  0.871270  0.424620  0.077810  1.0  -0.0165
  N  N141  1  0.368990  0.088540  0.826110  1.0  -0.3185
  N  N142  1  0.424620  0.077810  0.871270  1.0  -0.0189
  N  N143  1  0.631010  0.088540  0.173890  1.0  -0.3193
  N  N144  1  0.575380  0.077810  0.128730  1.0  -0.0181
  N  N145  1  0.631010  0.911460  0.826110  1.0  -0.3199
  N  N146  1  0.575380  0.922190  0.871270  1.0  -0.0192
  N  N147  1  0.368990  0.911460  0.173890  1.0  -0.3191
  N  N148  1  0.424620  0.922190  0.128730  1.0  -0.0189
  N  N149  1  0.088540  0.173890  0.631010  1.0  -0.3172
  N  N150  1  0.077810  0.128730  0.575380  1.0  -0.0175
  N  N151  1  0.088540  0.826110  0.368990  1.0  -0.319
  N  N152  1  0.077810  0.871270  0.424620  1.0  -0.0184
  N  N153  1  0.911460  0.173890  0.368990  1.0  -0.3177
  N  N154  1  0.922190  0.128730  0.424620  1.0  -0.0188
  N  N155  1  0.911460  0.826110  0.631010  1.0  -0.3182
  N  N156  1  0.922190  0.871270  0.575380  1.0  -0.0191
  N  N157  1  0.631010  0.826110  0.911460  1.0  -0.3192
  N  N158  1  0.575380  0.871270  0.922190  1.0  -0.0188
  N  N159  1  0.368990  0.173890  0.911460  1.0  -0.3171
  N  N160  1  0.424620  0.128730  0.922190  1.0  -0.0184
  N  N161  1  0.368990  0.826110  0.088540  1.0  -0.319
  N  N162  1  0.424620  0.871270  0.077810  1.0  -0.0185
  N  N163  1  0.631010  0.173890  0.088540  1.0  -0.3182
  N  N164  1  0.575380  0.128730  0.077810  1.0  -0.018
  N  N165  1  0.911460  0.631010  0.826110  1.0  -0.32
  N  N166  1  0.922190  0.575380  0.871270  1.0  -0.018
  N  N167  1  0.911460  0.368990  0.173890  1.0  -0.3198
  N  N168  1  0.922190  0.424620  0.128730  1.0  -0.0178
  N  N169  1  0.088540  0.368990  0.826110  1.0  -0.3195
  N  N170  1  0.077810  0.424620  0.871270  1.0  -0.0173
  N  N171  1  0.088540  0.631010  0.173890  1.0  -0.3192
  N  N172  1  0.077810  0.575380  0.128730  1.0  -0.0163
  N  N173  1  0.826110  0.911460  0.631010  1.0  -0.3181
  N  N174  1  0.871270  0.922190  0.575380  1.0  -0.0185
  N  N175  1  0.173890  0.911460  0.368990  1.0  -0.318
  N  N176  1  0.128730  0.922190  0.424620  1.0  -0.0176
  N  N177  1  0.826110  0.088540  0.368990  1.0  -0.3186
  N  N178  1  0.871270  0.077810  0.424620  1.0  -0.0176
  N  N179  1  0.173890  0.088540  0.631010  1.0  -0.3174
  N  N180  1  0.128730  0.077810  0.575380  1.0  -0.0168
  N  N181  1  0.826110  0.631010  0.088540  1.0  -0.3189
  N  N182  1  0.871270  0.575380  0.077810  1.0  -0.016
  N  N183  1  0.173890  0.368990  0.088540  1.0  -0.3191
  N  N184  1  0.128730  0.424620  0.077810  1.0  -0.016
  N  N185  1  0.826110  0.368990  0.911460  1.0  -0.3188
  N  N186  1  0.871270  0.424620  0.922190  1.0  -0.0164
  N  N187  1  0.173890  0.631010  0.911460  1.0  -0.3184
  N  N188  1  0.128730  0.575380  0.922190  1.0  -0.0155
  N  N189  1  0.631010  0.911460  0.173890  1.0  -0.3194
  N  N190  1  0.575380  0.922190  0.128730  1.0  -0.019
  N  N191  1  0.368990  0.911460  0.826110  1.0  -0.319
  N  N192  1  0.424620  0.922190  0.871270  1.0  -0.0193
  N  N193  1  0.368990  0.088540  0.173890  1.0  -0.3186
  N  N194  1  0.424620  0.077810  0.128730  1.0  -0.0183
  N  N195  1  0.631010  0.088540  0.826110  1.0  -0.3192
  N  N196  1  0.575380  0.077810  0.871270  1.0  -0.0188
  N  N197  1  0.911460  0.826110  0.368990  1.0  -0.3182
  N  N198  1  0.922190  0.871270  0.424620  1.0  -0.0191
  N  N199  1  0.911460  0.173890  0.631010  1.0  -0.3178
  N  N200  1  0.922190  0.128730  0.575380  1.0  -0.0191
  N  N201  1  0.088540  0.826110  0.631010  1.0  -0.3191
  N  N202  1  0.077810  0.871270  0.575380  1.0  -0.0178
  N  N203  1  0.088540  0.173890  0.368990  1.0  -0.3175
  N  N204  1  0.077810  0.128730  0.424620  1.0  -0.0179
