# generated using pymatgen
data_ZnH14(C9N5)2
_symmetry_space_group_name_H-M   'P 1'
_cell_length_a   6.71860000
_cell_length_b   17.08200000
_cell_length_c   17.35200000
_cell_angle_alpha   90.00000000
_cell_angle_beta   98.77000000
_cell_angle_gamma   90.00000000
_symmetry_Int_Tables_number   1
_chemical_formula_structural   ZnH14(C9N5)2
_chemical_formula_sum   'Zn4 H56 C72 N40'
_cell_volume   1968.15594521
_cell_formula_units_Z   4
loop_
 _symmetry_equiv_pos_site_id
 _symmetry_equiv_pos_as_xyz
  1  'x, y, z'
loop_
 _atom_site_type_symbol
 _atom_site_label
 _atom_site_symmetry_multiplicity
 _atom_site_fract_x
 _atom_site_fract_y
 _atom_site_fract_z
 _atom_site_occupancy
 _atom_site_charge
  Zn  Zn1  1  0.278040  0.518310  0.296120  1.0  0.6464
  Zn  Zn2  1  0.721960  0.018310  0.203880  1.0  0.646
  Zn  Zn3  1  0.721960  0.481690  0.703880  1.0  0.6464
  Zn  Zn4  1  0.278040  0.981690  0.796120  1.0  0.6467
  H  H5  1  0.640700  0.550400  0.218800  1.0  0.0671
  H  H6  1  0.734800  0.545800  0.097000  1.0  0.1059
  H  H7  1  0.183800  0.461100  0.012600  1.0  0.1108
  H  H8  1  0.100300  0.469900  0.136000  1.0  0.0709
  H  H9  1  0.500600  0.401800  0.407700  1.0  0.0684
  H  H10  1  0.807200  0.390400  0.487800  1.0  0.1112
  H  H11  1  0.909400  0.619500  0.449400  1.0  0.1091
  H  H12  1  0.602000  0.624400  0.369100  1.0  0.0683
  H  H13  1  0.597700  0.364300  0.166000  1.0  0.0993
  H  H14  1  0.666900  0.247800  0.371900  1.0  0.1062
  H  H15  1  0.350000  0.190600  0.337100  1.0  0.0917
  H  H16  1  0.284400  0.305400  0.130300  1.0  0.1035
  H  H17  1  0.036760  0.729070  0.610290  1.0  0.1491
  H  H18  1  0.027040  0.715330  0.881760  1.0  0.1428
  H  H19  1  0.359300  0.050400  0.281200  1.0  0.0666
  H  H20  1  0.265200  0.045800  0.403000  1.0  0.1061
  H  H21  1  0.816200  0.961100  0.487400  1.0  0.1111
  H  H22  1  0.899700  0.969900  0.364000  1.0  0.0713
  H  H23  1  0.499400  0.901800  0.092300  1.0  0.0685
  H  H24  1  0.192800  0.890400  0.012200  1.0  0.1113
  H  H25  1  0.090600  0.119500  0.050600  1.0  0.1093
  H  H26  1  0.398000  0.124400  0.130900  1.0  0.068
  H  H27  1  0.402300  0.864300  0.334000  1.0  0.0989
  H  H28  1  0.333100  0.747800  0.128100  1.0  0.1056
  H  H29  1  0.650000  0.690600  0.162900  1.0  0.0919
  H  H30  1  0.715600  0.805400  0.369700  1.0  0.1025
  H  H31  1  0.963240  0.229070  0.889710  1.0  0.1502
  H  H32  1  0.972960  0.215330  0.618240  1.0  0.1427
  H  H33  1  0.359300  0.449600  0.781200  1.0  0.0664
  H  H34  1  0.265200  0.454200  0.903000  1.0  0.1067
  H  H35  1  0.816200  0.538900  0.987400  1.0  0.1119
  H  H36  1  0.899700  0.530100  0.864000  1.0  0.0711
  H  H37  1  0.499400  0.598200  0.592300  1.0  0.0685
  H  H38  1  0.192800  0.609600  0.512200  1.0  0.1118
  H  H39  1  0.090600  0.380500  0.550600  1.0  0.1091
  H  H40  1  0.398000  0.375600  0.630900  1.0  0.0681
  H  H41  1  0.402300  0.635700  0.834000  1.0  0.0993
  H  H42  1  0.333100  0.752200  0.628100  1.0  0.106
  H  H43  1  0.650000  0.809400  0.662900  1.0  0.0921
  H  H44  1  0.715600  0.694600  0.869700  1.0  0.1024
  H  H45  1  0.963240  0.270930  0.389710  1.0  0.1508
  H  H46  1  0.972960  0.284670  0.118240  1.0  0.1427
  H  H47  1  0.640700  0.949600  0.718800  1.0  0.0674
  H  H48  1  0.734800  0.954200  0.597000  1.0  0.1063
  H  H49  1  0.183800  0.038900  0.512600  1.0  0.1122
  H  H50  1  0.100300  0.030100  0.636000  1.0  0.0708
  H  H51  1  0.500600  0.098200  0.907700  1.0  0.0687
  H  H52  1  0.807200  0.109600  0.987800  1.0  0.1111
  H  H53  1  0.909400  0.880500  0.949400  1.0  0.1092
  H  H54  1  0.602000  0.875600  0.869100  1.0  0.0684
  H  H55  1  0.597700  0.135700  0.666000  1.0  0.0995
  H  H56  1  0.666900  0.252200  0.871900  1.0  0.1065
  H  H57  1  0.350000  0.309400  0.837100  1.0  0.0916
  H  H58  1  0.284400  0.194600  0.630300  1.0  0.1035
  H  H59  1  0.036760  0.770930  0.110290  1.0  0.1501
  H  H60  1  0.027040  0.784670  0.381760  1.0  0.1423
  C  C61  1  0.545800  0.532640  0.176150  1.0  0.1658
  C  C62  1  0.603300  0.529450  0.103580  1.0  -0.1871
  C  C63  1  0.471200  0.502520  0.039620  1.0  0.0806
  C  C64  1  0.280300  0.480100  0.054080  1.0  -0.2031
  C  C65  1  0.231300  0.485410  0.127840  1.0  0.1537
  C  C66  1  0.586600  0.446150  0.415280  1.0  0.1619
  C  C67  1  0.769500  0.439080  0.463360  1.0  -0.1949
  C  C68  1  0.898800  0.503110  0.476050  1.0  0.07
  C  C69  1  0.829800  0.573470  0.440670  1.0  -0.1994
  C  C70  1  0.645700  0.576100  0.392940  1.0  0.1538
  C  C71  1  0.858700  0.350070  0.297170  1.0  0.344
  C  C72  1  0.663100  0.311870  0.272740  1.0  -0.0195
  C  C73  1  0.547900  0.328790  0.200650  1.0  -0.0823
  C  C74  1  0.588700  0.259890  0.323010  1.0  -0.1261
  C  C75  1  0.091500  0.203070  0.206390  1.0  0.3701
  C  C76  1  0.286500  0.242440  0.229850  1.0  -0.0122
  C  C77  1  0.400800  0.225550  0.302190  1.0  -0.088
  C  C78  1  0.361500  0.293950  0.179590  1.0  -0.0998
  C  C79  1  0.454200  0.032640  0.323850  1.0  0.1664
  C  C80  1  0.396700  0.029450  0.396420  1.0  -0.1864
  C  C81  1  0.528800  0.002520  0.460380  1.0  0.0822
  C  C82  1  0.719700  0.980100  0.445920  1.0  -0.2047
  C  C83  1  0.768700  0.985410  0.372160  1.0  0.1535
  C  C84  1  0.413400  0.946150  0.084720  1.0  0.1613
  C  C85  1  0.230500  0.939080  0.036640  1.0  -0.1957
  C  C86  1  0.101200  0.003110  0.023950  1.0  0.0698
  C  C87  1  0.170200  0.073470  0.059330  1.0  -0.1991
  C  C88  1  0.354300  0.076100  0.107060  1.0  0.1542
  C  C89  1  0.141300  0.850070  0.202830  1.0  0.3453
  C  C90  1  0.336900  0.811870  0.227260  1.0  -0.0193
  C  C91  1  0.452100  0.828790  0.299350  1.0  -0.0818
  C  C92  1  0.411300  0.759890  0.176990  1.0  -0.1273
  C  C93  1  0.908500  0.703070  0.293610  1.0  0.3694
  C  C94  1  0.713500  0.742440  0.270150  1.0  -0.012
  C  C95  1  0.599200  0.725550  0.197810  1.0  -0.0882
  C  C96  1  0.638500  0.793950  0.320410  1.0  -0.0981
  C  C97  1  0.454200  0.467360  0.823850  1.0  0.1659
  C  C98  1  0.396700  0.470550  0.896420  1.0  -0.1861
  C  C99  1  0.528800  0.497480  0.960380  1.0  0.0824
  C  C100  1  0.719700  0.519900  0.945920  1.0  -0.1996
  C  C101  1  0.768700  0.514590  0.872160  1.0  0.1534
  C  C102  1  0.413400  0.553850  0.584720  1.0  0.1606
  C  C103  1  0.230500  0.560920  0.536640  1.0  -0.1965
  C  C104  1  0.101200  0.496890  0.523950  1.0  0.0698
  C  C105  1  0.170200  0.426530  0.559330  1.0  -0.1953
  C  C106  1  0.354300  0.423900  0.607060  1.0  0.1535
  C  C107  1  0.141300  0.649930  0.702830  1.0  0.3445
  C  C108  1  0.336900  0.688130  0.727260  1.0  -0.019
  C  C109  1  0.452100  0.671210  0.799350  1.0  -0.0819
  C  C110  1  0.411300  0.740110  0.676990  1.0  -0.127
  C  C111  1  0.908500  0.796930  0.793610  1.0  0.3698
  C  C112  1  0.713500  0.757560  0.770150  1.0  -0.0122
  C  C113  1  0.599200  0.774450  0.697810  1.0  -0.0888
  C  C114  1  0.638500  0.706050  0.820410  1.0  -0.0967
  C  C115  1  0.545800  0.967360  0.676150  1.0  0.1666
  C  C116  1  0.603300  0.970550  0.603580  1.0  -0.1869
  C  C117  1  0.471200  0.997480  0.539620  1.0  0.0809
  C  C118  1  0.280300  0.019900  0.554080  1.0  -0.1975
  C  C119  1  0.231300  0.014590  0.627840  1.0  0.154
  C  C120  1  0.586600  0.053850  0.915280  1.0  0.1612
  C  C121  1  0.769500  0.060920  0.963360  1.0  -0.1956
  C  C122  1  0.898800  0.996890  0.976050  1.0  0.07
  C  C123  1  0.829800  0.926530  0.940670  1.0  -0.1958
  C  C124  1  0.645700  0.923900  0.892940  1.0  0.1526
  C  C125  1  0.858700  0.149930  0.797170  1.0  0.3434
  C  C126  1  0.663100  0.188130  0.772740  1.0  -0.0193
  C  C127  1  0.547900  0.171210  0.700650  1.0  -0.0819
  C  C128  1  0.588700  0.240110  0.823010  1.0  -0.1259
  C  C129  1  0.091500  0.296930  0.706390  1.0  0.3704
  C  C130  1  0.286500  0.257560  0.729850  1.0  -0.0123
  C  C131  1  0.400800  0.274450  0.802190  1.0  -0.0879
  C  C132  1  0.361500  0.206050  0.679590  1.0  -0.0986
  N  N133  1  0.362000  0.511880  0.189440  1.0  -0.3354
  N  N134  1  0.525500  0.513200  0.378790  1.0  -0.3365
  N  N135  1  0.099500  0.429170  0.308780  1.0  -0.0358
  N  N136  1  0.144500  0.376080  0.363810  1.0  -0.2812
  N  N137  1  0.994000  0.324740  0.357660  1.0  -0.1706
  N  N138  1  0.920500  0.414760  0.265200  1.0  -0.3788
  N  N139  1  0.858500  0.120030  0.194130  1.0  -0.0379
  N  N140  1  0.803700  0.175320  0.141890  1.0  -0.2287
  N  N141  1  0.949900  0.228910  0.148510  1.0  -0.1711
  N  N142  1  0.039200  0.135570  0.235890  1.0  -0.3685
  N  N143  1  0.638000  0.011880  0.310560  1.0  -0.335
  N  N144  1  0.474500  0.013200  0.121210  1.0  -0.3335
  N  N145  1  0.900500  0.929170  0.191220  1.0  -0.0348
  N  N146  1  0.855500  0.876080  0.136190  1.0  -0.2817
  N  N147  1  0.006000  0.824740  0.142340  1.0  -0.1734
  N  N148  1  0.079500  0.914760  0.234800  1.0  -0.3776
  N  N149  1  0.141500  0.620030  0.305870  1.0  -0.0379
  N  N150  1  0.196300  0.675320  0.358110  1.0  -0.2297
  N  N151  1  0.050100  0.728910  0.351490  1.0  -0.1695
  N  N152  1  0.960800  0.635570  0.264110  1.0  -0.3706
  N  N153  1  0.638000  0.488120  0.810560  1.0  -0.3345
  N  N154  1  0.474500  0.486800  0.621210  1.0  -0.3335
  N  N155  1  0.900500  0.570830  0.691220  1.0  -0.0344
  N  N156  1  0.855500  0.623920  0.636190  1.0  -0.281
  N  N157  1  0.006000  0.675260  0.642340  1.0  -0.1737
  N  N158  1  0.079500  0.585240  0.734800  1.0  -0.3773
  N  N159  1  0.141500  0.879970  0.805870  1.0  -0.0383
  N  N160  1  0.196300  0.824680  0.858110  1.0  -0.2295
  N  N161  1  0.050100  0.771090  0.851490  1.0  -0.1705
  N  N162  1  0.960800  0.864430  0.764110  1.0  -0.3703
  N  N163  1  0.362000  0.988120  0.689440  1.0  -0.335
  N  N164  1  0.525500  0.986800  0.878790  1.0  -0.3362
  N  N165  1  0.099500  0.070830  0.808780  1.0  -0.0351
  N  N166  1  0.144500  0.123920  0.863810  1.0  -0.281
  N  N167  1  0.994000  0.175260  0.857660  1.0  -0.172
  N  N168  1  0.920500  0.085240  0.765200  1.0  -0.3787
  N  N169  1  0.858500  0.379970  0.694130  1.0  -0.0392
  N  N170  1  0.803700  0.324680  0.641890  1.0  -0.229
  N  N171  1  0.949900  0.271090  0.648510  1.0  -0.1727
  N  N172  1  0.039200  0.364430  0.735890  1.0  -0.3691
