# generated using pymatgen
data_Fe3B2P4(HO5)4
_symmetry_space_group_name_H-M   'P 1'
_cell_length_a   5.01390000
_cell_length_b   9.30900000
_cell_length_c   20.92300000
_cell_angle_alpha   90.00000000
_cell_angle_beta   110.29400000
_cell_angle_gamma   90.00000000
_symmetry_Int_Tables_number   1
_chemical_formula_structural   Fe3B2P4(HO5)4
_chemical_formula_sum   'Fe6 B4 P8 H8 O40'
_cell_volume   915.94814157
_cell_formula_units_Z   2
loop_
 _symmetry_equiv_pos_site_id
 _symmetry_equiv_pos_as_xyz
  1  'x, y, z'
loop_
 _atom_site_type_symbol
 _atom_site_label
 _atom_site_symmetry_multiplicity
 _atom_site_fract_x
 _atom_site_fract_y
 _atom_site_fract_z
 _atom_site_occupancy
 _atom_site_charge
  Fe  Fe1  1  0.400930  0.688310  0.783930  1.0  1.2147
  Fe  Fe2  1  0.599070  0.188310  0.716070  1.0  1.2146
  Fe  Fe3  1  0.599070  0.311690  0.216070  1.0  1.2159
  Fe  Fe4  1  0.400930  0.811690  0.283930  1.0  1.2155
  Fe  Fe5  1  0.000000  0.500000  0.500000  1.0  0.917
  Fe  Fe6  1  0.000000  0.000000  0.000000  1.0  0.917
  B  B7  1  0.462200  0.634500  0.637800  1.0  0.7829
  B  B8  1  0.537800  0.134500  0.862200  1.0  0.784
  B  B9  1  0.537800  0.365500  0.362200  1.0  0.7854
  B  B10  1  0.462200  0.865500  0.137800  1.0  0.7838
  P  P11  1  0.781600  0.852770  0.710300  1.0  1.8669
  P  P12  1  0.619700  0.393340  0.583760  1.0  1.8338
  P  P13  1  0.218400  0.352770  0.789700  1.0  1.866
  P  P14  1  0.380300  0.893340  0.916240  1.0  1.8351
  P  P15  1  0.218400  0.147230  0.289700  1.0  1.8673
  P  P16  1  0.380300  0.606660  0.416240  1.0  1.8349
  P  P17  1  0.781600  0.647230  0.210300  1.0  1.8674
  P  P18  1  0.619700  0.106660  0.083760  1.0  1.8337
  H  H19  1  0.068000  0.640000  0.599000  1.0  0.4132
  H  H20  1  0.429000  0.499000  0.707000  1.0  0.4461
  H  H21  1  0.932000  0.140000  0.901000  1.0  0.4129
  H  H22  1  0.571000  0.999000  0.793000  1.0  0.4463
  H  H23  1  0.932000  0.360000  0.401000  1.0  0.4144
  H  H24  1  0.571000  0.501000  0.293000  1.0  0.4467
  H  H25  1  0.068000  0.860000  0.099000  1.0  0.4135
  H  H26  1  0.429000  0.001000  0.207000  1.0  0.4453
  O  O27  1  0.460400  0.585100  0.704210  1.0  -0.5793
  O  O28  1  0.559700  0.785700  0.644870  1.0  -0.4996
  O  O29  1  0.867800  0.365100  0.559270  1.0  -0.7291
  O  O30  1  0.660000  0.547400  0.615550  1.0  -0.5086
  O  O31  1  0.791300  0.014400  0.697240  1.0  -0.766
  O  O32  1  0.175700  0.629300  0.585390  1.0  -0.7244
  O  O33  1  0.340000  0.385500  0.524610  1.0  -0.7682
  O  O34  1  0.675300  0.830200  0.770170  1.0  -0.7771
  O  O35  1  0.625400  0.282800  0.637650  1.0  -0.8487
  O  O36  1  0.068700  0.784600  0.721350  1.0  -0.8208
  O  O37  1  0.539600  0.085100  0.795790  1.0  -0.5788
  O  O38  1  0.440300  0.285700  0.855130  1.0  -0.4981
  O  O39  1  0.132200  0.865100  0.940730  1.0  -0.7292
  O  O40  1  0.340000  0.047400  0.884450  1.0  -0.5091
  O  O41  1  0.208700  0.514400  0.802760  1.0  -0.7664
  O  O42  1  0.824300  0.129300  0.914610  1.0  -0.7219
  O  O43  1  0.660000  0.885500  0.975390  1.0  -0.769
  O  O44  1  0.324700  0.330200  0.729830  1.0  -0.7767
  O  O45  1  0.374600  0.782800  0.862350  1.0  -0.8469
  O  O46  1  0.931300  0.284600  0.778650  1.0  -0.8207
  O  O47  1  0.539600  0.414900  0.295790  1.0  -0.579
  O  O48  1  0.440300  0.214300  0.355130  1.0  -0.4987
  O  O49  1  0.132200  0.634900  0.440730  1.0  -0.7286
  O  O50  1  0.340000  0.452600  0.384450  1.0  -0.5097
  O  O51  1  0.208700  0.985600  0.302760  1.0  -0.766
  O  O52  1  0.824300  0.370700  0.414610  1.0  -0.7204
  O  O53  1  0.660000  0.614500  0.475390  1.0  -0.7689
  O  O54  1  0.324700  0.169800  0.229830  1.0  -0.7762
  O  O55  1  0.374600  0.717200  0.362350  1.0  -0.847
  O  O56  1  0.931300  0.215400  0.278650  1.0  -0.8204
  O  O57  1  0.460400  0.914900  0.204210  1.0  -0.5787
  O  O58  1  0.559700  0.714300  0.144870  1.0  -0.5
  O  O59  1  0.867800  0.134900  0.059270  1.0  -0.7297
  O  O60  1  0.660000  0.952600  0.115550  1.0  -0.5091
  O  O61  1  0.791300  0.485600  0.197240  1.0  -0.7663
  O  O62  1  0.175700  0.870700  0.085390  1.0  -0.7226
  O  O63  1  0.340000  0.114500  0.024610  1.0  -0.7686
  O  O64  1  0.675300  0.669800  0.270170  1.0  -0.7769
  O  O65  1  0.625400  0.217200  0.137650  1.0  -0.8483
  O  O66  1  0.068700  0.715400  0.221350  1.0  -0.8203
