# generated using pymatgen
data_V3P4H4(O6F)2
_symmetry_space_group_name_H-M   'P 1'
_cell_length_a   13.61200000
_cell_length_b   9.57530000
_cell_length_c   14.02200000
_cell_angle_alpha   90.00000000
_cell_angle_beta   90.00000000
_cell_angle_gamma   90.00000000
_symmetry_Int_Tables_number   1
_chemical_formula_structural   V3P4H4(O6F)2
_chemical_formula_sum   'V12 P16 H16 O48 F8'
_cell_volume   1827.61322804
_cell_formula_units_Z   4
loop_
 _symmetry_equiv_pos_site_id
 _symmetry_equiv_pos_as_xyz
  1  'x, y, z'
loop_
 _atom_site_type_symbol
 _atom_site_label
 _atom_site_symmetry_multiplicity
 _atom_site_fract_x
 _atom_site_fract_y
 _atom_site_fract_z
 _atom_site_occupancy
 _atom_site_charge
  V  V1  1  0.362840  0.809540  0.697600  1.0  1.3838
  V  V2  1  0.137160  0.190460  0.197600  1.0  1.3827
  V  V3  1  0.637160  0.309540  0.802400  1.0  1.3831
  V  V4  1  0.862840  0.690460  0.302400  1.0  1.3844
  V  V5  1  0.637160  0.190460  0.302400  1.0  1.3832
  V  V6  1  0.862840  0.809540  0.802400  1.0  1.3839
  V  V7  1  0.362840  0.690460  0.197600  1.0  1.3842
  V  V8  1  0.137160  0.309540  0.697600  1.0  1.3827
  V  V9  1  0.500000  0.000000  0.500000  1.0  1.9468
  V  V10  1  0.000000  0.000000  0.000000  1.0  1.9468
  V  V11  1  0.500000  0.500000  0.000000  1.0  1.9468
  V  V12  1  0.000000  0.500000  0.500000  1.0  1.9468
  P  P13  1  0.559230  0.012310  0.726820  1.0  1.6067
  P  P14  1  0.674920  0.868100  0.378910  1.0  1.6352
  P  P15  1  0.940770  0.987690  0.226820  1.0  1.6002
  P  P16  1  0.825080  0.131900  0.878910  1.0  1.6348
  P  P17  1  0.440770  0.512310  0.773180  1.0  1.6
  P  P18  1  0.325080  0.368100  0.121090  1.0  1.6325
  P  P19  1  0.059230  0.487690  0.273180  1.0  1.6071
  P  P20  1  0.174920  0.631900  0.621090  1.0  1.6347
  P  P21  1  0.440770  0.987690  0.273180  1.0  1.5998
  P  P22  1  0.325080  0.131900  0.621090  1.0  1.6336
  P  P23  1  0.059230  0.012310  0.773180  1.0  1.6065
  P  P24  1  0.174920  0.868100  0.121090  1.0  1.6343
  P  P25  1  0.559230  0.487690  0.226820  1.0  1.6075
  P  P26  1  0.674920  0.631900  0.878910  1.0  1.6357
  P  P27  1  0.940770  0.512310  0.726820  1.0  1.6003
  P  P28  1  0.825080  0.368100  0.378910  1.0  1.6336
  H  H29  1  0.642000  0.944000  0.728000  1.0  -0.101
  H  H30  1  0.617000  0.796000  0.323000  1.0  -0.123
  H  H31  1  0.858000  0.056000  0.228000  1.0  -0.1046
  H  H32  1  0.883000  0.204000  0.823000  1.0  -0.1194
  H  H33  1  0.358000  0.444000  0.772000  1.0  -0.1047
  H  H34  1  0.383000  0.296000  0.177000  1.0  -0.1228
  H  H35  1  0.142000  0.556000  0.272000  1.0  -0.1009
  H  H36  1  0.117000  0.704000  0.677000  1.0  -0.1233
  H  H37  1  0.358000  0.056000  0.272000  1.0  -0.1046
  H  H38  1  0.383000  0.204000  0.677000  1.0  -0.1208
  H  H39  1  0.142000  0.944000  0.772000  1.0  -0.101
  H  H40  1  0.117000  0.796000  0.177000  1.0  -0.1238
  H  H41  1  0.642000  0.556000  0.228000  1.0  -0.1008
  H  H42  1  0.617000  0.704000  0.823000  1.0  -0.1222
  H  H43  1  0.858000  0.444000  0.728000  1.0  -0.1049
  H  H44  1  0.883000  0.296000  0.323000  1.0  -0.1213
  O  O45  1  0.559500  0.131800  0.797870  1.0  -0.773
  O  O46  1  0.766000  0.777900  0.394100  1.0  -0.7644
  O  O47  1  0.478800  0.909200  0.753500  1.0  -0.8352
  O  O48  1  0.699700  0.006500  0.334300  1.0  -0.8342
  O  O49  1  0.554200  0.061800  0.624350  1.0  -0.8466
  O  O50  1  0.621800  0.885900  0.475000  1.0  -0.782
  O  O51  1  0.940500  0.868200  0.297870  1.0  -0.7722
  O  O52  1  0.734000  0.222100  0.894100  1.0  -0.764
  O  O53  1  0.021200  0.090800  0.253500  1.0  -0.8331
  O  O54  1  0.800300  0.993500  0.834300  1.0  -0.8347
  O  O55  1  0.945800  0.938200  0.124350  1.0  -0.847
  O  O56  1  0.878200  0.114100  0.975000  1.0  -0.7822
  O  O57  1  0.440500  0.631800  0.702130  1.0  -0.7726
  O  O58  1  0.234000  0.277900  0.105900  1.0  -0.7655
  O  O59  1  0.521200  0.409200  0.746500  1.0  -0.8351
  O  O60  1  0.300300  0.506500  0.165700  1.0  -0.8344
  O  O61  1  0.445800  0.561800  0.875650  1.0  -0.8459
  O  O62  1  0.378200  0.385900  0.025000  1.0  -0.7823
  O  O63  1  0.059500  0.368200  0.202130  1.0  -0.7732
  O  O64  1  0.266000  0.722100  0.605900  1.0  -0.765
  O  O65  1  0.978800  0.590800  0.246500  1.0  -0.8346
  O  O66  1  0.199700  0.493500  0.665700  1.0  -0.834
  O  O67  1  0.054200  0.438200  0.375650  1.0  -0.8459
  O  O68  1  0.121800  0.614100  0.525000  1.0  -0.7818
  O  O69  1  0.440500  0.868200  0.202130  1.0  -0.7726
  O  O70  1  0.234000  0.222100  0.605900  1.0  -0.7645
  O  O71  1  0.521200  0.090800  0.246500  1.0  -0.8337
  O  O72  1  0.300300  0.993500  0.665700  1.0  -0.8343
  O  O73  1  0.445800  0.938200  0.375650  1.0  -0.8456
  O  O74  1  0.378200  0.114100  0.525000  1.0  -0.7823
  O  O75  1  0.059500  0.131800  0.702130  1.0  -0.773
  O  O76  1  0.266000  0.777900  0.105900  1.0  -0.7654
  O  O77  1  0.978800  0.909200  0.746500  1.0  -0.8361
  O  O78  1  0.199700  0.006500  0.165700  1.0  -0.8344
  O  O79  1  0.054200  0.061800  0.875650  1.0  -0.8461
  O  O80  1  0.121800  0.885900  0.025000  1.0  -0.782
  O  O81  1  0.559500  0.368200  0.297870  1.0  -0.7726
  O  O82  1  0.766000  0.722100  0.894100  1.0  -0.7643
  O  O83  1  0.478800  0.590800  0.253500  1.0  -0.8342
  O  O84  1  0.699700  0.493500  0.834300  1.0  -0.8342
  O  O85  1  0.554200  0.438200  0.124350  1.0  -0.8469
  O  O86  1  0.621800  0.614100  0.975000  1.0  -0.7815
  O  O87  1  0.940500  0.631800  0.797870  1.0  -0.7723
  O  O88  1  0.734000  0.277900  0.394100  1.0  -0.7636
  O  O89  1  0.021200  0.409200  0.753500  1.0  -0.834
  O  O90  1  0.800300  0.506500  0.334300  1.0  -0.8345
  O  O91  1  0.945800  0.561800  0.624350  1.0  -0.8467
  O  O92  1  0.878200  0.385900  0.475000  1.0  -0.7824
  F  F93  1  0.442240  0.845500  0.561400  1.0  -0.5348
  F  F94  1  0.057760  0.154500  0.061400  1.0  -0.5355
  F  F95  1  0.557760  0.345500  0.938600  1.0  -0.5359
  F  F96  1  0.942240  0.654500  0.438600  1.0  -0.5354
  F  F97  1  0.557760  0.154500  0.438600  1.0  -0.5354
  F  F98  1  0.942240  0.845500  0.938600  1.0  -0.5359
  F  F99  1  0.442240  0.654500  0.061400  1.0  -0.5356
  F  F100  1  0.057760  0.345500  0.561400  1.0  -0.5347
