# generated using pymatgen
data_ZnH21C27N7
_symmetry_space_group_name_H-M   'P 1'
_cell_length_a   28.40950000
_cell_length_b   28.09220000
_cell_length_c   9.47430000
_cell_angle_alpha   90.00000000
_cell_angle_beta   90.00000000
_cell_angle_gamma   90.00000000
_symmetry_Int_Tables_number   1
_chemical_formula_structural   ZnH21C27N7
_chemical_formula_sum   'Zn8 H168 C216 N56'
_cell_volume   7561.30008740
_cell_formula_units_Z   8
loop_
 _symmetry_equiv_pos_site_id
 _symmetry_equiv_pos_as_xyz
  1  'x, y, z'
loop_
 _atom_site_type_symbol
 _atom_site_label
 _atom_site_symmetry_multiplicity
 _atom_site_fract_x
 _atom_site_fract_y
 _atom_site_fract_z
 _atom_site_occupancy
 _atom_site_charge
  Zn  Zn1  1  0.131550  0.511180  0.904570  1.0  0.3297
  Zn  Zn2  1  0.368450  0.011180  0.595430  1.0  0.33
  Zn  Zn3  1  0.631550  0.511180  0.095430  1.0  0.33
  Zn  Zn4  1  0.868450  0.011180  0.404570  1.0  0.3288
  Zn  Zn5  1  0.368450  0.488820  0.904570  1.0  0.329
  Zn  Zn6  1  0.131550  0.988820  0.595430  1.0  0.3298
  Zn  Zn7  1  0.868450  0.488820  0.095430  1.0  0.3297
  Zn  Zn8  1  0.631550  0.988820  0.404570  1.0  0.33
  H  H9  1  0.347100  0.115700  0.514200  1.0  0.0963
  H  H10  1  0.442800  0.300600  0.504300  1.0  0.0917
  H  H11  1  0.450000  0.160700  0.762500  1.0  0.1207
  H  H12  1  0.426500  0.302600  0.224300  1.0  0.0897
  H  H13  1  0.487100  0.338000  0.102200  1.0  0.1027
  H  H14  1  0.267800  0.390500  0.731900  1.0  0.1031
  H  H15  1  0.318500  0.195100  0.527200  1.0  0.1176
  H  H16  1  0.453700  0.225100  0.598200  1.0  0.1057
  H  H17  1  0.536100  0.475700  0.228900  1.0  0.0853
  H  H18  1  0.389000  0.429600  0.379900  1.0  0.0848
  H  H19  1  0.308300  0.269900  0.429500  1.0  0.1071
  H  H20  1  0.448600  0.465100  0.252300  1.0  0.0996
  H  H21  1  0.442400  0.074000  0.787500  1.0  0.0986
  H  H22  1  0.333900  0.349200  0.654200  1.0  0.093
  H  H23  1  0.221900  0.454000  0.800200  1.0  0.0839
  H  H24  1  0.586500  0.442300  0.858600  1.0  0.091
  H  H25  1  0.241800  0.432600  0.338800  1.0  0.1071
  H  H26  1  0.517500  0.391900  0.903400  1.0  0.1069
  H  H27  1  0.304400  0.388800  0.258200  1.0  0.0954
  H  H28  1  0.115300  0.497200  0.582600  1.0  0.0757
  H  H29  1  0.167400  0.452500  0.415500  1.0  0.1174
  H  H30  1  0.152900  0.615700  0.985800  1.0  0.0967
  H  H31  1  0.057200  0.800600  0.995700  1.0  0.0915
  H  H32  1  0.050000  0.660700  0.737500  1.0  0.1207
  H  H33  1  0.073500  0.802600  0.275700  1.0  0.0888
  H  H34  1  0.012900  0.838000  0.397800  1.0  0.1021
  H  H35  1  0.232200  0.890500  0.768100  1.0  0.1037
  H  H36  1  0.181500  0.695100  0.972800  1.0  0.1182
  H  H37  1  0.046300  0.725100  0.901800  1.0  0.105
  H  H38  1  0.963900  0.975700  0.271100  1.0  0.0857
  H  H39  1  0.111000  0.929600  0.120100  1.0  0.085
  H  H40  1  0.191700  0.769900  0.070500  1.0  0.1067
  H  H41  1  0.051400  0.965100  0.247700  1.0  0.0996
  H  H42  1  0.057600  0.574000  0.712500  1.0  0.0988
  H  H43  1  0.166100  0.849200  0.845800  1.0  0.0929
  H  H44  1  0.278100  0.954000  0.699800  1.0  0.083
  H  H45  1  0.913500  0.942300  0.641400  1.0  0.0917
  H  H46  1  0.258200  0.932600  0.161200  1.0  0.1081
  H  H47  1  0.982500  0.891900  0.596600  1.0  0.1071
  H  H48  1  0.195600  0.888800  0.241800  1.0  0.0954
  H  H49  1  0.384700  0.997200  0.917400  1.0  0.0762
  H  H50  1  0.332600  0.952500  0.084500  1.0  0.116
  H  H51  1  0.847100  0.115700  0.485800  1.0  0.0969
  H  H52  1  0.942800  0.300600  0.495700  1.0  0.092
  H  H53  1  0.950000  0.160700  0.237500  1.0  0.121
  H  H54  1  0.926500  0.302600  0.775700  1.0  0.0894
  H  H55  1  0.987100  0.338000  0.897800  1.0  0.1031
  H  H56  1  0.767800  0.390500  0.268100  1.0  0.1036
  H  H57  1  0.818500  0.195100  0.472800  1.0  0.1177
  H  H58  1  0.953700  0.225100  0.401800  1.0  0.1054
  H  H59  1  0.036100  0.475700  0.771100  1.0  0.0855
  H  H60  1  0.889000  0.429600  0.620100  1.0  0.085
  H  H61  1  0.808300  0.269900  0.570500  1.0  0.1074
  H  H62  1  0.948600  0.465100  0.747700  1.0  0.0997
  H  H63  1  0.942400  0.074000  0.212500  1.0  0.0991
  H  H64  1  0.833900  0.349200  0.345800  1.0  0.0922
  H  H65  1  0.721900  0.454000  0.199800  1.0  0.0833
  H  H66  1  0.086500  0.442300  0.141400  1.0  0.0911
  H  H67  1  0.741800  0.432600  0.661200  1.0  0.1083
  H  H68  1  0.017500  0.391900  0.096600  1.0  0.1066
  H  H69  1  0.804400  0.388800  0.741800  1.0  0.0965
  H  H70  1  0.615300  0.497200  0.417400  1.0  0.0759
  H  H71  1  0.667400  0.452500  0.584500  1.0  0.1164
  H  H72  1  0.652900  0.615700  0.014200  1.0  0.096
  H  H73  1  0.557200  0.800600  0.004300  1.0  0.0913
  H  H74  1  0.550000  0.660700  0.262500  1.0  0.1207
  H  H75  1  0.573500  0.802600  0.724300  1.0  0.089
  H  H76  1  0.512900  0.838000  0.602200  1.0  0.1021
  H  H77  1  0.732200  0.890500  0.231900  1.0  0.1029
  H  H78  1  0.681500  0.695100  0.027200  1.0  0.1182
  H  H79  1  0.546300  0.725100  0.098200  1.0  0.1041
  H  H80  1  0.463900  0.975700  0.728900  1.0  0.0858
  H  H81  1  0.611000  0.929600  0.879900  1.0  0.0849
  H  H82  1  0.691700  0.769900  0.929500  1.0  0.1069
  H  H83  1  0.551400  0.965100  0.752300  1.0  0.0993
  H  H84  1  0.557600  0.574000  0.287500  1.0  0.0989
  H  H85  1  0.666100  0.849200  0.154200  1.0  0.0931
  H  H86  1  0.778100  0.954000  0.300200  1.0  0.0833
  H  H87  1  0.413500  0.942300  0.358600  1.0  0.0913
  H  H88  1  0.758200  0.932600  0.838800  1.0  0.1074
  H  H89  1  0.482500  0.891900  0.403400  1.0  0.1069
  H  H90  1  0.695600  0.888800  0.758200  1.0  0.096
  H  H91  1  0.884700  0.997200  0.082600  1.0  0.0755
  H  H92  1  0.832600  0.952500  0.915500  1.0  0.1176
  H  H93  1  0.152900  0.884300  0.514200  1.0  0.0963
  H  H94  1  0.057200  0.699400  0.504300  1.0  0.0912
  H  H95  1  0.050000  0.839300  0.762500  1.0  0.1206
  H  H96  1  0.073500  0.697400  0.224300  1.0  0.0895
  H  H97  1  0.012900  0.662000  0.102200  1.0  0.104
  H  H98  1  0.232200  0.609500  0.731900  1.0  0.1029
  H  H99  1  0.181500  0.804900  0.527200  1.0  0.1182
  H  H100  1  0.046300  0.774900  0.598200  1.0  0.1035
  H  H101  1  0.963900  0.524300  0.228900  1.0  0.0882
  H  H102  1  0.111000  0.570400  0.379900  1.0  0.0854
  H  H103  1  0.191700  0.730100  0.429500  1.0  0.1073
  H  H104  1  0.051400  0.534900  0.252300  1.0  0.0999
  H  H105  1  0.057600  0.926000  0.787500  1.0  0.0988
  H  H106  1  0.166100  0.650800  0.654200  1.0  0.0933
  H  H107  1  0.278100  0.546000  0.800200  1.0  0.0834
  H  H108  1  0.913500  0.557700  0.858600  1.0  0.0901
  H  H109  1  0.258200  0.567400  0.338800  1.0  0.1074
  H  H110  1  0.982500  0.608100  0.903400  1.0  0.1071
  H  H111  1  0.195600  0.611200  0.258200  1.0  0.0956
  H  H112  1  0.384700  0.502800  0.582600  1.0  0.0756
  H  H113  1  0.332600  0.547500  0.415500  1.0  0.1172
  H  H114  1  0.347100  0.384300  0.985800  1.0  0.0967
  H  H115  1  0.442800  0.199400  0.995700  1.0  0.0923
  H  H116  1  0.450000  0.339300  0.737500  1.0  0.121
  H  H117  1  0.426500  0.197400  0.275700  1.0  0.0892
  H  H118  1  0.487100  0.162000  0.397800  1.0  0.1039
  H  H119  1  0.267800  0.109500  0.768100  1.0  0.1036
  H  H120  1  0.318500  0.304900  0.972800  1.0  0.1177
  H  H121  1  0.453700  0.274900  0.901800  1.0  0.1055
  H  H122  1  0.536100  0.024300  0.271100  1.0  0.088
  H  H123  1  0.389000  0.070400  0.120100  1.0  0.0851
  H  H124  1  0.308300  0.230100  0.070500  1.0  0.1073
  H  H125  1  0.448600  0.034900  0.247700  1.0  0.0998
  H  H126  1  0.442400  0.426000  0.712500  1.0  0.0996
  H  H127  1  0.333900  0.150800  0.845800  1.0  0.0924
  H  H128  1  0.221900  0.046000  0.699800  1.0  0.0832
  H  H129  1  0.586500  0.057700  0.641400  1.0  0.089
  H  H130  1  0.241800  0.067400  0.161200  1.0  0.1084
  H  H131  1  0.517500  0.108100  0.596600  1.0  0.1062
  H  H132  1  0.304400  0.111200  0.241800  1.0  0.0957
  H  H133  1  0.115300  0.002800  0.917400  1.0  0.0764
  H  H134  1  0.167400  0.047500  0.084500  1.0  0.116
  H  H135  1  0.652900  0.884300  0.485800  1.0  0.0964
  H  H136  1  0.557200  0.699400  0.495700  1.0  0.0913
  H  H137  1  0.550000  0.839300  0.237500  1.0  0.1206
  H  H138  1  0.573500  0.697400  0.775700  1.0  0.0896
  H  H139  1  0.512900  0.662000  0.897800  1.0  0.104
  H  H140  1  0.732200  0.609500  0.268100  1.0  0.1038
  H  H141  1  0.681500  0.804900  0.472800  1.0  0.1182
  H  H142  1  0.546300  0.774900  0.401800  1.0  0.1039
  H  H143  1  0.463900  0.524300  0.771100  1.0  0.0879
  H  H144  1  0.611000  0.570400  0.620100  1.0  0.0853
  H  H145  1  0.691700  0.730100  0.570500  1.0  0.1068
  H  H146  1  0.551400  0.534900  0.747700  1.0  0.0999
  H  H147  1  0.557600  0.926000  0.212500  1.0  0.0991
  H  H148  1  0.666100  0.650800  0.345800  1.0  0.0933
  H  H149  1  0.778100  0.546000  0.199800  1.0  0.0833
  H  H150  1  0.413500  0.557700  0.141400  1.0  0.0907
  H  H151  1  0.758200  0.567400  0.661200  1.0  0.1083
  H  H152  1  0.482500  0.608100  0.096600  1.0  0.1068
  H  H153  1  0.695600  0.611200  0.741800  1.0  0.0955
  H  H154  1  0.884700  0.502800  0.417400  1.0  0.0756
  H  H155  1  0.832600  0.547500  0.584500  1.0  0.1159
  H  H156  1  0.847100  0.384300  0.014200  1.0  0.0967
  H  H157  1  0.942800  0.199400  0.004300  1.0  0.0923
  H  H158  1  0.950000  0.339300  0.262500  1.0  0.1209
  H  H159  1  0.926500  0.197400  0.724300  1.0  0.0894
  H  H160  1  0.987100  0.162000  0.602200  1.0  0.1038
  H  H161  1  0.767800  0.109500  0.231900  1.0  0.103
  H  H162  1  0.818500  0.304900  0.027200  1.0  0.1177
  H  H163  1  0.953700  0.274900  0.098200  1.0  0.1066
  H  H164  1  0.036100  0.024300  0.728900  1.0  0.0883
  H  H165  1  0.889000  0.070400  0.879900  1.0  0.0852
  H  H166  1  0.808300  0.230100  0.929500  1.0  0.1074
  H  H167  1  0.948600  0.034900  0.752300  1.0  0.0999
  H  H168  1  0.942400  0.426000  0.287500  1.0  0.0987
  H  H169  1  0.833900  0.150800  0.154200  1.0  0.0926
  H  H170  1  0.721900  0.046000  0.300200  1.0  0.0835
  H  H171  1  0.086500  0.057700  0.358600  1.0  0.0895
  H  H172  1  0.741800  0.067400  0.838800  1.0  0.107
  H  H173  1  0.017500  0.108100  0.403400  1.0  0.1068
  H  H174  1  0.804400  0.111200  0.758200  1.0  0.095
  H  H175  1  0.615300  0.002800  0.082600  1.0  0.0761
  H  H176  1  0.667400  0.047500  0.915500  1.0  0.117
  C  C177  1  0.401950  0.361600  0.318900  1.0  0.1458
  C  C178  1  0.371680  0.116060  0.578900  1.0  0.1387
  C  C179  1  0.417650  0.279430  0.507800  1.0  -0.1577
  C  C180  1  0.249950  0.416780  0.542800  1.0  0.0998
  C  C181  1  0.374350  0.293120  0.456900  1.0  0.1348
  C  C182  1  0.386900  0.203020  0.570300  1.0  0.1217
  C  C183  1  0.428520  0.141290  0.716200  1.0  -0.1545
  C  C184  1  0.474080  0.405280  0.165900  1.0  0.1241
  C  C185  1  0.431250  0.335210  0.232400  1.0  -0.1931
  C  C186  1  0.467310  0.356470  0.157900  1.0  -0.1842
  C  C187  1  0.327100  0.366000  0.448000  1.0  0.1569
  C  C188  1  0.276180  0.391160  0.637000  1.0  -0.1595
  C  C189  1  0.343710  0.216090  0.521700  1.0  -0.1956
  C  C190  1  0.424280  0.234210  0.564500  1.0  -0.179
  C  C191  1  0.540680  0.460760  0.142500  1.0  0.1434
  C  C192  1  0.408770  0.410970  0.324400  1.0  -0.1932
  C  C193  1  0.337660  0.261120  0.464000  1.0  -0.1015
  C  C194  1  0.444560  0.432320  0.248000  1.0  -0.185
  C  C195  1  0.424220  0.093290  0.729100  1.0  0.0115
  C  C196  1  0.315460  0.366010  0.590100  1.0  -0.1167
  C  C197  1  0.201790  0.459280  0.724400  1.0  0.1451
  C  C198  1  0.568130  0.442600  0.939800  1.0  -0.0293
  C  C199  1  0.260410  0.415700  0.402400  1.0  -0.1842
  C  C200  1  0.529860  0.414700  0.964000  1.0  -0.1609
  C  C201  1  0.298100  0.390100  0.354500  1.0  -0.1382
  C  C202  1  0.143700  0.482800  0.606200  1.0  0.0224
  C  C203  1  0.172400  0.458000  0.511200  1.0  -0.1344
  C  C204  1  0.098050  0.861600  0.181100  1.0  0.1458
  C  C205  1  0.128320  0.616060  0.921100  1.0  0.139
  C  C206  1  0.082350  0.779430  0.992200  1.0  -0.1584
  C  C207  1  0.250050  0.916780  0.957200  1.0  0.1006
  C  C208  1  0.125650  0.793120  0.043100  1.0  0.1352
  C  C209  1  0.113100  0.703020  0.929700  1.0  0.1217
  C  C210  1  0.071480  0.641290  0.783800  1.0  -0.1602
  C  C211  1  0.025920  0.905280  0.334100  1.0  0.1228
  C  C212  1  0.068750  0.835210  0.267600  1.0  -0.1927
  C  C213  1  0.032690  0.856470  0.342100  1.0  -0.1885
  C  C214  1  0.172900  0.866000  0.052000  1.0  0.1583
  C  C215  1  0.223820  0.891160  0.863000  1.0  -0.1575
  C  C216  1  0.156290  0.716090  0.978300  1.0  -0.1985
  C  C217  1  0.075720  0.734210  0.935500  1.0  -0.1779
  C  C218  1  0.959320  0.960760  0.357500  1.0  0.1436
  C  C219  1  0.091230  0.910970  0.175600  1.0  -0.194
  C  C220  1  0.162340  0.761120  0.036000  1.0  -0.1026
  C  C221  1  0.055440  0.932320  0.252000  1.0  -0.1839
  C  C222  1  0.075780  0.593290  0.770900  1.0  0.0103
  C  C223  1  0.184540  0.866010  0.909900  1.0  -0.1171
  C  C224  1  0.298210  0.959280  0.775600  1.0  0.1468
  C  C225  1  0.931870  0.942600  0.560200  1.0  -0.0303
  C  C226  1  0.239590  0.915700  0.097600  1.0  -0.1852
  C  C227  1  0.970140  0.914700  0.536000  1.0  -0.1631
  C  C228  1  0.201900  0.890100  0.145500  1.0  -0.1389
  C  C229  1  0.356300  0.982800  0.893800  1.0  0.0246
  C  C230  1  0.327600  0.958000  0.988800  1.0  -0.1402
  C  C231  1  0.901950  0.361600  0.681100  1.0  0.1459
  C  C232  1  0.871680  0.116060  0.421100  1.0  0.1386
  C  C233  1  0.917650  0.279430  0.492200  1.0  -0.1579
  C  C234  1  0.749950  0.416780  0.457200  1.0  0.1
  C  C235  1  0.874350  0.293120  0.543100  1.0  0.1349
  C  C236  1  0.886900  0.203020  0.429700  1.0  0.1219
  C  C237  1  0.928520  0.141290  0.283800  1.0  -0.1545
  C  C238  1  0.974080  0.405280  0.834100  1.0  0.1244
  C  C239  1  0.931250  0.335210  0.767600  1.0  -0.1927
  C  C240  1  0.967310  0.356470  0.842100  1.0  -0.1862
  C  C241  1  0.827100  0.366000  0.552000  1.0  0.1571
  C  C242  1  0.776180  0.391160  0.363000  1.0  -0.1573
  C  C243  1  0.843710  0.216090  0.478300  1.0  -0.2008
  C  C244  1  0.924280  0.234210  0.435500  1.0  -0.1793
  C  C245  1  0.040680  0.460760  0.857500  1.0  0.1435
  C  C246  1  0.908770  0.410970  0.675600  1.0  -0.1928
  C  C247  1  0.837660  0.261120  0.536000  1.0  -0.1013
  C  C248  1  0.944560  0.432320  0.752000  1.0  -0.184
  C  C249  1  0.924220  0.093290  0.270900  1.0  0.0105
  C  C250  1  0.815460  0.366010  0.409900  1.0  -0.1178
  C  C251  1  0.701790  0.459280  0.275600  1.0  0.1474
  C  C252  1  0.068130  0.442600  0.060200  1.0  -0.0297
  C  C253  1  0.760410  0.415700  0.597600  1.0  -0.1852
  C  C254  1  0.029860  0.414700  0.036000  1.0  -0.1613
  C  C255  1  0.798100  0.390100  0.645500  1.0  -0.1383
  C  C256  1  0.643700  0.482800  0.393800  1.0  0.0267
  C  C257  1  0.672400  0.458000  0.488800  1.0  -0.1386
  C  C258  1  0.598050  0.861600  0.818900  1.0  0.1457
  C  C259  1  0.628320  0.616060  0.078900  1.0  0.1391
  C  C260  1  0.582350  0.779430  0.007800  1.0  -0.1582
  C  C261  1  0.750050  0.916780  0.042800  1.0  0.0999
  C  C262  1  0.625650  0.793120  0.956900  1.0  0.1353
  C  C263  1  0.613100  0.703020  0.070300  1.0  0.1215
  C  C264  1  0.571480  0.641290  0.216200  1.0  -0.1571
  C  C265  1  0.525920  0.905280  0.665900  1.0  0.1229
  C  C266  1  0.568750  0.835210  0.732400  1.0  -0.1926
  C  C267  1  0.532690  0.856470  0.657900  1.0  -0.1896
  C  C268  1  0.672900  0.866000  0.948000  1.0  0.158
  C  C269  1  0.723820  0.891160  0.137000  1.0  -0.1583
  C  C270  1  0.656290  0.716090  0.021700  1.0  -0.1932
  C  C271  1  0.575720  0.734210  0.064500  1.0  -0.1769
  C  C272  1  0.459320  0.960760  0.642500  1.0  0.1438
  C  C273  1  0.591230  0.910970  0.824400  1.0  -0.1939
  C  C274  1  0.662340  0.761120  0.964000  1.0  -0.1026
  C  C275  1  0.555440  0.932320  0.748000  1.0  -0.1848
  C  C276  1  0.575780  0.593290  0.229100  1.0  0.0109
  C  C277  1  0.684540  0.866010  0.090100  1.0  -0.1216
  C  C278  1  0.798210  0.959280  0.224400  1.0  0.1444
  C  C279  1  0.431870  0.942600  0.439800  1.0  -0.0303
  C  C280  1  0.739590  0.915700  0.902400  1.0  -0.1818
  C  C281  1  0.470140  0.914700  0.464000  1.0  -0.1632
  C  C282  1  0.701900  0.890100  0.854500  1.0  -0.139
  C  C283  1  0.856300  0.982800  0.106200  1.0  0.0247
  C  C284  1  0.827600  0.958000  0.011200  1.0  -0.1347
  C  C285  1  0.098050  0.638400  0.318900  1.0  0.1457
  C  C286  1  0.128320  0.883940  0.578900  1.0  0.1399
  C  C287  1  0.082350  0.720570  0.507800  1.0  -0.1586
  C  C288  1  0.250050  0.583220  0.542800  1.0  0.1004
  C  C289  1  0.125650  0.706880  0.456900  1.0  0.1353
  C  C290  1  0.113100  0.796980  0.570300  1.0  0.1212
  C  C291  1  0.071480  0.858710  0.716200  1.0  -0.1574
  C  C292  1  0.025920  0.594720  0.165900  1.0  0.1228
  C  C293  1  0.068750  0.664790  0.232400  1.0  -0.1924
  C  C294  1  0.032690  0.643530  0.157900  1.0  -0.1858
  C  C295  1  0.172900  0.634000  0.448000  1.0  0.1581
  C  C296  1  0.223820  0.608840  0.637000  1.0  -0.1577
  C  C297  1  0.156290  0.783910  0.521700  1.0  -0.193
  C  C298  1  0.075720  0.765790  0.564500  1.0  -0.1772
  C  C299  1  0.959320  0.539240  0.142500  1.0  0.1431
  C  C300  1  0.091230  0.589030  0.324400  1.0  -0.1949
  C  C301  1  0.162340  0.738880  0.464000  1.0  -0.102
  C  C302  1  0.055440  0.567680  0.248000  1.0  -0.1855
  C  C303  1  0.075780  0.906710  0.729100  1.0  0.0106
  C  C304  1  0.184540  0.633990  0.590100  1.0  -0.1162
  C  C305  1  0.298210  0.540720  0.724400  1.0  0.1452
  C  C306  1  0.931870  0.557400  0.939800  1.0  -0.0304
  C  C307  1  0.239590  0.584300  0.402400  1.0  -0.1832
  C  C308  1  0.970140  0.585300  0.964000  1.0  -0.1636
  C  C309  1  0.201900  0.609900  0.354500  1.0  -0.1384
  C  C310  1  0.356300  0.517200  0.606200  1.0  0.0241
  C  C311  1  0.327600  0.542000  0.511200  1.0  -0.1354
  C  C312  1  0.401950  0.138400  0.181100  1.0  0.1459
  C  C313  1  0.371680  0.383940  0.921100  1.0  0.1389
  C  C314  1  0.417650  0.220570  0.992200  1.0  -0.1584
  C  C315  1  0.249950  0.083220  0.957200  1.0  0.0996
  C  C316  1  0.374350  0.206880  0.043100  1.0  0.1348
  C  C317  1  0.386900  0.296980  0.929700  1.0  0.1217
  C  C318  1  0.428520  0.358710  0.783800  1.0  -0.1547
  C  C319  1  0.474080  0.094720  0.334100  1.0  0.1241
  C  C320  1  0.431250  0.164790  0.267600  1.0  -0.1937
  C  C321  1  0.467310  0.143530  0.342100  1.0  -0.1834
  C  C322  1  0.327100  0.134000  0.052000  1.0  0.1572
  C  C323  1  0.276180  0.108840  0.863000  1.0  -0.1582
  C  C324  1  0.343710  0.283910  0.978300  1.0  -0.1949
  C  C325  1  0.424280  0.265790  0.935500  1.0  -0.1785
  C  C326  1  0.540680  0.039240  0.357500  1.0  0.1428
  C  C327  1  0.408770  0.089030  0.175600  1.0  -0.1933
  C  C328  1  0.337660  0.238880  0.036000  1.0  -0.1005
  C  C329  1  0.444560  0.067680  0.252000  1.0  -0.1865
  C  C330  1  0.424220  0.406710  0.770900  1.0  0.0107
  C  C331  1  0.315460  0.133990  0.909900  1.0  -0.1172
  C  C332  1  0.201790  0.040720  0.775600  1.0  0.1483
  C  C333  1  0.568130  0.057400  0.560200  1.0  -0.0336
  C  C334  1  0.260410  0.084300  0.097600  1.0  -0.1856
  C  C335  1  0.529860  0.085300  0.536000  1.0  -0.1615
  C  C336  1  0.298100  0.109900  0.145500  1.0  -0.1389
  C  C337  1  0.143700  0.017200  0.893800  1.0  0.0241
  C  C338  1  0.172400  0.042000  0.988800  1.0  -0.1365
  C  C339  1  0.598050  0.638400  0.681100  1.0  0.1457
  C  C340  1  0.628320  0.883940  0.421100  1.0  0.1394
  C  C341  1  0.582350  0.720570  0.492200  1.0  -0.1588
  C  C342  1  0.750050  0.583220  0.457200  1.0  0.1009
  C  C343  1  0.625650  0.706880  0.543100  1.0  0.1353
  C  C344  1  0.613100  0.796980  0.429700  1.0  0.1215
  C  C345  1  0.571480  0.858710  0.283800  1.0  -0.1557
  C  C346  1  0.525920  0.594720  0.834100  1.0  0.1227
  C  C347  1  0.568750  0.664790  0.767600  1.0  -0.1928
  C  C348  1  0.532690  0.643530  0.842100  1.0  -0.1855
  C  C349  1  0.672900  0.634000  0.552000  1.0  0.1583
  C  C350  1  0.723820  0.608840  0.363000  1.0  -0.1583
  C  C351  1  0.656290  0.783910  0.478300  1.0  -0.1932
  C  C352  1  0.575720  0.765790  0.435500  1.0  -0.178
  C  C353  1  0.459320  0.539240  0.857500  1.0  0.1426
  C  C354  1  0.591230  0.589030  0.675600  1.0  -0.1947
  C  C355  1  0.662340  0.738880  0.536000  1.0  -0.1017
  C  C356  1  0.555440  0.567680  0.752000  1.0  -0.1877
  C  C357  1  0.575780  0.906710  0.270900  1.0  0.0104
  C  C358  1  0.684540  0.633990  0.409900  1.0  -0.1166
  C  C359  1  0.798210  0.540720  0.275600  1.0  0.1475
  C  C360  1  0.431870  0.557400  0.060200  1.0  -0.0302
  C  C361  1  0.739590  0.584300  0.597600  1.0  -0.1872
  C  C362  1  0.470140  0.585300  0.036000  1.0  -0.1638
  C  C363  1  0.701900  0.609900  0.645500  1.0  -0.139
  C  C364  1  0.856300  0.517200  0.393800  1.0  0.0235
  C  C365  1  0.827600  0.542000  0.488800  1.0  -0.137
  C  C366  1  0.901950  0.138400  0.818900  1.0  0.1458
  C  C367  1  0.871680  0.383940  0.078900  1.0  0.1396
  C  C368  1  0.917650  0.220570  0.007800  1.0  -0.1582
  C  C369  1  0.749950  0.083220  0.042800  1.0  0.0996
  C  C370  1  0.874350  0.206880  0.956900  1.0  0.1347
  C  C371  1  0.886900  0.296980  0.070300  1.0  0.1214
  C  C372  1  0.928520  0.358710  0.216200  1.0  -0.1548
  C  C373  1  0.974080  0.094720  0.665900  1.0  0.124
  C  C374  1  0.931250  0.164790  0.732400  1.0  -0.1938
  C  C375  1  0.967310  0.143530  0.657900  1.0  -0.1842
  C  C376  1  0.827100  0.134000  0.948000  1.0  0.157
  C  C377  1  0.776180  0.108840  0.137000  1.0  -0.1593
  C  C378  1  0.843710  0.283910  0.021700  1.0  -0.1962
  C  C379  1  0.924280  0.265790  0.064500  1.0  -0.179
  C  C380  1  0.040680  0.039240  0.642500  1.0  0.1431
  C  C381  1  0.908770  0.089030  0.824400  1.0  -0.1935
  C  C382  1  0.837660  0.238880  0.964000  1.0  -0.101
  C  C383  1  0.944560  0.067680  0.748000  1.0  -0.1855
  C  C384  1  0.924220  0.406710  0.229100  1.0  0.0114
  C  C385  1  0.815460  0.133990  0.090100  1.0  -0.117
  C  C386  1  0.701790  0.040720  0.224400  1.0  0.1461
  C  C387  1  0.068130  0.057400  0.439800  1.0  -0.029
  C  C388  1  0.760410  0.084300  0.902400  1.0  -0.1847
  C  C389  1  0.029860  0.085300  0.464000  1.0  -0.1607
  C  C390  1  0.798100  0.109900  0.854500  1.0  -0.1382
  C  C391  1  0.643700  0.017200  0.106200  1.0  0.0247
  C  C392  1  0.672400  0.042000  0.011200  1.0  -0.1336
  N  N393  1  0.367460  0.339490  0.400600  1.0  -0.1904
  N  N394  1  0.388980  0.078020  0.642500  1.0  -0.3592
  N  N395  1  0.513270  0.426570  0.092700  1.0  0.0411
  N  N396  1  0.575080  0.471000  0.055000  1.0  -0.381
  N  N397  1  0.394790  0.155320  0.621300  1.0  0.0311
  N  N398  1  0.209720  0.443560  0.592500  1.0  0.0213
  N  N399  1  0.162260  0.482940  0.733200  1.0  -0.3372
  N  N400  1  0.132540  0.839490  0.099400  1.0  -0.1901
  N  N401  1  0.111020  0.578020  0.857500  1.0  -0.3588
  N  N402  1  0.986730  0.926570  0.407300  1.0  0.0397
  N  N403  1  0.924920  0.971000  0.445000  1.0  -0.3829
  N  N404  1  0.105210  0.655320  0.878700  1.0  0.0309
  N  N405  1  0.290280  0.943560  0.907500  1.0  0.0217
  N  N406  1  0.337740  0.982940  0.766800  1.0  -0.3351
  N  N407  1  0.867460  0.339490  0.599400  1.0  -0.1906
  N  N408  1  0.888980  0.078020  0.357500  1.0  -0.3596
  N  N409  1  0.013270  0.426570  0.907300  1.0  0.0412
  N  N410  1  0.075080  0.471000  0.945000  1.0  -0.3811
  N  N411  1  0.894790  0.155320  0.378700  1.0  0.031
  N  N412  1  0.709720  0.443560  0.407500  1.0  0.0213
  N  N413  1  0.662260  0.482940  0.266800  1.0  -0.336
  N  N414  1  0.632540  0.839490  0.900600  1.0  -0.1899
  N  N415  1  0.611020  0.578020  0.142500  1.0  -0.3583
  N  N416  1  0.486730  0.926570  0.592700  1.0  0.0399
  N  N417  1  0.424920  0.971000  0.555000  1.0  -0.3827
  N  N418  1  0.605210  0.655320  0.121300  1.0  0.0309
  N  N419  1  0.790280  0.943560  0.092500  1.0  0.0215
  N  N420  1  0.837740  0.982940  0.233200  1.0  -0.3349
  N  N421  1  0.132540  0.660510  0.400600  1.0  -0.19
  N  N422  1  0.111020  0.921980  0.642500  1.0  -0.3602
  N  N423  1  0.986730  0.573430  0.092700  1.0  0.0394
  N  N424  1  0.924920  0.529000  0.055000  1.0  -0.3847
  N  N425  1  0.105210  0.844680  0.621300  1.0  0.0304
  N  N426  1  0.290280  0.556440  0.592500  1.0  0.0206
  N  N427  1  0.337740  0.517060  0.733200  1.0  -0.3348
  N  N428  1  0.367460  0.160510  0.099400  1.0  -0.1907
  N  N429  1  0.388980  0.421980  0.857500  1.0  -0.361
  N  N430  1  0.513270  0.073430  0.407300  1.0  0.0413
  N  N431  1  0.575080  0.029000  0.445000  1.0  -0.3813
  N  N432  1  0.394790  0.344680  0.878700  1.0  0.0304
  N  N433  1  0.209720  0.056440  0.907500  1.0  0.0207
  N  N434  1  0.162260  0.017060  0.766800  1.0  -0.3368
  N  N435  1  0.632540  0.660510  0.599400  1.0  -0.1902
  N  N436  1  0.611020  0.921980  0.357500  1.0  -0.3608
  N  N437  1  0.486730  0.573430  0.907300  1.0  0.04
  N  N438  1  0.424920  0.529000  0.945000  1.0  -0.385
  N  N439  1  0.605210  0.844680  0.378700  1.0  0.0303
  N  N440  1  0.790280  0.556440  0.407500  1.0  0.021
  N  N441  1  0.837740  0.517060  0.266800  1.0  -0.3359
  N  N442  1  0.867460  0.160510  0.900600  1.0  -0.1905
  N  N443  1  0.888980  0.421980  0.142500  1.0  -0.3605
  N  N444  1  0.013270  0.073430  0.592700  1.0  0.0405
  N  N445  1  0.075080  0.029000  0.555000  1.0  -0.381
  N  N446  1  0.894790  0.344680  0.121300  1.0  0.0305
  N  N447  1  0.709720  0.056440  0.092500  1.0  0.0206
  N  N448  1  0.662260  0.017060  0.233200  1.0  -0.3366
