# generated using pymatgen
data_Mn2PH2(CO3)4
_symmetry_space_group_name_H-M   'P 1'
_cell_length_a   11.65990000
_cell_length_b   10.93360000
_cell_length_c   11.76690000
_cell_angle_alpha   90.00000000
_cell_angle_beta   90.00000000
_cell_angle_gamma   90.00000000
_symmetry_Int_Tables_number   1
_chemical_formula_structural   Mn2PH2(CO3)4
_chemical_formula_sum   'Mn8 P4 H8 C16 O48'
_cell_volume   1500.09951216
_cell_formula_units_Z   4
loop_
 _symmetry_equiv_pos_site_id
 _symmetry_equiv_pos_as_xyz
  1  'x, y, z'
loop_
 _atom_site_type_symbol
 _atom_site_label
 _atom_site_symmetry_multiplicity
 _atom_site_fract_x
 _atom_site_fract_y
 _atom_site_fract_z
 _atom_site_occupancy
 _atom_site_charge
  Mn  Mn1  1  0.282340  0.272140  0.313550  1.0  1.1243
  Mn  Mn2  1  0.317840  0.740350  0.098300  1.0  1.1194
  Mn  Mn3  1  0.717660  0.727860  0.813550  1.0  1.1239
  Mn  Mn4  1  0.682160  0.259650  0.598300  1.0  1.12
  Mn  Mn5  1  0.782340  0.227860  0.313550  1.0  1.1247
  Mn  Mn6  1  0.817840  0.759650  0.098300  1.0  1.1197
  Mn  Mn7  1  0.217660  0.772140  0.813550  1.0  1.1236
  Mn  Mn8  1  0.182160  0.240350  0.598300  1.0  1.1196
  P  P9  1  0.213590  0.978980  0.245980  1.0  1.8593
  P  P10  1  0.786410  0.021020  0.745980  1.0  1.8596
  P  P11  1  0.713590  0.521020  0.245980  1.0  1.8593
  P  P12  1  0.286410  0.478980  0.745980  1.0  1.8592
  H  H13  1  0.222700  0.977600  0.415800  1.0  0.4047
  H  H14  1  0.071700  0.884100  0.210500  1.0  0.448
  H  H15  1  0.777300  0.022400  0.915800  1.0  0.4053
  H  H16  1  0.928300  0.115900  0.710500  1.0  0.4492
  H  H17  1  0.722700  0.522400  0.415800  1.0  0.4052
  H  H18  1  0.571700  0.615900  0.210500  1.0  0.4499
  H  H19  1  0.277300  0.477600  0.915800  1.0  0.4049
  H  H20  1  0.428300  0.384100  0.710500  1.0  0.4479
  C  C21  1  0.299900  0.472800  0.146400  1.0  0.631
  C  C22  1  0.305500  0.536600  0.264200  1.0  0.6336
  C  C23  1  0.480200  0.764800  0.901600  1.0  0.6517
  C  C24  1  0.556100  0.754600  0.008200  1.0  0.6486
  C  C25  1  0.700100  0.527200  0.646400  1.0  0.6322
  C  C26  1  0.694500  0.463400  0.764200  1.0  0.6359
  C  C27  1  0.519800  0.235200  0.401600  1.0  0.652
  C  C28  1  0.443900  0.245400  0.508200  1.0  0.648
  C  C29  1  0.799900  0.027200  0.146400  1.0  0.6309
  C  C30  1  0.805500  0.963400  0.264200  1.0  0.6351
  C  C31  1  0.980200  0.735200  0.901600  1.0  0.6519
  C  C32  1  0.056100  0.745400  0.008200  1.0  0.6487
  C  C33  1  0.200100  0.972800  0.646400  1.0  0.6322
  C  C34  1  0.194500  0.036600  0.764200  1.0  0.636
  C  C35  1  0.019800  0.264800  0.401600  1.0  0.652
  C  C36  1  0.943900  0.254600  0.508200  1.0  0.6478
  O  O37  1  0.228800  0.113200  0.238500  1.0  -0.8118
  O  O38  1  0.280000  0.906800  0.162900  1.0  -0.7542
  O  O39  1  0.245600  0.929500  0.367400  1.0  -0.6791
  O  O40  1  0.081900  0.955000  0.230700  1.0  -0.6995
  O  O41  1  0.281100  0.359500  0.145200  1.0  -0.5087
  O  O42  1  0.310800  0.539800  0.060600  1.0  -0.5815
  O  O43  1  0.302400  0.469200  0.348300  1.0  -0.5285
  O  O44  1  0.311200  0.650500  0.261900  1.0  -0.5618
  O  O45  1  0.375200  0.774800  0.919700  1.0  -0.6473
  O  O46  1  0.530400  0.764300  0.808600  1.0  -0.5495
  O  O47  1  0.506300  0.741800  0.103100  1.0  -0.5571
  O  O48  1  0.661100  0.760100  0.992400  1.0  -0.6457
  O  O49  1  0.771200  0.886800  0.738500  1.0  -0.8122
  O  O50  1  0.720000  0.093200  0.662900  1.0  -0.754
  O  O51  1  0.754400  0.070500  0.867400  1.0  -0.6797
  O  O52  1  0.918100  0.045000  0.730700  1.0  -0.6987
  O  O53  1  0.718900  0.640500  0.645200  1.0  -0.5089
  O  O54  1  0.689200  0.460200  0.560600  1.0  -0.582
  O  O55  1  0.697600  0.530800  0.848300  1.0  -0.5266
  O  O56  1  0.688800  0.349500  0.761900  1.0  -0.5636
  O  O57  1  0.624800  0.225200  0.419700  1.0  -0.647
  O  O58  1  0.469600  0.235700  0.308600  1.0  -0.5491
  O  O59  1  0.493700  0.258200  0.603100  1.0  -0.5577
  O  O60  1  0.338900  0.239900  0.492400  1.0  -0.6457
  O  O61  1  0.728800  0.386800  0.238500  1.0  -0.8126
  O  O62  1  0.780000  0.593200  0.162900  1.0  -0.7539
  O  O63  1  0.745600  0.570500  0.367400  1.0  -0.678
  O  O64  1  0.581900  0.545000  0.230700  1.0  -0.699
  O  O65  1  0.781100  0.140500  0.145200  1.0  -0.5077
  O  O66  1  0.810800  0.960200  0.060600  1.0  -0.5811
  O  O67  1  0.802400  0.030800  0.348300  1.0  -0.5274
  O  O68  1  0.811200  0.849500  0.261900  1.0  -0.5619
  O  O69  1  0.875200  0.725200  0.919700  1.0  -0.6472
  O  O70  1  0.030400  0.735700  0.808600  1.0  -0.5496
  O  O71  1  0.006300  0.758200  0.103100  1.0  -0.557
  O  O72  1  0.161100  0.739900  0.992400  1.0  -0.645
  O  O73  1  0.271200  0.613200  0.738500  1.0  -0.8116
  O  O74  1  0.220000  0.406800  0.662900  1.0  -0.7542
  O  O75  1  0.254400  0.429500  0.867400  1.0  -0.6804
  O  O76  1  0.418100  0.455000  0.730700  1.0  -0.6989
  O  O77  1  0.218900  0.859500  0.645200  1.0  -0.51
  O  O78  1  0.189200  0.039800  0.560600  1.0  -0.5806
  O  O79  1  0.197600  0.969200  0.848300  1.0  -0.5285
  O  O80  1  0.188800  0.150500  0.761900  1.0  -0.5631
  O  O81  1  0.124800  0.274800  0.419700  1.0  -0.647
  O  O82  1  0.969600  0.264300  0.308600  1.0  -0.5492
  O  O83  1  0.993700  0.241800  0.603100  1.0  -0.5573
  O  O84  1  0.838900  0.260100  0.492400  1.0  -0.6439
