# generated using pymatgen
data_Mn3P2H3(C3O10)2
_symmetry_space_group_name_H-M   'P 1'
_cell_length_a   8.03520000
_cell_length_b   10.18950000
_cell_length_c   16.02660000
_cell_angle_alpha   93.34900000
_cell_angle_beta   94.50400000
_cell_angle_gamma   92.45200000
_symmetry_Int_Tables_number   1
_chemical_formula_structural   Mn3P2H3(C3O10)2
_chemical_formula_sum   'Mn6 P4 H6 C12 O40'
_cell_volume   1304.40631126
_cell_formula_units_Z   2
loop_
 _symmetry_equiv_pos_site_id
 _symmetry_equiv_pos_as_xyz
  1  'x, y, z'
loop_
 _atom_site_type_symbol
 _atom_site_label
 _atom_site_symmetry_multiplicity
 _atom_site_fract_x
 _atom_site_fract_y
 _atom_site_fract_z
 _atom_site_occupancy
 _atom_site_charge
  Mn  Mn1  1  0.388420  0.554710  0.136080  1.0  1.1458
  Mn  Mn2  1  0.256000  0.063210  0.286290  1.0  1.1483
  Mn  Mn3  1  0.555670  0.244480  0.423580  1.0  1.175
  Mn  Mn4  1  0.611580  0.445290  0.863920  1.0  1.1477
  Mn  Mn5  1  0.744000  0.936790  0.713710  1.0  1.1475
  Mn  Mn6  1  0.444330  0.755520  0.576420  1.0  1.1766
  P  P7  1  0.741580  0.410410  0.064100  1.0  1.8204
  P  P8  1  0.869690  0.160690  0.305980  1.0  1.842
  P  P9  1  0.258420  0.589590  0.935900  1.0  1.8208
  P  P10  1  0.130310  0.839310  0.694020  1.0  1.8383
  H  H11  1  0.986400  0.461100  0.076000  1.0  0.4885
  H  H12  1  0.810700  0.287700  0.149600  1.0  0.4304
  H  H13  1  0.697100  0.031400  0.245100  1.0  0.4837
  H  H14  1  0.013600  0.538900  0.924000  1.0  0.4909
  H  H15  1  0.189300  0.712300  0.850400  1.0  0.429
  H  H16  1  0.302900  0.968600  0.754900  1.0  0.4814
  C  C17  1  0.421800  0.831600  0.211200  1.0  0.6091
  C  C18  1  0.242500  0.782900  0.227070  1.0  0.6047
  C  C19  1  0.263900  0.285700  0.172900  1.0  0.6056
  C  C20  1  0.376700  0.336300  0.252500  1.0  0.6274
  C  C21  1  0.410800  0.477100  0.509970  1.0  0.5817
  C  C22  1  0.559200  0.027500  0.538550  1.0  0.6285
  C  C23  1  0.578200  0.168400  0.788800  1.0  0.6087
  C  C24  1  0.757500  0.217100  0.772930  1.0  0.6057
  C  C25  1  0.736100  0.714300  0.827100  1.0  0.606
  C  C26  1  0.623300  0.663700  0.747500  1.0  0.6287
  C  C27  1  0.589200  0.522900  0.490030  1.0  0.5841
  C  C28  1  0.440800  0.972500  0.461450  1.0  0.6278
  O  O29  1  0.608600  0.487700  0.096270  1.0  -0.8213
  O  O30  1  0.733100  0.380600  0.971720  1.0  -0.7731
  O  O31  1  0.906100  0.493700  0.096500  1.0  -0.6664
  O  O32  1  0.758200  0.276700  0.103600  1.0  -0.6174
  O  O33  1  0.764800  0.171100  0.379640  1.0  -0.7618
  O  O34  1  0.044800  0.129100  0.334440  1.0  -0.7577
  O  O35  1  0.862400  0.281200  0.255030  1.0  -0.7964
  O  O36  1  0.798900  0.039000  0.244280  1.0  -0.6519
  O  O37  1  0.513100  0.748700  0.181500  1.0  -0.4614
  O  O38  1  0.459400  0.951300  0.230960  1.0  -0.5221
  O  O39  1  0.203900  0.664300  0.208750  1.0  -0.4924
  O  O40  1  0.150100  0.866000  0.257320  1.0  -0.5142
  O  O41  1  0.232600  0.366600  0.119260  1.0  -0.5762
  O  O42  1  0.213400  0.167200  0.168620  1.0  -0.5354
  O  O43  1  0.426500  0.452600  0.257920  1.0  -0.5078
  O  O44  1  0.405100  0.252000  0.306120  1.0  -0.6145
  O  O45  1  0.366400  0.359600  0.490340  1.0  -0.4938
  O  O46  1  0.324800  0.561200  0.543150  1.0  -0.525
  O  O47  1  0.603500  0.145400  0.543060  1.0  -0.5151
  O  O48  1  0.599100  0.943500  0.590600  1.0  -0.587
  O  O49  1  0.391400  0.512300  0.903730  1.0  -0.8227
  O  O50  1  0.266900  0.619400  0.028280  1.0  -0.7741
  O  O51  1  0.093900  0.506300  0.903500  1.0  -0.6662
  O  O52  1  0.241800  0.723300  0.896400  1.0  -0.6144
  O  O53  1  0.235200  0.828900  0.620360  1.0  -0.7618
  O  O54  1  0.955200  0.870900  0.665560  1.0  -0.7589
  O  O55  1  0.137600  0.718800  0.744970  1.0  -0.796
  O  O56  1  0.201100  0.961000  0.755720  1.0  -0.6538
  O  O57  1  0.486900  0.251300  0.818500  1.0  -0.4598
  O  O58  1  0.540600  0.048700  0.769040  1.0  -0.5234
  O  O59  1  0.796100  0.335700  0.791250  1.0  -0.4909
  O  O60  1  0.849900  0.134000  0.742680  1.0  -0.5144
  O  O61  1  0.767400  0.633400  0.880740  1.0  -0.578
  O  O62  1  0.786600  0.832800  0.831380  1.0  -0.5356
  O  O63  1  0.573500  0.547400  0.742080  1.0  -0.5092
  O  O64  1  0.594900  0.748000  0.693880  1.0  -0.6139
  O  O65  1  0.633600  0.640400  0.509660  1.0  -0.4908
  O  O66  1  0.675200  0.438800  0.456850  1.0  -0.5234
  O  O67  1  0.396500  0.854600  0.456940  1.0  -0.5161
  O  O68  1  0.400900  0.056500  0.409400  1.0  -0.5899
