# generated using pymatgen
data_CuH7C15O4
_symmetry_space_group_name_H-M   'P 1'
_cell_length_a   18.34110000
_cell_length_b   18.34110000
_cell_length_c   52.60410000
_cell_angle_alpha   90.00000000
_cell_angle_beta   90.00000000
_cell_angle_gamma   120.00000000
_symmetry_Int_Tables_number   1
_chemical_formula_structural   CuH7C15O4
_chemical_formula_sum   'Cu18 H126 C270 O72'
_cell_volume   15325.01766794
_cell_formula_units_Z   18
loop_
 _symmetry_equiv_pos_site_id
 _symmetry_equiv_pos_as_xyz
  1  'x, y, z'
loop_
 _atom_site_type_symbol
 _atom_site_label
 _atom_site_symmetry_multiplicity
 _atom_site_fract_x
 _atom_site_fract_y
 _atom_site_fract_z
 _atom_site_occupancy
 _atom_site_charge
  Cu  Cu1  1  0.939120  0.468630  0.930530  1.0  0.8467
  Cu  Cu2  1  0.038370  0.518190  0.970900  1.0  0.8419
  Cu  Cu3  1  0.603850  0.802530  0.263990  1.0  0.8456
  Cu  Cu4  1  0.703140  0.852160  0.304350  1.0  0.8362
  Cu  Cu5  1  0.274760  0.139090  0.597160  1.0  0.8338
  Cu  Cu6  1  0.374050  0.188910  0.637520  1.0  0.8439
  Cu  Cu7  1  0.513310  0.467570  0.930800  1.0  0.8414
  Cu  Cu8  1  0.463450  0.517150  0.971110  1.0  0.8257
  Cu  Cu9  1  0.129630  0.854170  0.304280  1.0  0.8446
  Cu  Cu10  1  0.179290  0.804580  0.263920  1.0  0.8385
  Cu  Cu11  1  0.798770  0.187570  0.637600  1.0  0.8356
  Cu  Cu12  1  0.848450  0.137960  0.597250  1.0  0.833
  Cu  Cu13  1  0.464340  0.943100  0.971010  1.0  0.8406
  Cu  Cu14  1  0.514050  0.042380  0.930660  1.0  0.8289
  Cu  Cu15  1  0.128110  0.278790  0.304370  1.0  0.8498
  Cu  Cu16  1  0.177770  0.378050  0.264010  1.0  0.8442
  Cu  Cu17  1  0.799930  0.613830  0.637900  1.0  0.8267
  Cu  Cu18  1  0.849570  0.713270  0.597590  1.0  0.8423
  H  H19  1  0.258930  0.014530  0.215190  1.0  0.107
  H  H20  1  0.191790  0.098140  0.282980  1.0  0.1258
  H  H21  1  0.259370  0.249210  0.215220  1.0  0.1096
  H  H22  1  0.923590  0.345440  0.548330  1.0  0.1082
  H  H23  1  0.865160  0.434010  0.616690  1.0  0.1285
  H  H24  1  0.922330  0.579200  0.547870  1.0  0.1133
  H  H25  1  0.594890  0.678090  0.882070  1.0  0.1079
  H  H26  1  0.526870  0.761520  0.949760  1.0  0.1285
  H  H27  1  0.593650  0.911930  0.881910  1.0  0.1115
  H  H28  1  0.734160  0.012010  0.215140  1.0  0.1086
  H  H29  1  0.883840  0.096960  0.283140  1.0  0.1244
  H  H30  1  0.968670  0.246330  0.215100  1.0  0.1149
  H  H31  1  0.408710  0.346950  0.547700  1.0  0.1107
  H  H32  1  0.553990  0.433740  0.616520  1.0  0.1259
  H  H33  1  0.642200  0.582280  0.548430  1.0  0.1094
  H  H34  1  0.304340  0.912650  0.881820  1.0  0.1154
  H  H35  1  0.219860  0.762030  0.949620  1.0  0.1277
  H  H36  1  0.068850  0.679290  0.881830  1.0  0.1078
  H  H37  1  0.969890  0.725580  0.214980  1.0  0.1132
  H  H38  1  0.884950  0.790240  0.282970  1.0  0.1275
  H  H39  1  0.734100  0.722830  0.215150  1.0  0.108
  H  H40  1  0.405880  0.062750  0.548290  1.0  0.1071
  H  H41  1  0.553950  0.122350  0.616440  1.0  0.1257
  H  H42  1  0.640980  0.064200  0.547580  1.0  0.1051
  H  H43  1  0.071780  0.394340  0.881470  1.0  0.1088
  H  H44  1  0.218380  0.451860  0.949890  1.0  0.1231
  H  H45  1  0.306760  0.395520  0.881000  1.0  0.1119
  H  H46  1  0.244320  0.269440  0.686150  1.0  0.1057
  H  H47  1  0.093160  0.201700  0.618410  1.0  0.126
  H  H48  1  0.008680  0.266980  0.686390  1.0  0.1118
  H  H49  1  0.907160  0.594740  0.019950  1.0  0.1092
  H  H50  1  0.758370  0.533230  0.951890  1.0  0.1246
  H  H51  1  0.671400  0.592020  0.020630  1.0  0.1115
  H  H52  1  0.339350  0.932820  0.353190  1.0  0.1075
  H  H53  1  0.423020  0.866370  0.285270  1.0  0.1267
  H  H54  1  0.573940  0.933090  0.353020  1.0  0.1045
  H  H55  1  0.242610  0.981790  0.686700  1.0  0.109
  H  H56  1  0.094570  0.893140  0.618530  1.0  0.1256
  H  H57  1  0.007760  0.747850  0.687350  1.0  0.1145
  H  H58  1  0.907150  0.310630  0.019810  1.0  0.1086
  H  H59  1  0.758970  0.222300  0.951660  1.0  0.1211
  H  H60  1  0.672200  0.076850  0.020480  1.0  0.1128
  H  H61  1  0.572860  0.642520  0.353160  1.0  0.1088
  H  H62  1  0.422020  0.558680  0.285400  1.0  0.1248
  H  H63  1  0.338500  0.407960  0.353230  1.0  0.1061
  H  H64  1  0.725800  0.747280  0.687440  1.0  0.1146
  H  H65  1  0.783430  0.892470  0.618620  1.0  0.1203
  H  H66  1  0.722770  0.980160  0.686760  1.0  0.1138
  H  H67  1  0.388140  0.074530  0.020050  1.0  0.1099
  H  H68  1  0.447970  0.222410  0.951830  1.0  0.1258
  H  H69  1  0.389390  0.309560  0.020560  1.0  0.1125
  H  H70  1  0.048960  0.644100  0.353000  1.0  0.1038
  H  H71  1  0.115410  0.559880  0.285180  1.0  0.1264
  H  H72  1  0.049470  0.409930  0.353130  1.0  0.1098
  H  H73  1  0.230620  0.211170  0.814090  1.0  0.1107
  H  H74  1  0.217280  0.183520  0.768600  1.0  0.1114
  H  H75  1  0.218490  0.283080  0.850950  1.0  0.109
  H  H76  1  0.137980  0.465380  0.842570  1.0  0.1135
  H  H77  1  0.098930  0.386030  0.714030  1.0  0.1076
  H  H78  1  0.181240  0.206720  0.726450  1.0  0.1137
  H  H79  1  0.123270  0.442500  0.797660  1.0  0.0985
  H  H80  1  0.111290  0.418380  0.758510  1.0  0.148
  H  H81  1  0.563770  0.878600  0.480910  1.0  0.1144
  H  H82  1  0.549280  0.849930  0.435470  1.0  0.1131
  H  H83  1  0.552390  0.951220  0.517710  1.0  0.1097
  H  H84  1  0.470840  0.132680  0.509260  1.0  0.1158
  H  H85  1  0.429100  0.050850  0.380870  1.0  0.1164
  H  H86  1  0.512030  0.872030  0.393360  1.0  0.1179
  H  H87  1  0.454850  0.108630  0.464410  1.0  0.0996
  H  H88  1  0.442150  0.083840  0.425310  1.0  0.1522
  H  H89  1  0.747770  0.778770  0.086910  1.0  0.1098
  H  H90  1  0.760810  0.807140  0.132370  1.0  0.111
  H  H91  1  0.760000  0.706060  0.050230  1.0  0.11
  H  H92  1  0.842230  0.525260  0.059160  1.0  0.1153
  H  H93  1  0.880020  0.606380  0.187540  1.0  0.107
  H  H94  1  0.796810  0.784780  0.174660  1.0  0.1145
  H  H95  1  0.857180  0.549370  0.104010  1.0  0.1022
  H  H96  1  0.868160  0.573570  0.143120  1.0  0.1471
  H  H97  1  0.096480  0.622590  0.799060  1.0  0.1127
  H  H98  1  0.083820  0.638160  0.753600  1.0  0.1121
  H  H99  1  0.131930  0.680670  0.841360  1.0  0.1153
  H  H100  1  0.214280  0.942010  0.854410  1.0  0.1078
  H  H101  1  0.177580  0.985950  0.725930  1.0  0.1151
  H  H102  1  0.096300  0.723150  0.716970  1.0  0.1075
  H  H103  1  0.202680  0.963220  0.809970  1.0  0.1476
  H  H104  1  0.192090  0.976660  0.770820  1.0  0.1011
  H  H105  1  0.298160  0.421720  0.481490  1.0  0.1117
  H  H106  1  0.282380  0.434140  0.436040  1.0  0.1109
  H  H107  1  0.383420  0.434890  0.518120  1.0  0.109
  H  H108  1  0.646640  0.518080  0.509130  1.0  0.1167
  H  H109  1  0.601890  0.553260  0.380630  1.0  0.1119
  H  H110  1  0.340360  0.470000  0.393730  1.0  0.1178
  H  H111  1  0.637130  0.532470  0.464250  1.0  0.104
  H  H112  1  0.623330  0.542060  0.425070  1.0  0.1512
  H  H113  1  0.749960  0.968500  0.087120  1.0  0.1121
  H  H114  1  0.762910  0.954040  0.132630  1.0  0.1112
  H  H115  1  0.761500  0.052600  0.050290  1.0  0.109
  H  H116  1  0.841060  0.315150  0.058820  1.0  0.1155
  H  H117  1  0.878410  0.274210  0.187340  1.0  0.1077
  H  H118  1  0.797970  0.013020  0.174860  1.0  0.1164
  H  H119  1  0.855830  0.306810  0.103710  1.0  0.1083
  H  H120  1  0.866770  0.294340  0.142850  1.0  0.1499
  H  H121  1  0.540940  0.636460  0.753830  1.0  0.1147
  H  H122  1  0.512780  0.620960  0.799300  1.0  0.116
  H  H123  1  0.612650  0.721610  0.717140  1.0  0.1086
  H  H124  1  0.791940  0.985090  0.725970  1.0  0.1206
  H  H125  1  0.712120  0.941150  0.854470  1.0  0.1119
  H  H126  1  0.534630  0.679300  0.841550  1.0  0.1174
  H  H127  1  0.768230  0.975800  0.770850  1.0  0.103
  H  H128  1  0.744800  0.962280  0.810030  1.0  0.1524
  H  H129  1  0.106260  0.687890  0.480970  1.0  0.115
  H  H130  1  0.133710  0.702380  0.435470  1.0  0.1151
  H  H131  1  0.034650  0.603660  0.517830  1.0  0.1096
  H  H132  1  0.853140  0.340630  0.509420  1.0  0.1155
  H  H133  1  0.931500  0.381580  0.380850  1.0  0.1117
  H  H134  1  0.110620  0.643250  0.393310  1.0  0.117
  H  H135  1  0.876040  0.348960  0.464510  1.0  0.108
  H  H136  1  0.899510  0.361410  0.425340  1.0  0.1513
  H  H137  1  0.176760  0.223010  0.132420  1.0  0.108
  H  H138  1  0.204760  0.235300  0.086940  1.0  0.1102
  H  H139  1  0.199020  0.187180  0.174710  1.0  0.1172
  H  H140  1  0.377410  0.104040  0.187750  1.0  0.1126
  H  H141  1  0.456970  0.139140  0.059240  1.0  0.115
  H  H142  1  0.276620  0.221930  0.050280  1.0  0.1071
  H  H143  1  0.410000  0.115320  0.143310  1.0  0.1472
  H  H144  1  0.433370  0.125010  0.104130  1.0  0.1003
  C  C145  1  0.263880  0.134220  0.212200  1.0  0.0353
  C  C146  1  0.251700  0.062010  0.225290  1.0  -0.0784
  C  C147  1  0.225630  0.048400  0.250850  1.0  -0.0956
  C  C148  1  0.213320  0.108920  0.263440  1.0  -0.0352
  C  C149  1  0.224750  0.181320  0.250780  1.0  -0.103
  C  C150  1  0.250720  0.193780  0.225200  1.0  -0.0835
  C  C151  1  0.927080  0.464330  0.545040  1.0  0.0301
  C  C152  1  0.916450  0.393100  0.558350  1.0  -0.0847
  C  C153  1  0.893930  0.381510  0.584190  1.0  -0.1013
  C  C154  1  0.884150  0.443380  0.596910  1.0  -0.0106
  C  C155  1  0.894640  0.515230  0.584090  1.0  -0.1085
  C  C156  1  0.917000  0.525610  0.558180  1.0  -0.0622
  C  C157  1  0.598990  0.797380  0.878980  1.0  0.037
  C  C158  1  0.586060  0.724820  0.892020  1.0  -0.0806
  C  C159  1  0.560070  0.711350  0.917590  1.0  -0.1035
  C  C160  1  0.548410  0.772230  0.930220  1.0  -0.036
  C  C161  1  0.560510  0.844940  0.917590  1.0  -0.0995
  C  C162  1  0.586580  0.857340  0.892030  1.0  -0.0715
  C  C163  1  0.849130  0.131430  0.212120  1.0  0.0351
  C  C164  1  0.789350  0.059030  0.225160  1.0  -0.0863
  C  C165  1  0.801290  0.046090  0.250820  1.0  -0.1008
  C  C166  1  0.873440  0.107310  0.263530  1.0  -0.0542
  C  C167  1  0.934190  0.179910  0.250890  1.0  -0.1002
  C  C168  1  0.921060  0.191820  0.225230  1.0  -0.0762
  C  C169  1  0.523380  0.466820  0.545010  1.0  0.0259
  C  C170  1  0.462300  0.395060  0.558040  1.0  -0.0642
  C  C171  1  0.472800  0.382550  0.583890  1.0  -0.1097
  C  C172  1  0.544570  0.443740  0.596780  1.0  -0.0052
  C  C173  1  0.606320  0.515770  0.584170  1.0  -0.0826
  C  C174  1  0.594650  0.527210  0.558370  1.0  -0.0887
  C  C175  1  0.184290  0.798360  0.878840  1.0  0.04
  C  C176  1  0.256660  0.858100  0.891920  1.0  -0.0787
  C  C177  1  0.270120  0.845480  0.917490  1.0  -0.0998
  C  C178  1  0.209230  0.772870  0.930080  1.0  -0.0354
  C  C179  1  0.136620  0.712250  0.917410  1.0  -0.1039
  C  C180  1  0.124380  0.725850  0.891820  1.0  -0.083
  C  C181  1  0.849710  0.719580  0.212070  1.0  0.0444
  C  C182  1  0.922120  0.732180  0.225130  1.0  -0.0763
  C  C183  1  0.935450  0.757790  0.250730  1.0  -0.0976
  C  C184  1  0.874420  0.769120  0.263390  1.0  -0.0263
  C  C185  1  0.801790  0.757170  0.250750  1.0  -0.1031
  C  C186  1  0.789660  0.731790  0.225120  1.0  -0.0842
  C  C187  1  0.521280  0.059340  0.544880  1.0  0.0315
  C  C188  1  0.460870  0.070120  0.558240  1.0  -0.0868
  C  C189  1  0.472200  0.093050  0.584040  1.0  -0.0903
  C  C190  1  0.544050  0.103060  0.596690  1.0  -0.0109
  C  C191  1  0.605240  0.092430  0.583810  1.0  -0.1035
  C  C192  1  0.592880  0.069680  0.557930  1.0  -0.0611
  C  C193  1  0.187180  0.390850  0.878180  1.0  0.0341
  C  C194  1  0.126520  0.401340  0.891500  1.0  -0.0853
  C  C195  1  0.137290  0.423490  0.917360  1.0  -0.1073
  C  C196  1  0.208880  0.433130  0.930090  1.0  -0.0548
  C  C197  1  0.270320  0.422820  0.917250  1.0  -0.1037
  C  C198  1  0.258470  0.400760  0.891310  1.0  -0.0632
  C  C199  1  0.128800  0.272820  0.689260  1.0  0.0322
  C  C200  1  0.188750  0.260520  0.676190  1.0  -0.084
  C  C201  1  0.176470  0.234920  0.650590  1.0  -0.082
  C  C202  1  0.103820  0.223000  0.637970  1.0  -0.0219
  C  C203  1  0.042900  0.234530  0.650630  1.0  -0.0962
  C  C204  1  0.056380  0.260300  0.676230  1.0  -0.0663
  C  C205  1  0.791460  0.597650  0.023340  1.0  0.0337
  C  C206  1  0.851980  0.586920  0.010010  1.0  -0.0887
  C  C207  1  0.840550  0.563560  0.984230  1.0  -0.0886
  C  C208  1  0.768380  0.552860  0.971610  1.0  -0.0051
  C  C209  1  0.707040  0.563270  0.984470  1.0  -0.1037
  C  C210  1  0.719570  0.586600  0.010300  1.0  -0.068
  C  C211  1  0.458960  0.937530  0.356120  1.0  0.0322
  C  C212  1  0.386790  0.925640  0.343060  1.0  -0.0672
  C  C213  1  0.373240  0.899930  0.317460  1.0  -0.0972
  C  C214  1  0.433740  0.887660  0.304830  1.0  -0.0347
  C  C215  1  0.506060  0.898860  0.317480  1.0  -0.1001
  C  C216  1  0.518500  0.924550  0.343070  1.0  -0.0864
  C  C217  1  0.127370  0.862770  0.690080  1.0  0.0323
  C  C218  1  0.187680  0.934120  0.676740  1.0  -0.0876
  C  C219  1  0.176350  0.945690  0.650920  1.0  -0.1033
  C  C220  1  0.104500  0.883780  0.638280  1.0  -0.0294
  C  C221  1  0.043370  0.811930  0.651160  1.0  -0.1035
  C  C222  1  0.055810  0.801510  0.677020  1.0  -0.0695
  C  C223  1  0.791850  0.191700  0.023180  1.0  0.0293
  C  C224  1  0.852200  0.263000  0.009840  1.0  -0.0891
  C  C225  1  0.840830  0.274670  0.984040  1.0  -0.0822
  C  C226  1  0.768930  0.212850  0.971400  1.0  -0.0518
  C  C227  1  0.707790  0.140990  0.984270  1.0  -0.1074
  C  C228  1  0.720250  0.130480  0.010130  1.0  -0.0596
  C  C229  1  0.458070  0.522900  0.356200  1.0  0.0302
  C  C230  1  0.518120  0.595020  0.343080  1.0  -0.0718
  C  C231  1  0.505640  0.608510  0.317510  1.0  -0.0998
  C  C232  1  0.432760  0.547980  0.304950  1.0  -0.0283
  C  C233  1  0.371770  0.475680  0.317640  1.0  -0.1001
  C  C234  1  0.385300  0.463330  0.343230  1.0  -0.0871
  C  C235  1  0.720040  0.861640  0.690160  1.0  0.0304
  C  C236  1  0.730970  0.800760  0.677110  1.0  -0.068
  C  C237  1  0.753890  0.811350  0.651240  1.0  -0.108
  C  C238  1  0.764080  0.882990  0.638370  1.0  -0.0556
  C  C239  1  0.753510  0.944520  0.651000  1.0  -0.1039
  C  C240  1  0.730510  0.932770  0.676810  1.0  -0.063
  C  C241  1  0.384520  0.189870  0.023360  1.0  0.0302
  C  C242  1  0.395500  0.129460  0.010060  1.0  -0.0886
  C  C243  1  0.418540  0.140710  0.984250  1.0  -0.0973
  C  C244  1  0.428590  0.212540  0.971570  1.0  -0.0169
  C  C245  1  0.417860  0.273730  0.984400  1.0  -0.1073
  C  C246  1  0.394940  0.261410  0.010260  1.0  -0.0703
  C  C247  1  0.044610  0.524720  0.356070  1.0  0.0403
  C  C248  1  0.057440  0.597210  0.343020  1.0  -0.0884
  C  C249  1  0.082980  0.610430  0.317420  1.0  -0.102
  C  C250  1  0.094200  0.549330  0.304750  1.0  -0.0353
  C  C251  1  0.082090  0.476630  0.317390  1.0  -0.0999
  C  C252  1  0.056500  0.464480  0.342990  1.0  -0.0738
  C  C253  1  0.899020  0.541910  0.971210  1.0  0.6715
  C  C254  1  0.078780  0.445090  0.930370  1.0  0.677
  C  C255  1  0.899070  0.354910  0.971040  1.0  0.6789
  C  C256  1  0.078220  0.631750  0.930260  1.0  0.6749
  C  C257  1  0.564080  0.876290  0.304610  1.0  0.6726
  C  C258  1  0.743240  0.778900  0.263680  1.0  0.6733
  C  C259  1  0.563930  0.688990  0.304620  1.0  0.6791
  C  C260  1  0.743050  0.965650  0.263720  1.0  0.6745
  C  C261  1  0.413980  0.115060  0.597040  1.0  0.6752
  C  C262  1  0.234850  0.212870  0.637710  1.0  0.6636
  C  C263  1  0.414150  0.302180  0.596780  1.0  0.6764
  C  C264  1  0.234660  0.025800  0.637860  1.0  0.6701
  C  C265  1  0.537580  0.630780  0.930480  1.0  0.6739
  C  C266  1  0.439540  0.354030  0.971460  1.0  0.6723
  C  C267  1  0.350380  0.444080  0.930280  1.0  0.6754
  C  C268  1  0.626570  0.541140  0.971560  1.0  0.6732
  C  C269  1  0.292770  0.877910  0.304570  1.0  0.6702
  C  C270  1  0.016110  0.780430  0.263600  1.0  0.6765
  C  C271  1  0.105460  0.690990  0.304540  1.0  0.6767
  C  C272  1  0.203300  0.967830  0.263710  1.0  0.6778
  C  C273  1  0.685520  0.114020  0.596760  1.0  0.6767
  C  C274  1  0.962180  0.211810  0.637790  1.0  0.6773
  C  C275  1  0.872110  0.301280  0.597150  1.0  0.6811
  C  C276  1  0.775050  0.024590  0.637960  1.0  0.6814
  C  C277  1  0.440480  0.082410  0.971250  1.0  0.6774
  C  C278  1  0.538070  0.903150  0.930430  1.0  0.6777
  C  C279  1  0.627440  0.082360  0.971370  1.0  0.6768
  C  C280  1  0.350790  0.903400  0.930360  1.0  0.6766
  C  C281  1  0.202150  0.239340  0.263640  1.0  0.671
  C  C282  1  0.104250  0.418260  0.304520  1.0  0.6768
  C  C283  1  0.014570  0.238400  0.263800  1.0  0.6768
  C  C284  1  0.291150  0.417620  0.304780  1.0  0.6706
  C  C285  1  0.775920  0.752960  0.638320  1.0  0.6763
  C  C286  1  0.873240  0.573960  0.597100  1.0  0.679
  C  C287  1  0.963060  0.753200  0.638240  1.0  0.6721
  C  C288  1  0.686450  0.574070  0.597240  1.0  0.6686
  C  C289  1  0.162700  0.347740  0.796660  1.0  0.0403
  C  C290  1  0.190290  0.303550  0.812590  1.0  0.0516
  C  C291  1  0.198170  0.317790  0.839010  1.0  -0.1016
  C  C292  1  0.178670  0.375360  0.850220  1.0  0.0564
  C  C293  1  0.151860  0.419290  0.834540  1.0  -0.1314
  C  C294  1  0.143980  0.405980  0.808290  1.0  -0.119
  C  C295  1  0.154890  0.331520  0.769870  1.0  0.042
  C  C296  1  0.127500  0.372050  0.752580  1.0  -0.127
  C  C297  1  0.119810  0.353370  0.726610  1.0  -0.1305
  C  C298  1  0.139380  0.294120  0.716860  1.0  0.045
  C  C299  1  0.167200  0.253710  0.733680  1.0  -0.1068
  C  C300  1  0.174930  0.271610  0.759870  1.0  0.0371
  C  C301  1  0.209610  0.245110  0.802090  1.0  -0.107
  C  C302  1  0.202010  0.229340  0.776080  1.0  -0.1165
  C  C303  1  0.494730  0.014230  0.463450  1.0  0.0409
  C  C304  1  0.522980  0.970610  0.479380  1.0  0.036
  C  C305  1  0.531580  0.985510  0.505770  1.0  -0.0974
  C  C306  1  0.512140  0.043180  0.516950  1.0  0.0608
  C  C307  1  0.484690  0.086530  0.501260  1.0  -0.126
  C  C308  1  0.476070  0.072560  0.475050  1.0  -0.1214
  C  C309  1  0.486290  0.997430  0.436680  1.0  0.0517
  C  C310  1  0.458370  0.037500  0.419400  1.0  -0.0927
  C  C311  1  0.450250  0.018400  0.393450  1.0  -0.1301
  C  C312  1  0.469790  0.959100  0.383720  1.0  0.0465
  C  C313  1  0.498010  0.919070  0.400560  1.0  -0.1075
  C  C314  1  0.506290  0.937490  0.426720  1.0  0.0559
  C  C315  1  0.542240  0.912110  0.468910  1.0  -0.1184
  C  C316  1  0.533980  0.895750  0.442930  1.0  -0.119
  C  C317  1  0.816700  0.643350  0.104740  1.0  0.0599
  C  C318  1  0.788730  0.686890  0.088670  1.0  0.0641
  C  C319  1  0.780770  0.671960  0.062270  1.0  -0.0959
  C  C320  1  0.800600  0.614360  0.051240  1.0  0.0603
  C  C321  1  0.828030  0.571300  0.067050  1.0  -0.1228
  C  C322  1  0.835990  0.585280  0.093270  1.0  -0.0447
  C  C323  1  0.824240  0.659950  0.131520  1.0  0.058
  C  C324  1  0.851700  0.619820  0.148920  1.0  -0.0564
  C  C325  1  0.859080  0.638770  0.174870  1.0  -0.1292
  C  C326  1  0.839170  0.697940  0.184490  1.0  0.0463
  C  C327  1  0.811180  0.737900  0.167540  1.0  -0.1038
  C  C328  1  0.803740  0.719700  0.141360  1.0  0.0666
  C  C329  1  0.769020  0.745250  0.099020  1.0  -0.109
  C  C330  1  0.776460  0.761460  0.125000  1.0  -0.107
  C  C331  1  0.159270  0.833090  0.798300  1.0  0.0591
  C  C332  1  0.138910  0.752830  0.808110  1.0  0.0654
  C  C333  1  0.146150  0.741910  0.834280  1.0  -0.0935
  C  C334  1  0.173800  0.809690  0.851270  1.0  0.0452
  C  C335  1  0.193560  0.888790  0.841700  1.0  -0.129
  C  C336  1  0.186360  0.900520  0.815750  1.0  -0.0565
  C  C337  1  0.152000  0.842280  0.771520  1.0  0.0581
  C  C338  1  0.171190  0.919640  0.760050  1.0  -0.0344
  C  C339  1  0.163480  0.925740  0.733820  1.0  -0.124
  C  C340  1  0.136410  0.855310  0.717990  1.0  0.0624
  C  C341  1  0.116750  0.777940  0.729020  1.0  -0.102
  C  C342  1  0.124420  0.770900  0.755420  1.0  0.0636
  C  C343  1  0.112000  0.683920  0.791720  1.0  -0.1106
  C  C344  1  0.104800  0.692830  0.765740  1.0  -0.1167
  C  C345  1  0.502510  0.491230  0.463560  1.0  0.0392
  C  C346  1  0.431100  0.463240  0.479670  1.0  0.0412
  C  C347  1  0.438270  0.455710  0.506070  1.0  -0.0969
  C  C348  1  0.515810  0.475930  0.517100  1.0  0.0608
  C  C349  1  0.586280  0.503520  0.501250  1.0  -0.1208
  C  C350  1  0.580050  0.511100  0.475020  1.0  -0.1218
  C  C351  1  0.493160  0.498250  0.436770  1.0  0.0473
  C  C352  1  0.560550  0.525480  0.419300  1.0  -0.0934
  C  C353  1  0.548670  0.532450  0.393350  1.0  -0.1262
  C  C354  1  0.469460  0.512380  0.383780  1.0  0.0376
  C  C355  1  0.401700  0.484500  0.400790  1.0  -0.1041
  C  C356  1  0.412760  0.477390  0.426970  1.0  0.0543
  C  C357  1  0.352860  0.443040  0.469350  1.0  -0.1145
  C  C358  1  0.343830  0.450100  0.443370  1.0  -0.1161
  C  C359  1  0.816720  0.172680  0.104650  1.0  0.0449
  C  C360  1  0.789560  0.101060  0.088670  1.0  0.0382
  C  C361  1  0.781660  0.107530  0.062260  1.0  -0.0966
  C  C362  1  0.800800  0.184590  0.051100  1.0  0.0607
  C  C363  1  0.827410  0.255190  0.066810  1.0  -0.1277
  C  C364  1  0.835280  0.249650  0.093050  1.0  -0.1205
  C  C365  1  0.824200  0.164140  0.131450  1.0  0.0525
  C  C366  1  0.850870  0.231880  0.148760  1.0  -0.1088
  C  C367  1  0.858120  0.220790  0.174740  1.0  -0.1289
  C  C368  1  0.838890  0.142060  0.184490  1.0  0.0442
  C  C369  1  0.811780  0.073990  0.167630  1.0  -0.1082
  C  C370  1  0.804440  0.084250  0.141420  1.0  0.0499
  C  C371  1  0.770590  0.023360  0.099150  1.0  -0.118
  C  C372  1  0.777980  0.015080  0.125170  1.0  -0.1158
  C  C373  1  0.675180  0.841090  0.771630  1.0  0.0516
  C  C374  1  0.631950  0.769520  0.755570  1.0  0.0677
  C  C375  1  0.646560  0.776560  0.729160  1.0  -0.0994
  C  C376  1  0.703580  0.854110  0.718080  1.0  0.0588
  C  C377  1  0.746350  0.924710  0.733880  1.0  -0.1232
  C  C378  1  0.732640  0.918620  0.760120  1.0  -0.0364
  C  C379  1  0.658840  0.831920  0.798420  1.0  0.0531
  C  C380  1  0.698770  0.899490  0.815840  1.0  -0.0462
  C  C381  1  0.679890  0.887790  0.841790  1.0  -0.1241
  C  C382  1  0.620940  0.808600  0.851410  1.0  0.0431
  C  C383  1  0.581320  0.740650  0.834450  1.0  -0.0977
  C  C384  1  0.599510  0.751520  0.808270  1.0  0.0635
  C  C385  1  0.574160  0.691280  0.765930  1.0  -0.132
  C  C386  1  0.558100  0.682420  0.791930  1.0  -0.1154
  C  C387  1  0.970260  0.483310  0.463520  1.0  0.0423
  C  C388  1  0.014280  0.555080  0.479470  1.0  0.0377
  C  C389  1  0.000090  0.548610  0.505890  1.0  -0.0997
  C  C390  1  0.942740  0.471430  0.517090  1.0  0.0606
  C  C391  1  0.899050  0.400690  0.501400  1.0  -0.1243
  C  C392  1  0.912330  0.406220  0.475150  1.0  -0.1218
  C  C393  1  0.986290  0.491850  0.436710  1.0  0.0441
  C  C394  1  0.945740  0.423990  0.419420  1.0  -0.0954
  C  C395  1  0.964220  0.435100  0.393440  1.0  -0.1264
  C  C396  1  0.023350  0.513980  0.383680  1.0  0.0408
  C  C397  1  0.063730  0.582160  0.400530  1.0  -0.1091
  C  C398  1  0.045960  0.571880  0.426720  1.0  0.055
  C  C399  1  0.072450  0.632930  0.468960  1.0  -0.1193
  C  C400  1  0.088110  0.641210  0.442950  1.0  -0.1193
  C  C401  1  0.323550  0.159050  0.131640  1.0  0.0545
  C  C402  1  0.264000  0.179870  0.141460  1.0  0.061
  C  C403  1  0.245880  0.172730  0.167630  1.0  -0.0936
  C  C404  1  0.285800  0.144840  0.184630  1.0  0.041
  C  C405  1  0.344970  0.124850  0.175050  1.0  -0.1191
  C  C406  1  0.363790  0.131860  0.149090  1.0  -0.0419
  C  C407  1  0.339820  0.166030  0.104840  1.0  0.0528
  C  C408  1  0.397510  0.146220  0.093370  1.0  -0.0255
  C  C409  1  0.411160  0.153670  0.067130  1.0  -0.1262
  C  C410  1  0.368080  0.181040  0.051290  1.0  0.0583
  C  C411  1  0.310790  0.201260  0.062330  1.0  -0.0955
  C  C412  1  0.296250  0.193880  0.088740  1.0  0.0642
  C  C413  1  0.222260  0.207080  0.125070  1.0  -0.1171
  C  C414  1  0.238230  0.214070  0.099070  1.0  -0.1246
  O  O415  1  0.881630  0.510360  0.949000  1.0  -0.6005
  O  O416  1  0.013760  0.435690  0.918840  1.0  -0.5881
  O  O417  1  0.881590  0.369110  0.948850  1.0  -0.6005
  O  O418  1  0.013200  0.576240  0.918720  1.0  -0.5834
  O  O419  1  0.095600  0.617380  0.952450  1.0  -0.5893
  O  O420  1  0.964050  0.410570  0.982570  1.0  -0.5892
  O  O421  1  0.096110  0.476550  0.952580  1.0  -0.6007
  O  O422  1  0.964110  0.551380  0.982710  1.0  -0.5876
  O  O423  1  0.546590  0.844530  0.282420  1.0  -0.601
  O  O424  1  0.678150  0.769320  0.252160  1.0  -0.5836
  O  O425  1  0.546510  0.703290  0.282430  1.0  -0.6003
  O  O426  1  0.678070  0.910050  0.252190  1.0  -0.5872
  O  O427  1  0.760450  0.951410  0.285920  1.0  -0.5934
  O  O428  1  0.628950  0.744580  0.316150  1.0  -0.5869
  O  O429  1  0.760540  0.810430  0.285890  1.0  -0.5911
  O  O430  1  0.628990  0.885540  0.316150  1.0  -0.5987
  O  O431  1  0.348970  0.105670  0.585510  1.0  -0.5875
  O  O432  1  0.217490  0.181160  0.615530  1.0  -0.6007
  O  O433  1  0.349120  0.246590  0.585250  1.0  -0.5889
  O  O434  1  0.217180  0.039850  0.615640  1.0  -0.6006
  O  O435  1  0.299740  0.081490  0.649340  1.0  -0.5908
  O  O436  1  0.431390  0.287960  0.619010  1.0  -0.5956
  O  O437  1  0.299850  0.222340  0.649270  1.0  -0.5882
  O  O438  1  0.431510  0.146840  0.619210  1.0  -0.6015
  O  O439  1  0.546990  0.575160  0.918970  1.0  -0.5875
  O  O440  1  0.471110  0.368280  0.949250  1.0  -0.5962
  O  O441  1  0.405980  0.434550  0.918800  1.0  -0.5885
  O  O442  1  0.612360  0.509450  0.949360  1.0  -0.6008
  O  O443  1  0.570910  0.550530  0.983060  1.0  -0.5862
  O  O444  1  0.364410  0.475360  0.952530  1.0  -0.5987
  O  O445  1  0.430060  0.409610  0.982980  1.0  -0.5876
  O  O446  1  0.505670  0.616450  0.952650  1.0  -0.5996
  O  O447  1  0.237210  0.887390  0.316100  1.0  -0.5874
  O  O448  1  0.030400  0.812200  0.285790  1.0  -0.6009
  O  O449  1  0.096160  0.746640  0.316090  1.0  -0.5855
  O  O450  1  0.171560  0.953490  0.285890  1.0  -0.5976
  O  O451  1  0.212690  0.912240  0.252160  1.0  -0.5981
  O  O452  1  0.137220  0.705290  0.282360  1.0  -0.6004
  O  O453  1  0.071790  0.771180  0.252060  1.0  -0.5982
  O  O454  1  0.278480  0.846300  0.282370  1.0  -0.5961
  O  O455  1  0.699730  0.145520  0.618990  1.0  -0.5929
  O  O456  1  0.906510  0.221090  0.649340  1.0  -0.5889
  O  O457  1  0.840470  0.287050  0.619340  1.0  -0.6007
  O  O458  1  0.765590  0.080200  0.649460  1.0  -0.5899
  O  O459  1  0.806520  0.038710  0.615740  1.0  -0.5971
  O  O460  1  0.881510  0.245660  0.585620  1.0  -0.5903
  O  O461  1  0.947810  0.179920  0.615630  1.0  -0.6015
  O  O462  1  0.741070  0.104500  0.585250  1.0  -0.5849
  O  O463  1  0.431060  0.017360  0.982760  1.0  -0.589
  O  O464  1  0.506330  0.885770  0.952610  1.0  -0.5991
  O  O465  1  0.571860  0.017340  0.982900  1.0  -0.5867
  O  O466  1  0.365090  0.885830  0.952530  1.0  -0.6012
  O  O467  1  0.406490  0.968350  0.918830  1.0  -0.6003
  O  O468  1  0.613190  0.099620  0.949150  1.0  -0.6031
  O  O469  1  0.547390  0.968090  0.918870  1.0  -0.5987
  O  O470  1  0.472160  0.099880  0.949060  1.0  -0.6053
  O  O471  1  0.170330  0.221830  0.285820  1.0  -0.6061
  O  O472  1  0.094850  0.353270  0.316080  1.0  -0.5886
  O  O473  1  0.028820  0.221120  0.286010  1.0  -0.5997
  O  O474  1  0.235490  0.352680  0.316320  1.0  -0.5978
  O  O475  1  0.276860  0.435100  0.282590  1.0  -0.6041
  O  O476  1  0.070130  0.303450  0.252270  1.0  -0.5897
  O  O477  1  0.135920  0.435590  0.282330  1.0  -0.6019
  O  O478  1  0.211430  0.304280  0.252100  1.0  -0.5861
  O  O479  1  0.766490  0.687900  0.649820  1.0  -0.589
  O  O480  1  0.841850  0.556660  0.619340  1.0  -0.6027
  O  O481  1  0.907510  0.688140  0.649770  1.0  -0.5882
  O  O482  1  0.700560  0.556510  0.619440  1.0  -0.6032
  O  O483  1  0.742100  0.639200  0.585770  1.0  -0.5876
  O  O484  1  0.948790  0.770460  0.616030  1.0  -0.5986
  O  O485  1  0.882770  0.639090  0.585620  1.0  -0.5905
  O  O486  1  0.807600  0.770420  0.616120  1.0  -0.6025
