# generated using pymatgen
data_MnH16C24(NO2)2
_symmetry_space_group_name_H-M   'P 1'
_cell_length_a   19.65100000
_cell_length_b   14.89630000
_cell_length_c   8.52290000
_cell_angle_alpha   90.00000000
_cell_angle_beta   108.90200000
_cell_angle_gamma   90.00000000
_symmetry_Int_Tables_number   1
_chemical_formula_structural   MnH16C24(NO2)2
_chemical_formula_sum   'Mn4 H64 C96 N8 O16'
_cell_volume   2360.34556118
_cell_formula_units_Z   4
loop_
 _symmetry_equiv_pos_site_id
 _symmetry_equiv_pos_as_xyz
  1  'x, y, z'
loop_
 _atom_site_type_symbol
 _atom_site_label
 _atom_site_symmetry_multiplicity
 _atom_site_fract_x
 _atom_site_fract_y
 _atom_site_fract_z
 _atom_site_occupancy
 _atom_site_charge
  Mn  Mn1  1  0.000000  0.580350  0.750000  1.0  1.0276
  Mn  Mn2  1  0.500000  0.080350  0.750000  1.0  1.0276
  Mn  Mn3  1  0.000000  0.419650  0.250000  1.0  1.0276
  Mn  Mn4  1  0.500000  0.919650  0.250000  1.0  1.0276
  H  H5  1  0.176000  0.509200  0.331100  1.0  0.0889
  H  H6  1  0.292800  0.538500  0.338700  1.0  0.0995
  H  H7  1  0.366300  0.629500  0.542800  1.0  0.1074
  H  H8  1  0.208700  0.656300  0.743000  1.0  0.0946
  H  H9  1  0.397800  0.770600  0.668800  1.0  0.11
  H  H10  1  0.468400  0.858500  0.878900  1.0  0.0671
  H  H11  1  0.385100  0.753000  0.193000  1.0  0.0729
  H  H12  1  0.309300  0.665100  0.990100  1.0  0.1214
  H  H13  1  0.676000  0.009200  0.331100  1.0  0.0889
  H  H14  1  0.792800  0.038500  0.338700  1.0  0.0995
  H  H15  1  0.866300  0.129500  0.542800  1.0  0.1074
  H  H16  1  0.708700  0.156300  0.743000  1.0  0.0946
  H  H17  1  0.897800  0.270600  0.668800  1.0  0.11
  H  H18  1  0.968400  0.358500  0.878900  1.0  0.0671
  H  H19  1  0.885100  0.253000  0.193000  1.0  0.0729
  H  H20  1  0.809300  0.165100  0.990100  1.0  0.1214
  H  H21  1  0.824000  0.509200  0.168900  1.0  0.0893
  H  H22  1  0.707200  0.538500  0.161300  1.0  0.0994
  H  H23  1  0.633700  0.629500  0.957200  1.0  0.1073
  H  H24  1  0.791300  0.656300  0.757000  1.0  0.0947
  H  H25  1  0.602200  0.770600  0.831200  1.0  0.1098
  H  H26  1  0.531600  0.858500  0.621100  1.0  0.0673
  H  H27  1  0.614900  0.753000  0.307000  1.0  0.0732
  H  H28  1  0.690700  0.665100  0.509900  1.0  0.1208
  H  H29  1  0.324000  0.009200  0.168900  1.0  0.0893
  H  H30  1  0.207200  0.038500  0.161300  1.0  0.0994
  H  H31  1  0.133700  0.129500  0.957200  1.0  0.1073
  H  H32  1  0.291300  0.156300  0.757000  1.0  0.0947
  H  H33  1  0.102200  0.270600  0.831200  1.0  0.1098
  H  H34  1  0.031600  0.358500  0.621100  1.0  0.0673
  H  H35  1  0.114900  0.253000  0.307000  1.0  0.0732
  H  H36  1  0.190700  0.165100  0.509900  1.0  0.1208
  H  H37  1  0.824000  0.490800  0.668900  1.0  0.0889
  H  H38  1  0.707200  0.461500  0.661300  1.0  0.0991
  H  H39  1  0.633700  0.370500  0.457200  1.0  0.1077
  H  H40  1  0.791300  0.343700  0.257000  1.0  0.0947
  H  H41  1  0.602200  0.229400  0.331200  1.0  0.1101
  H  H42  1  0.531600  0.141500  0.121100  1.0  0.067
  H  H43  1  0.614900  0.247000  0.807000  1.0  0.0733
  H  H44  1  0.690700  0.334900  0.009900  1.0  0.1203
  H  H45  1  0.324000  0.990800  0.668900  1.0  0.0889
  H  H46  1  0.207200  0.961500  0.661300  1.0  0.0991
  H  H47  1  0.133700  0.870500  0.457200  1.0  0.1077
  H  H48  1  0.291300  0.843700  0.257000  1.0  0.0947
  H  H49  1  0.102200  0.729400  0.331200  1.0  0.1101
  H  H50  1  0.031600  0.641500  0.121100  1.0  0.067
  H  H51  1  0.114900  0.747000  0.807000  1.0  0.0733
  H  H52  1  0.190700  0.834900  0.009900  1.0  0.1203
  H  H53  1  0.176000  0.490800  0.831100  1.0  0.089
  H  H54  1  0.292800  0.461500  0.838700  1.0  0.0992
  H  H55  1  0.366300  0.370500  0.042800  1.0  0.1075
  H  H56  1  0.208700  0.343700  0.243000  1.0  0.0949
  H  H57  1  0.397800  0.229400  0.168800  1.0  0.1104
  H  H58  1  0.468400  0.141500  0.378900  1.0  0.0675
  H  H59  1  0.385100  0.247000  0.693000  1.0  0.0732
  H  H60  1  0.309300  0.334900  0.490100  1.0  0.121
  H  H61  1  0.676000  0.990800  0.831100  1.0  0.089
  H  H62  1  0.792800  0.961500  0.838700  1.0  0.0992
  H  H63  1  0.866300  0.870500  0.042800  1.0  0.1075
  H  H64  1  0.708700  0.843700  0.243000  1.0  0.0949
  H  H65  1  0.897800  0.729400  0.168800  1.0  0.1104
  H  H66  1  0.968400  0.641500  0.378900  1.0  0.0675
  H  H67  1  0.885100  0.747000  0.693000  1.0  0.0732
  H  H68  1  0.809300  0.834900  0.490100  1.0  0.121
  C  C69  1  0.102860  0.565150  0.526050  1.0  0.6761
  C  C70  1  0.180220  0.581010  0.534970  1.0  -0.1334
  C  C71  1  0.205690  0.545110  0.414700  1.0  -0.0301
  C  C72  1  0.275680  0.562830  0.419100  1.0  -0.1104
  C  C73  1  0.320000  0.616570  0.542700  1.0  -0.0918
  C  C74  1  0.295960  0.651610  0.667140  1.0  0.0317
  C  C75  1  0.225610  0.633260  0.661210  1.0  -0.0651
  C  C76  1  0.343870  0.707210  0.802400  1.0  0.1036
  C  C77  1  0.393480  0.766330  0.774080  1.0  -0.2067
  C  C78  1  0.436370  0.818780  0.901860  1.0  0.1807
  C  C79  1  0.387140  0.757270  0.085740  1.0  0.1692
  C  C80  1  0.341400  0.703480  0.964130  1.0  -0.2107
  C  C81  1  0.602860  0.065150  0.526050  1.0  0.6761
  C  C82  1  0.680220  0.081010  0.534970  1.0  -0.1334
  C  C83  1  0.705690  0.045110  0.414700  1.0  -0.0301
  C  C84  1  0.775680  0.062830  0.419100  1.0  -0.1104
  C  C85  1  0.820000  0.116570  0.542700  1.0  -0.0918
  C  C86  1  0.795960  0.151610  0.667140  1.0  0.0317
  C  C87  1  0.725610  0.133260  0.661210  1.0  -0.0651
  C  C88  1  0.843870  0.207210  0.802400  1.0  0.1036
  C  C89  1  0.893480  0.266330  0.774080  1.0  -0.2067
  C  C90  1  0.936370  0.318780  0.901860  1.0  0.1807
  C  C91  1  0.887140  0.257270  0.085740  1.0  0.1692
  C  C92  1  0.841400  0.203480  0.964130  1.0  -0.2107
  C  C93  1  0.897140  0.565150  0.973950  1.0  0.6767
  C  C94  1  0.819780  0.581010  0.965030  1.0  -0.1323
  C  C95  1  0.794310  0.545110  0.085300  1.0  -0.0307
  C  C96  1  0.724320  0.562830  0.080900  1.0  -0.1081
  C  C97  1  0.680000  0.616570  0.957300  1.0  -0.0934
  C  C98  1  0.704040  0.651610  0.832860  1.0  0.0314
  C  C99  1  0.774390  0.633260  0.838790  1.0  -0.0637
  C  C100  1  0.656130  0.707210  0.697600  1.0  0.103
  C  C101  1  0.606520  0.766330  0.725920  1.0  -0.2083
  C  C102  1  0.563630  0.818780  0.598140  1.0  0.1811
  C  C103  1  0.612860  0.757270  0.414260  1.0  0.1701
  C  C104  1  0.658600  0.703480  0.535870  1.0  -0.2102
  C  C105  1  0.397140  0.065150  0.973950  1.0  0.6767
  C  C106  1  0.319780  0.081010  0.965030  1.0  -0.1323
  C  C107  1  0.294310  0.045110  0.085300  1.0  -0.0307
  C  C108  1  0.224320  0.062830  0.080900  1.0  -0.1081
  C  C109  1  0.180000  0.116570  0.957300  1.0  -0.0934
  C  C110  1  0.204040  0.151610  0.832860  1.0  0.0314
  C  C111  1  0.274390  0.133260  0.838790  1.0  -0.0637
  C  C112  1  0.156130  0.207210  0.697600  1.0  0.103
  C  C113  1  0.106520  0.266330  0.725920  1.0  -0.2083
  C  C114  1  0.063630  0.318780  0.598140  1.0  0.1811
  C  C115  1  0.112860  0.257270  0.414260  1.0  0.1701
  C  C116  1  0.158600  0.203480  0.535870  1.0  -0.2102
  C  C117  1  0.897140  0.434850  0.473950  1.0  0.6768
  C  C118  1  0.819780  0.418990  0.465030  1.0  -0.1321
  C  C119  1  0.794310  0.454890  0.585300  1.0  -0.03
  C  C120  1  0.724320  0.437170  0.580900  1.0  -0.1082
  C  C121  1  0.680000  0.383430  0.457300  1.0  -0.0935
  C  C122  1  0.704040  0.348390  0.332860  1.0  0.0316
  C  C123  1  0.774390  0.366740  0.338790  1.0  -0.0634
  C  C124  1  0.656130  0.292790  0.197600  1.0  0.1033
  C  C125  1  0.606520  0.233670  0.225920  1.0  -0.2077
  C  C126  1  0.563630  0.181220  0.098140  1.0  0.1811
  C  C127  1  0.612860  0.242730  0.914260  1.0  0.1705
  C  C128  1  0.658600  0.296520  0.035870  1.0  -0.2096
  C  C129  1  0.397140  0.934850  0.473950  1.0  0.6768
  C  C130  1  0.319780  0.918990  0.465030  1.0  -0.1321
  C  C131  1  0.294310  0.954890  0.585300  1.0  -0.03
  C  C132  1  0.224320  0.937170  0.580900  1.0  -0.1082
  C  C133  1  0.180000  0.883430  0.457300  1.0  -0.0935
  C  C134  1  0.204040  0.848390  0.332860  1.0  0.0316
  C  C135  1  0.274390  0.866740  0.338790  1.0  -0.0634
  C  C136  1  0.156130  0.792790  0.197600  1.0  0.1033
  C  C137  1  0.106520  0.733670  0.225920  1.0  -0.2077
  C  C138  1  0.063630  0.681220  0.098140  1.0  0.1811
  C  C139  1  0.112860  0.742730  0.914260  1.0  0.1705
  C  C140  1  0.158600  0.796520  0.035870  1.0  -0.2096
  C  C141  1  0.102860  0.434850  0.026050  1.0  0.6762
  C  C142  1  0.180220  0.418990  0.034970  1.0  -0.1331
  C  C143  1  0.205690  0.454890  0.914700  1.0  -0.0297
  C  C144  1  0.275680  0.437170  0.919100  1.0  -0.1106
  C  C145  1  0.320000  0.383430  0.042700  1.0  -0.0917
  C  C146  1  0.295960  0.348390  0.167140  1.0  0.0316
  C  C147  1  0.225610  0.366740  0.161210  1.0  -0.0643
  C  C148  1  0.343870  0.292790  0.302400  1.0  0.1035
  C  C149  1  0.393480  0.233670  0.274080  1.0  -0.2077
  C  C150  1  0.436370  0.181220  0.401860  1.0  0.1809
  C  C151  1  0.387140  0.242730  0.585740  1.0  0.1701
  C  C152  1  0.341400  0.296520  0.464130  1.0  -0.2108
  C  C153  1  0.602860  0.934850  0.026050  1.0  0.6762
  C  C154  1  0.680220  0.918990  0.034970  1.0  -0.1331
  C  C155  1  0.705690  0.954890  0.914700  1.0  -0.0297
  C  C156  1  0.775680  0.937170  0.919100  1.0  -0.1106
  C  C157  1  0.820000  0.883430  0.042700  1.0  -0.0917
  C  C158  1  0.795960  0.848390  0.167140  1.0  0.0316
  C  C159  1  0.725610  0.866740  0.161210  1.0  -0.0643
  C  C160  1  0.843870  0.792790  0.302400  1.0  0.1035
  C  C161  1  0.893480  0.733670  0.274080  1.0  -0.2077
  C  C162  1  0.936370  0.681220  0.401860  1.0  0.1809
  C  C163  1  0.887140  0.742730  0.585740  1.0  0.1701
  C  C164  1  0.841400  0.796520  0.464130  1.0  -0.2108
  N  N165  1  0.434030  0.815100  0.057540  1.0  -0.367
  N  N166  1  0.934030  0.315100  0.057540  1.0  -0.367
  N  N167  1  0.565970  0.815100  0.442460  1.0  -0.367
  N  N168  1  0.065970  0.315100  0.442460  1.0  -0.367
  N  N169  1  0.565970  0.184900  0.942460  1.0  -0.3663
  N  N170  1  0.065970  0.684900  0.942460  1.0  -0.3663
  N  N171  1  0.434030  0.184900  0.557540  1.0  -0.3651
  N  N172  1  0.934030  0.684900  0.557540  1.0  -0.3651
  O  O173  1  0.083620  0.599400  0.639450  1.0  -0.6026
  O  O174  1  0.063340  0.522410  0.405570  1.0  -0.622
  O  O175  1  0.583620  0.099400  0.639450  1.0  -0.6026
  O  O176  1  0.563340  0.022410  0.405570  1.0  -0.622
  O  O177  1  0.916380  0.599400  0.860550  1.0  -0.6029
  O  O178  1  0.936660  0.522410  0.094430  1.0  -0.6231
  O  O179  1  0.416380  0.099400  0.860550  1.0  -0.6029
  O  O180  1  0.436660  0.022410  0.094430  1.0  -0.6231
  O  O181  1  0.916380  0.400600  0.360550  1.0  -0.6018
  O  O182  1  0.936660  0.477590  0.594430  1.0  -0.6225
  O  O183  1  0.416380  0.900600  0.360550  1.0  -0.6018
  O  O184  1  0.436660  0.977590  0.594430  1.0  -0.6225
  O  O185  1  0.083620  0.400600  0.139450  1.0  -0.6021
  O  O186  1  0.063340  0.477590  0.905570  1.0  -0.6222
  O  O187  1  0.583620  0.900600  0.139450  1.0  -0.6021
  O  O188  1  0.563340  0.977590  0.905570  1.0  -0.6222
