# generated using pymatgen
data_CdH11C15NO4
_symmetry_space_group_name_H-M   'P 1'
_cell_length_a   19.10900000
_cell_length_b   19.10900000
_cell_length_c   24.31700000
_cell_angle_alpha   90.00000000
_cell_angle_beta   90.00000000
_cell_angle_gamma   90.00000000
_symmetry_Int_Tables_number   1
_chemical_formula_structural   CdH11C15NO4
_chemical_formula_sum   'Cd16 H176 C240 N16 O64'
_cell_volume   8879.44692428
_cell_formula_units_Z   16
loop_
 _symmetry_equiv_pos_site_id
 _symmetry_equiv_pos_as_xyz
  1  'x, y, z'
loop_
 _atom_site_type_symbol
 _atom_site_label
 _atom_site_symmetry_multiplicity
 _atom_site_fract_x
 _atom_site_fract_y
 _atom_site_fract_z
 _atom_site_occupancy
 _atom_site_charge
  Cd  Cd1  1  0.159170  0.678080  0.005240  1.0  1.0047
  Cd  Cd2  1  0.659170  0.178080  0.505240  1.0  1.0047
  Cd  Cd3  1  0.340830  0.321920  0.505240  1.0  1.0009
  Cd  Cd4  1  0.840830  0.821920  0.005240  1.0  1.0009
  Cd  Cd5  1  0.071920  0.409170  0.255240  1.0  1.0011
  Cd  Cd6  1  0.571920  0.909170  0.755240  1.0  1.0011
  Cd  Cd7  1  0.428080  0.590830  0.755240  1.0  1.0035
  Cd  Cd8  1  0.928080  0.090830  0.255240  1.0  1.0035
  Cd  Cd9  1  0.840830  0.321920  0.994760  1.0  1.0036
  Cd  Cd10  1  0.340830  0.821920  0.494760  1.0  1.0036
  Cd  Cd11  1  0.659170  0.678080  0.494760  1.0  1.0029
  Cd  Cd12  1  0.159170  0.178080  0.994760  1.0  1.0029
  Cd  Cd13  1  0.928080  0.590830  0.744760  1.0  1.0033
  Cd  Cd14  1  0.428080  0.090830  0.244760  1.0  1.0033
  Cd  Cd15  1  0.571920  0.409170  0.244760  1.0  1.0055
  Cd  Cd16  1  0.071920  0.909170  0.744760  1.0  1.0055
  H  H17  1  0.045300  0.596700  0.951100  1.0  0.1244
  H  H18  1  0.006600  0.597200  0.894300  1.0  0.116
  H  H19  1  0.028700  0.667900  0.922000  1.0  0.1272
  H  H20  1  0.302300  0.677100  0.939900  1.0  0.1323
  H  H21  1  0.336500  0.611600  0.912000  1.0  0.1173
  H  H22  1  0.288500  0.602100  0.963700  1.0  0.1447
  H  H23  1  0.184300  0.699500  0.726700  1.0  0.1028
  H  H24  1  0.187100  0.690700  0.633400  1.0  0.1023
  H  H25  1  0.188100  0.585600  0.591500  1.0  0.1148
  H  H26  1  0.192000  0.485800  0.642500  1.0  0.1144
  H  H27  1  0.186200  0.491800  0.739000  1.0  0.1187
  H  H28  1  0.545300  0.096700  0.451100  1.0  0.1244
  H  H29  1  0.506600  0.097200  0.394300  1.0  0.116
  H  H30  1  0.528700  0.167900  0.422000  1.0  0.1272
  H  H31  1  0.802300  0.177100  0.439900  1.0  0.1323
  H  H32  1  0.836500  0.111600  0.412000  1.0  0.1173
  H  H33  1  0.788500  0.102100  0.463700  1.0  0.1447
  H  H34  1  0.684300  0.199500  0.226700  1.0  0.1028
  H  H35  1  0.687100  0.190700  0.133400  1.0  0.1023
  H  H36  1  0.688100  0.085600  0.091500  1.0  0.1148
  H  H37  1  0.692000  0.985800  0.142500  1.0  0.1144
  H  H38  1  0.686200  0.991800  0.239000  1.0  0.1187
  H  H39  1  0.454700  0.403300  0.451100  1.0  0.1249
  H  H40  1  0.493400  0.402800  0.394300  1.0  0.1161
  H  H41  1  0.471300  0.332100  0.422000  1.0  0.1274
  H  H42  1  0.197700  0.322900  0.439900  1.0  0.1331
  H  H43  1  0.163500  0.388400  0.412000  1.0  0.1197
  H  H44  1  0.211500  0.397900  0.463700  1.0  0.1449
  H  H45  1  0.315700  0.300500  0.226700  1.0  0.1021
  H  H46  1  0.312900  0.309300  0.133400  1.0  0.1021
  H  H47  1  0.311900  0.414400  0.091500  1.0  0.1153
  H  H48  1  0.308000  0.514200  0.142500  1.0  0.1142
  H  H49  1  0.313800  0.508200  0.239000  1.0  0.1183
  H  H50  1  0.954700  0.903300  0.951100  1.0  0.1249
  H  H51  1  0.993400  0.902800  0.894300  1.0  0.1161
  H  H52  1  0.971300  0.832100  0.922000  1.0  0.1274
  H  H53  1  0.697700  0.822900  0.939900  1.0  0.1331
  H  H54  1  0.663500  0.888400  0.912000  1.0  0.1197
  H  H55  1  0.711500  0.897900  0.963700  1.0  0.1449
  H  H56  1  0.815700  0.800500  0.726700  1.0  0.1021
  H  H57  1  0.812900  0.809300  0.633400  1.0  0.1021
  H  H58  1  0.811900  0.914400  0.591500  1.0  0.1153
  H  H59  1  0.808000  0.014200  0.642500  1.0  0.1142
  H  H60  1  0.813800  0.008200  0.739000  1.0  0.1183
  H  H61  1  0.153300  0.295300  0.201100  1.0  0.1245
  H  H62  1  0.152800  0.256600  0.144300  1.0  0.1162
  H  H63  1  0.082100  0.278700  0.172000  1.0  0.1288
  H  H64  1  0.072900  0.552300  0.189900  1.0  0.1327
  H  H65  1  0.138400  0.586500  0.162000  1.0  0.1192
  H  H66  1  0.147900  0.538500  0.213700  1.0  0.146
  H  H67  1  0.050500  0.434300  0.976700  1.0  0.101
  H  H68  1  0.059300  0.437100  0.883400  1.0  0.103
  H  H69  1  0.164400  0.438100  0.841500  1.0  0.1157
  H  H70  1  0.264200  0.442000  0.892500  1.0  0.1156
  H  H71  1  0.258200  0.436200  0.989000  1.0  0.1178
  H  H72  1  0.653300  0.795300  0.701100  1.0  0.1245
  H  H73  1  0.652800  0.756600  0.644300  1.0  0.1162
  H  H74  1  0.582100  0.778700  0.672000  1.0  0.1288
  H  H75  1  0.572900  0.052300  0.689900  1.0  0.1327
  H  H76  1  0.638400  0.086500  0.662000  1.0  0.1192
  H  H77  1  0.647900  0.038500  0.713700  1.0  0.146
  H  H78  1  0.550500  0.934300  0.476700  1.0  0.101
  H  H79  1  0.559300  0.937100  0.383400  1.0  0.103
  H  H80  1  0.664400  0.938100  0.341500  1.0  0.1157
  H  H81  1  0.764200  0.942000  0.392500  1.0  0.1156
  H  H82  1  0.758200  0.936200  0.489000  1.0  0.1178
  H  H83  1  0.346700  0.704700  0.701100  1.0  0.1238
  H  H84  1  0.347200  0.743400  0.644300  1.0  0.1157
  H  H85  1  0.417900  0.721300  0.672000  1.0  0.1314
  H  H86  1  0.427100  0.447700  0.689900  1.0  0.121
  H  H87  1  0.361600  0.413500  0.662000  1.0  0.1177
  H  H88  1  0.352100  0.461500  0.713700  1.0  0.1468
  H  H89  1  0.449500  0.565700  0.476700  1.0  0.1016
  H  H90  1  0.440700  0.562900  0.383400  1.0  0.1038
  H  H91  1  0.335600  0.561900  0.341500  1.0  0.1176
  H  H92  1  0.235800  0.558000  0.392500  1.0  0.1148
  H  H93  1  0.241800  0.563800  0.489000  1.0  0.1176
  H  H94  1  0.846700  0.204700  0.201100  1.0  0.1238
  H  H95  1  0.847200  0.243400  0.144300  1.0  0.1157
  H  H96  1  0.917900  0.221300  0.172000  1.0  0.1314
  H  H97  1  0.927100  0.947700  0.189900  1.0  0.121
  H  H98  1  0.861600  0.913500  0.162000  1.0  0.1177
  H  H99  1  0.852100  0.961500  0.213700  1.0  0.1468
  H  H100  1  0.949500  0.065700  0.976700  1.0  0.1016
  H  H101  1  0.940700  0.062900  0.883400  1.0  0.1038
  H  H102  1  0.835600  0.061900  0.841500  1.0  0.1176
  H  H103  1  0.735800  0.058000  0.892500  1.0  0.1148
  H  H104  1  0.741800  0.063800  0.989000  1.0  0.1176
  H  H105  1  0.954700  0.403300  0.048900  1.0  0.1243
  H  H106  1  0.993400  0.402800  0.105700  1.0  0.1157
  H  H107  1  0.971300  0.332100  0.078000  1.0  0.1275
  H  H108  1  0.697700  0.322900  0.060100  1.0  0.1325
  H  H109  1  0.663500  0.388400  0.088000  1.0  0.1196
  H  H110  1  0.711500  0.397900  0.036300  1.0  0.1432
  H  H111  1  0.815700  0.300500  0.273300  1.0  0.1024
  H  H112  1  0.812900  0.309300  0.366600  1.0  0.1033
  H  H113  1  0.811900  0.414400  0.408500  1.0  0.1149
  H  H114  1  0.808000  0.514200  0.357500  1.0  0.114
  H  H115  1  0.813800  0.508200  0.261000  1.0  0.1188
  H  H116  1  0.454700  0.903300  0.548900  1.0  0.1243
  H  H117  1  0.493400  0.902800  0.605700  1.0  0.1157
  H  H118  1  0.471300  0.832100  0.578000  1.0  0.1275
  H  H119  1  0.197700  0.822900  0.560100  1.0  0.1325
  H  H120  1  0.163500  0.888400  0.588000  1.0  0.1196
  H  H121  1  0.211500  0.897900  0.536300  1.0  0.1432
  H  H122  1  0.315700  0.800500  0.773300  1.0  0.1024
  H  H123  1  0.312900  0.809300  0.866600  1.0  0.1033
  H  H124  1  0.311900  0.914400  0.908500  1.0  0.1149
  H  H125  1  0.308000  0.014200  0.857500  1.0  0.114
  H  H126  1  0.313800  0.008200  0.761000  1.0  0.1188
  H  H127  1  0.545300  0.596700  0.548900  1.0  0.1238
  H  H128  1  0.506600  0.597200  0.605700  1.0  0.1161
  H  H129  1  0.528700  0.667900  0.578000  1.0  0.1274
  H  H130  1  0.802300  0.677100  0.560100  1.0  0.1335
  H  H131  1  0.836500  0.611600  0.588000  1.0  0.1181
  H  H132  1  0.788500  0.602100  0.536300  1.0  0.1445
  H  H133  1  0.684300  0.699500  0.773300  1.0  0.1028
  H  H134  1  0.687100  0.690700  0.866600  1.0  0.1033
  H  H135  1  0.688100  0.585600  0.908500  1.0  0.1153
  H  H136  1  0.692000  0.485800  0.857500  1.0  0.1151
  H  H137  1  0.686200  0.491800  0.761000  1.0  0.1191
  H  H138  1  0.045300  0.096700  0.048900  1.0  0.1238
  H  H139  1  0.006600  0.097200  0.105700  1.0  0.1161
  H  H140  1  0.028700  0.167900  0.078000  1.0  0.1274
  H  H141  1  0.302300  0.177100  0.060100  1.0  0.1335
  H  H142  1  0.336500  0.111600  0.088000  1.0  0.1181
  H  H143  1  0.288500  0.102100  0.036300  1.0  0.1445
  H  H144  1  0.184300  0.199500  0.273300  1.0  0.1028
  H  H145  1  0.187100  0.190700  0.366600  1.0  0.1033
  H  H146  1  0.188100  0.085600  0.408500  1.0  0.1153
  H  H147  1  0.192000  0.985800  0.357500  1.0  0.1151
  H  H148  1  0.186200  0.991800  0.261000  1.0  0.1191
  H  H149  1  0.846700  0.704700  0.798900  1.0  0.1229
  H  H150  1  0.847200  0.743400  0.855700  1.0  0.1152
  H  H151  1  0.917900  0.721300  0.828000  1.0  0.1309
  H  H152  1  0.927100  0.447700  0.810100  1.0  0.121
  H  H153  1  0.861600  0.413500  0.838000  1.0  0.1181
  H  H154  1  0.852100  0.461500  0.786300  1.0  0.145
  H  H155  1  0.949500  0.565700  0.023300  1.0  0.1018
  H  H156  1  0.940700  0.562900  0.116600  1.0  0.1044
  H  H157  1  0.835600  0.561900  0.158500  1.0  0.117
  H  H158  1  0.735800  0.558000  0.107500  1.0  0.1156
  H  H159  1  0.741800  0.563800  0.011000  1.0  0.1181
  H  H160  1  0.346700  0.204700  0.298900  1.0  0.1229
  H  H161  1  0.347200  0.243400  0.355700  1.0  0.1152
  H  H162  1  0.417900  0.221300  0.328000  1.0  0.1309
  H  H163  1  0.427100  0.947700  0.310100  1.0  0.121
  H  H164  1  0.361600  0.913500  0.338000  1.0  0.1181
  H  H165  1  0.352100  0.961500  0.286300  1.0  0.145
  H  H166  1  0.449500  0.065700  0.523300  1.0  0.1018
  H  H167  1  0.440700  0.062900  0.616600  1.0  0.1044
  H  H168  1  0.335600  0.061900  0.658500  1.0  0.117
  H  H169  1  0.235800  0.058000  0.607500  1.0  0.1156
  H  H170  1  0.241800  0.063800  0.511000  1.0  0.1181
  H  H171  1  0.653300  0.295300  0.298900  1.0  0.123
  H  H172  1  0.652800  0.256600  0.355700  1.0  0.1163
  H  H173  1  0.582100  0.278700  0.328000  1.0  0.129
  H  H174  1  0.572900  0.552300  0.310100  1.0  0.1333
  H  H175  1  0.638400  0.586500  0.338000  1.0  0.1194
  H  H176  1  0.647900  0.538500  0.286300  1.0  0.1443
  H  H177  1  0.550500  0.434300  0.523300  1.0  0.1008
  H  H178  1  0.559300  0.437100  0.616600  1.0  0.1047
  H  H179  1  0.664400  0.438100  0.658500  1.0  0.1166
  H  H180  1  0.764200  0.442000  0.607500  1.0  0.1158
  H  H181  1  0.758200  0.436200  0.511000  1.0  0.1177
  H  H182  1  0.153300  0.795300  0.798900  1.0  0.123
  H  H183  1  0.152800  0.756600  0.855700  1.0  0.1163
  H  H184  1  0.082100  0.778700  0.828000  1.0  0.129
  H  H185  1  0.072900  0.052300  0.810100  1.0  0.1333
  H  H186  1  0.138400  0.086500  0.838000  1.0  0.1194
  H  H187  1  0.147900  0.038500  0.786300  1.0  0.1443
  H  H188  1  0.050500  0.934300  0.023300  1.0  0.1008
  H  H189  1  0.059300  0.937100  0.116600  1.0  0.1047
  H  H190  1  0.164400  0.938100  0.158500  1.0  0.1166
  H  H191  1  0.264200  0.942000  0.107500  1.0  0.1158
  H  H192  1  0.258200  0.936200  0.011000  1.0  0.1177
  C  C193  1  0.311200  0.604500  0.812230  1.0  0.6675
  C  C194  1  0.049600  0.599600  0.796940  1.0  0.687
  C  C195  1  0.115500  0.606400  0.830250  1.0  -0.088
  C  C196  1  0.111400  0.616800  0.886900  1.0  0.1945
  C  C197  1  0.041600  0.619900  0.916300  1.0  -0.3782
  C  C198  1  0.232800  0.621300  0.893780  1.0  0.2499
  C  C199  1  0.295700  0.628700  0.930700  1.0  -0.4203
  C  C200  1  0.240400  0.609800  0.837200  1.0  -0.1076
  C  C201  1  0.180600  0.603600  0.804720  1.0  0.0034
  C  C202  1  0.185000  0.597000  0.743600  1.0  0.0269
  C  C203  1  0.185300  0.655400  0.710600  1.0  -0.1014
  C  C204  1  0.186900  0.650200  0.654600  1.0  -0.0492
  C  C205  1  0.188100  0.588200  0.629700  1.0  -0.0442
  C  C206  1  0.189400  0.529100  0.659900  1.0  -0.1268
  C  C207  1  0.186800  0.532600  0.718200  1.0  -0.1164
  C  C208  1  0.811200  0.104500  0.312230  1.0  0.6675
  C  C209  1  0.549600  0.099600  0.296940  1.0  0.687
  C  C210  1  0.615500  0.106400  0.330250  1.0  -0.088
  C  C211  1  0.611400  0.116800  0.386900  1.0  0.1945
  C  C212  1  0.541600  0.119900  0.416300  1.0  -0.3782
  C  C213  1  0.732800  0.121300  0.393780  1.0  0.2499
  C  C214  1  0.795700  0.128700  0.430700  1.0  -0.4203
  C  C215  1  0.740400  0.109800  0.337200  1.0  -0.1076
  C  C216  1  0.680600  0.103600  0.304720  1.0  0.0034
  C  C217  1  0.685000  0.097000  0.243600  1.0  0.0269
  C  C218  1  0.685300  0.155400  0.210600  1.0  -0.1014
  C  C219  1  0.686900  0.150200  0.154600  1.0  -0.0492
  C  C220  1  0.688100  0.088200  0.129700  1.0  -0.0442
  C  C221  1  0.689400  0.029100  0.159900  1.0  -0.1268
  C  C222  1  0.686800  0.032600  0.218200  1.0  -0.1164
  C  C223  1  0.188800  0.395500  0.312230  1.0  0.6672
  C  C224  1  0.450400  0.400400  0.296940  1.0  0.6847
  C  C225  1  0.384500  0.393600  0.330250  1.0  -0.0885
  C  C226  1  0.388600  0.383200  0.386900  1.0  0.1951
  C  C227  1  0.458400  0.380100  0.416300  1.0  -0.3771
  C  C228  1  0.267200  0.378700  0.393780  1.0  0.2487
  C  C229  1  0.204300  0.371300  0.430700  1.0  -0.4184
  C  C230  1  0.259600  0.390200  0.337200  1.0  -0.1075
  C  C231  1  0.319400  0.396400  0.304720  1.0  0.0036
  C  C232  1  0.315000  0.403000  0.243600  1.0  0.027
  C  C233  1  0.314700  0.344600  0.210600  1.0  -0.0997
  C  C234  1  0.313100  0.349800  0.154600  1.0  -0.0479
  C  C235  1  0.311900  0.411800  0.129700  1.0  -0.0432
  C  C236  1  0.310600  0.470900  0.159900  1.0  -0.1241
  C  C237  1  0.313200  0.467400  0.218200  1.0  -0.1161
  C  C238  1  0.688800  0.895500  0.812230  1.0  0.6672
  C  C239  1  0.950400  0.900400  0.796940  1.0  0.6847
  C  C240  1  0.884500  0.893600  0.830250  1.0  -0.0885
  C  C241  1  0.888600  0.883200  0.886900  1.0  0.1951
  C  C242  1  0.958400  0.880100  0.916300  1.0  -0.3771
  C  C243  1  0.767200  0.878700  0.893780  1.0  0.2487
  C  C244  1  0.704300  0.871300  0.930700  1.0  -0.4184
  C  C245  1  0.759600  0.890200  0.837200  1.0  -0.1075
  C  C246  1  0.819400  0.896400  0.804720  1.0  0.0036
  C  C247  1  0.815000  0.903000  0.743600  1.0  0.027
  C  C248  1  0.814700  0.844600  0.710600  1.0  -0.0997
  C  C249  1  0.813100  0.849800  0.654600  1.0  -0.0479
  C  C250  1  0.811900  0.911800  0.629700  1.0  -0.0432
  C  C251  1  0.810600  0.970900  0.659900  1.0  -0.1241
  C  C252  1  0.813200  0.967400  0.718200  1.0  -0.1161
  C  C253  1  0.145500  0.561200  0.062230  1.0  0.6749
  C  C254  1  0.150400  0.299600  0.046940  1.0  0.6886
  C  C255  1  0.143600  0.365500  0.080250  1.0  -0.0891
  C  C256  1  0.133200  0.361400  0.136900  1.0  0.1953
  C  C257  1  0.130100  0.291600  0.166300  1.0  -0.3782
  C  C258  1  0.128700  0.482800  0.143780  1.0  0.2451
  C  C259  1  0.121300  0.545700  0.180700  1.0  -0.4189
  C  C260  1  0.140200  0.490400  0.087200  1.0  -0.1099
  C  C261  1  0.146400  0.430600  0.054720  1.0  0.0024
  C  C262  1  0.153000  0.435000  0.993600  1.0  0.027
  C  C263  1  0.094600  0.435300  0.960600  1.0  -0.1014
  C  C264  1  0.099800  0.436900  0.904600  1.0  -0.0442
  C  C265  1  0.161800  0.438100  0.879700  1.0  -0.0403
  C  C266  1  0.220900  0.439400  0.909900  1.0  -0.1233
  C  C267  1  0.217400  0.436800  0.968200  1.0  -0.1116
  C  C268  1  0.645500  0.061200  0.562230  1.0  0.6749
  C  C269  1  0.650400  0.799600  0.546940  1.0  0.6886
  C  C270  1  0.643600  0.865500  0.580250  1.0  -0.0891
  C  C271  1  0.633200  0.861400  0.636900  1.0  0.1953
  C  C272  1  0.630100  0.791600  0.666300  1.0  -0.3782
  C  C273  1  0.628700  0.982800  0.643780  1.0  0.2451
  C  C274  1  0.621300  0.045700  0.680700  1.0  -0.4189
  C  C275  1  0.640200  0.990400  0.587200  1.0  -0.1099
  C  C276  1  0.646400  0.930600  0.554720  1.0  0.0024
  C  C277  1  0.653000  0.935000  0.493600  1.0  0.027
  C  C278  1  0.594600  0.935300  0.460600  1.0  -0.1014
  C  C279  1  0.599800  0.936900  0.404600  1.0  -0.0442
  C  C280  1  0.661800  0.938100  0.379700  1.0  -0.0403
  C  C281  1  0.720900  0.939400  0.409900  1.0  -0.1233
  C  C282  1  0.717400  0.936800  0.468200  1.0  -0.1116
  C  C283  1  0.354500  0.438800  0.562230  1.0  0.6748
  C  C284  1  0.349600  0.700400  0.546940  1.0  0.6891
  C  C285  1  0.356400  0.634500  0.580250  1.0  -0.0883
  C  C286  1  0.366800  0.638600  0.636900  1.0  0.1946
  C  C287  1  0.369900  0.708400  0.666300  1.0  -0.3774
  C  C288  1  0.371300  0.517200  0.643780  1.0  0.2449
  C  C289  1  0.378700  0.454300  0.680700  1.0  -0.4153
  C  C290  1  0.359800  0.509600  0.587200  1.0  -0.1094
  C  C291  1  0.353600  0.569400  0.554720  1.0  0.002
  C  C292  1  0.347000  0.565000  0.493600  1.0  0.027
  C  C293  1  0.405400  0.564700  0.460600  1.0  -0.1032
  C  C294  1  0.400200  0.563100  0.404600  1.0  -0.0428
  C  C295  1  0.338200  0.561900  0.379700  1.0  -0.0382
  C  C296  1  0.279100  0.560600  0.409900  1.0  -0.1243
  C  C297  1  0.282600  0.563200  0.468200  1.0  -0.1132
  C  C298  1  0.854500  0.938800  0.062230  1.0  0.6748
  C  C299  1  0.849600  0.200400  0.046940  1.0  0.6891
  C  C300  1  0.856400  0.134500  0.080250  1.0  -0.0883
  C  C301  1  0.866800  0.138600  0.136900  1.0  0.1946
  C  C302  1  0.869900  0.208400  0.166300  1.0  -0.3774
  C  C303  1  0.871300  0.017200  0.143780  1.0  0.2449
  C  C304  1  0.878700  0.954300  0.180700  1.0  -0.4153
  C  C305  1  0.859800  0.009600  0.087200  1.0  -0.1094
  C  C306  1  0.853600  0.069400  0.054720  1.0  0.002
  C  C307  1  0.847000  0.065000  0.993600  1.0  0.027
  C  C308  1  0.905400  0.064700  0.960600  1.0  -0.1032
  C  C309  1  0.900200  0.063100  0.904600  1.0  -0.0428
  C  C310  1  0.838200  0.061900  0.879700  1.0  -0.0382
  C  C311  1  0.779100  0.060600  0.909900  1.0  -0.1243
  C  C312  1  0.782600  0.063200  0.968200  1.0  -0.1132
  C  C313  1  0.688800  0.395500  0.187770  1.0  0.6681
  C  C314  1  0.950400  0.400400  0.203060  1.0  0.6864
  C  C315  1  0.884500  0.393600  0.169750  1.0  -0.0904
  C  C316  1  0.888600  0.383200  0.113100  1.0  0.195
  C  C317  1  0.958400  0.380100  0.083700  1.0  -0.3779
  C  C318  1  0.767200  0.378700  0.106220  1.0  0.2475
  C  C319  1  0.704300  0.371300  0.069300  1.0  -0.4172
  C  C320  1  0.759600  0.390200  0.162800  1.0  -0.1073
  C  C321  1  0.819400  0.396400  0.195280  1.0  0.0035
  C  C322  1  0.815000  0.403000  0.256400  1.0  0.0261
  C  C323  1  0.814700  0.344600  0.289400  1.0  -0.1012
  C  C324  1  0.813100  0.349800  0.345400  1.0  -0.0469
  C  C325  1  0.811900  0.411800  0.370300  1.0  -0.0422
  C  C326  1  0.810600  0.470900  0.340100  1.0  -0.1253
  C  C327  1  0.813200  0.467400  0.281800  1.0  -0.1161
  C  C328  1  0.188800  0.895500  0.687770  1.0  0.6681
  C  C329  1  0.450400  0.900400  0.703060  1.0  0.6864
  C  C330  1  0.384500  0.893600  0.669750  1.0  -0.0904
  C  C331  1  0.388600  0.883200  0.613100  1.0  0.195
  C  C332  1  0.458400  0.880100  0.583700  1.0  -0.3779
  C  C333  1  0.267200  0.878700  0.606220  1.0  0.2475
  C  C334  1  0.204300  0.871300  0.569300  1.0  -0.4172
  C  C335  1  0.259600  0.890200  0.662800  1.0  -0.1073
  C  C336  1  0.319400  0.896400  0.695280  1.0  0.0035
  C  C337  1  0.315000  0.903000  0.756400  1.0  0.0261
  C  C338  1  0.314700  0.844600  0.789400  1.0  -0.1012
  C  C339  1  0.313100  0.849800  0.845400  1.0  -0.0469
  C  C340  1  0.311900  0.911800  0.870300  1.0  -0.0422
  C  C341  1  0.310600  0.970900  0.840100  1.0  -0.1253
  C  C342  1  0.313200  0.967400  0.781800  1.0  -0.1161
  C  C343  1  0.811200  0.604500  0.687770  1.0  0.6682
  C  C344  1  0.549600  0.599600  0.703060  1.0  0.6825
  C  C345  1  0.615500  0.606400  0.669750  1.0  -0.0893
  C  C346  1  0.611400  0.616800  0.613100  1.0  0.1947
  C  C347  1  0.541600  0.619900  0.583700  1.0  -0.3785
  C  C348  1  0.732800  0.621300  0.606220  1.0  0.2496
  C  C349  1  0.795700  0.628700  0.569300  1.0  -0.421
  C  C350  1  0.740400  0.609800  0.662800  1.0  -0.1078
  C  C351  1  0.680600  0.603600  0.695280  1.0  0.0031
  C  C352  1  0.685000  0.597000  0.756400  1.0  0.026
  C  C353  1  0.685300  0.655400  0.789400  1.0  -0.1018
  C  C354  1  0.686900  0.650200  0.845400  1.0  -0.048
  C  C355  1  0.688100  0.588200  0.870300  1.0  -0.0424
  C  C356  1  0.689400  0.529100  0.840100  1.0  -0.1267
  C  C357  1  0.686800  0.532600  0.781800  1.0  -0.1162
  C  C358  1  0.311200  0.104500  0.187770  1.0  0.6682
  C  C359  1  0.049600  0.099600  0.203060  1.0  0.6825
  C  C360  1  0.115500  0.106400  0.169750  1.0  -0.0893
  C  C361  1  0.111400  0.116800  0.113100  1.0  0.1947
  C  C362  1  0.041600  0.119900  0.083700  1.0  -0.3785
  C  C363  1  0.232800  0.121300  0.106220  1.0  0.2496
  C  C364  1  0.295700  0.128700  0.069300  1.0  -0.421
  C  C365  1  0.240400  0.109800  0.162800  1.0  -0.1078
  C  C366  1  0.180600  0.103600  0.195280  1.0  0.0031
  C  C367  1  0.185000  0.097000  0.256400  1.0  0.026
  C  C368  1  0.185300  0.155400  0.289400  1.0  -0.1018
  C  C369  1  0.186900  0.150200  0.345400  1.0  -0.048
  C  C370  1  0.188100  0.088200  0.370300  1.0  -0.0424
  C  C371  1  0.189400  0.029100  0.340100  1.0  -0.1267
  C  C372  1  0.186800  0.032600  0.281800  1.0  -0.1162
  C  C373  1  0.854500  0.438800  0.937770  1.0  0.6757
  C  C374  1  0.849600  0.700400  0.953060  1.0  0.6877
  C  C375  1  0.856400  0.634500  0.919750  1.0  -0.0901
  C  C376  1  0.866800  0.638600  0.863100  1.0  0.1946
  C  C377  1  0.869900  0.708400  0.833700  1.0  -0.3783
  C  C378  1  0.871300  0.517200  0.856220  1.0  0.2438
  C  C379  1  0.878700  0.454300  0.819300  1.0  -0.4152
  C  C380  1  0.859800  0.509600  0.912800  1.0  -0.1093
  C  C381  1  0.853600  0.569400  0.945280  1.0  0.002
  C  C382  1  0.847000  0.565000  0.006400  1.0  0.0259
  C  C383  1  0.905400  0.564700  0.039400  1.0  -0.1034
  C  C384  1  0.900200  0.563100  0.095400  1.0  -0.0418
  C  C385  1  0.838200  0.561900  0.120300  1.0  -0.0374
  C  C386  1  0.779100  0.560600  0.090100  1.0  -0.1245
  C  C387  1  0.782600  0.563200  0.031800  1.0  -0.1133
  C  C388  1  0.354500  0.938800  0.437770  1.0  0.6757
  C  C389  1  0.349600  0.200400  0.453060  1.0  0.6877
  C  C390  1  0.356400  0.134500  0.419750  1.0  -0.0901
  C  C391  1  0.366800  0.138600  0.363100  1.0  0.1946
  C  C392  1  0.369900  0.208400  0.333700  1.0  -0.3783
  C  C393  1  0.371300  0.017200  0.356220  1.0  0.2438
  C  C394  1  0.378700  0.954300  0.319300  1.0  -0.4152
  C  C395  1  0.359800  0.009600  0.412800  1.0  -0.1093
  C  C396  1  0.353600  0.069400  0.445280  1.0  0.002
  C  C397  1  0.347000  0.065000  0.506400  1.0  0.0259
  C  C398  1  0.405400  0.064700  0.539400  1.0  -0.1034
  C  C399  1  0.400200  0.063100  0.595400  1.0  -0.0418
  C  C400  1  0.338200  0.061900  0.620300  1.0  -0.0374
  C  C401  1  0.279100  0.060600  0.590100  1.0  -0.1245
  C  C402  1  0.282600  0.063200  0.531800  1.0  -0.1133
  C  C403  1  0.645500  0.561200  0.437770  1.0  0.6758
  C  C404  1  0.650400  0.299600  0.453060  1.0  0.6878
  C  C405  1  0.643600  0.365500  0.419750  1.0  -0.0906
  C  C406  1  0.633200  0.361400  0.363100  1.0  0.1951
  C  C407  1  0.630100  0.291600  0.333700  1.0  -0.3793
  C  C408  1  0.628700  0.482800  0.356220  1.0  0.2445
  C  C409  1  0.621300  0.545700  0.319300  1.0  -0.4149
  C  C410  1  0.640200  0.490400  0.412800  1.0  -0.1101
  C  C411  1  0.646400  0.430600  0.445280  1.0  0.0022
  C  C412  1  0.653000  0.435000  0.506400  1.0  0.0265
  C  C413  1  0.594600  0.435300  0.539400  1.0  -0.1019
  C  C414  1  0.599800  0.436900  0.595400  1.0  -0.0423
  C  C415  1  0.661800  0.438100  0.620300  1.0  -0.0388
  C  C416  1  0.720900  0.439400  0.590100  1.0  -0.1235
  C  C417  1  0.717400  0.436800  0.531800  1.0  -0.1119
  C  C418  1  0.145500  0.061200  0.937770  1.0  0.6758
  C  C419  1  0.150400  0.799600  0.953060  1.0  0.6878
  C  C420  1  0.143600  0.865500  0.919750  1.0  -0.0906
  C  C421  1  0.133200  0.861400  0.863100  1.0  0.1951
  C  C422  1  0.130100  0.791600  0.833700  1.0  -0.3793
  C  C423  1  0.128700  0.982800  0.856220  1.0  0.2445
  C  C424  1  0.121300  0.045700  0.819300  1.0  -0.4149
  C  C425  1  0.140200  0.990400  0.912800  1.0  -0.1101
  C  C426  1  0.146400  0.930600  0.945280  1.0  0.0022
  C  C427  1  0.153000  0.935000  0.006400  1.0  0.0265
  C  C428  1  0.094600  0.935300  0.039400  1.0  -0.1019
  C  C429  1  0.099800  0.936900  0.095400  1.0  -0.0423
  C  C430  1  0.161800  0.938100  0.120300  1.0  -0.0388
  C  C431  1  0.220900  0.939400  0.090100  1.0  -0.1235
  C  C432  1  0.217400  0.936800  0.031800  1.0  -0.1119
  N  N433  1  0.169810  0.625900  0.917840  1.0  -0.3941
  N  N434  1  0.669810  0.125900  0.417840  1.0  -0.3941
  N  N435  1  0.330190  0.374100  0.417840  1.0  -0.3946
  N  N436  1  0.830190  0.874100  0.917840  1.0  -0.3946
  N  N437  1  0.124100  0.419810  0.167840  1.0  -0.3952
  N  N438  1  0.624100  0.919810  0.667840  1.0  -0.3952
  N  N439  1  0.375900  0.580190  0.667840  1.0  -0.3936
  N  N440  1  0.875900  0.080190  0.167840  1.0  -0.3936
  N  N441  1  0.830190  0.374100  0.082160  1.0  -0.3949
  N  N442  1  0.330190  0.874100  0.582160  1.0  -0.3949
  N  N443  1  0.669810  0.625900  0.582160  1.0  -0.3951
  N  N444  1  0.169810  0.125900  0.082160  1.0  -0.3951
  N  N445  1  0.875900  0.580190  0.832160  1.0  -0.3942
  N  N446  1  0.375900  0.080190  0.332160  1.0  -0.3942
  N  N447  1  0.624100  0.419810  0.332160  1.0  -0.3953
  N  N448  1  0.124100  0.919810  0.832160  1.0  -0.3953
  O  O449  1  0.343130  0.658950  0.799080  1.0  -0.5784
  O  O450  1  0.335980  0.544680  0.803370  1.0  -0.5875
  O  O451  1  0.018540  0.655070  0.783470  1.0  -0.577
  O  O452  1  0.027540  0.540080  0.784850  1.0  -0.5886
  O  O453  1  0.843130  0.158950  0.299080  1.0  -0.5784
  O  O454  1  0.835980  0.044680  0.303370  1.0  -0.5875
  O  O455  1  0.518540  0.155070  0.283470  1.0  -0.577
  O  O456  1  0.527540  0.040080  0.284850  1.0  -0.5886
  O  O457  1  0.156870  0.341050  0.299080  1.0  -0.5794
  O  O458  1  0.164020  0.455320  0.303370  1.0  -0.5865
  O  O459  1  0.481460  0.344930  0.283470  1.0  -0.5777
  O  O460  1  0.472460  0.459920  0.284850  1.0  -0.5893
  O  O461  1  0.656870  0.841050  0.799080  1.0  -0.5794
  O  O462  1  0.664020  0.955320  0.803370  1.0  -0.5865
  O  O463  1  0.981460  0.844930  0.783470  1.0  -0.5777
  O  O464  1  0.972460  0.959920  0.784850  1.0  -0.5893
  O  O465  1  0.091050  0.593130  0.049080  1.0  -0.5792
  O  O466  1  0.205320  0.585980  0.053370  1.0  -0.5885
  O  O467  1  0.094930  0.268540  0.033470  1.0  -0.5765
  O  O468  1  0.209920  0.277540  0.034850  1.0  -0.5888
  O  O469  1  0.591050  0.093130  0.549080  1.0  -0.5792
  O  O470  1  0.705320  0.085980  0.553370  1.0  -0.5885
  O  O471  1  0.594930  0.768540  0.533470  1.0  -0.5765
  O  O472  1  0.709920  0.777540  0.534850  1.0  -0.5888
  O  O473  1  0.408950  0.406870  0.549080  1.0  -0.5802
  O  O474  1  0.294680  0.414020  0.553370  1.0  -0.5882
  O  O475  1  0.405070  0.731460  0.533470  1.0  -0.5771
  O  O476  1  0.290080  0.722460  0.534850  1.0  -0.5883
  O  O477  1  0.908950  0.906870  0.049080  1.0  -0.5802
  O  O478  1  0.794680  0.914020  0.053370  1.0  -0.5882
  O  O479  1  0.905070  0.231460  0.033470  1.0  -0.5771
  O  O480  1  0.790080  0.222460  0.034850  1.0  -0.5883
  O  O481  1  0.656870  0.341050  0.200920  1.0  -0.5805
  O  O482  1  0.664020  0.455320  0.196630  1.0  -0.5873
  O  O483  1  0.981460  0.344930  0.216530  1.0  -0.5789
  O  O484  1  0.972460  0.459920  0.215150  1.0  -0.588
  O  O485  1  0.156870  0.841050  0.700920  1.0  -0.5805
  O  O486  1  0.164020  0.955320  0.696630  1.0  -0.5873
  O  O487  1  0.481460  0.844930  0.716530  1.0  -0.5789
  O  O488  1  0.472460  0.959920  0.715150  1.0  -0.588
  O  O489  1  0.843130  0.658950  0.700920  1.0  -0.5778
  O  O490  1  0.835980  0.544680  0.696630  1.0  -0.5869
  O  O491  1  0.518540  0.655070  0.716530  1.0  -0.5782
  O  O492  1  0.527540  0.540080  0.715150  1.0  -0.5909
  O  O493  1  0.343130  0.158950  0.200920  1.0  -0.5778
  O  O494  1  0.335980  0.044680  0.196630  1.0  -0.5869
  O  O495  1  0.018540  0.155070  0.216530  1.0  -0.5782
  O  O496  1  0.027540  0.040080  0.215150  1.0  -0.5909
  O  O497  1  0.908950  0.406870  0.950920  1.0  -0.5796
  O  O498  1  0.794680  0.414020  0.946630  1.0  -0.5888
  O  O499  1  0.905070  0.731460  0.966530  1.0  -0.5771
  O  O500  1  0.790080  0.722460  0.965150  1.0  -0.5892
  O  O501  1  0.408950  0.906870  0.450920  1.0  -0.5796
  O  O502  1  0.294680  0.914020  0.446630  1.0  -0.5888
  O  O503  1  0.405070  0.231460  0.466530  1.0  -0.5771
  O  O504  1  0.290080  0.222460  0.465150  1.0  -0.5892
  O  O505  1  0.591050  0.593130  0.450920  1.0  -0.579
  O  O506  1  0.705320  0.585980  0.446630  1.0  -0.5881
  O  O507  1  0.594930  0.268540  0.466530  1.0  -0.5775
  O  O508  1  0.709920  0.277540  0.465150  1.0  -0.5893
  O  O509  1  0.091050  0.093130  0.950920  1.0  -0.579
  O  O510  1  0.205320  0.085980  0.946630  1.0  -0.5881
  O  O511  1  0.094930  0.768540  0.966530  1.0  -0.5775
  O  O512  1  0.209920  0.777540  0.965150  1.0  -0.5893
