# generated using pymatgen
data_Zn3H23C42N5O12
_symmetry_space_group_name_H-M   'P 1'
_cell_length_a   10.06270000
_cell_length_b   23.06080000
_cell_length_c   26.84320000
_cell_angle_alpha   90.00000000
_cell_angle_beta   95.11600000
_cell_angle_gamma   90.00000000
_symmetry_Int_Tables_number   1
_chemical_formula_structural   Zn3H23C42N5O12
_chemical_formula_sum   'Zn12 H92 C168 N20 O48'
_cell_volume   6204.25422374
_cell_formula_units_Z   4
loop_
 _symmetry_equiv_pos_site_id
 _symmetry_equiv_pos_as_xyz
  1  'x, y, z'
loop_
 _atom_site_type_symbol
 _atom_site_label
 _atom_site_symmetry_multiplicity
 _atom_site_fract_x
 _atom_site_fract_y
 _atom_site_fract_z
 _atom_site_occupancy
 _atom_site_charge
  Zn  Zn1  1  0.348960  0.192710  0.271960  1.0  0.9405
  Zn  Zn2  1  0.038150  0.244750  0.183010  1.0  0.9613
  Zn  Zn3  1  0.356730  0.508270  0.008100  1.0  1.1704
  Zn  Zn4  1  0.151040  0.692710  0.228040  1.0  0.9398
  Zn  Zn5  1  0.461850  0.744750  0.316990  1.0  0.9613
  Zn  Zn6  1  0.143270  0.008270  0.491900  1.0  1.1735
  Zn  Zn7  1  0.651040  0.807290  0.728040  1.0  0.9398
  Zn  Zn8  1  0.961850  0.755250  0.816990  1.0  0.9641
  Zn  Zn9  1  0.643270  0.491730  0.991900  1.0  1.1729
  Zn  Zn10  1  0.848960  0.307290  0.771960  1.0  0.9405
  Zn  Zn11  1  0.538150  0.255250  0.683010  1.0  0.9636
  Zn  Zn12  1  0.856730  0.991730  0.508100  1.0  1.1705
  H  H13  1  0.321500  0.363800  0.111400  1.0  0.1141
  H  H14  1  0.718700  0.357300  0.098700  1.0  0.1283
  H  H15  1  0.543700  0.248800  0.191900  1.0  0.1023
  H  H16  1  0.799200  0.202300  0.273700  1.0  0.123
  H  H17  1  0.691500  0.113300  0.392200  1.0  0.1149
  H  H18  1  0.079400  0.114900  0.364900  1.0  0.1256
  H  H19  1  0.487400  0.845600  0.815700  1.0  0.1284
  H  H20  1  0.725400  0.949700  0.751700  1.0  0.1132
  H  H21  1  0.620800  0.006500  0.817600  1.0  0.1367
  H  H22  1  0.340000  0.861700  0.863900  1.0  0.1521
  H  H23  1  0.234100  0.877100  0.938700  1.0  0.1054
  H  H24  1  0.405900  0.030600  0.961800  1.0  0.1087
  H  H25  1  0.521000  0.020100  0.889100  1.0  0.1326
  H  H26  1  0.203200  0.045800  0.003800  1.0  0.1427
  H  H27  1  0.255000  0.870100  0.020100  1.0  0.1441
  H  H28  1  0.167400  0.204500  0.093300  1.0  0.1011
  H  H29  1  0.213400  0.118000  0.051400  1.0  0.1103
  H  H30  1  0.019500  0.030600  0.145900  1.0  0.1235
  H  H31  1  0.982500  0.116900  0.188200  1.0  0.0846
  H  H32  1  0.131600  0.830400  0.227500  1.0  0.0881
  H  H33  1  0.149100  0.908900  0.174400  1.0  0.1254
  H  H34  1  0.220100  0.800000  0.065900  1.0  0.1259
  H  H35  1  0.208200  0.724900  0.121600  1.0  0.0825
  H  H36  1  0.178500  0.863800  0.388600  1.0  0.1146
  H  H37  1  0.781300  0.857300  0.401300  1.0  0.1286
  H  H38  1  0.956300  0.748800  0.308100  1.0  0.1026
  H  H39  1  0.700800  0.702300  0.226300  1.0  0.1224
  H  H40  1  0.808500  0.613300  0.107800  1.0  0.1145
  H  H41  1  0.420600  0.614900  0.135100  1.0  0.1242
  H  H42  1  0.012600  0.345600  0.684300  1.0  0.1278
  H  H43  1  0.774600  0.449700  0.748300  1.0  0.114
  H  H44  1  0.879200  0.506500  0.682400  1.0  0.1371
  H  H45  1  0.160000  0.361700  0.636100  1.0  0.1524
  H  H46  1  0.265900  0.377100  0.561300  1.0  0.1057
  H  H47  1  0.094100  0.530600  0.538200  1.0  0.1089
  H  H48  1  0.979000  0.520100  0.610900  1.0  0.1325
  H  H49  1  0.296800  0.545800  0.496200  1.0  0.1417
  H  H50  1  0.245000  0.370100  0.479900  1.0  0.144
  H  H51  1  0.332600  0.704500  0.406700  1.0  0.1006
  H  H52  1  0.286600  0.618000  0.448600  1.0  0.11
  H  H53  1  0.480500  0.530600  0.354100  1.0  0.1238
  H  H54  1  0.517500  0.616900  0.311800  1.0  0.0852
  H  H55  1  0.368400  0.330400  0.272500  1.0  0.0889
  H  H56  1  0.350900  0.408900  0.325600  1.0  0.1254
  H  H57  1  0.279900  0.300000  0.434100  1.0  0.126
  H  H58  1  0.291800  0.224900  0.378400  1.0  0.0834
  H  H59  1  0.678500  0.636200  0.888600  1.0  0.1143
  H  H60  1  0.281300  0.642700  0.901300  1.0  0.1288
  H  H61  1  0.456300  0.751200  0.808100  1.0  0.1016
  H  H62  1  0.200800  0.797700  0.726300  1.0  0.1226
  H  H63  1  0.308500  0.886700  0.607800  1.0  0.1145
  H  H64  1  0.920600  0.885100  0.635100  1.0  0.1239
  H  H65  1  0.512600  0.154400  0.184300  1.0  0.1283
  H  H66  1  0.274600  0.050300  0.248300  1.0  0.1139
  H  H67  1  0.379200  0.993500  0.182400  1.0  0.1357
  H  H68  1  0.660000  0.138300  0.136100  1.0  0.1515
  H  H69  1  0.765900  0.122900  0.061300  1.0  0.1059
  H  H70  1  0.594100  0.969400  0.038200  1.0  0.1093
  H  H71  1  0.479000  0.979900  0.110900  1.0  0.1314
  H  H72  1  0.796800  0.954200  0.996200  1.0  0.1422
  H  H73  1  0.745000  0.129900  0.979900  1.0  0.1449
  H  H74  1  0.832600  0.795500  0.906700  1.0  0.1009
  H  H75  1  0.786600  0.882000  0.948600  1.0  0.1105
  H  H76  1  0.980500  0.969400  0.854100  1.0  0.1242
  H  H77  1  0.017500  0.883100  0.811800  1.0  0.0851
  H  H78  1  0.868400  0.169600  0.772500  1.0  0.0888
  H  H79  1  0.850900  0.091100  0.825600  1.0  0.1251
  H  H80  1  0.779900  0.200000  0.934100  1.0  0.1259
  H  H81  1  0.791800  0.275100  0.878400  1.0  0.0835
  H  H82  1  0.821500  0.136200  0.611400  1.0  0.1138
  H  H83  1  0.218700  0.142700  0.598700  1.0  0.1278
  H  H84  1  0.043700  0.251200  0.691900  1.0  0.1019
  H  H85  1  0.299200  0.297700  0.773700  1.0  0.123
  H  H86  1  0.191500  0.386700  0.892200  1.0  0.1147
  H  H87  1  0.579400  0.385100  0.864900  1.0  0.1259
  H  H88  1  0.987400  0.654400  0.315700  1.0  0.1291
  H  H89  1  0.225400  0.550300  0.251700  1.0  0.1134
  H  H90  1  0.120800  0.493500  0.317600  1.0  0.135
  H  H91  1  0.840000  0.638300  0.363900  1.0  0.1514
  H  H92  1  0.734100  0.622900  0.438700  1.0  0.1058
  H  H93  1  0.905900  0.469400  0.461800  1.0  0.1091
  H  H94  1  0.021000  0.479900  0.389100  1.0  0.1322
  H  H95  1  0.703200  0.454200  0.503800  1.0  0.1426
  H  H96  1  0.755000  0.629900  0.520100  1.0  0.1447
  H  H97  1  0.667400  0.295500  0.593300  1.0  0.1014
  H  H98  1  0.713400  0.382000  0.551400  1.0  0.1102
  H  H99  1  0.519500  0.469400  0.645900  1.0  0.1241
  H  H100  1  0.482500  0.383100  0.688200  1.0  0.0845
  H  H101  1  0.631600  0.669600  0.727500  1.0  0.088
  H  H102  1  0.649100  0.591100  0.674400  1.0  0.1252
  H  H103  1  0.720100  0.700000  0.565900  1.0  0.1259
  H  H104  1  0.708200  0.775100  0.621600  1.0  0.0824
  C  C105  1  0.292100  0.279700  0.175700  1.0  0.6702
  C  C106  1  0.508300  0.416800  0.063000  1.0  0.7004
  C  C107  1  0.781300  0.266700  0.161800  1.0  0.7152
  C  C108  1  0.411300  0.303500  0.155100  1.0  -0.1122
  C  C109  1  0.403600  0.346800  0.121100  1.0  -0.0292
  C  C110  1  0.518200  0.366200  0.100300  1.0  -0.1302
  C  C111  1  0.643600  0.343400  0.112600  1.0  -0.014
  C  C112  1  0.651100  0.297600  0.147700  1.0  -0.1459
  C  C113  1  0.536700  0.278600  0.168500  1.0  -0.068
  C  C114  1  0.059300  0.185700  0.282900  1.0  0.6919
  C  C115  1  0.579000  0.171900  0.315900  1.0  0.6933
  C  C116  1  0.925800  0.066200  0.428700  1.0  0.7151
  C  C117  1  0.954200  0.163900  0.315500  1.0  -0.1442
  C  C118  1  0.821800  0.178700  0.301300  1.0  -0.0258
  C  C119  1  0.723900  0.156500  0.330400  1.0  -0.1479
  C  C120  1  0.757500  0.123900  0.371800  1.0  0.0568
  C  C121  1  0.886500  0.106300  0.384200  1.0  -0.1426
  C  C122  1  0.991300  0.126000  0.356700  1.0  -0.0591
  C  C123  1  0.534200  0.878600  0.807900  1.0  0.1886
  C  C124  1  0.664700  0.935400  0.772800  1.0  0.0249
  C  C125  1  0.606200  0.967600  0.809500  1.0  -0.1108
  C  C126  1  0.443200  0.938000  0.872500  1.0  0.0784
  C  C127  1  0.355900  0.894500  0.883600  1.0  -0.1394
  C  C128  1  0.292100  0.905200  0.928400  1.0  -0.1486
  C  C129  1  0.311300  0.954200  0.957000  1.0  -0.0008
  C  C130  1  0.395000  0.997000  0.942600  1.0  -0.0767
  C  C131  1  0.464900  0.991300  0.899400  1.0  -0.1648
  C  C132  1  0.160200  0.012500  0.072500  1.0  0.1511
  C  C133  1  0.202600  0.012400  0.023100  1.0  -0.0992
  C  C134  1  0.243500  0.957900  0.005500  1.0  -0.1343
  C  C135  1  0.233200  0.905800  0.033200  1.0  -0.137
  C  C136  1  0.187000  0.910800  0.083000  1.0  0.0737
  C  C137  1  0.134000  0.169600  0.104200  1.0  0.1493
  C  C138  1  0.163900  0.116800  0.079000  1.0  -0.1447
  C  C139  1  0.121300  0.066800  0.094800  1.0  0.0859
  C  C140  1  0.051400  0.065600  0.134400  1.0  -0.1647
  C  C141  1  0.025800  0.118400  0.159100  1.0  0.1817
  C  C142  1  0.151700  0.823500  0.194900  1.0  0.1415
  C  C143  1  0.158800  0.871300  0.162700  1.0  -0.1832
  C  C144  1  0.179800  0.861400  0.114600  1.0  0.0454
  C  C145  1  0.201600  0.807200  0.098600  1.0  -0.2098
  C  C146  1  0.195300  0.762400  0.133200  1.0  0.1825
  C  C147  1  0.207900  0.779700  0.324300  1.0  0.6726
  C  C148  1  0.991700  0.916800  0.437000  1.0  0.7006
  C  C149  1  0.718700  0.766700  0.338200  1.0  0.7159
  C  C150  1  0.088700  0.803500  0.344900  1.0  -0.1132
  C  C151  1  0.096400  0.846800  0.378900  1.0  -0.0283
  C  C152  1  0.981800  0.866200  0.399700  1.0  -0.1312
  C  C153  1  0.856400  0.843400  0.387400  1.0  -0.0158
  C  C154  1  0.848900  0.797600  0.352300  1.0  -0.145
  C  C155  1  0.963300  0.778600  0.331500  1.0  -0.0678
  C  C156  1  0.440700  0.685700  0.217100  1.0  0.6935
  C  C157  1  0.921000  0.671900  0.184100  1.0  0.6945
  C  C158  1  0.574200  0.566200  0.071300  1.0  0.7152
  C  C159  1  0.545800  0.663900  0.184500  1.0  -0.145
  C  C160  1  0.678200  0.678700  0.198700  1.0  -0.0256
  C  C161  1  0.776100  0.656500  0.169600  1.0  -0.1476
  C  C162  1  0.742500  0.623900  0.128200  1.0  0.0574
  C  C163  1  0.613500  0.606300  0.115800  1.0  -0.142
  C  C164  1  0.508700  0.626000  0.143300  1.0  -0.0593
  C  C165  1  0.965800  0.378600  0.692100  1.0  0.1878
  C  C166  1  0.835300  0.435400  0.727200  1.0  0.0251
  C  C167  1  0.893800  0.467600  0.690500  1.0  -0.1105
  C  C168  1  0.056800  0.438000  0.627500  1.0  0.0799
  C  C169  1  0.144100  0.394500  0.616400  1.0  -0.138
  C  C170  1  0.207900  0.405200  0.571600  1.0  -0.1491
  C  C171  1  0.188700  0.454200  0.543000  1.0  -1e-04
  C  C172  1  0.105000  0.497000  0.557400  1.0  -0.0767
  C  C173  1  0.035100  0.491300  0.600600  1.0  -0.1636
  C  C174  1  0.339800  0.512500  0.427500  1.0  0.151
  C  C175  1  0.297400  0.512400  0.476900  1.0  -0.1
  C  C176  1  0.256500  0.457900  0.494500  1.0  -0.1345
  C  C177  1  0.266800  0.405800  0.466800  1.0  -0.1367
  C  C178  1  0.313000  0.410800  0.417000  1.0  0.0736
  C  C179  1  0.366000  0.669600  0.395800  1.0  0.1469
  C  C180  1  0.336100  0.616800  0.421000  1.0  -0.1465
  C  C181  1  0.378700  0.566800  0.405200  1.0  0.0861
  C  C182  1  0.448600  0.565600  0.365600  1.0  -0.1645
  C  C183  1  0.474200  0.618400  0.340900  1.0  0.1809
  C  C184  1  0.348300  0.323500  0.305100  1.0  0.1453
  C  C185  1  0.341200  0.371300  0.337300  1.0  -0.1839
  C  C186  1  0.320200  0.361400  0.385400  1.0  0.0446
  C  C187  1  0.298400  0.307200  0.401400  1.0  -0.2095
  C  C188  1  0.304700  0.262400  0.366800  1.0  0.1816
  C  C189  1  0.707900  0.720300  0.824300  1.0  0.6721
  C  C190  1  0.491700  0.583200  0.937000  1.0  0.7004
  C  C191  1  0.218700  0.733300  0.838200  1.0  0.7149
  C  C192  1  0.588700  0.696500  0.844900  1.0  -0.1134
  C  C193  1  0.596400  0.653200  0.878900  1.0  -0.029
  C  C194  1  0.481800  0.633800  0.899700  1.0  -0.1304
  C  C195  1  0.356400  0.656600  0.887400  1.0  -0.0154
  C  C196  1  0.348900  0.702400  0.852300  1.0  -0.1458
  C  C197  1  0.463300  0.721400  0.831500  1.0  -0.0677
  C  C198  1  0.940700  0.814300  0.717100  1.0  0.6937
  C  C199  1  0.421000  0.828100  0.684100  1.0  0.694
  C  C200  1  0.074200  0.933800  0.571300  1.0  0.7154
  C  C201  1  0.045800  0.836100  0.684500  1.0  -0.1452
  C  C202  1  0.178200  0.821300  0.698700  1.0  -0.0253
  C  C203  1  0.276100  0.843500  0.669600  1.0  -0.1476
  C  C204  1  0.242500  0.876100  0.628200  1.0  0.0572
  C  C205  1  0.113500  0.893700  0.615800  1.0  -0.1416
  C  C206  1  0.008700  0.874000  0.643300  1.0  -0.0597
  C  C207  1  0.465800  0.121400  0.192100  1.0  0.1878
  C  C208  1  0.335300  0.064600  0.227200  1.0  0.0253
  C  C209  1  0.393800  0.032400  0.190500  1.0  -0.1096
  C  C210  1  0.556800  0.062000  0.127500  1.0  0.0802
  C  C211  1  0.644100  0.105500  0.116400  1.0  -0.1385
  C  C212  1  0.707900  0.094800  0.071600  1.0  -0.1506
  C  C213  1  0.688700  0.045800  0.043000  1.0  0.0
  C  C214  1  0.605000  0.003000  0.057400  1.0  -0.0787
  C  C215  1  0.535100  0.008700  0.100600  1.0  -0.1631
  C  C216  1  0.839800  0.987500  0.927500  1.0  0.1511
  C  C217  1  0.797400  0.987600  0.976900  1.0  -0.0991
  C  C218  1  0.756500  0.042100  0.994500  1.0  -0.1348
  C  C219  1  0.766800  0.094200  0.966800  1.0  -0.1371
  C  C220  1  0.813000  0.089200  0.917000  1.0  0.074
  C  C221  1  0.866000  0.830400  0.895800  1.0  0.1487
  C  C222  1  0.836100  0.883200  0.921000  1.0  -0.1453
  C  C223  1  0.878700  0.933200  0.905200  1.0  0.0865
  C  C224  1  0.948600  0.934400  0.865600  1.0  -0.1648
  C  C225  1  0.974200  0.881600  0.840900  1.0  0.1806
  C  C226  1  0.848300  0.176500  0.805100  1.0  0.1453
  C  C227  1  0.841200  0.128700  0.837300  1.0  -0.1824
  C  C228  1  0.820200  0.138600  0.885400  1.0  0.0448
  C  C229  1  0.798400  0.192800  0.901400  1.0  -0.2097
  C  C230  1  0.804700  0.237600  0.866800  1.0  0.1806
  C  C231  1  0.792100  0.220300  0.675700  1.0  0.6695
  C  C232  1  0.008300  0.083200  0.563000  1.0  0.7001
  C  C233  1  0.281300  0.233300  0.661800  1.0  0.7146
  C  C234  1  0.911300  0.196500  0.655100  1.0  -0.1129
  C  C235  1  0.903600  0.153200  0.621100  1.0  -0.0286
  C  C236  1  0.018200  0.133800  0.600300  1.0  -0.1304
  C  C237  1  0.143600  0.156600  0.612600  1.0  -0.0138
  C  C238  1  0.151100  0.202400  0.647700  1.0  -0.1463
  C  C239  1  0.036700  0.221400  0.668500  1.0  -0.0674
  C  C240  1  0.559300  0.314300  0.782900  1.0  0.692
  C  C241  1  0.079000  0.328100  0.815900  1.0  0.6931
  C  C242  1  0.425800  0.433800  0.928700  1.0  0.7155
  C  C243  1  0.454200  0.336100  0.815500  1.0  -0.1443
  C  C244  1  0.321800  0.321300  0.801300  1.0  -0.0255
  C  C245  1  0.223900  0.343500  0.830400  1.0  -0.1479
  C  C246  1  0.257500  0.376100  0.871800  1.0  0.0566
  C  C247  1  0.386500  0.393700  0.884200  1.0  -0.1425
  C  C248  1  0.491300  0.374000  0.856700  1.0  -0.0594
  C  C249  1  0.034200  0.621400  0.307900  1.0  0.1887
  C  C250  1  0.164700  0.564600  0.272800  1.0  0.0254
  C  C251  1  0.106200  0.532400  0.309500  1.0  -0.1106
  C  C252  1  0.943200  0.562000  0.372500  1.0  0.0787
  C  C253  1  0.855900  0.605500  0.383600  1.0  -0.1392
  C  C254  1  0.792100  0.594800  0.428400  1.0  -0.1502
  C  C255  1  0.811300  0.545800  0.457000  1.0  -0.0007
  C  C256  1  0.895000  0.503000  0.442600  1.0  -0.079
  C  C257  1  0.964900  0.508700  0.399400  1.0  -0.1647
  C  C258  1  0.660200  0.487500  0.572500  1.0  0.1513
  C  C259  1  0.702600  0.487600  0.523100  1.0  -0.0983
  C  C260  1  0.743500  0.542100  0.505500  1.0  -0.1347
  C  C261  1  0.733200  0.594200  0.533200  1.0  -0.1369
  C  C262  1  0.687000  0.589200  0.583000  1.0  0.0738
  C  C263  1  0.634000  0.330400  0.604200  1.0  0.1486
  C  C264  1  0.663900  0.383200  0.579000  1.0  -0.145
  C  C265  1  0.621300  0.433200  0.594800  1.0  0.0862
  C  C266  1  0.551400  0.434400  0.634400  1.0  -0.1656
  C  C267  1  0.525800  0.381600  0.659100  1.0  0.1817
  C  C268  1  0.651700  0.676500  0.694900  1.0  0.142
  C  C269  1  0.658800  0.628700  0.662700  1.0  -0.1825
  C  C270  1  0.679800  0.638600  0.614600  1.0  0.0452
  C  C271  1  0.701600  0.692800  0.598600  1.0  -0.2108
  C  C272  1  0.695300  0.737600  0.633200  1.0  0.1816
  N  N273  1  0.523600  0.930000  0.830700  1.0  0.0461
  N  N274  1  0.619400  0.880500  0.772800  1.0  -0.3498
  N  N275  1  0.148400  0.964200  0.099400  1.0  -0.4609
  N  N276  1  0.060800  0.169600  0.142400  1.0  -0.316
  N  N277  1  0.172700  0.767700  0.180900  1.0  -0.3553
  N  N278  1  0.976400  0.430000  0.669300  1.0  0.0443
  N  N279  1  0.880600  0.380500  0.727200  1.0  -0.3457
  N  N280  1  0.351600  0.464200  0.400600  1.0  -0.4595
  N  N281  1  0.439200  0.669600  0.357600  1.0  -0.3157
  N  N282  1  0.327300  0.267700  0.319100  1.0  -0.3564
  N  N283  1  0.476400  0.070000  0.169300  1.0  0.0445
  N  N284  1  0.380600  0.119500  0.227200  1.0  -0.3453
  N  N285  1  0.851600  0.035800  0.900600  1.0  -0.4595
  N  N286  1  0.939200  0.830400  0.857600  1.0  -0.3159
  N  N287  1  0.827300  0.232300  0.819100  1.0  -0.3559
  N  N288  1  0.023600  0.570000  0.330700  1.0  0.046
  N  N289  1  0.119400  0.619500  0.272800  1.0  -0.3483
  N  N290  1  0.648400  0.535800  0.599400  1.0  -0.4608
  N  N291  1  0.560800  0.330400  0.642400  1.0  -0.317
  N  N292  1  0.672700  0.732300  0.680900  1.0  -0.3558
  O  O293  1  0.304500  0.238700  0.207300  1.0  -0.7052
  O  O294  1  0.179100  0.296900  0.158800  1.0  -0.5933
  O  O295  1  0.394400  0.440000  0.054900  1.0  -0.586
  O  O296  1  0.612100  0.428100  0.043500  1.0  -0.5943
  O  O297  1  0.888900  0.294300  0.157700  1.0  -0.5831
  O  O298  1  0.783400  0.215600  0.177900  1.0  -0.5807
  O  O299  1  0.173300  0.162200  0.291400  1.0  -0.5886
  O  O300  1  0.032200  0.227900  0.253000  1.0  -0.6213
  O  O301  1  0.557200  0.206000  0.278400  1.0  -0.5745
  O  O302  1  0.488500  0.148800  0.337600  1.0  -0.595
  O  O303  1  0.044900  0.059300  0.439200  1.0  -0.5893
  O  O304  1  0.832900  0.049000  0.450700  1.0  -0.5571
  O  O305  1  0.195500  0.738700  0.292700  1.0  -0.7061
  O  O306  1  0.320900  0.796900  0.341200  1.0  -0.5973
  O  O307  1  0.105600  0.940000  0.445100  1.0  -0.5861
  O  O308  1  0.887900  0.928100  0.456500  1.0  -0.5925
  O  O309  1  0.611100  0.794300  0.342300  1.0  -0.5825
  O  O310  1  0.716600  0.715600  0.322100  1.0  -0.5806
  O  O311  1  0.326700  0.662200  0.208600  1.0  -0.5894
  O  O312  1  0.467800  0.727900  0.247000  1.0  -0.6198
  O  O313  1  0.942800  0.706000  0.221600  1.0  -0.5754
  O  O314  1  0.011500  0.648800  0.162400  1.0  -0.5958
  O  O315  1  0.455100  0.559300  0.060800  1.0  -0.5885
  O  O316  1  0.667100  0.549000  0.049300  1.0  -0.5548
  O  O317  1  0.695500  0.761300  0.792700  1.0  -0.7053
  O  O318  1  0.820900  0.703100  0.841200  1.0  -0.5942
  O  O319  1  0.605600  0.560000  0.945100  1.0  -0.5861
  O  O320  1  0.387900  0.571900  0.956500  1.0  -0.5926
  O  O321  1  0.111100  0.705700  0.842300  1.0  -0.5827
  O  O322  1  0.216600  0.784400  0.822100  1.0  -0.5814
  O  O323  1  0.826700  0.837800  0.708600  1.0  -0.5888
  O  O324  1  0.967800  0.772100  0.747000  1.0  -0.6217
  O  O325  1  0.442800  0.794000  0.721600  1.0  -0.5752
  O  O326  1  0.511500  0.851200  0.662400  1.0  -0.5969
  O  O327  1  0.955100  0.940700  0.560800  1.0  -0.5881
  O  O328  1  0.167100  0.951000  0.549300  1.0  -0.5551
  O  O329  1  0.804500  0.261300  0.707300  1.0  -0.7041
  O  O330  1  0.679100  0.203100  0.658800  1.0  -0.592
  O  O331  1  0.894400  0.060000  0.554900  1.0  -0.5865
  O  O332  1  0.112100  0.071900  0.543500  1.0  -0.5945
  O  O333  1  0.388900  0.205700  0.657700  1.0  -0.5811
  O  O334  1  0.283400  0.284400  0.677900  1.0  -0.5807
  O  O335  1  0.673300  0.337800  0.791400  1.0  -0.5885
  O  O336  1  0.532200  0.272100  0.753000  1.0  -0.6218
  O  O337  1  0.057200  0.294000  0.778400  1.0  -0.5745
  O  O338  1  0.988500  0.351200  0.837600  1.0  -0.5956
  O  O339  1  0.544900  0.440700  0.939200  1.0  -0.5883
  O  O340  1  0.332900  0.451000  0.950700  1.0  -0.5575
