# generated using pymatgen
data_Cd3H50C81(N2O3)4
_symmetry_space_group_name_H-M   'P 1'
_cell_length_a   24.66020000
_cell_length_b   28.69110000
_cell_length_c   12.56020000
_cell_angle_alpha   90.00000000
_cell_angle_beta   90.00000000
_cell_angle_gamma   90.00000000
_symmetry_Int_Tables_number   1
_chemical_formula_structural   Cd3H50C81(N2O3)4
_chemical_formula_sum   'Cd12 H200 C324 N32 O48'
_cell_volume   8886.69650426
_cell_formula_units_Z   4
loop_
 _symmetry_equiv_pos_site_id
 _symmetry_equiv_pos_as_xyz
  1  'x, y, z'
loop_
 _atom_site_type_symbol
 _atom_site_label
 _atom_site_symmetry_multiplicity
 _atom_site_fract_x
 _atom_site_fract_y
 _atom_site_fract_z
 _atom_site_occupancy
 _atom_site_charge
  Cd  Cd1  1  0.993890  0.312170  0.062860  1.0  1.0434
  Cd  Cd2  1  0.897860  0.240380  0.190150  1.0  1.1284
  Cd  Cd3  1  0.798260  0.173380  0.318440  1.0  1.0618
  Cd  Cd4  1  0.006110  0.687830  0.062860  1.0  1.0435
  Cd  Cd5  1  0.102140  0.759620  0.190150  1.0  1.1308
  Cd  Cd6  1  0.201740  0.826620  0.318440  1.0  1.0629
  Cd  Cd7  1  0.493890  0.187830  0.562860  1.0  1.0436
  Cd  Cd8  1  0.397860  0.259620  0.690150  1.0  1.1295
  Cd  Cd9  1  0.298260  0.326620  0.818440  1.0  1.0628
  Cd  Cd10  1  0.506110  0.812170  0.562860  1.0  1.0433
  Cd  Cd11  1  0.602140  0.740380  0.690150  1.0  1.1297
  Cd  Cd12  1  0.701740  0.673380  0.818440  1.0  1.0619
  H  H13  1  0.650900  0.130700  0.791600  1.0  0.1376
  H  H14  1  0.565700  0.020400  0.881800  1.0  0.0508
  H  H15  1  0.598500  0.168200  0.924800  1.0  0.1037
  H  H16  1  0.588300  0.199500  0.093900  1.0  0.1085
  H  H17  1  0.588500  0.070600  0.218700  1.0  0.1132
  H  H18  1  0.598900  0.039200  0.049700  1.0  0.1249
  H  H19  1  0.534500  0.870700  0.777900  1.0  0.0711
  H  H20  1  0.566800  0.940400  0.835100  1.0  0.1119
  H  H21  1  0.563900  0.988700  0.548200  1.0  0.1095
  H  H22  1  0.522800  0.920800  0.495100  1.0  0.0965
  H  H23  1  0.765400  0.180300  0.550000  1.0  0.0766
  H  H24  1  0.697800  0.164000  0.675900  1.0  0.1516
  H  H25  1  0.636900  0.071600  0.463500  1.0  0.1271
  H  H26  1  0.702000  0.093800  0.351900  1.0  0.0759
  H  H27  1  0.528600  0.121100  0.345200  1.0  0.1226
  H  H28  1  0.609700  0.230800  0.461700  1.0  0.1274
  H  H29  1  0.650900  0.206800  0.288400  1.0  0.1101
  H  H30  1  0.886900  0.241500  0.514900  1.0  0.0764
  H  H31  1  0.987100  0.239200  0.741300  1.0  0.0873
  H  H32  1  0.913800  0.228300  0.865700  1.0  0.1286
  H  H33  1  0.952200  0.270100  0.426400  1.0  0.1171
  H  H34  1  0.035800  0.195400  0.641700  1.0  0.1168
  H  H35  1  0.108000  0.190100  0.523900  1.0  0.1
  H  H36  1  0.102400  0.224800  0.357600  1.0  0.1176
  H  H37  1  0.844400  0.216000  0.962700  1.0  0.1199
  H  H38  1  0.749600  0.242800  0.709900  1.0  0.1143
  H  H39  1  0.673400  0.239200  0.817900  1.0  0.1158
  H  H40  1  0.682800  0.223900  0.998300  1.0  0.0983
  H  H41  1  0.663400  0.417400  0.056800  1.0  0.0779
  H  H42  1  0.712200  0.300500  0.190900  1.0  0.0966
  H  H43  1  0.646500  0.308400  0.321500  1.0  0.1143
  H  H44  1  0.797800  0.329300  0.115500  1.0  0.1026
  H  H45  1  0.688900  0.378100  0.905100  1.0  0.0982
  H  H46  1  0.754400  0.376500  0.772600  1.0  0.1076
  H  H47  1  0.841500  0.351300  0.811400  1.0  0.115
  H  H48  1  0.557300  0.306000  0.370200  1.0  0.1054
  H  H49  1  0.571400  0.444700  0.336800  1.0  0.1186
  H  H50  1  0.503400  0.455600  0.462000  1.0  0.107
  H  H51  1  0.462200  0.391600  0.541000  1.0  0.1079
  H  H52  1  0.654600  0.308700  0.567900  1.0  0.1313
  H  H53  1  0.696100  0.434100  0.634000  1.0  0.0648
  H  H54  1  0.630000  0.446400  0.748300  1.0  0.1181
  H  H55  1  0.739600  0.299900  0.514600  1.0  0.1103
  H  H56  1  0.717800  0.437100  0.466300  1.0  0.1246
  H  H57  1  0.783400  0.435900  0.333900  1.0  0.1128
  H  H58  1  0.827200  0.366700  0.292000  1.0  0.1002
  H  H59  1  0.492600  0.344700  0.748000  1.0  0.1004
  H  H60  1  0.596100  0.432000  0.891200  1.0  0.1263
  H  H61  1  0.531500  0.446800  0.022000  1.0  0.1133
  H  H62  1  0.441900  0.423800  0.990000  1.0  0.1128
  H  H63  1  0.349100  0.869300  0.791600  1.0  0.1396
  H  H64  1  0.434300  0.979600  0.881800  1.0  0.0501
  H  H65  1  0.401500  0.831800  0.924800  1.0  0.1041
  H  H66  1  0.411700  0.800500  0.093900  1.0  0.1095
  H  H67  1  0.411500  0.929400  0.218700  1.0  0.113
  H  H68  1  0.401100  0.960800  0.049700  1.0  0.1238
  H  H69  1  0.465500  0.129300  0.777900  1.0  0.0708
  H  H70  1  0.433200  0.059600  0.835100  1.0  0.1119
  H  H71  1  0.436100  0.011300  0.548200  1.0  0.1099
  H  H72  1  0.477200  0.079200  0.495100  1.0  0.0954
  H  H73  1  0.234600  0.819700  0.550000  1.0  0.0768
  H  H74  1  0.302200  0.836000  0.675900  1.0  0.1512
  H  H75  1  0.363100  0.928400  0.463500  1.0  0.1272
  H  H76  1  0.298000  0.906200  0.351900  1.0  0.0754
  H  H77  1  0.471400  0.878900  0.345200  1.0  0.1238
  H  H78  1  0.390300  0.769200  0.461700  1.0  0.1276
  H  H79  1  0.349100  0.793200  0.288400  1.0  0.11
  H  H80  1  0.113100  0.758500  0.514900  1.0  0.0753
  H  H81  1  0.012900  0.760800  0.741300  1.0  0.0866
  H  H82  1  0.086200  0.771700  0.865700  1.0  0.1283
  H  H83  1  0.047800  0.729900  0.426400  1.0  0.1167
  H  H84  1  0.964200  0.804600  0.641700  1.0  0.1163
  H  H85  1  0.892000  0.809900  0.523900  1.0  0.1004
  H  H86  1  0.897600  0.775200  0.357600  1.0  0.1179
  H  H87  1  0.155600  0.784000  0.962700  1.0  0.1193
  H  H88  1  0.250400  0.757200  0.709900  1.0  0.1139
  H  H89  1  0.326600  0.760800  0.817900  1.0  0.1158
  H  H90  1  0.317200  0.776100  0.998300  1.0  0.0988
  H  H91  1  0.336600  0.582600  0.056800  1.0  0.0794
  H  H92  1  0.287800  0.699500  0.190900  1.0  0.0967
  H  H93  1  0.353500  0.691600  0.321500  1.0  0.1136
  H  H94  1  0.202200  0.670700  0.115500  1.0  0.1031
  H  H95  1  0.311100  0.621900  0.905100  1.0  0.0981
  H  H96  1  0.245600  0.623500  0.772600  1.0  0.1069
  H  H97  1  0.158500  0.648700  0.811400  1.0  0.1151
  H  H98  1  0.442700  0.694000  0.370200  1.0  0.1057
  H  H99  1  0.428600  0.555300  0.336800  1.0  0.1173
  H  H100  1  0.496600  0.544400  0.462000  1.0  0.1071
  H  H101  1  0.537800  0.608400  0.541000  1.0  0.1083
  H  H102  1  0.345400  0.691300  0.567900  1.0  0.1314
  H  H103  1  0.303900  0.565900  0.634000  1.0  0.0652
  H  H104  1  0.370000  0.553600  0.748300  1.0  0.1194
  H  H105  1  0.260400  0.700100  0.514600  1.0  0.1093
  H  H106  1  0.282200  0.562900  0.466300  1.0  0.1248
  H  H107  1  0.216600  0.564100  0.333900  1.0  0.112
  H  H108  1  0.172800  0.633300  0.292000  1.0  0.1
  H  H109  1  0.507400  0.655300  0.748000  1.0  0.1
  H  H110  1  0.403900  0.568000  0.891200  1.0  0.1269
  H  H111  1  0.468500  0.553200  0.022000  1.0  0.1127
  H  H112  1  0.558100  0.576200  0.990000  1.0  0.1125
  H  H113  1  0.150900  0.369300  0.291600  1.0  0.1391
  H  H114  1  0.065700  0.479600  0.381800  1.0  0.0499
  H  H115  1  0.098500  0.331800  0.424800  1.0  0.1038
  H  H116  1  0.088300  0.300500  0.593900  1.0  0.11
  H  H117  1  0.088500  0.429400  0.718700  1.0  0.1131
  H  H118  1  0.098900  0.460800  0.549700  1.0  0.1238
  H  H119  1  0.034500  0.629300  0.277900  1.0  0.0706
  H  H120  1  0.066800  0.559600  0.335100  1.0  0.1118
  H  H121  1  0.063900  0.511300  0.048200  1.0  0.1099
  H  H122  1  0.022800  0.579200  0.995100  1.0  0.0968
  H  H123  1  0.265400  0.319700  0.050000  1.0  0.0768
  H  H124  1  0.197800  0.336000  0.175900  1.0  0.1514
  H  H125  1  0.136900  0.428400  0.963500  1.0  0.1277
  H  H126  1  0.202000  0.406200  0.851900  1.0  0.0752
  H  H127  1  0.028600  0.378900  0.845200  1.0  0.1243
  H  H128  1  0.109700  0.269200  0.961700  1.0  0.1277
  H  H129  1  0.150900  0.293200  0.788400  1.0  0.1107
  H  H130  1  0.386900  0.258500  0.014900  1.0  0.0761
  H  H131  1  0.487100  0.260800  0.241300  1.0  0.0876
  H  H132  1  0.413800  0.271700  0.365700  1.0  0.1281
  H  H133  1  0.452200  0.229900  0.926400  1.0  0.1172
  H  H134  1  0.535800  0.304600  0.141700  1.0  0.1164
  H  H135  1  0.608000  0.309900  0.023900  1.0  0.0996
  H  H136  1  0.602400  0.275200  0.857600  1.0  0.1177
  H  H137  1  0.344400  0.284000  0.462700  1.0  0.1193
  H  H138  1  0.249600  0.257200  0.209900  1.0  0.1145
  H  H139  1  0.173400  0.260800  0.317900  1.0  0.1172
  H  H140  1  0.182800  0.276100  0.498300  1.0  0.0986
  H  H141  1  0.163400  0.082600  0.556800  1.0  0.079
  H  H142  1  0.212200  0.199500  0.690900  1.0  0.0965
  H  H143  1  0.146500  0.191600  0.821500  1.0  0.1137
  H  H144  1  0.297800  0.170700  0.615500  1.0  0.1027
  H  H145  1  0.188900  0.121900  0.405100  1.0  0.0978
  H  H146  1  0.254400  0.123500  0.272600  1.0  0.1074
  H  H147  1  0.341500  0.148700  0.311400  1.0  0.115
  H  H148  1  0.057300  0.194000  0.870200  1.0  0.1055
  H  H149  1  0.071400  0.055300  0.836800  1.0  0.1172
  H  H150  1  0.003400  0.044400  0.962000  1.0  0.1068
  H  H151  1  0.962200  0.108400  0.041000  1.0  0.1082
  H  H152  1  0.154600  0.191300  0.067900  1.0  0.1315
  H  H153  1  0.196100  0.065900  0.134000  1.0  0.0643
  H  H154  1  0.130000  0.053600  0.248300  1.0  0.1192
  H  H155  1  0.239600  0.200100  0.014600  1.0  0.1097
  H  H156  1  0.217800  0.062900  0.966300  1.0  0.1244
  H  H157  1  0.283400  0.064100  0.833900  1.0  0.1121
  H  H158  1  0.327200  0.133300  0.792000  1.0  0.1001
  H  H159  1  0.992600  0.155300  0.248000  1.0  0.1
  H  H160  1  0.096100  0.068000  0.391200  1.0  0.1273
  H  H161  1  0.031500  0.053200  0.522000  1.0  0.1124
  H  H162  1  0.941900  0.076200  0.490000  1.0  0.113
  H  H163  1  0.849100  0.630700  0.291600  1.0  0.1384
  H  H164  1  0.934300  0.520400  0.381800  1.0  0.0515
  H  H165  1  0.901500  0.668200  0.424800  1.0  0.1038
  H  H166  1  0.911700  0.699500  0.593900  1.0  0.1085
  H  H167  1  0.911500  0.570600  0.718700  1.0  0.1133
  H  H168  1  0.901100  0.539200  0.549700  1.0  0.125
  H  H169  1  0.965500  0.370700  0.277900  1.0  0.0713
  H  H170  1  0.933200  0.440400  0.335100  1.0  0.112
  H  H171  1  0.936100  0.488700  0.048200  1.0  0.1097
  H  H172  1  0.977200  0.420800  0.995100  1.0  0.0948
  H  H173  1  0.734600  0.680300  0.050000  1.0  0.0769
  H  H174  1  0.802200  0.664000  0.175900  1.0  0.1516
  H  H175  1  0.863100  0.571600  0.963500  1.0  0.127
  H  H176  1  0.798000  0.593800  0.851900  1.0  0.076
  H  H177  1  0.971400  0.621100  0.845200  1.0  0.1233
  H  H178  1  0.890300  0.730800  0.961700  1.0  0.1275
  H  H179  1  0.849100  0.706800  0.788400  1.0  0.1097
  H  H180  1  0.613100  0.741500  0.014900  1.0  0.0756
  H  H181  1  0.512900  0.739200  0.241300  1.0  0.0866
  H  H182  1  0.586200  0.728300  0.365700  1.0  0.1286
  H  H183  1  0.547800  0.770100  0.926400  1.0  0.1166
  H  H184  1  0.464200  0.695400  0.141700  1.0  0.1167
  H  H185  1  0.392000  0.690100  0.023900  1.0  0.1002
  H  H186  1  0.397600  0.724800  0.857600  1.0  0.1178
  H  H187  1  0.655600  0.716000  0.462700  1.0  0.1198
  H  H188  1  0.750400  0.742800  0.209900  1.0  0.1136
  H  H189  1  0.826600  0.739200  0.317900  1.0  0.1169
  H  H190  1  0.817200  0.723900  0.498300  1.0  0.0988
  H  H191  1  0.836600  0.917400  0.556800  1.0  0.0783
  H  H192  1  0.787800  0.800500  0.690900  1.0  0.0964
  H  H193  1  0.853500  0.808400  0.821500  1.0  0.114
  H  H194  1  0.702200  0.829300  0.615500  1.0  0.1031
  H  H195  1  0.811100  0.878100  0.405100  1.0  0.0982
  H  H196  1  0.745600  0.876500  0.272600  1.0  0.107
  H  H197  1  0.658500  0.851300  0.311400  1.0  0.1151
  H  H198  1  0.942700  0.806000  0.870200  1.0  0.1055
  H  H199  1  0.928600  0.944700  0.836800  1.0  0.1188
  H  H200  1  0.996600  0.955600  0.962000  1.0  0.1073
  H  H201  1  0.037800  0.891600  0.041000  1.0  0.108
  H  H202  1  0.845400  0.808700  0.067900  1.0  0.1311
  H  H203  1  0.803900  0.934100  0.134000  1.0  0.0655
  H  H204  1  0.870000  0.946400  0.248300  1.0  0.1183
  H  H205  1  0.760400  0.799900  0.014600  1.0  0.1099
  H  H206  1  0.782200  0.937100  0.966300  1.0  0.1247
  H  H207  1  0.716600  0.935900  0.833900  1.0  0.1128
  H  H208  1  0.672800  0.866700  0.792000  1.0  0.1003
  H  H209  1  0.007400  0.844700  0.248000  1.0  0.1003
  H  H210  1  0.903900  0.932000  0.391200  1.0  0.1263
  H  H211  1  0.968500  0.946800  0.522000  1.0  0.1135
  H  H212  1  0.058100  0.923800  0.490000  1.0  0.1126
  C  C213  1  0.634900  0.081600  0.677000  1.0  0.2465
  C  C214  1  0.633800  0.102400  0.778900  1.0  -0.1329
  C  C215  1  0.604600  0.077800  0.865000  1.0  0.0245
  C  C216  1  0.585200  0.037700  0.832000  1.0  -0.0449
  C  C217  1  0.590800  0.019100  0.734600  1.0  0.1448
  C  C218  1  0.599700  0.100600  0.970000  1.0  0.0152
  C  C219  1  0.596500  0.148600  0.984000  1.0  -0.1087
  C  C220  1  0.590400  0.167400  0.085000  1.0  -0.1776
  C  C221  1  0.587400  0.138200  0.173000  1.0  0.1961
  C  C222  1  0.590500  0.090200  0.160000  1.0  -0.1418
  C  C223  1  0.596700  0.071400  0.059000  1.0  -0.1452
  C  C224  1  0.537600  0.894600  0.728000  1.0  0.1972
  C  C225  1  0.557400  0.937000  0.763900  1.0  -0.2039
  C  C226  1  0.563300  0.972800  0.698000  1.0  0.0834
  C  C227  1  0.555000  0.966000  0.598000  1.0  -0.1435
  C  C228  1  0.532400  0.923700  0.566000  1.0  0.1659
  C  C229  1  0.737800  0.159700  0.532000  1.0  0.1711
  C  C230  1  0.700900  0.146700  0.614000  1.0  -0.1339
  C  C231  1  0.667500  0.104600  0.596000  1.0  -0.0611
  C  C232  1  0.664200  0.091600  0.487000  1.0  -0.1465
  C  C233  1  0.700500  0.108400  0.418000  1.0  0.165
  C  C234  1  0.552500  0.146100  0.350000  1.0  0.1394
  C  C235  1  0.599000  0.206600  0.417000  1.0  -0.0037
  C  C236  1  0.619900  0.194300  0.320000  1.0  -0.0563
  C  C237  1  0.892400  0.234100  0.586000  1.0  0.1437
  C  C238  1  0.944400  0.232100  0.622000  1.0  0.2579
  C  C239  1  0.952000  0.234800  0.716000  1.0  -0.1283
  C  C240  1  0.907000  0.231300  0.793000  1.0  -0.1291
  C  C241  1  0.852900  0.232700  0.754000  1.0  0.0258
  C  C242  1  0.023200  0.274300  0.267000  1.0  0.7232
  C  C243  1  0.026800  0.250900  0.376000  1.0  -0.1203
  C  C244  1  0.983500  0.254100  0.446000  1.0  -0.074
  C  C245  1  0.986900  0.233300  0.546000  1.0  0.0967
  C  C246  1  0.033500  0.209300  0.575000  1.0  -0.1882
  C  C247  1  0.076800  0.206100  0.504000  1.0  -0.0974
  C  C248  1  0.073400  0.226900  0.405000  1.0  -0.0712
  C  C249  1  0.774600  0.208300  0.119000  1.0  0.663
  C  C250  1  0.764500  0.218400  0.998000  1.0  -0.1442
  C  C251  1  0.810100  0.220600  0.934000  1.0  -0.0465
  C  C252  1  0.804600  0.229800  0.826000  1.0  0.0159
  C  C253  1  0.753300  0.236700  0.782000  1.0  -0.0752
  C  C254  1  0.707700  0.234500  0.847000  1.0  -0.0793
  C  C255  1  0.713300  0.225400  0.955000  1.0  -0.034
  C  C256  1  0.662500  0.395500  0.111000  1.0  0.17
  C  C257  1  0.697100  0.360400  0.107000  1.0  0.1202
  C  C258  1  0.689500  0.326300  0.189000  1.0  -0.1142
  C  C259  1  0.649200  0.330500  0.268000  1.0  -0.1785
  C  C260  1  0.612100  0.369100  0.264000  1.0  0.1646
  C  C261  1  0.887200  0.326600  0.986000  1.0  0.6224
  C  C262  1  0.828300  0.337800  0.967000  1.0  -0.1496
  C  C263  1  0.789100  0.338800  0.047000  1.0  -0.0487
  C  C264  1  0.736800  0.353900  0.024000  1.0  0.0645
  C  C265  1  0.723800  0.368000  0.921000  1.0  -0.2033
  C  C266  1  0.763100  0.367100  0.841000  1.0  -0.1175
  C  C267  1  0.815300  0.351900  0.865000  1.0  -0.0818
  C  C268  1  0.482100  0.302100  0.518000  1.0  0.6878
  C  C269  1  0.505700  0.342500  0.464000  1.0  -0.1534
  C  C270  1  0.546500  0.336000  0.389000  1.0  -0.1424
  C  C271  1  0.571100  0.374300  0.341000  1.0  0.0551
  C  C272  1  0.554900  0.419100  0.369000  1.0  -0.1104
  C  C273  1  0.514200  0.425600  0.444000  1.0  -0.1055
  C  C274  1  0.489600  0.387300  0.491000  1.0  -0.031
  C  C275  1  0.646900  0.337000  0.601000  1.0  0.1438
  C  C276  1  0.678400  0.374700  0.587000  1.0  0.2696
  C  C277  1  0.671200  0.410100  0.643000  1.0  -0.0888
  C  C278  1  0.633000  0.417800  0.714000  1.0  -0.1717
  C  C279  1  0.597800  0.382300  0.736000  1.0  0.098
  C  C280  1  0.809000  0.280500  0.361000  1.0  0.6552
  C  C281  1  0.787800  0.326400  0.399000  1.0  -0.1707
  C  C282  1  0.748400  0.327100  0.478000  1.0  -0.0484
  C  C283  1  0.722200  0.368600  0.504000  1.0  0.0059
  C  C284  1  0.735300  0.409300  0.449000  1.0  -0.1899
  C  C285  1  0.774700  0.408600  0.370000  1.0  -0.1255
  C  C286  1  0.800900  0.367200  0.345000  1.0  -0.0504
  C  C287  1  0.406200  0.350800  0.868000  1.0  0.699
  C  C288  1  0.460200  0.375400  0.878000  1.0  -0.1011
  C  C289  1  0.500300  0.365300  0.803000  1.0  0.0065
  C  C290  1  0.551200  0.385200  0.809000  1.0  -0.0329
  C  C291  1  0.562400  0.417600  0.888000  1.0  -0.1982
  C  C292  1  0.522900  0.428400  0.963000  1.0  -0.0802
  C  C293  1  0.470200  0.411300  0.950000  1.0  -0.0864
  C  C294  1  0.365100  0.918400  0.677000  1.0  0.245
  C  C295  1  0.366200  0.897600  0.778900  1.0  -0.1327
  C  C296  1  0.395400  0.922200  0.865000  1.0  0.0244
  C  C297  1  0.414800  0.962300  0.832000  1.0  -0.0463
  C  C298  1  0.409200  0.980900  0.734600  1.0  0.1428
  C  C299  1  0.400300  0.899400  0.970000  1.0  0.0146
  C  C300  1  0.403500  0.851400  0.984000  1.0  -0.1082
  C  C301  1  0.409600  0.832600  0.085000  1.0  -0.177
  C  C302  1  0.412600  0.861800  0.173000  1.0  0.1963
  C  C303  1  0.409500  0.909800  0.160000  1.0  -0.1428
  C  C304  1  0.403300  0.928600  0.059000  1.0  -0.1458
  C  C305  1  0.462400  0.105400  0.728000  1.0  0.197
  C  C306  1  0.442600  0.063000  0.763900  1.0  -0.2052
  C  C307  1  0.436700  0.027200  0.698000  1.0  0.0834
  C  C308  1  0.445000  0.034000  0.598000  1.0  -0.1448
  C  C309  1  0.467600  0.076300  0.566000  1.0  0.1655
  C  C310  1  0.262200  0.840300  0.532000  1.0  0.1723
  C  C311  1  0.299100  0.853300  0.614000  1.0  -0.1338
  C  C312  1  0.332500  0.895400  0.596000  1.0  -0.0619
  C  C313  1  0.335800  0.908400  0.487000  1.0  -0.1473
  C  C314  1  0.299500  0.891600  0.418000  1.0  0.1639
  C  C315  1  0.447500  0.853900  0.350000  1.0  0.1398
  C  C316  1  0.401000  0.793400  0.417000  1.0  -0.0052
  C  C317  1  0.380100  0.805700  0.320000  1.0  -0.0562
  C  C318  1  0.107600  0.765900  0.586000  1.0  0.1445
  C  C319  1  0.055600  0.767900  0.622000  1.0  0.2576
  C  C320  1  0.048000  0.765200  0.716000  1.0  -0.1294
  C  C321  1  0.093000  0.768700  0.793000  1.0  -0.1291
  C  C322  1  0.147100  0.767300  0.754000  1.0  0.0265
  C  C323  1  0.976800  0.725700  0.267000  1.0  0.7229
  C  C324  1  0.973200  0.749100  0.376000  1.0  -0.1206
  C  C325  1  0.016500  0.745900  0.446000  1.0  -0.0726
  C  C326  1  0.013100  0.766700  0.546000  1.0  0.0979
  C  C327  1  0.966500  0.790700  0.575000  1.0  -0.189
  C  C328  1  0.923200  0.793900  0.504000  1.0  -0.0979
  C  C329  1  0.926600  0.773100  0.405000  1.0  -0.0706
  C  C330  1  0.225400  0.791700  0.119000  1.0  0.6628
  C  C331  1  0.235500  0.781600  0.998000  1.0  -0.1441
  C  C332  1  0.189900  0.779400  0.934000  1.0  -0.0472
  C  C333  1  0.195400  0.770200  0.826000  1.0  0.0133
  C  C334  1  0.246700  0.763300  0.782000  1.0  -0.0755
  C  C335  1  0.292300  0.765500  0.847000  1.0  -0.0811
  C  C336  1  0.286700  0.774600  0.955000  1.0  -0.0353
  C  C337  1  0.337500  0.604500  0.111000  1.0  0.1679
  C  C338  1  0.302900  0.639600  0.107000  1.0  0.1192
  C  C339  1  0.310500  0.673700  0.189000  1.0  -0.114
  C  C340  1  0.350800  0.669500  0.268000  1.0  -0.1798
  C  C341  1  0.387900  0.630900  0.264000  1.0  0.1634
  C  C342  1  0.112800  0.673400  0.986000  1.0  0.6223
  C  C343  1  0.171700  0.662200  0.967000  1.0  -0.1497
  C  C344  1  0.210900  0.661200  0.047000  1.0  -0.0482
  C  C345  1  0.263200  0.646100  0.024000  1.0  0.0647
  C  C346  1  0.276200  0.632000  0.921000  1.0  -0.205
  C  C347  1  0.236900  0.632900  0.841000  1.0  -0.1165
  C  C348  1  0.184700  0.648100  0.865000  1.0  -0.0789
  C  C349  1  0.517900  0.697900  0.518000  1.0  0.6894
  C  C350  1  0.494300  0.657500  0.464000  1.0  -0.1544
  C  C351  1  0.453500  0.664000  0.389000  1.0  -0.1426
  C  C352  1  0.428900  0.625700  0.341000  1.0  0.0556
  C  C353  1  0.445100  0.580900  0.369000  1.0  -0.1095
  C  C354  1  0.485800  0.574400  0.444000  1.0  -0.1083
  C  C355  1  0.510400  0.612700  0.491000  1.0  -0.0287
  C  C356  1  0.353100  0.663000  0.601000  1.0  0.1441
  C  C357  1  0.321600  0.625300  0.587000  1.0  0.2688
  C  C358  1  0.328800  0.589900  0.643000  1.0  -0.0859
  C  C359  1  0.367000  0.582200  0.714000  1.0  -0.1711
  C  C360  1  0.402200  0.617700  0.736000  1.0  0.098
  C  C361  1  0.191000  0.719500  0.361000  1.0  0.6564
  C  C362  1  0.212200  0.673600  0.399000  1.0  -0.1711
  C  C363  1  0.251600  0.672900  0.478000  1.0  -0.0462
  C  C364  1  0.277800  0.631400  0.504000  1.0  0.007
  C  C365  1  0.264700  0.590700  0.449000  1.0  -0.1913
  C  C366  1  0.225300  0.591400  0.370000  1.0  -0.1254
  C  C367  1  0.199100  0.632800  0.345000  1.0  -0.0527
  C  C368  1  0.593800  0.649200  0.868000  1.0  0.6982
  C  C369  1  0.539800  0.624600  0.878000  1.0  -0.1029
  C  C370  1  0.499700  0.634700  0.803000  1.0  0.0067
  C  C371  1  0.448800  0.614800  0.809000  1.0  -0.0329
  C  C372  1  0.437600  0.582400  0.888000  1.0  -0.1965
  C  C373  1  0.477100  0.571600  0.963000  1.0  -0.0818
  C  C374  1  0.529800  0.588700  0.950000  1.0  -0.085
  C  C375  1  0.134900  0.418400  0.177000  1.0  0.2468
  C  C376  1  0.133800  0.397600  0.278900  1.0  -0.1336
  C  C377  1  0.104600  0.422200  0.365000  1.0  0.0238
  C  C378  1  0.085200  0.462300  0.332000  1.0  -0.0451
  C  C379  1  0.090800  0.480900  0.234600  1.0  0.1442
  C  C380  1  0.099700  0.399400  0.470000  1.0  0.015
  C  C381  1  0.096500  0.351400  0.484000  1.0  -0.1084
  C  C382  1  0.090400  0.332600  0.585000  1.0  -0.1784
  C  C383  1  0.087400  0.361800  0.673000  1.0  0.1962
  C  C384  1  0.090500  0.409800  0.660000  1.0  -0.1422
  C  C385  1  0.096700  0.428600  0.559000  1.0  -0.1458
  C  C386  1  0.037600  0.605400  0.228000  1.0  0.1968
  C  C387  1  0.057400  0.563000  0.263900  1.0  -0.2045
  C  C388  1  0.063300  0.527200  0.198000  1.0  0.0828
  C  C389  1  0.055000  0.534000  0.098000  1.0  -0.1435
  C  C390  1  0.032400  0.576300  0.066000  1.0  0.166
  C  C391  1  0.237800  0.340300  0.032000  1.0  0.1711
  C  C392  1  0.200900  0.353300  0.114000  1.0  -0.1331
  C  C393  1  0.167500  0.395400  0.096000  1.0  -0.0616
  C  C394  1  0.164200  0.408400  0.987000  1.0  -0.1469
  C  C395  1  0.200500  0.391600  0.918000  1.0  0.1644
  C  C396  1  0.052500  0.353900  0.850000  1.0  0.1391
  C  C397  1  0.099000  0.293400  0.917000  1.0  -0.0046
  C  C398  1  0.119900  0.305700  0.820000  1.0  -0.0564
  C  C399  1  0.392400  0.265900  0.086000  1.0  0.1434
  C  C400  1  0.444400  0.267900  0.122000  1.0  0.2575
  C  C401  1  0.452000  0.265200  0.216000  1.0  -0.1287
  C  C402  1  0.407000  0.268700  0.293000  1.0  -0.1288
  C  C403  1  0.352900  0.267300  0.254000  1.0  0.0268
  C  C404  1  0.523200  0.225700  0.767000  1.0  0.7233
  C  C405  1  0.526800  0.249100  0.876000  1.0  -0.1208
  C  C406  1  0.483500  0.245900  0.946000  1.0  -0.0721
  C  C407  1  0.486900  0.266700  0.046000  1.0  0.0968
  C  C408  1  0.533500  0.290700  0.075000  1.0  -0.1886
  C  C409  1  0.576800  0.293900  0.004000  1.0  -0.0971
  C  C410  1  0.573400  0.273100  0.905000  1.0  -0.0711
  C  C411  1  0.274600  0.291700  0.619000  1.0  0.664
  C  C412  1  0.264500  0.281600  0.498000  1.0  -0.1447
  C  C413  1  0.310100  0.279400  0.434000  1.0  -0.0451
  C  C414  1  0.304600  0.270200  0.326000  1.0  0.0152
  C  C415  1  0.253300  0.263300  0.282000  1.0  -0.075
  C  C416  1  0.207700  0.265500  0.347000  1.0  -0.0789
  C  C417  1  0.213300  0.274600  0.455000  1.0  -0.0336
  C  C418  1  0.162500  0.104500  0.611000  1.0  0.1684
  C  C419  1  0.197100  0.139600  0.607000  1.0  0.1199
  C  C420  1  0.189500  0.173700  0.689000  1.0  -0.1147
  C  C421  1  0.149200  0.169500  0.768000  1.0  -0.1797
  C  C422  1  0.112100  0.130900  0.764000  1.0  0.1642
  C  C423  1  0.387200  0.173400  0.486000  1.0  0.6215
  C  C424  1  0.328300  0.162200  0.467000  1.0  -0.1497
  C  C425  1  0.289100  0.161200  0.547000  1.0  -0.0488
  C  C426  1  0.236800  0.146100  0.524000  1.0  0.0644
  C  C427  1  0.223800  0.132000  0.421000  1.0  -0.2043
  C  C428  1  0.263100  0.132900  0.341000  1.0  -0.1175
  C  C429  1  0.315300  0.148100  0.365000  1.0  -0.0821
  C  C430  1  0.982100  0.197900  0.018000  1.0  0.6879
  C  C431  1  0.005700  0.157500  0.964000  1.0  -0.1539
  C  C432  1  0.046500  0.164000  0.889000  1.0  -0.1426
  C  C433  1  0.071100  0.125700  0.841000  1.0  0.0549
  C  C434  1  0.054900  0.080900  0.869000  1.0  -0.1095
  C  C435  1  0.014200  0.074400  0.944000  1.0  -0.1087
  C  C436  1  0.989600  0.112700  0.991000  1.0  -0.0301
  C  C437  1  0.146900  0.163000  0.101000  1.0  0.1445
  C  C438  1  0.178400  0.125300  0.087000  1.0  0.2695
  C  C439  1  0.171200  0.089900  0.143000  1.0  -0.0893
  C  C440  1  0.133000  0.082200  0.214000  1.0  -0.1709
  C  C441  1  0.097800  0.117700  0.236000  1.0  0.098
  C  C442  1  0.309000  0.219500  0.861000  1.0  0.6556
  C  C443  1  0.287800  0.173600  0.899000  1.0  -0.1705
  C  C444  1  0.248400  0.172900  0.978000  1.0  -0.0477
  C  C445  1  0.222200  0.131400  0.004000  1.0  0.0059
  C  C446  1  0.235300  0.090700  0.949000  1.0  -0.1913
  C  C447  1  0.274700  0.091400  0.870000  1.0  -0.1254
  C  C448  1  0.300900  0.132800  0.845000  1.0  -0.0508
  C  C449  1  0.906200  0.149200  0.368000  1.0  0.6986
  C  C450  1  0.960200  0.124600  0.378000  1.0  -0.1026
  C  C451  1  0.000300  0.134700  0.303000  1.0  0.006
  C  C452  1  0.051200  0.114800  0.309000  1.0  -0.0329
  C  C453  1  0.062400  0.082400  0.388000  1.0  -0.1971
  C  C454  1  0.022900  0.071600  0.463000  1.0  -0.0805
  C  C455  1  0.970200  0.088700  0.450000  1.0  -0.0858
  C  C456  1  0.865100  0.581600  0.177000  1.0  0.2447
  C  C457  1  0.866200  0.602400  0.278900  1.0  -0.1315
  C  C458  1  0.895400  0.577800  0.365000  1.0  0.0251
  C  C459  1  0.914800  0.537700  0.332000  1.0  -0.046
  C  C460  1  0.909200  0.519100  0.234600  1.0  0.1431
  C  C461  1  0.900300  0.600600  0.470000  1.0  0.0147
  C  C462  1  0.903500  0.648600  0.484000  1.0  -0.1086
  C  C463  1  0.909600  0.667400  0.585000  1.0  -0.1769
  C  C464  1  0.912600  0.638200  0.673000  1.0  0.1961
  C  C465  1  0.909500  0.590200  0.660000  1.0  -0.1431
  C  C466  1  0.903300  0.571400  0.559000  1.0  -0.1451
  C  C467  1  0.962400  0.394600  0.228000  1.0  0.1971
  C  C468  1  0.942600  0.437000  0.263900  1.0  -0.2046
  C  C469  1  0.936700  0.472800  0.198000  1.0  0.0833
  C  C470  1  0.945000  0.466000  0.098000  1.0  -0.1445
  C  C471  1  0.967600  0.423700  0.066000  1.0  0.1654
  C  C472  1  0.762200  0.659700  0.032000  1.0  0.1731
  C  C473  1  0.799100  0.646700  0.114000  1.0  -0.1349
  C  C474  1  0.832500  0.604600  0.096000  1.0  -0.0613
  C  C475  1  0.835800  0.591600  0.987000  1.0  -0.1473
  C  C476  1  0.799500  0.608400  0.918000  1.0  0.1647
  C  C477  1  0.947500  0.646100  0.850000  1.0  0.1398
  C  C478  1  0.901000  0.706600  0.917000  1.0  -0.0044
  C  C479  1  0.880100  0.694300  0.820000  1.0  -0.0562
  C  C480  1  0.607600  0.734100  0.086000  1.0  0.1447
  C  C481  1  0.555600  0.732100  0.122000  1.0  0.2582
  C  C482  1  0.548000  0.734800  0.216000  1.0  -0.1295
  C  C483  1  0.593000  0.731300  0.293000  1.0  -0.1294
  C  C484  1  0.647100  0.732700  0.254000  1.0  0.026
  C  C485  1  0.476800  0.774300  0.767000  1.0  0.723
  C  C486  1  0.473200  0.750900  0.876000  1.0  -0.12
  C  C487  1  0.516500  0.754100  0.946000  1.0  -0.0731
  C  C488  1  0.513100  0.733300  0.046000  1.0  0.0974
  C  C489  1  0.466500  0.709300  0.075000  1.0  -0.1885
  C  C490  1  0.423200  0.706100  0.004000  1.0  -0.0976
  C  C491  1  0.426600  0.726900  0.905000  1.0  -0.0707
  C  C492  1  0.725400  0.708300  0.619000  1.0  0.6621
  C  C493  1  0.735500  0.718400  0.498000  1.0  -0.1433
  C  C494  1  0.689900  0.720600  0.434000  1.0  -0.0472
  C  C495  1  0.695400  0.729800  0.326000  1.0  0.0141
  C  C496  1  0.746700  0.736700  0.282000  1.0  -0.0758
  C  C497  1  0.792300  0.734500  0.347000  1.0  -0.0808
  C  C498  1  0.786700  0.725400  0.455000  1.0  -0.0358
  C  C499  1  0.837500  0.895500  0.611000  1.0  0.1695
  C  C500  1  0.802900  0.860400  0.607000  1.0  0.1195
  C  C501  1  0.810500  0.826300  0.689000  1.0  -0.1135
  C  C502  1  0.850800  0.830500  0.768000  1.0  -0.1787
  C  C503  1  0.887900  0.869100  0.764000  1.0  0.1642
  C  C504  1  0.612800  0.826600  0.486000  1.0  0.6226
  C  C505  1  0.671700  0.837800  0.467000  1.0  -0.1496
  C  C506  1  0.710900  0.838800  0.547000  1.0  -0.0478
  C  C507  1  0.763200  0.853900  0.524000  1.0  0.0648
  C  C508  1  0.776200  0.868000  0.421000  1.0  -0.2045
  C  C509  1  0.736900  0.867100  0.341000  1.0  -0.1163
  C  C510  1  0.684700  0.851900  0.365000  1.0  -0.0799
  C  C511  1  0.017900  0.802100  0.018000  1.0  0.6891
  C  C512  1  0.994300  0.842500  0.964000  1.0  -0.1538
  C  C513  1  0.953500  0.836000  0.889000  1.0  -0.1424
  C  C514  1  0.928900  0.874300  0.841000  1.0  0.0559
  C  C515  1  0.945100  0.919100  0.869000  1.0  -0.1111
  C  C516  1  0.985800  0.925600  0.944000  1.0  -0.1066
  C  C517  1  0.010400  0.887300  0.991000  1.0  -0.029
  C  C518  1  0.853100  0.837000  0.101000  1.0  0.1441
  C  C519  1  0.821600  0.874700  0.087000  1.0  0.2692
  C  C520  1  0.828800  0.910100  0.143000  1.0  -0.0876
  C  C521  1  0.867000  0.917800  0.214000  1.0  -0.1726
  C  C522  1  0.902200  0.882300  0.236000  1.0  0.0975
  C  C523  1  0.691000  0.780500  0.861000  1.0  0.6557
  C  C524  1  0.712200  0.826400  0.899000  1.0  -0.1712
  C  C525  1  0.751600  0.827100  0.978000  1.0  -0.0474
  C  C526  1  0.777800  0.868600  0.004000  1.0  0.0068
  C  C527  1  0.764700  0.909300  0.949000  1.0  -0.1902
  C  C528  1  0.725300  0.908600  0.870000  1.0  -0.126
  C  C529  1  0.699100  0.867200  0.845000  1.0  -0.0525
  C  C530  1  0.093800  0.850800  0.368000  1.0  0.6988
  C  C531  1  0.039800  0.875400  0.378000  1.0  -0.1017
  C  C532  1  0.999700  0.865300  0.303000  1.0  0.0073
  C  C533  1  0.948800  0.885200  0.309000  1.0  -0.0327
  C  C534  1  0.937600  0.917600  0.388000  1.0  -0.1976
  C  C535  1  0.977100  0.928400  0.463000  1.0  -0.0816
  C  C536  1  0.029800  0.911300  0.450000  1.0  -0.0847
  N  N537  1  0.613000  0.042900  0.650800  1.0  -0.3946
  N  N538  1  0.522900  0.885700  0.631900  1.0  -0.312
  N  N539  1  0.735600  0.144500  0.433200  1.0  -0.3434
  N  N540  1  0.586600  0.159700  0.275500  1.0  0.0325
  N  N541  1  0.558200  0.174300  0.432400  1.0  -0.3267
  N  N542  1  0.848700  0.226400  0.646300  1.0  -0.3843
  N  N543  1  0.625600  0.401900  0.191000  1.0  -0.4363
  N  N544  1  0.599200  0.342700  0.671000  1.0  -0.5065
  N  N545  1  0.387000  0.957100  0.650800  1.0  -0.3937
  N  N546  1  0.477100  0.114300  0.631900  1.0  -0.312
  N  N547  1  0.264400  0.855500  0.433200  1.0  -0.3445
  N  N548  1  0.413400  0.840300  0.275500  1.0  0.0325
  N  N549  1  0.441800  0.825700  0.432400  1.0  -0.3248
  N  N550  1  0.151300  0.773600  0.646300  1.0  -0.382
  N  N551  1  0.374400  0.598100  0.191000  1.0  -0.4352
  N  N552  1  0.400800  0.657300  0.671000  1.0  -0.5071
  N  N553  1  0.113000  0.457100  0.150800  1.0  -0.3932
  N  N554  1  0.022900  0.614300  0.131900  1.0  -0.3112
  N  N555  1  0.235600  0.355500  0.933200  1.0  -0.3438
  N  N556  1  0.086600  0.340300  0.775500  1.0  0.0323
  N  N557  1  0.058200  0.325700  0.932400  1.0  -0.3269
  N  N558  1  0.348700  0.273600  0.146300  1.0  -0.3827
  N  N559  1  0.125600  0.098100  0.691000  1.0  -0.4364
  N  N560  1  0.099200  0.157300  0.171000  1.0  -0.5066
  N  N561  1  0.887000  0.542900  0.150800  1.0  -0.394
  N  N562  1  0.977100  0.385700  0.131900  1.0  -0.3117
  N  N563  1  0.764400  0.644500  0.933200  1.0  -0.3443
  N  N564  1  0.913400  0.659700  0.775500  1.0  0.0327
  N  N565  1  0.941800  0.674300  0.932400  1.0  -0.3245
  N  N566  1  0.651300  0.726400  0.146300  1.0  -0.3829
  N  N567  1  0.874400  0.901900  0.691000  1.0  -0.4364
  N  N568  1  0.900800  0.842700  0.171000  1.0  -0.5062
  O  O569  1  0.976900  0.280900  0.230000  1.0  -0.6442
  O  O570  1  0.066900  0.285700  0.218600  1.0  -0.5577
  O  O571  1  0.819300  0.202700  0.152000  1.0  -0.6228
  O  O572  1  0.731800  0.203000  0.172900  1.0  -0.7155
  O  O573  1  0.894300  0.304000  0.082700  1.0  -0.7131
  O  O574  1  0.924700  0.338200  0.929600  1.0  -0.5758
  O  O575  1  0.501100  0.261400  0.500700  1.0  -0.6487
  O  O576  1  0.441300  0.308700  0.569500  1.0  -0.6206
  O  O577  1  0.853500  0.283200  0.308200  1.0  -0.6818
  O  O578  1  0.786700  0.242500  0.393600  1.0  -0.5963
  O  O579  1  0.400100  0.319600  0.804300  1.0  -0.6822
  O  O580  1  0.366200  0.369000  0.915500  1.0  -0.6461
  O  O581  1  0.023100  0.719100  0.230000  1.0  -0.6445
  O  O582  1  0.933100  0.714300  0.218600  1.0  -0.5579
  O  O583  1  0.180700  0.797300  0.152000  1.0  -0.6225
  O  O584  1  0.268200  0.797000  0.172900  1.0  -0.7158
  O  O585  1  0.105700  0.696000  0.082700  1.0  -0.7132
  O  O586  1  0.075300  0.661800  0.929600  1.0  -0.5757
  O  O587  1  0.498900  0.738600  0.500700  1.0  -0.6498
  O  O588  1  0.558700  0.691300  0.569500  1.0  -0.6217
  O  O589  1  0.146500  0.716800  0.308200  1.0  -0.6826
  O  O590  1  0.213300  0.757500  0.393600  1.0  -0.5952
  O  O591  1  0.599900  0.680400  0.804300  1.0  -0.6817
  O  O592  1  0.633800  0.631000  0.915500  1.0  -0.6451
  O  O593  1  0.476900  0.219100  0.730000  1.0  -0.6444
  O  O594  1  0.566900  0.214300  0.718600  1.0  -0.5583
  O  O595  1  0.319300  0.297300  0.652000  1.0  -0.6226
  O  O596  1  0.231800  0.297000  0.672900  1.0  -0.7153
  O  O597  1  0.394300  0.196000  0.582700  1.0  -0.7126
  O  O598  1  0.424700  0.161800  0.429600  1.0  -0.5749
  O  O599  1  0.001100  0.238600  0.000700  1.0  -0.6491
  O  O600  1  0.941300  0.191300  0.069500  1.0  -0.6212
  O  O601  1  0.353500  0.216800  0.808200  1.0  -0.6823
  O  O602  1  0.286700  0.257500  0.893600  1.0  -0.5949
  O  O603  1  0.900100  0.180400  0.304300  1.0  -0.6827
  O  O604  1  0.866200  0.131000  0.415500  1.0  -0.6462
  O  O605  1  0.523100  0.780900  0.730000  1.0  -0.6444
  O  O606  1  0.433100  0.785700  0.718600  1.0  -0.557
  O  O607  1  0.680700  0.702700  0.652000  1.0  -0.6231
  O  O608  1  0.768200  0.703000  0.672900  1.0  -0.7153
  O  O609  1  0.605700  0.804000  0.582700  1.0  -0.7133
  O  O610  1  0.575300  0.838200  0.429600  1.0  -0.576
  O  O611  1  0.998900  0.761400  0.000700  1.0  -0.6493
  O  O612  1  0.058700  0.808700  0.069500  1.0  -0.6211
  O  O613  1  0.646500  0.783200  0.808200  1.0  -0.6822
  O  O614  1  0.713300  0.742500  0.893600  1.0  -0.5964
  O  O615  1  0.099900  0.819600  0.304300  1.0  -0.6812
  O  O616  1  0.133800  0.869000  0.415500  1.0  -0.6466
