# generated using pymatgen
data_UP2(HO2)3
_symmetry_space_group_name_H-M   'P 1'
_cell_length_a   13.75800000
_cell_length_b   8.18000000
_cell_length_c   18.03700000
_cell_angle_alpha   90.00000000
_cell_angle_beta   106.64700000
_cell_angle_gamma   90.00000000
_symmetry_Int_Tables_number   1
_chemical_formula_structural   UP2(HO2)3
_chemical_formula_sum   'U8 P16 H24 O48'
_cell_volume   1944.81488439
_cell_formula_units_Z   8
loop_
 _symmetry_equiv_pos_site_id
 _symmetry_equiv_pos_as_xyz
  1  'x, y, z'
loop_
 _atom_site_type_symbol
 _atom_site_label
 _atom_site_symmetry_multiplicity
 _atom_site_fract_x
 _atom_site_fract_y
 _atom_site_fract_z
 _atom_site_occupancy
 _atom_site_charge
  U  U1  1  0.767460  0.076030  0.459940  1.0  1.8946
  U  U2  1  0.911950  0.786050  0.734670  1.0  1.5787
  U  U3  1  0.732540  0.576030  0.040060  1.0  1.8951
  U  U4  1  0.588050  0.286050  0.765330  1.0  1.5772
  U  U5  1  0.232540  0.923970  0.540060  1.0  1.8963
  U  U6  1  0.088050  0.213950  0.265330  1.0  1.5775
  U  U7  1  0.267460  0.423970  0.959940  1.0  1.8957
  U  U8  1  0.411950  0.713950  0.234670  1.0  1.5789
  P  P9  1  0.004900  0.055000  0.609600  1.0  1.4312
  P  P10  1  0.769300  0.155300  0.657800  1.0  1.4316
  P  P11  1  0.498300  0.073900  0.358100  1.0  1.3568
  P  P12  1  0.678400  0.825500  0.289000  1.0  1.3892
  P  P13  1  0.495100  0.555000  0.890400  1.0  1.4234
  P  P14  1  0.730700  0.655300  0.842200  1.0  1.4238
  P  P15  1  0.001700  0.573900  0.141900  1.0  1.359
  P  P16  1  0.821600  0.325500  0.211000  1.0  1.389
  P  P17  1  0.995100  0.945000  0.390400  1.0  1.4275
  P  P18  1  0.230700  0.844700  0.342200  1.0  1.427
  P  P19  1  0.501700  0.926100  0.641900  1.0  1.3662
  P  P20  1  0.321600  0.174500  0.711000  1.0  1.384
  P  P21  1  0.504900  0.445000  0.109600  1.0  1.4357
  P  P22  1  0.269300  0.344700  0.157800  1.0  1.4343
  P  P23  1  0.998300  0.426100  0.858100  1.0  1.3635
  P  P24  1  0.178400  0.674500  0.789000  1.0  1.3846
  H  H25  1  0.027200  0.121100  0.656700  1.0  0.037
  H  H26  1  0.838100  0.200100  0.675800  1.0  0.0333
  H  H27  1  0.509600  0.122400  0.311600  1.0  0.0346
  H  H28  1  0.679500  0.746100  0.330000  1.0  0.0407
  H  H29  1  0.398400  0.126700  0.414600  1.0  0.3484
  H  H30  1  0.790500  0.866500  0.244100  1.0  0.3232
  H  H31  1  0.472800  0.621100  0.843300  1.0  0.0365
  H  H32  1  0.661900  0.700100  0.824200  1.0  0.0331
  H  H33  1  0.990400  0.622400  0.188400  1.0  0.0331
  H  H34  1  0.820500  0.246100  0.170000  1.0  0.0402
  H  H35  1  0.101600  0.626700  0.085400  1.0  0.3504
  H  H36  1  0.709500  0.366500  0.255900  1.0  0.3239
  H  H37  1  0.972800  0.878900  0.343300  1.0  0.037
  H  H38  1  0.161900  0.799900  0.324200  1.0  0.0335
  H  H39  1  0.490400  0.877600  0.688400  1.0  0.0331
  H  H40  1  0.320500  0.253900  0.670000  1.0  0.0414
  H  H41  1  0.601600  0.873300  0.585400  1.0  0.3505
  H  H42  1  0.209500  0.133500  0.755900  1.0  0.3227
  H  H43  1  0.527200  0.378900  0.156700  1.0  0.038
  H  H44  1  0.338100  0.299900  0.175800  1.0  0.0334
  H  H45  1  0.009600  0.377600  0.811600  1.0  0.034
  H  H46  1  0.179500  0.753900  0.830000  1.0  0.0417
  H  H47  1  0.898400  0.373300  0.914600  1.0  0.3479
  H  H48  1  0.290500  0.633500  0.744100  1.0  0.3225
  O  O49  1  0.926100  0.157300  0.550300  1.0  -0.8118
  O  O50  1  0.954600  0.903300  0.630400  1.0  -0.8693
  O  O51  1  0.097500  0.017800  0.585300  1.0  -0.8516
  O  O52  1  0.732800  0.177000  0.570100  1.0  -0.8656
  O  O53  1  0.698500  0.988100  0.327100  1.0  -0.8262
  O  O54  1  0.775500  0.975200  0.679600  1.0  -0.8685
  O  O55  1  0.703800  0.253000  0.694600  1.0  -0.855
  O  O56  1  0.484400  0.892600  0.345500  1.0  -0.8513
  O  O57  1  0.576500  0.808800  0.230100  1.0  -0.8667
  O  O58  1  0.585200  0.122100  0.426600  1.0  -0.87
  O  O59  1  0.404000  0.156300  0.372600  1.0  -0.6641
  O  O60  1  0.767900  0.783000  0.257800  1.0  -0.7015
  O  O61  1  0.573900  0.657300  0.949700  1.0  -0.8106
  O  O62  1  0.545400  0.403300  0.869600  1.0  -0.8699
  O  O63  1  0.402500  0.517800  0.914700  1.0  -0.8511
  O  O64  1  0.767200  0.677000  0.929900  1.0  -0.8635
  O  O65  1  0.801500  0.488100  0.172900  1.0  -0.8261
  O  O66  1  0.724500  0.475200  0.820400  1.0  -0.8678
  O  O67  1  0.796200  0.753000  0.805400  1.0  -0.8551
  O  O68  1  0.015600  0.392600  0.154500  1.0  -0.8517
  O  O69  1  0.923500  0.308800  0.269900  1.0  -0.8664
  O  O70  1  0.914800  0.622100  0.073400  1.0  -0.869
  O  O71  1  0.096000  0.656300  0.127400  1.0  -0.6634
  O  O72  1  0.732100  0.283000  0.242200  1.0  -0.7015
  O  O73  1  0.073900  0.842700  0.449700  1.0  -0.8099
  O  O74  1  0.045400  0.096700  0.369600  1.0  -0.8678
  O  O75  1  0.902500  0.982200  0.414700  1.0  -0.8512
  O  O76  1  0.267200  0.823000  0.429900  1.0  -0.8632
  O  O77  1  0.301500  0.011900  0.672900  1.0  -0.8241
  O  O78  1  0.224500  0.024800  0.320400  1.0  -0.8688
  O  O79  1  0.296200  0.747000  0.305400  1.0  -0.8558
  O  O80  1  0.515600  0.107400  0.654500  1.0  -0.8529
  O  O81  1  0.423500  0.191200  0.769900  1.0  -0.8668
  O  O82  1  0.414800  0.877900  0.573400  1.0  -0.87
  O  O83  1  0.596000  0.843700  0.627400  1.0  -0.6629
  O  O84  1  0.232100  0.217000  0.742200  1.0  -0.701
  O  O85  1  0.426100  0.342700  0.050300  1.0  -0.8106
  O  O86  1  0.454600  0.596700  0.130400  1.0  -0.8679
  O  O87  1  0.597500  0.482200  0.085300  1.0  -0.8512
  O  O88  1  0.232800  0.323000  0.070100  1.0  -0.8643
  O  O89  1  0.198500  0.511900  0.827100  1.0  -0.825
  O  O90  1  0.275500  0.524800  0.179600  1.0  -0.8695
  O  O91  1  0.203800  0.247000  0.194600  1.0  -0.8552
  O  O92  1  0.984400  0.607400  0.845500  1.0  -0.8525
  O  O93  1  0.076500  0.691200  0.730100  1.0  -0.8672
  O  O94  1  0.085200  0.377900  0.926600  1.0  -0.8705
  O  O95  1  0.904000  0.343700  0.872600  1.0  -0.6644
  O  O96  1  0.267900  0.717000  0.757800  1.0  -0.7005
