# generated using pymatgen
data_Zn3H26C46(N5O8)2
_symmetry_space_group_name_H-M   'P 1'
_cell_length_a   19.86200000
_cell_length_b   11.64500000
_cell_length_c   22.81300000
_cell_angle_alpha   90.00000000
_cell_angle_beta   90.00000000
_cell_angle_gamma   90.00000000
_symmetry_Int_Tables_number   1
_chemical_formula_structural   Zn3H26C46(N5O8)2
_chemical_formula_sum   'Zn12 H104 C184 N40 O64'
_cell_volume   5276.48698087
_cell_formula_units_Z   4
loop_
 _symmetry_equiv_pos_site_id
 _symmetry_equiv_pos_as_xyz
  1  'x, y, z'
loop_
 _atom_site_type_symbol
 _atom_site_label
 _atom_site_symmetry_multiplicity
 _atom_site_fract_x
 _atom_site_fract_y
 _atom_site_fract_z
 _atom_site_occupancy
 _atom_site_charge
  Zn  Zn1  1  0.082410  0.576610  0.618320  1.0  0.9152
  Zn  Zn2  1  0.417590  0.423390  0.618320  1.0  0.9125
  Zn  Zn3  1  0.917590  0.576610  0.881680  1.0  0.9129
  Zn  Zn4  1  0.582410  0.423390  0.881680  1.0  0.9166
  Zn  Zn5  1  0.917590  0.423390  0.381680  1.0  0.9135
  Zn  Zn6  1  0.582410  0.576610  0.381680  1.0  0.916
  Zn  Zn7  1  0.082410  0.423390  0.118320  1.0  0.9157
  Zn  Zn8  1  0.417590  0.576610  0.118320  1.0  0.912
  Zn  Zn9  1  0.250000  0.000000  0.529110  1.0  0.9729
  Zn  Zn10  1  0.750000  0.000000  0.970890  1.0  0.9726
  Zn  Zn11  1  0.750000  0.000000  0.470890  1.0  0.9726
  Zn  Zn12  1  0.250000  0.000000  0.029110  1.0  0.9729
  H  H13  1  0.054200  0.205700  0.912200  1.0  0.327
  H  H14  1  0.089500  0.607300  0.749700  1.0  0.0913
  H  H15  1  0.091700  0.750700  0.818400  1.0  0.1258
  H  H16  1  0.084300  0.981100  0.687800  1.0  0.124
  H  H17  1  0.082900  0.830900  0.622700  1.0  0.0889
  H  H18  1  0.075300  0.875500  0.877900  1.0  0.1233
  H  H19  1  0.056000  0.021100  0.944200  1.0  0.1149
  H  H20  1  0.062300  0.252100  0.818800  1.0  0.1189
  H  H21  1  0.079200  0.111800  0.748900  1.0  0.1285
  H  H22  1  0.230300  0.164000  0.632300  1.0  0.0839
  H  H23  1  0.228000  0.168500  0.733000  1.0  0.1331
  H  H24  1  0.233400  0.170100  0.823700  1.0  0.1319
  H  H25  1  0.233000  0.165000  0.924200  1.0  0.0943
  H  H26  1  0.445800  0.794300  0.912200  1.0  0.3274
  H  H27  1  0.410500  0.392700  0.749700  1.0  0.0917
  H  H28  1  0.408300  0.249300  0.818400  1.0  0.1259
  H  H29  1  0.415700  0.018900  0.687800  1.0  0.1238
  H  H30  1  0.417100  0.169100  0.622700  1.0  0.0892
  H  H31  1  0.424700  0.124500  0.877900  1.0  0.1238
  H  H32  1  0.444000  0.978900  0.944200  1.0  0.1149
  H  H33  1  0.437700  0.747900  0.818800  1.0  0.1201
  H  H34  1  0.420800  0.888200  0.748900  1.0  0.1289
  H  H35  1  0.269700  0.836000  0.632300  1.0  0.0842
  H  H36  1  0.272000  0.831500  0.733000  1.0  0.1327
  H  H37  1  0.266600  0.829900  0.823700  1.0  0.1316
  H  H38  1  0.267000  0.835000  0.924200  1.0  0.094
  H  H39  1  0.945800  0.205700  0.587800  1.0  0.3276
  H  H40  1  0.910500  0.607300  0.750300  1.0  0.0916
  H  H41  1  0.908300  0.750700  0.681600  1.0  0.1257
  H  H42  1  0.915700  0.981100  0.812200  1.0  0.1228
  H  H43  1  0.917100  0.830900  0.877300  1.0  0.0885
  H  H44  1  0.924700  0.875500  0.622100  1.0  0.1232
  H  H45  1  0.944000  0.021100  0.555800  1.0  0.1145
  H  H46  1  0.937700  0.252100  0.681200  1.0  0.1196
  H  H47  1  0.920800  0.111800  0.751100  1.0  0.1288
  H  H48  1  0.769700  0.164000  0.867700  1.0  0.0843
  H  H49  1  0.772000  0.168500  0.767000  1.0  0.1328
  H  H50  1  0.766600  0.170100  0.676300  1.0  0.1316
  H  H51  1  0.767000  0.165000  0.575800  1.0  0.0943
  H  H52  1  0.554200  0.794300  0.587800  1.0  0.3284
  H  H53  1  0.589500  0.392700  0.750300  1.0  0.0912
  H  H54  1  0.591700  0.249300  0.681600  1.0  0.125
  H  H55  1  0.584300  0.018900  0.812200  1.0  0.1243
  H  H56  1  0.582900  0.169100  0.877300  1.0  0.0882
  H  H57  1  0.575300  0.124500  0.622100  1.0  0.1232
  H  H58  1  0.556000  0.978900  0.555800  1.0  0.1147
  H  H59  1  0.562300  0.747900  0.681200  1.0  0.1205
  H  H60  1  0.579200  0.888200  0.751100  1.0  0.1291
  H  H61  1  0.730300  0.836000  0.867700  1.0  0.0843
  H  H62  1  0.728000  0.831500  0.767000  1.0  0.1327
  H  H63  1  0.733400  0.829900  0.676300  1.0  0.132
  H  H64  1  0.733000  0.835000  0.575800  1.0  0.0941
  H  H65  1  0.945800  0.794300  0.087800  1.0  0.3274
  H  H66  1  0.910500  0.392700  0.250300  1.0  0.0914
  H  H67  1  0.908300  0.249300  0.181600  1.0  0.126
  H  H68  1  0.915700  0.018900  0.312200  1.0  0.1239
  H  H69  1  0.917100  0.169100  0.377300  1.0  0.0883
  H  H70  1  0.924700  0.124500  0.122100  1.0  0.1236
  H  H71  1  0.944000  0.978900  0.055800  1.0  0.1144
  H  H72  1  0.937700  0.747900  0.181200  1.0  0.1206
  H  H73  1  0.920800  0.888200  0.251100  1.0  0.129
  H  H74  1  0.769700  0.836000  0.367700  1.0  0.0843
  H  H75  1  0.772000  0.831500  0.267000  1.0  0.1326
  H  H76  1  0.766600  0.829900  0.176300  1.0  0.1316
  H  H77  1  0.767000  0.835000  0.075800  1.0  0.094
  H  H78  1  0.554200  0.205700  0.087800  1.0  0.3281
  H  H79  1  0.589500  0.607300  0.250300  1.0  0.091
  H  H80  1  0.591700  0.750700  0.181600  1.0  0.1254
  H  H81  1  0.584300  0.981100  0.312200  1.0  0.1232
  H  H82  1  0.582900  0.830900  0.377300  1.0  0.0887
  H  H83  1  0.575300  0.875500  0.122100  1.0  0.1229
  H  H84  1  0.556000  0.021100  0.055800  1.0  0.1146
  H  H85  1  0.562300  0.252100  0.181200  1.0  0.1191
  H  H86  1  0.579200  0.111800  0.251100  1.0  0.1288
  H  H87  1  0.730300  0.164000  0.367700  1.0  0.0841
  H  H88  1  0.728000  0.168500  0.267000  1.0  0.133
  H  H89  1  0.733400  0.170100  0.176300  1.0  0.1317
  H  H90  1  0.733000  0.165000  0.075800  1.0  0.0944
  H  H91  1  0.054200  0.794300  0.412200  1.0  0.3284
  H  H92  1  0.089500  0.392700  0.249700  1.0  0.0904
  H  H93  1  0.091700  0.249300  0.318400  1.0  0.1256
  H  H94  1  0.084300  0.018900  0.187800  1.0  0.1244
  H  H95  1  0.082900  0.169100  0.122700  1.0  0.089
  H  H96  1  0.075300  0.124500  0.377900  1.0  0.1234
  H  H97  1  0.056000  0.978900  0.444200  1.0  0.1148
  H  H98  1  0.062300  0.747900  0.318800  1.0  0.1199
  H  H99  1  0.079200  0.888200  0.248900  1.0  0.1289
  H  H100  1  0.230300  0.836000  0.132300  1.0  0.0842
  H  H101  1  0.228000  0.831500  0.233000  1.0  0.1329
  H  H102  1  0.233400  0.829900  0.323700  1.0  0.1321
  H  H103  1  0.233000  0.835000  0.424200  1.0  0.0941
  H  H104  1  0.445800  0.205700  0.412200  1.0  0.3266
  H  H105  1  0.410500  0.607300  0.249700  1.0  0.0912
  H  H106  1  0.408300  0.750700  0.318400  1.0  0.1259
  H  H107  1  0.415700  0.981100  0.187800  1.0  0.1235
  H  H108  1  0.417100  0.830900  0.122700  1.0  0.089
  H  H109  1  0.424700  0.875500  0.377900  1.0  0.1239
  H  H110  1  0.444000  0.021100  0.444200  1.0  0.1148
  H  H111  1  0.437700  0.252100  0.318800  1.0  0.1194
  H  H112  1  0.420800  0.111800  0.248900  1.0  0.1286
  H  H113  1  0.269700  0.164000  0.132300  1.0  0.0841
  H  H114  1  0.272000  0.168500  0.233000  1.0  0.1329
  H  H115  1  0.266600  0.170100  0.323700  1.0  0.1317
  H  H116  1  0.267000  0.165000  0.424200  1.0  0.094
  C  C117  1  0.069810  0.624960  0.490810  1.0  0.6633
  C  C118  1  0.079570  0.496380  0.496440  1.0  0.1102
  C  C119  1  0.083250  0.417010  0.450600  1.0  0.0794
  C  C120  1  0.077780  0.449740  0.386120  1.0  0.7144
  C  C121  1  0.098030  0.325540  0.629820  1.0  0.5984
  C  C122  1  0.094250  0.350670  0.564190  1.0  0.0651
  C  C123  1  0.100440  0.272290  0.518160  1.0  0.1278
  C  C124  1  0.122520  0.148890  0.526890  1.0  0.6685
  C  C125  1  0.087660  0.683270  0.737260  1.0  0.1824
  C  C126  1  0.088710  0.769190  0.778780  1.0  -0.1768
  C  C127  1  0.085230  0.883210  0.761550  1.0  0.064
  C  C128  1  0.084400  0.905850  0.701470  1.0  -0.1767
  C  C129  1  0.083670  0.814970  0.662620  1.0  0.1854
  C  C130  1  0.078500  0.976880  0.805260  1.0  0.0256
  C  C131  1  0.072140  0.951140  0.865070  1.0  -0.1154
  C  C132  1  0.061260  0.038110  0.904620  1.0  0.064
  C  C133  1  0.064690  0.175380  0.829920  1.0  0.0877
  C  C134  1  0.074830  0.091800  0.788180  1.0  -0.1267
  C  C135  1  0.238180  0.096320  0.652880  1.0  0.1817
  C  C136  1  0.237180  0.099980  0.713660  1.0  -0.1765
  C  C137  1  0.240060  0.100690  0.843040  1.0  -0.1687
  C  C138  1  0.240110  0.097080  0.903680  1.0  0.1826
  C  C139  1  0.430190  0.375040  0.490810  1.0  0.6621
  C  C140  1  0.420430  0.503620  0.496440  1.0  0.1096
  C  C141  1  0.416750  0.582990  0.450600  1.0  0.0789
  C  C142  1  0.422220  0.550260  0.386120  1.0  0.7164
  C  C143  1  0.401970  0.674460  0.629820  1.0  0.598
  C  C144  1  0.405750  0.649330  0.564190  1.0  0.0658
  C  C145  1  0.399560  0.727710  0.518160  1.0  0.128
  C  C146  1  0.377480  0.851110  0.526890  1.0  0.6686
  C  C147  1  0.412340  0.316730  0.737260  1.0  0.1836
  C  C148  1  0.411290  0.230810  0.778780  1.0  -0.1749
  C  C149  1  0.414770  0.116790  0.761550  1.0  0.063
  C  C150  1  0.415600  0.094150  0.701470  1.0  -0.1764
  C  C151  1  0.416330  0.185030  0.662620  1.0  0.1853
  C  C152  1  0.421500  0.023120  0.805260  1.0  0.0263
  C  C153  1  0.427860  0.048860  0.865070  1.0  -0.1141
  C  C154  1  0.438740  0.961890  0.904620  1.0  0.0646
  C  C155  1  0.435310  0.824620  0.829920  1.0  0.0865
  C  C156  1  0.425170  0.908200  0.788180  1.0  -0.1256
  C  C157  1  0.261820  0.903680  0.652880  1.0  0.1819
  C  C158  1  0.262820  0.900020  0.713660  1.0  -0.1733
  C  C159  1  0.259940  0.899310  0.843040  1.0  -0.1651
  C  C160  1  0.259890  0.902920  0.903680  1.0  0.1855
  C  C161  1  0.930190  0.624960  0.009190  1.0  0.6637
  C  C162  1  0.920430  0.496380  0.003560  1.0  0.1093
  C  C163  1  0.916750  0.417010  0.049400  1.0  0.0788
  C  C164  1  0.922220  0.449740  0.113880  1.0  0.7156
  C  C165  1  0.901970  0.325540  0.870180  1.0  0.5972
  C  C166  1  0.905750  0.350670  0.935810  1.0  0.0649
  C  C167  1  0.899560  0.272290  0.981840  1.0  0.1279
  C  C168  1  0.877480  0.148890  0.973110  1.0  0.6691
  C  C169  1  0.912340  0.683270  0.762740  1.0  0.1826
  C  C170  1  0.911290  0.769190  0.721220  1.0  -0.1746
  C  C171  1  0.914770  0.883210  0.738450  1.0  0.0624
  C  C172  1  0.915600  0.905850  0.798530  1.0  -0.1759
  C  C173  1  0.916330  0.814970  0.837380  1.0  0.1852
  C  C174  1  0.921500  0.976880  0.694740  1.0  0.0264
  C  C175  1  0.927860  0.951140  0.634930  1.0  -0.1152
  C  C176  1  0.938740  0.038110  0.595380  1.0  0.0628
  C  C177  1  0.935310  0.175380  0.670080  1.0  0.0879
  C  C178  1  0.925170  0.091800  0.711820  1.0  -0.1297
  C  C179  1  0.761820  0.096320  0.847120  1.0  0.1819
  C  C180  1  0.762820  0.099980  0.786340  1.0  -0.1752
  C  C181  1  0.759940  0.100690  0.656960  1.0  -0.1692
  C  C182  1  0.759890  0.097080  0.596320  1.0  0.1826
  C  C183  1  0.569810  0.375040  0.009190  1.0  0.6638
  C  C184  1  0.579570  0.503620  0.003560  1.0  0.1098
  C  C185  1  0.583250  0.582990  0.049400  1.0  0.08
  C  C186  1  0.577780  0.550260  0.113880  1.0  0.7145
  C  C187  1  0.598030  0.674460  0.870180  1.0  0.5967
  C  C188  1  0.594250  0.649330  0.935810  1.0  0.0655
  C  C189  1  0.600440  0.727710  0.981840  1.0  0.1283
  C  C190  1  0.622520  0.851110  0.973110  1.0  0.6678
  C  C191  1  0.587660  0.316730  0.762740  1.0  0.1825
  C  C192  1  0.588710  0.230810  0.721220  1.0  -0.1759
  C  C193  1  0.585230  0.116790  0.738450  1.0  0.0648
  C  C194  1  0.584400  0.094150  0.798530  1.0  -0.1762
  C  C195  1  0.583670  0.185030  0.837380  1.0  0.1845
  C  C196  1  0.578500  0.023120  0.694740  1.0  0.025
  C  C197  1  0.572140  0.048860  0.634930  1.0  -0.1146
  C  C198  1  0.561260  0.961890  0.595380  1.0  0.0626
  C  C199  1  0.564690  0.824620  0.670080  1.0  0.086
  C  C200  1  0.574830  0.908200  0.711820  1.0  -0.1281
  C  C201  1  0.738180  0.903680  0.847120  1.0  0.1816
  C  C202  1  0.737180  0.900020  0.786340  1.0  -0.1734
  C  C203  1  0.740060  0.899310  0.656960  1.0  -0.1664
  C  C204  1  0.740110  0.902920  0.596320  1.0  0.1848
  C  C205  1  0.930190  0.375040  0.509190  1.0  0.6624
  C  C206  1  0.920430  0.503620  0.503560  1.0  0.1096
  C  C207  1  0.916750  0.582990  0.549400  1.0  0.0799
  C  C208  1  0.922220  0.550260  0.613880  1.0  0.7166
  C  C209  1  0.901970  0.674460  0.370180  1.0  0.5975
  C  C210  1  0.905750  0.649330  0.435810  1.0  0.0651
  C  C211  1  0.899560  0.727710  0.481840  1.0  0.1283
  C  C212  1  0.877480  0.851110  0.473110  1.0  0.6685
  C  C213  1  0.912340  0.316730  0.262740  1.0  0.1835
  C  C214  1  0.911290  0.230810  0.221220  1.0  -0.1755
  C  C215  1  0.914770  0.116790  0.238450  1.0  0.063
  C  C216  1  0.915600  0.094150  0.298530  1.0  -0.1765
  C  C217  1  0.916330  0.185030  0.337380  1.0  0.1847
  C  C218  1  0.921500  0.023120  0.194740  1.0  0.0262
  C  C219  1  0.927860  0.048860  0.134930  1.0  -0.1146
  C  C220  1  0.938740  0.961890  0.095380  1.0  0.0627
  C  C221  1  0.935310  0.824620  0.170080  1.0  0.0868
  C  C222  1  0.925170  0.908200  0.211820  1.0  -0.1284
  C  C223  1  0.761820  0.903680  0.347120  1.0  0.182
  C  C224  1  0.762820  0.900020  0.286340  1.0  -0.1731
  C  C225  1  0.759940  0.899310  0.156960  1.0  -0.1664
  C  C226  1  0.759890  0.902920  0.096320  1.0  0.181
  C  C227  1  0.569810  0.624960  0.509190  1.0  0.6636
  C  C228  1  0.579570  0.496380  0.503560  1.0  0.1098
  C  C229  1  0.583250  0.417010  0.549400  1.0  0.0791
  C  C230  1  0.577780  0.449740  0.613880  1.0  0.7138
  C  C231  1  0.598030  0.325540  0.370180  1.0  0.5965
  C  C232  1  0.594250  0.350670  0.435810  1.0  0.0652
  C  C233  1  0.600440  0.272290  0.481840  1.0  0.1277
  C  C234  1  0.622520  0.148890  0.473110  1.0  0.6683
  C  C235  1  0.587660  0.683270  0.262740  1.0  0.1823
  C  C236  1  0.588710  0.769190  0.221220  1.0  -0.1746
  C  C237  1  0.585230  0.883210  0.238450  1.0  0.0641
  C  C238  1  0.584400  0.905850  0.298530  1.0  -0.1753
  C  C239  1  0.583670  0.814970  0.337380  1.0  0.1848
  C  C240  1  0.578500  0.976880  0.194740  1.0  0.0253
  C  C241  1  0.572140  0.951140  0.134930  1.0  -0.1154
  C  C242  1  0.561260  0.038110  0.095380  1.0  0.0626
  C  C243  1  0.564690  0.175380  0.170080  1.0  0.0874
  C  C244  1  0.574830  0.091800  0.211820  1.0  -0.1293
  C  C245  1  0.738180  0.096320  0.347120  1.0  0.1815
  C  C246  1  0.737180  0.099980  0.286340  1.0  -0.1761
  C  C247  1  0.740060  0.100690  0.156960  1.0  -0.1697
  C  C248  1  0.740110  0.097080  0.096320  1.0  0.1861
  C  C249  1  0.069810  0.375040  0.990810  1.0  0.6634
  C  C250  1  0.079570  0.503620  0.996440  1.0  0.1101
  C  C251  1  0.083250  0.582990  0.950600  1.0  0.0792
  C  C252  1  0.077780  0.550260  0.886120  1.0  0.715
  C  C253  1  0.098030  0.674460  0.129820  1.0  0.5985
  C  C254  1  0.094250  0.649330  0.064190  1.0  0.065
  C  C255  1  0.100440  0.727710  0.018160  1.0  0.1281
  C  C256  1  0.122520  0.851110  0.026890  1.0  0.6679
  C  C257  1  0.087660  0.316730  0.237260  1.0  0.1829
  C  C258  1  0.088710  0.230810  0.278780  1.0  -0.1762
  C  C259  1  0.085230  0.116790  0.261550  1.0  0.0645
  C  C260  1  0.084400  0.094150  0.201470  1.0  -0.176
  C  C261  1  0.083670  0.185030  0.162620  1.0  0.1848
  C  C262  1  0.078500  0.023120  0.305260  1.0  0.0252
  C  C263  1  0.072140  0.048860  0.365070  1.0  -0.1138
  C  C264  1  0.061260  0.961890  0.404620  1.0  0.0642
  C  C265  1  0.064690  0.824620  0.329920  1.0  0.0857
  C  C266  1  0.074830  0.908200  0.288180  1.0  -0.1256
  C  C267  1  0.238180  0.903680  0.152880  1.0  0.1816
  C  C268  1  0.237180  0.900020  0.213660  1.0  -0.1735
  C  C269  1  0.240060  0.899310  0.343040  1.0  -0.1653
  C  C270  1  0.240110  0.902920  0.403680  1.0  0.1821
  C  C271  1  0.430190  0.624960  0.990810  1.0  0.6634
  C  C272  1  0.420430  0.496380  0.996440  1.0  0.1096
  C  C273  1  0.416750  0.417010  0.950600  1.0  0.0786
  C  C274  1  0.422220  0.449740  0.886120  1.0  0.7163
  C  C275  1  0.401970  0.325540  0.129820  1.0  0.5978
  C  C276  1  0.405750  0.350670  0.064190  1.0  0.066
  C  C277  1  0.399560  0.272290  0.018160  1.0  0.1278
  C  C278  1  0.377480  0.148890  0.026890  1.0  0.6693
  C  C279  1  0.412340  0.683270  0.237260  1.0  0.1824
  C  C280  1  0.411290  0.769190  0.278780  1.0  -0.1758
  C  C281  1  0.414770  0.883210  0.261550  1.0  0.0625
  C  C282  1  0.415600  0.905850  0.201470  1.0  -0.1771
  C  C283  1  0.416330  0.814970  0.162620  1.0  0.1857
  C  C284  1  0.421500  0.976880  0.305260  1.0  0.0266
  C  C285  1  0.427860  0.951140  0.365070  1.0  -0.1154
  C  C286  1  0.438740  0.038110  0.404620  1.0  0.0644
  C  C287  1  0.435310  0.175380  0.329920  1.0  0.088
  C  C288  1  0.425170  0.091800  0.288180  1.0  -0.1269
  C  C289  1  0.261820  0.096320  0.152880  1.0  0.182
  C  C290  1  0.262820  0.099980  0.213660  1.0  -0.1757
  C  C291  1  0.259940  0.100690  0.343040  1.0  -0.1681
  C  C292  1  0.259890  0.097080  0.403680  1.0  0.187
  C  C293  1  0.250000  0.000000  0.745480  1.0  0.0539
  C  C294  1  0.250000  0.000000  0.810830  1.0  0.0556
  C  C295  1  0.750000  0.000000  0.754520  1.0  0.0538
  C  C296  1  0.750000  0.000000  0.689170  1.0  0.056
  C  C297  1  0.750000  0.000000  0.254520  1.0  0.0538
  C  C298  1  0.750000  0.000000  0.189170  1.0  0.056
  C  C299  1  0.250000  0.000000  0.245480  1.0  0.0539
  C  C300  1  0.250000  0.000000  0.310830  1.0  0.0556
  N  N301  1  0.084790  0.460360  0.551380  1.0  -0.3022
  N  N302  1  0.094570  0.305220  0.461810  1.0  -0.4022
  N  N303  1  0.084050  0.704980  0.679740  1.0  -0.3262
  N  N304  1  0.058260  0.146930  0.886450  1.0  -0.1959
  N  N305  1  0.415210  0.539640  0.551380  1.0  -0.3025
  N  N306  1  0.405430  0.694780  0.461810  1.0  -0.4034
  N  N307  1  0.415950  0.295020  0.679740  1.0  -0.3254
  N  N308  1  0.441740  0.853070  0.886450  1.0  -0.1975
  N  N309  1  0.915210  0.460360  0.948620  1.0  -0.3042
  N  N310  1  0.905430  0.305220  0.038190  1.0  -0.4014
  N  N311  1  0.915950  0.704980  0.820260  1.0  -0.3266
  N  N312  1  0.941740  0.146930  0.613550  1.0  -0.1956
  N  N313  1  0.584790  0.539640  0.948620  1.0  -0.3035
  N  N314  1  0.594570  0.694780  0.038190  1.0  -0.4034
  N  N315  1  0.584050  0.295020  0.820260  1.0  -0.326
  N  N316  1  0.558260  0.853070  0.613550  1.0  -0.1953
  N  N317  1  0.915210  0.539640  0.448620  1.0  -0.3045
  N  N318  1  0.905430  0.694780  0.538190  1.0  -0.403
  N  N319  1  0.915950  0.295020  0.320260  1.0  -0.3266
  N  N320  1  0.941740  0.853070  0.113550  1.0  -0.1953
  N  N321  1  0.584790  0.460360  0.448620  1.0  -0.3031
  N  N322  1  0.594570  0.305220  0.538190  1.0  -0.4015
  N  N323  1  0.584050  0.704980  0.320260  1.0  -0.3255
  N  N324  1  0.558260  0.146930  0.113550  1.0  -0.1952
  N  N325  1  0.084790  0.539640  0.051380  1.0  -0.3014
  N  N326  1  0.094570  0.694780  0.961810  1.0  -0.4039
  N  N327  1  0.084050  0.295020  0.179740  1.0  -0.3252
  N  N328  1  0.058260  0.853070  0.386450  1.0  -0.1971
  N  N329  1  0.415210  0.460360  0.051380  1.0  -0.3031
  N  N330  1  0.405430  0.305220  0.961810  1.0  -0.4022
  N  N331  1  0.415950  0.704980  0.179740  1.0  -0.3273
  N  N332  1  0.441740  0.146930  0.386450  1.0  -0.1967
  N  N333  1  0.250000  0.000000  0.622250  1.0  -0.3389
  N  N334  1  0.250000  0.000000  0.934190  1.0  -0.3436
  N  N335  1  0.750000  0.000000  0.877750  1.0  -0.34
  N  N336  1  0.750000  0.000000  0.565810  1.0  -0.3426
  N  N337  1  0.750000  0.000000  0.377750  1.0  -0.34
  N  N338  1  0.750000  0.000000  0.065810  1.0  -0.3426
  N  N339  1  0.250000  0.000000  0.122250  1.0  -0.3389
  N  N340  1  0.250000  0.000000  0.434190  1.0  -0.3436
  O  O341  1  0.073050  0.682570  0.537510  1.0  -0.5843
  O  O342  1  0.058250  0.660670  0.440470  1.0  -0.5822
  O  O343  1  0.097460  0.415490  0.662110  1.0  -0.5886
  O  O344  1  0.100720  0.224970  0.646040  1.0  -0.5203
  O  O345  1  0.186580  0.140960  0.526830  1.0  -0.6239
  O  O346  1  0.080760  0.071030  0.530860  1.0  -0.5635
  O  O347  1  0.131390  0.476990  0.361320  1.0  -0.5493
  O  O348  1  0.021370  0.440640  0.362070  1.0  -0.6215
  O  O349  1  0.426950  0.317430  0.537510  1.0  -0.5843
  O  O350  1  0.441750  0.339330  0.440470  1.0  -0.5831
  O  O351  1  0.402540  0.584510  0.662110  1.0  -0.5885
  O  O352  1  0.399280  0.775030  0.646040  1.0  -0.5203
  O  O353  1  0.313420  0.859040  0.526830  1.0  -0.6252
  O  O354  1  0.419240  0.928970  0.530860  1.0  -0.5638
  O  O355  1  0.368610  0.523010  0.361320  1.0  -0.5508
  O  O356  1  0.478630  0.559360  0.362070  1.0  -0.6222
  O  O357  1  0.926950  0.682570  0.962490  1.0  -0.5842
  O  O358  1  0.941750  0.660670  0.059530  1.0  -0.5835
  O  O359  1  0.902540  0.415490  0.837890  1.0  -0.5889
  O  O360  1  0.899280  0.224970  0.853960  1.0  -0.5199
  O  O361  1  0.813420  0.140960  0.973170  1.0  -0.6251
  O  O362  1  0.919240  0.071030  0.969140  1.0  -0.564
  O  O363  1  0.868610  0.476990  0.138680  1.0  -0.5501
  O  O364  1  0.978630  0.440640  0.137930  1.0  -0.6222
  O  O365  1  0.573050  0.317430  0.962490  1.0  -0.5842
  O  O366  1  0.558250  0.339330  0.059530  1.0  -0.5821
  O  O367  1  0.597460  0.584510  0.837890  1.0  -0.5887
  O  O368  1  0.600720  0.775030  0.853960  1.0  -0.5222
  O  O369  1  0.686580  0.859040  0.973170  1.0  -0.6235
  O  O370  1  0.580760  0.928970  0.969140  1.0  -0.5639
  O  O371  1  0.631390  0.523010  0.138680  1.0  -0.5517
  O  O372  1  0.521370  0.559360  0.137930  1.0  -0.6224
  O  O373  1  0.926950  0.317430  0.462490  1.0  -0.5843
  O  O374  1  0.941750  0.339330  0.559530  1.0  -0.5831
  O  O375  1  0.902540  0.584510  0.337890  1.0  -0.5912
  O  O376  1  0.899280  0.775030  0.353960  1.0  -0.5217
  O  O377  1  0.813420  0.859040  0.473170  1.0  -0.6252
  O  O378  1  0.919240  0.928970  0.469140  1.0  -0.5642
  O  O379  1  0.868610  0.523010  0.638680  1.0  -0.5494
  O  O380  1  0.978630  0.559360  0.637930  1.0  -0.6222
  O  O381  1  0.573050  0.682570  0.462490  1.0  -0.5841
  O  O382  1  0.558250  0.660670  0.559530  1.0  -0.5824
  O  O383  1  0.597460  0.415490  0.337890  1.0  -0.5864
  O  O384  1  0.600720  0.224970  0.353960  1.0  -0.521
  O  O385  1  0.686580  0.140960  0.473170  1.0  -0.6237
  O  O386  1  0.580760  0.071030  0.469140  1.0  -0.5642
  O  O387  1  0.631390  0.476990  0.638680  1.0  -0.5513
  O  O388  1  0.521370  0.440640  0.637930  1.0  -0.6224
  O  O389  1  0.073050  0.317430  0.037510  1.0  -0.5843
  O  O390  1  0.058250  0.339330  0.940470  1.0  -0.582
  O  O391  1  0.097460  0.584510  0.162110  1.0  -0.5891
  O  O392  1  0.100720  0.775030  0.146040  1.0  -0.5211
  O  O393  1  0.186580  0.859040  0.026830  1.0  -0.6236
  O  O394  1  0.080760  0.928970  0.030860  1.0  -0.5635
  O  O395  1  0.131390  0.523010  0.861320  1.0  -0.5507
  O  O396  1  0.021370  0.559360  0.862070  1.0  -0.6223
  O  O397  1  0.426950  0.682570  0.037510  1.0  -0.5842
  O  O398  1  0.441750  0.660670  0.940470  1.0  -0.5833
  O  O399  1  0.402540  0.415490  0.162110  1.0  -0.5891
  O  O400  1  0.399280  0.224970  0.146040  1.0  -0.5191
  O  O401  1  0.313420  0.140960  0.026830  1.0  -0.6253
  O  O402  1  0.419240  0.071030  0.030860  1.0  -0.5633
  O  O403  1  0.368610  0.476990  0.861320  1.0  -0.5502
  O  O404  1  0.478630  0.440640  0.862070  1.0  -0.6213
