# generated using pymatgen
data_Fe4Ni3H44C52(NO13)2
_symmetry_space_group_name_H-M   'P 1'
_cell_length_a   13.53200000
_cell_length_b   14.66100000
_cell_length_c   16.93100000
_cell_angle_alpha   90.00000000
_cell_angle_beta   90.00000000
_cell_angle_gamma   90.00000000
_symmetry_Int_Tables_number   1
_chemical_formula_structural   Fe4Ni3H44C52(NO13)2
_chemical_formula_sum   'Fe8 Ni6 H88 C104 N4 O52'
_cell_volume   3358.98599101
_cell_formula_units_Z   2
loop_
 _symmetry_equiv_pos_site_id
 _symmetry_equiv_pos_as_xyz
  1  'x, y, z'
loop_
 _atom_site_type_symbol
 _atom_site_label
 _atom_site_symmetry_multiplicity
 _atom_site_fract_x
 _atom_site_fract_y
 _atom_site_fract_z
 _atom_site_occupancy
 _atom_site_charge
  Fe  Fe1  1  0.774670  0.893140  0.280860  1.0  0.2878
  Fe  Fe2  1  0.225330  0.106860  0.280860  1.0  0.2883
  Fe  Fe3  1  0.725330  0.393140  0.219140  1.0  0.2865
  Fe  Fe4  1  0.274670  0.606860  0.219140  1.0  0.2863
  Fe  Fe5  1  0.225330  0.106860  0.719140  1.0  0.2867
  Fe  Fe6  1  0.774670  0.893140  0.719140  1.0  0.2862
  Fe  Fe7  1  0.274670  0.606860  0.780860  1.0  0.288
  Fe  Fe8  1  0.725330  0.393140  0.780860  1.0  0.2882
  Ni  Ni9  1  0.000000  0.000000  0.000000  1.0  0.8692
  Ni  Ni10  1  0.500000  0.500000  0.500000  1.0  0.8692
  Ni  Ni11  1  0.738530  0.591760  0.500000  1.0  0.8888
  Ni  Ni12  1  0.261470  0.408240  0.500000  1.0  0.8934
  Ni  Ni13  1  0.761470  0.091760  0.000000  1.0  0.8933
  Ni  Ni14  1  0.238530  0.908240  0.000000  1.0  0.8887
  H  H15  1  0.879100  0.729000  0.302400  1.0  0.1506
  H  H16  1  0.934800  0.818000  0.195500  1.0  0.1475
  H  H17  1  0.910000  0.567000  0.465000  1.0  0.4514
  H  H18  1  0.650600  0.892500  0.147100  1.0  0.149
  H  H19  1  0.082000  0.853000  0.037000  1.0  0.3554
  H  H20  1  0.594700  0.801700  0.252900  1.0  0.1451
  H  H21  1  0.735000  0.900800  0.437300  1.0  0.1727
  H  H22  1  0.613700  0.981300  0.346800  1.0  0.1647
  H  H23  1  0.712100  0.065600  0.242200  1.0  0.1536
  H  H24  1  0.894200  0.037200  0.268100  1.0  0.1608
  H  H25  1  0.908300  0.935300  0.388600  1.0  0.159
  H  H26  1  0.120900  0.271000  0.302400  1.0  0.1503
  H  H27  1  0.065200  0.182000  0.195500  1.0  0.1478
  H  H28  1  0.090000  0.433000  0.465000  1.0  0.4525
  H  H29  1  0.349400  0.107500  0.147100  1.0  0.1499
  H  H30  1  0.918000  0.147000  0.037000  1.0  0.3566
  H  H31  1  0.405300  0.198300  0.252900  1.0  0.1458
  H  H32  1  0.265000  0.099200  0.437300  1.0  0.1725
  H  H33  1  0.386300  0.018700  0.346800  1.0  0.1636
  H  H34  1  0.287900  0.934400  0.242200  1.0  0.1532
  H  H35  1  0.105800  0.962800  0.268100  1.0  0.1603
  H  H36  1  0.091700  0.064700  0.388600  1.0  0.1597
  H  H37  1  0.620900  0.229000  0.197600  1.0  0.1499
  H  H38  1  0.565200  0.318000  0.304500  1.0  0.1474
  H  H39  1  0.590000  0.067000  0.035000  1.0  0.4514
  H  H40  1  0.849400  0.392500  0.352900  1.0  0.1495
  H  H41  1  0.418000  0.353000  0.463000  1.0  0.3564
  H  H42  1  0.905300  0.301700  0.247100  1.0  0.1458
  H  H43  1  0.765000  0.400800  0.062700  1.0  0.1734
  H  H44  1  0.886300  0.481300  0.153200  1.0  0.1651
  H  H45  1  0.787900  0.565600  0.257800  1.0  0.153
  H  H46  1  0.605800  0.537200  0.231900  1.0  0.1609
  H  H47  1  0.591700  0.435300  0.111400  1.0  0.1597
  H  H48  1  0.379100  0.771000  0.197600  1.0  0.1506
  H  H49  1  0.434800  0.682000  0.304500  1.0  0.1475
  H  H50  1  0.410000  0.933000  0.035000  1.0  0.4523
  H  H51  1  0.150600  0.607500  0.352900  1.0  0.1495
  H  H52  1  0.582000  0.647000  0.463000  1.0  0.358
  H  H53  1  0.094700  0.698300  0.247100  1.0  0.145
  H  H54  1  0.235000  0.599200  0.062700  1.0  0.1729
  H  H55  1  0.113700  0.518700  0.153200  1.0  0.1635
  H  H56  1  0.212100  0.434400  0.257800  1.0  0.153
  H  H57  1  0.394200  0.462800  0.231900  1.0  0.1599
  H  H58  1  0.408300  0.564700  0.111400  1.0  0.1599
  H  H59  1  0.120900  0.271000  0.697600  1.0  0.1502
  H  H60  1  0.065200  0.182000  0.804500  1.0  0.1476
  H  H61  1  0.090000  0.433000  0.535000  1.0  0.4524
  H  H62  1  0.349400  0.107500  0.852900  1.0  0.1496
  H  H63  1  0.918000  0.147000  0.963000  1.0  0.3574
  H  H64  1  0.405300  0.198300  0.747100  1.0  0.1458
  H  H65  1  0.265000  0.099200  0.562700  1.0  0.1731
  H  H66  1  0.386300  0.018700  0.653200  1.0  0.1645
  H  H67  1  0.287900  0.934400  0.757800  1.0  0.1533
  H  H68  1  0.105800  0.962800  0.731900  1.0  0.1604
  H  H69  1  0.091700  0.064700  0.611400  1.0  0.1596
  H  H70  1  0.879100  0.729000  0.697600  1.0  0.1505
  H  H71  1  0.934800  0.818000  0.804500  1.0  0.1478
  H  H72  1  0.910000  0.567000  0.535000  1.0  0.4513
  H  H73  1  0.650600  0.892500  0.852900  1.0  0.1488
  H  H74  1  0.082000  0.853000  0.963000  1.0  0.3567
  H  H75  1  0.594700  0.801700  0.747100  1.0  0.1451
  H  H76  1  0.735000  0.900800  0.562700  1.0  0.1731
  H  H77  1  0.613700  0.981300  0.653200  1.0  0.1639
  H  H78  1  0.712100  0.065600  0.757800  1.0  0.1537
  H  H79  1  0.894200  0.037200  0.731900  1.0  0.1603
  H  H80  1  0.908300  0.935300  0.611400  1.0  0.1601
  H  H81  1  0.379100  0.771000  0.802400  1.0  0.1505
  H  H82  1  0.434800  0.682000  0.695500  1.0  0.1477
  H  H83  1  0.410000  0.933000  0.965000  1.0  0.4523
  H  H84  1  0.150600  0.607500  0.647100  1.0  0.1499
  H  H85  1  0.582000  0.647000  0.537000  1.0  0.356
  H  H86  1  0.094700  0.698300  0.752900  1.0  0.145
  H  H87  1  0.235000  0.599200  0.937300  1.0  0.1722
  H  H88  1  0.113700  0.518700  0.846800  1.0  0.1645
  H  H89  1  0.212100  0.434400  0.742200  1.0  0.1529
  H  H90  1  0.394200  0.462800  0.768100  1.0  0.1601
  H  H91  1  0.408300  0.564700  0.888600  1.0  0.1588
  H  H92  1  0.620900  0.229000  0.802400  1.0  0.1505
  H  H93  1  0.565200  0.318000  0.695500  1.0  0.1472
  H  H94  1  0.590000  0.067000  0.965000  1.0  0.4524
  H  H95  1  0.849400  0.392500  0.647100  1.0  0.1497
  H  H96  1  0.418000  0.353000  0.537000  1.0  0.3564
  H  H97  1  0.905300  0.301700  0.752900  1.0  0.1457
  H  H98  1  0.765000  0.400800  0.937300  1.0  0.1726
  H  H99  1  0.886300  0.481300  0.846800  1.0  0.164
  H  H100  1  0.787900  0.565600  0.742200  1.0  0.1529
  H  H101  1  0.605800  0.537200  0.768100  1.0  0.1611
  H  H102  1  0.591700  0.435300  0.888600  1.0  0.16
  C  C103  1  0.731900  0.758100  0.289440  1.0  0.0218
  C  C104  1  0.833000  0.762500  0.271530  1.0  -0.126
  C  C105  1  0.866400  0.816200  0.208090  1.0  -0.14
  C  C106  1  0.798300  0.867400  0.163300  1.0  0.0221
  C  C107  1  0.696800  0.860500  0.179000  1.0  -0.1595
  C  C108  1  0.663400  0.806100  0.242100  1.0  -0.1396
  C  C109  1  0.694600  0.709700  0.362900  1.0  0.6575
  C  C110  1  0.832700  0.938900  0.104200  1.0  0.7086
  C  C111  1  0.751600  0.937500  0.393000  1.0  -0.1178
  C  C112  1  0.683700  0.982500  0.342300  1.0  -0.1662
  C  C113  1  0.738800  0.029700  0.283700  1.0  -0.1479
  C  C114  1  0.840700  0.013800  0.298200  1.0  -0.0974
  C  C115  1  0.848600  0.956800  0.365700  1.0  -0.1102
  C  C116  1  0.268100  0.241900  0.289440  1.0  0.023
  C  C117  1  0.167000  0.237500  0.271530  1.0  -0.1256
  C  C118  1  0.133600  0.183800  0.208090  1.0  -0.136
  C  C119  1  0.201700  0.132600  0.163300  1.0  0.0216
  C  C120  1  0.303200  0.139500  0.179000  1.0  -0.1594
  C  C121  1  0.336600  0.193900  0.242100  1.0  -0.1412
  C  C122  1  0.305400  0.290300  0.362900  1.0  0.6581
  C  C123  1  0.167300  0.061100  0.104200  1.0  0.7092
  C  C124  1  0.248400  0.062500  0.393000  1.0  -0.118
  C  C125  1  0.316300  0.017500  0.342300  1.0  -0.1682
  C  C126  1  0.261200  0.970300  0.283700  1.0  -0.1468
  C  C127  1  0.159300  0.986200  0.298200  1.0  -0.0974
  C  C128  1  0.151400  0.043200  0.365700  1.0  -0.1107
  C  C129  1  0.768100  0.258100  0.210560  1.0  0.023
  C  C130  1  0.667000  0.262500  0.228470  1.0  -0.1255
  C  C131  1  0.633600  0.316200  0.291910  1.0  -0.1346
  C  C132  1  0.701700  0.367400  0.336700  1.0  0.0243
  C  C133  1  0.803200  0.360500  0.321000  1.0  -0.1582
  C  C134  1  0.836600  0.306100  0.257900  1.0  -0.1408
  C  C135  1  0.805400  0.209700  0.137100  1.0  0.6579
  C  C136  1  0.667300  0.438900  0.395800  1.0  0.7083
  C  C137  1  0.748400  0.437500  0.107000  1.0  -0.1174
  C  C138  1  0.816300  0.482500  0.157700  1.0  -0.1644
  C  C139  1  0.761200  0.529700  0.216300  1.0  -0.1474
  C  C140  1  0.659300  0.513800  0.201800  1.0  -0.0958
  C  C141  1  0.651400  0.456800  0.134300  1.0  -0.1119
  C  C142  1  0.231900  0.741900  0.210560  1.0  0.0229
  C  C143  1  0.333000  0.737500  0.228470  1.0  -0.1241
  C  C144  1  0.366400  0.683800  0.291910  1.0  -0.1389
  C  C145  1  0.298300  0.632600  0.336700  1.0  0.0255
  C  C146  1  0.196800  0.639500  0.321000  1.0  -0.1573
  C  C147  1  0.163400  0.693900  0.257900  1.0  -0.1406
  C  C148  1  0.194600  0.790300  0.137100  1.0  0.6579
  C  C149  1  0.332700  0.561100  0.395800  1.0  0.7074
  C  C150  1  0.251600  0.562500  0.107000  1.0  -0.1196
  C  C151  1  0.183700  0.517500  0.157700  1.0  -0.1664
  C  C152  1  0.238800  0.470300  0.216300  1.0  -0.1496
  C  C153  1  0.340700  0.486200  0.201800  1.0  -0.0965
  C  C154  1  0.348600  0.543200  0.134300  1.0  -0.1144
  C  C155  1  0.268100  0.241900  0.710560  1.0  0.0234
  C  C156  1  0.167000  0.237500  0.728470  1.0  -0.1252
  C  C157  1  0.133600  0.183800  0.791910  1.0  -0.1359
  C  C158  1  0.201700  0.132600  0.836700  1.0  0.025
  C  C159  1  0.303200  0.139500  0.821000  1.0  -0.1568
  C  C160  1  0.336600  0.193900  0.757900  1.0  -0.1418
  C  C161  1  0.305400  0.290300  0.637100  1.0  0.6577
  C  C162  1  0.167300  0.061100  0.895800  1.0  0.7077
  C  C163  1  0.248400  0.062500  0.607000  1.0  -0.1198
  C  C164  1  0.316300  0.017500  0.657700  1.0  -0.1682
  C  C165  1  0.261200  0.970300  0.716300  1.0  -0.1492
  C  C166  1  0.159300  0.986200  0.701800  1.0  -0.097
  C  C167  1  0.151400  0.043200  0.634300  1.0  -0.1139
  C  C168  1  0.731900  0.758100  0.710560  1.0  0.0224
  C  C169  1  0.833000  0.762500  0.728470  1.0  -0.1257
  C  C170  1  0.866400  0.816200  0.791910  1.0  -0.138
  C  C171  1  0.798300  0.867400  0.836700  1.0  0.0252
  C  C172  1  0.696800  0.860500  0.821000  1.0  -0.1573
  C  C173  1  0.663400  0.806100  0.757900  1.0  -0.1397
  C  C174  1  0.694600  0.709700  0.637100  1.0  0.6575
  C  C175  1  0.832700  0.938900  0.895800  1.0  0.708
  C  C176  1  0.751600  0.937500  0.607000  1.0  -0.1176
  C  C177  1  0.683700  0.982500  0.657700  1.0  -0.1641
  C  C178  1  0.738800  0.029700  0.716300  1.0  -0.149
  C  C179  1  0.840700  0.013800  0.701800  1.0  -0.0954
  C  C180  1  0.848600  0.956800  0.634300  1.0  -0.1117
  C  C181  1  0.231900  0.741900  0.789440  1.0  0.0226
  C  C182  1  0.333000  0.737500  0.771530  1.0  -0.1249
  C  C183  1  0.366400  0.683800  0.708090  1.0  -0.1397
  C  C184  1  0.298300  0.632600  0.663300  1.0  0.0216
  C  C185  1  0.196800  0.639500  0.679000  1.0  -0.1585
  C  C186  1  0.163400  0.693900  0.742100  1.0  -0.1399
  C  C187  1  0.194600  0.790300  0.862900  1.0  0.658
  C  C188  1  0.332700  0.561100  0.604200  1.0  0.7092
  C  C189  1  0.251600  0.562500  0.893000  1.0  -0.1187
  C  C190  1  0.183700  0.517500  0.842300  1.0  -0.1666
  C  C191  1  0.238800  0.470300  0.783700  1.0  -0.1474
  C  C192  1  0.340700  0.486200  0.798200  1.0  -0.0971
  C  C193  1  0.348600  0.543200  0.865700  1.0  -0.1108
  C  C194  1  0.768100  0.258100  0.789440  1.0  0.0223
  C  C195  1  0.667000  0.262500  0.771530  1.0  -0.1256
  C  C196  1  0.633600  0.316200  0.708090  1.0  -0.1361
  C  C197  1  0.701700  0.367400  0.663300  1.0  0.0216
  C  C198  1  0.803200  0.360500  0.679000  1.0  -0.1615
  C  C199  1  0.836600  0.306100  0.742100  1.0  -0.1413
  C  C200  1  0.805400  0.209700  0.862900  1.0  0.6582
  C  C201  1  0.667300  0.438900  0.604200  1.0  0.7087
  C  C202  1  0.748400  0.437500  0.893000  1.0  -0.1172
  C  C203  1  0.816300  0.482500  0.842300  1.0  -0.166
  C  C204  1  0.761200  0.529700  0.783700  1.0  -0.1465
  C  C205  1  0.659300  0.513800  0.798200  1.0  -0.0976
  C  C206  1  0.651400  0.456800  0.865700  1.0  -0.1112
  N  N207  1  0.500000  0.000000  0.813600  1.0  0.7213
  N  N208  1  0.000000  0.500000  0.686400  1.0  0.7216
  N  N209  1  0.500000  0.000000  0.186400  1.0  0.7216
  N  N210  1  0.000000  0.500000  0.313600  1.0  0.7213
  O  O211  1  0.603850  0.699300  0.368550  1.0  -0.5576
  O  O212  1  0.758960  0.685410  0.411620  1.0  -0.531
  O  O213  1  0.920890  0.935330  0.085330  1.0  -0.5594
  O  O214  1  0.768300  0.993730  0.083150  1.0  -0.5596
  O  O215  1  0.396150  0.300700  0.368550  1.0  -0.5594
  O  O216  1  0.241040  0.314590  0.411620  1.0  -0.5315
  O  O217  1  0.079110  0.064670  0.085330  1.0  -0.5586
  O  O218  1  0.231700  0.006270  0.083150  1.0  -0.5591
  O  O219  1  0.896150  0.199300  0.131450  1.0  -0.5588
  O  O220  1  0.741040  0.185410  0.088380  1.0  -0.5313
  O  O221  1  0.579110  0.435330  0.414670  1.0  -0.5588
  O  O222  1  0.731700  0.493730  0.416850  1.0  -0.5592
  O  O223  1  0.103850  0.800700  0.131450  1.0  -0.558
  O  O224  1  0.258960  0.814590  0.088380  1.0  -0.531
  O  O225  1  0.420890  0.564670  0.414670  1.0  -0.5596
  O  O226  1  0.268300  0.506270  0.416850  1.0  -0.5592
  O  O227  1  0.396150  0.300700  0.631450  1.0  -0.559
  O  O228  1  0.241040  0.314590  0.588380  1.0  -0.5315
  O  O229  1  0.079110  0.064670  0.914670  1.0  -0.5583
  O  O230  1  0.231700  0.006270  0.916850  1.0  -0.5592
  O  O231  1  0.603850  0.699300  0.631450  1.0  -0.5578
  O  O232  1  0.758960  0.685410  0.588380  1.0  -0.5309
  O  O233  1  0.920890  0.935330  0.914670  1.0  -0.5594
  O  O234  1  0.768300  0.993730  0.916850  1.0  -0.5593
  O  O235  1  0.103850  0.800700  0.868550  1.0  -0.558
  O  O236  1  0.258960  0.814590  0.911620  1.0  -0.5311
  O  O237  1  0.420890  0.564670  0.585330  1.0  -0.5598
  O  O238  1  0.268300  0.506270  0.583150  1.0  -0.5591
  O  O239  1  0.896150  0.199300  0.868550  1.0  -0.5593
  O  O240  1  0.741040  0.185410  0.911620  1.0  -0.5315
  O  O241  1  0.579110  0.435330  0.585330  1.0  -0.5588
  O  O242  1  0.731700  0.493730  0.583150  1.0  -0.5595
  O  O243  1  0.889900  0.585300  0.500000  1.0  -0.7544
  O  O244  1  0.110100  0.414700  0.500000  1.0  -0.7583
  O  O245  1  0.610100  0.085300  0.000000  1.0  -0.7539
  O  O246  1  0.389900  0.914700  0.000000  1.0  -0.7601
  O  O247  1  0.087700  0.887080  0.000000  1.0  -0.7348
  O  O248  1  0.912300  0.112920  0.000000  1.0  -0.7371
  O  O249  1  0.412300  0.387080  0.500000  1.0  -0.7344
  O  O250  1  0.587700  0.612920  0.500000  1.0  -0.7368
  O  O251  1  0.473300  0.930700  0.777300  1.0  -0.5154
  O  O252  1  0.526700  0.069300  0.777300  1.0  -0.5153
  O  O253  1  0.500000  0.000000  0.887600  1.0  -0.525
  O  O254  1  0.026700  0.430700  0.722700  1.0  -0.5138
  O  O255  1  0.973300  0.569300  0.722700  1.0  -0.5149
  O  O256  1  0.000000  0.500000  0.612400  1.0  -0.5257
  O  O257  1  0.526700  0.069300  0.222700  1.0  -0.5152
  O  O258  1  0.473300  0.930700  0.222700  1.0  -0.5135
  O  O259  1  0.500000  0.000000  0.112400  1.0  -0.5257
  O  O260  1  0.973300  0.569300  0.277300  1.0  -0.5151
  O  O261  1  0.026700  0.430700  0.277300  1.0  -0.5156
  O  O262  1  0.000000  0.500000  0.387600  1.0  -0.525
