# generated using pymatgen
data_Fe4Co3H44C52(NO13)2
_symmetry_space_group_name_H-M   'P 1'
_cell_length_a   13.59600000
_cell_length_b   14.67600000
_cell_length_c   17.16000000
_cell_angle_alpha   90.00000000
_cell_angle_beta   90.00000000
_cell_angle_gamma   90.00000000
_symmetry_Int_Tables_number   1
_chemical_formula_structural   Fe4Co3H44C52(NO13)2
_chemical_formula_sum   'Fe8 Co6 H88 C104 N4 O52'
_cell_volume   3424.01881536
_cell_formula_units_Z   2
loop_
 _symmetry_equiv_pos_site_id
 _symmetry_equiv_pos_as_xyz
  1  'x, y, z'
loop_
 _atom_site_type_symbol
 _atom_site_label
 _atom_site_symmetry_multiplicity
 _atom_site_fract_x
 _atom_site_fract_y
 _atom_site_fract_z
 _atom_site_occupancy
 _atom_site_charge
  Fe  Fe1  1  0.224120  0.607460  0.720280  1.0  0.2572
  Fe  Fe2  1  0.775880  0.392540  0.720280  1.0  0.257
  Fe  Fe3  1  0.275880  0.107460  0.779720  1.0  0.2591
  Fe  Fe4  1  0.724120  0.892540  0.779720  1.0  0.2587
  Fe  Fe5  1  0.775880  0.392540  0.279720  1.0  0.259
  Fe  Fe6  1  0.224120  0.607460  0.279720  1.0  0.259
  Fe  Fe7  1  0.724120  0.892540  0.220280  1.0  0.2568
  Fe  Fe8  1  0.275880  0.107460  0.220280  1.0  0.2572
  Co  Co9  1  0.500000  0.000000  0.500000  1.0  0.856
  Co  Co10  1  0.000000  0.500000  0.000000  1.0  0.856
  Co  Co11  1  0.259140  0.908640  0.500000  1.0  1.1057
  Co  Co12  1  0.740860  0.091360  0.500000  1.0  1.1007
  Co  Co13  1  0.240860  0.408640  0.000000  1.0  1.1014
  Co  Co14  1  0.759140  0.591360  0.000000  1.0  1.1043
  H  H15  1  0.428800  0.846800  0.453500  1.0  0.3542
  H  H16  1  0.121800  0.770900  0.698900  1.0  0.1382
  H  H17  1  0.065100  0.681500  0.803900  1.0  0.1548
  H  H18  1  0.347000  0.609400  0.851600  1.0  0.1259
  H  H19  1  0.402300  0.696600  0.746600  1.0  0.1423
  H  H20  1  0.255100  0.597500  0.565000  1.0  0.1531
  H  H21  1  0.381000  0.520800  0.652100  1.0  0.1525
  H  H22  1  0.289100  0.434700  0.757600  1.0  0.142
  H  H23  1  0.106300  0.458200  0.735700  1.0  0.1475
  H  H24  1  0.085300  0.558800  0.616600  1.0  0.1572
  H  H25  1  0.089700  0.949000  0.534200  1.0  0.4519
  H  H26  1  0.571200  0.153200  0.453500  1.0  0.3566
  H  H27  1  0.878200  0.229100  0.698900  1.0  0.138
  H  H28  1  0.934900  0.318500  0.803900  1.0  0.1554
  H  H29  1  0.653000  0.390600  0.851600  1.0  0.1258
  H  H30  1  0.597700  0.303400  0.746600  1.0  0.1416
  H  H31  1  0.744900  0.402500  0.565000  1.0  0.1533
  H  H32  1  0.619000  0.479200  0.652100  1.0  0.1526
  H  H33  1  0.710900  0.565300  0.757600  1.0  0.1425
  H  H34  1  0.893700  0.541800  0.735700  1.0  0.1473
  H  H35  1  0.914700  0.441200  0.616600  1.0  0.1569
  H  H36  1  0.910300  0.051000  0.534200  1.0  0.453
  H  H37  1  0.071200  0.346800  0.046500  1.0  0.3559
  H  H38  1  0.378200  0.270900  0.801100  1.0  0.1382
  H  H39  1  0.434900  0.181500  0.696100  1.0  0.1559
  H  H40  1  0.153000  0.109400  0.648400  1.0  0.126
  H  H41  1  0.097700  0.196600  0.753400  1.0  0.1418
  H  H42  1  0.244900  0.097500  0.935000  1.0  0.1536
  H  H43  1  0.119000  0.020800  0.847900  1.0  0.1533
  H  H44  1  0.210900  0.934700  0.742400  1.0  0.1414
  H  H45  1  0.393700  0.958200  0.764300  1.0  0.1472
  H  H46  1  0.414700  0.058800  0.883400  1.0  0.156
  H  H47  1  0.410300  0.449000  0.965800  1.0  0.4531
  H  H48  1  0.928800  0.653200  0.046500  1.0  0.3558
  H  H49  1  0.621800  0.729100  0.801100  1.0  0.1383
  H  H50  1  0.565100  0.818500  0.696100  1.0  0.1558
  H  H51  1  0.847000  0.890600  0.648400  1.0  0.1261
  H  H52  1  0.902300  0.803400  0.753400  1.0  0.142
  H  H53  1  0.755100  0.902500  0.935000  1.0  0.1537
  H  H54  1  0.881000  0.979200  0.847900  1.0  0.1519
  H  H55  1  0.789100  0.065300  0.742400  1.0  0.142
  H  H56  1  0.606300  0.041800  0.764300  1.0  0.1484
  H  H57  1  0.585300  0.941200  0.883400  1.0  0.1569
  H  H58  1  0.589700  0.551000  0.965800  1.0  0.4527
  H  H59  1  0.571200  0.153200  0.546500  1.0  0.3565
  H  H60  1  0.878200  0.229100  0.301100  1.0  0.1383
  H  H61  1  0.934900  0.318500  0.196100  1.0  0.1551
  H  H62  1  0.653000  0.390600  0.148400  1.0  0.126
  H  H63  1  0.597700  0.303400  0.253400  1.0  0.1415
  H  H64  1  0.744900  0.402500  0.435000  1.0  0.1535
  H  H65  1  0.619000  0.479200  0.347900  1.0  0.1533
  H  H66  1  0.710900  0.565300  0.242400  1.0  0.1427
  H  H67  1  0.893700  0.541800  0.264300  1.0  0.148
  H  H68  1  0.914700  0.441200  0.383400  1.0  0.156
  H  H69  1  0.910300  0.051000  0.465800  1.0  0.4528
  H  H70  1  0.428800  0.846800  0.546500  1.0  0.3548
  H  H71  1  0.121800  0.770900  0.301100  1.0  0.1383
  H  H72  1  0.065100  0.681500  0.196100  1.0  0.1548
  H  H73  1  0.347000  0.609400  0.148400  1.0  0.1259
  H  H74  1  0.402300  0.696600  0.253400  1.0  0.1422
  H  H75  1  0.255100  0.597500  0.435000  1.0  0.1538
  H  H76  1  0.381000  0.520800  0.347900  1.0  0.1516
  H  H77  1  0.289100  0.434700  0.242400  1.0  0.1413
  H  H78  1  0.106300  0.458200  0.264300  1.0  0.1478
  H  H79  1  0.085300  0.558800  0.383400  1.0  0.1567
  H  H80  1  0.089700  0.949000  0.465800  1.0  0.4527
  H  H81  1  0.928800  0.653200  0.953500  1.0  0.3554
  H  H82  1  0.621800  0.729100  0.198900  1.0  0.1379
  H  H83  1  0.565100  0.818500  0.303900  1.0  0.1562
  H  H84  1  0.847000  0.890600  0.351600  1.0  0.1264
  H  H85  1  0.902300  0.803400  0.246600  1.0  0.1422
  H  H86  1  0.755100  0.902500  0.065000  1.0  0.153
  H  H87  1  0.881000  0.979200  0.152100  1.0  0.153
  H  H88  1  0.789100  0.065300  0.257600  1.0  0.1422
  H  H89  1  0.606300  0.041800  0.235700  1.0  0.1478
  H  H90  1  0.585300  0.941200  0.116600  1.0  0.1569
  H  H91  1  0.589700  0.551000  0.034200  1.0  0.4521
  H  H92  1  0.071200  0.346800  0.953500  1.0  0.3557
  H  H93  1  0.378200  0.270900  0.198900  1.0  0.1382
  H  H94  1  0.434900  0.181500  0.303900  1.0  0.1559
  H  H95  1  0.153000  0.109400  0.351600  1.0  0.1256
  H  H96  1  0.097700  0.196600  0.246600  1.0  0.1419
  H  H97  1  0.244900  0.097500  0.065000  1.0  0.1528
  H  H98  1  0.119000  0.020800  0.152100  1.0  0.1526
  H  H99  1  0.210900  0.934700  0.257600  1.0  0.1419
  H  H100  1  0.393700  0.958200  0.235700  1.0  0.1467
  H  H101  1  0.414700  0.058800  0.116600  1.0  0.1573
  H  H102  1  0.410300  0.449000  0.034200  1.0  0.4528
  C  C103  1  0.303200  0.789600  0.637900  1.0  0.6847
  C  C104  1  0.266600  0.741300  0.711300  1.0  0.0412
  C  C105  1  0.167400  0.737100  0.729200  1.0  -0.129
  C  C106  1  0.133100  0.683700  0.791500  1.0  -0.1807
  C  C107  1  0.203100  0.632900  0.835700  1.0  0.1008
  C  C108  1  0.300700  0.640500  0.819800  1.0  -0.1718
  C  C109  1  0.333900  0.693200  0.757700  1.0  -0.0954
  C  C110  1  0.666800  0.937000  0.604900  1.0  0.7095
  C  C111  1  0.241100  0.560700  0.609200  1.0  -0.1204
  C  C112  1  0.311600  0.517800  0.658000  1.0  -0.1852
  C  C113  1  0.260100  0.469600  0.717000  1.0  -0.1582
  C  C114  1  0.157800  0.482800  0.704700  1.0  -0.1554
  C  C115  1  0.146100  0.539100  0.638100  1.0  -0.1267
  C  C116  1  0.696800  0.210400  0.637900  1.0  0.6851
  C  C117  1  0.733400  0.258700  0.711300  1.0  0.0408
  C  C118  1  0.832600  0.262900  0.729200  1.0  -0.1303
  C  C119  1  0.866900  0.316300  0.791500  1.0  -0.1812
  C  C120  1  0.796900  0.367100  0.835700  1.0  0.1003
  C  C121  1  0.699300  0.359500  0.819800  1.0  -0.1703
  C  C122  1  0.666100  0.306800  0.757700  1.0  -0.0952
  C  C123  1  0.333200  0.063000  0.604900  1.0  0.7105
  C  C124  1  0.758900  0.439300  0.609200  1.0  -0.1187
  C  C125  1  0.688400  0.482200  0.658000  1.0  -0.1814
  C  C126  1  0.739900  0.530400  0.717000  1.0  -0.1579
  C  C127  1  0.842200  0.517200  0.704700  1.0  -0.1564
  C  C128  1  0.853900  0.460900  0.638100  1.0  -0.1244
  C  C129  1  0.196800  0.289600  0.862100  1.0  0.6863
  C  C130  1  0.233400  0.241300  0.788700  1.0  0.0412
  C  C131  1  0.332600  0.237100  0.770800  1.0  -0.1291
  C  C132  1  0.366900  0.183700  0.708500  1.0  -0.18
  C  C133  1  0.296900  0.132900  0.664300  1.0  0.0982
  C  C134  1  0.199300  0.140500  0.680200  1.0  -0.1696
  C  C135  1  0.166100  0.193200  0.742300  1.0  -0.0916
  C  C136  1  0.833200  0.437000  0.895100  1.0  0.7098
  C  C137  1  0.258900  0.060700  0.890800  1.0  -0.1192
  C  C138  1  0.188400  0.017800  0.842000  1.0  -0.1799
  C  C139  1  0.239900  0.969600  0.783000  1.0  -0.1574
  C  C140  1  0.342200  0.982800  0.795300  1.0  -0.1563
  C  C141  1  0.353900  0.039100  0.861900  1.0  -0.1241
  C  C142  1  0.803200  0.710400  0.862100  1.0  0.6849
  C  C143  1  0.766600  0.758700  0.788700  1.0  0.0408
  C  C144  1  0.667400  0.762900  0.770800  1.0  -0.1295
  C  C145  1  0.633100  0.816300  0.708500  1.0  -0.1782
  C  C146  1  0.703100  0.867100  0.664300  1.0  0.1002
  C  C147  1  0.800700  0.859500  0.680200  1.0  -0.1722
  C  C148  1  0.833900  0.806800  0.742300  1.0  -0.0973
  C  C149  1  0.166800  0.563000  0.895100  1.0  0.7084
  C  C150  1  0.741100  0.939300  0.890800  1.0  -0.1179
  C  C151  1  0.811600  0.982200  0.842000  1.0  -0.1799
  C  C152  1  0.760100  0.030400  0.783000  1.0  -0.156
  C  C153  1  0.657800  0.017200  0.795300  1.0  -0.1564
  C  C154  1  0.646100  0.960900  0.861900  1.0  -0.1248
  C  C155  1  0.696800  0.210400  0.362100  1.0  0.6855
  C  C156  1  0.733400  0.258700  0.288700  1.0  0.0406
  C  C157  1  0.832600  0.262900  0.270800  1.0  -0.1301
  C  C158  1  0.866900  0.316300  0.208500  1.0  -0.1825
  C  C159  1  0.796900  0.367100  0.164300  1.0  0.0997
  C  C160  1  0.699300  0.359500  0.180200  1.0  -0.1724
  C  C161  1  0.666100  0.306800  0.242300  1.0  -0.0946
  C  C162  1  0.333200  0.063000  0.395100  1.0  0.7094
  C  C163  1  0.758900  0.439300  0.390800  1.0  -0.119
  C  C164  1  0.688400  0.482200  0.342000  1.0  -0.1799
  C  C165  1  0.739900  0.530400  0.283000  1.0  -0.1573
  C  C166  1  0.842200  0.517200  0.295300  1.0  -0.1573
  C  C167  1  0.853900  0.460900  0.361900  1.0  -0.1229
  C  C168  1  0.303200  0.789600  0.362100  1.0  0.6858
  C  C169  1  0.266600  0.741300  0.288700  1.0  0.0417
  C  C170  1  0.167400  0.737100  0.270800  1.0  -0.1292
  C  C171  1  0.133100  0.683700  0.208500  1.0  -0.1796
  C  C172  1  0.203100  0.632900  0.164300  1.0  0.0988
  C  C173  1  0.300700  0.640500  0.180200  1.0  -0.1727
  C  C174  1  0.333900  0.693200  0.242300  1.0  -0.094
  C  C175  1  0.666800  0.937000  0.395100  1.0  0.7092
  C  C176  1  0.241100  0.560700  0.390800  1.0  -0.1183
  C  C177  1  0.311600  0.517800  0.342000  1.0  -0.1818
  C  C178  1  0.260100  0.469600  0.283000  1.0  -0.1567
  C  C179  1  0.157800  0.482800  0.295300  1.0  -0.1546
  C  C180  1  0.146100  0.539100  0.361900  1.0  -0.1247
  C  C181  1  0.803200  0.710400  0.137900  1.0  0.6844
  C  C182  1  0.766600  0.758700  0.211300  1.0  0.0411
  C  C183  1  0.667400  0.762900  0.229200  1.0  -0.1298
  C  C184  1  0.633100  0.816300  0.291500  1.0  -0.1778
  C  C185  1  0.703100  0.867100  0.335700  1.0  0.1007
  C  C186  1  0.800700  0.859500  0.319800  1.0  -0.1701
  C  C187  1  0.833900  0.806800  0.257700  1.0  -0.0974
  C  C188  1  0.166800  0.563000  0.104900  1.0  0.71
  C  C189  1  0.741100  0.939300  0.109200  1.0  -0.1183
  C  C190  1  0.811600  0.982200  0.158000  1.0  -0.1816
  C  C191  1  0.760100  0.030400  0.217000  1.0  -0.1567
  C  C192  1  0.657800  0.017200  0.204700  1.0  -0.1558
  C  C193  1  0.646100  0.960900  0.138100  1.0  -0.1251
  C  C194  1  0.196800  0.289600  0.137900  1.0  0.6858
  C  C195  1  0.233400  0.241300  0.211300  1.0  0.0406
  C  C196  1  0.332600  0.237100  0.229200  1.0  -0.1289
  C  C197  1  0.366900  0.183700  0.291500  1.0  -0.1803
  C  C198  1  0.296900  0.132900  0.335700  1.0  0.1006
  C  C199  1  0.199300  0.140500  0.319800  1.0  -0.1686
  C  C200  1  0.166100  0.193200  0.257700  1.0  -0.0936
  C  C201  1  0.833200  0.437000  0.104900  1.0  0.7097
  C  C202  1  0.258900  0.060700  0.109200  1.0  -0.1205
  C  C203  1  0.188400  0.017800  0.158000  1.0  -0.1834
  C  C204  1  0.239900  0.969600  0.217000  1.0  -0.1585
  C  C205  1  0.342200  0.982800  0.204700  1.0  -0.1561
  C  C206  1  0.353900  0.039100  0.138100  1.0  -0.1266
  N  N207  1  0.000000  0.000000  0.684900  1.0  0.7387
  N  N208  1  0.500000  0.500000  0.815100  1.0  0.7387
  N  N209  1  0.000000  0.000000  0.315100  1.0  0.7387
  N  N210  1  0.500000  0.500000  0.184900  1.0  0.7387
  O  O211  1  0.239700  0.814500  0.589700  1.0  -0.5404
  O  O212  1  0.394200  0.799100  0.632200  1.0  -0.5664
  O  O213  1  0.580300  0.934600  0.586700  1.0  -0.5522
  O  O214  1  0.268500  0.007400  0.584300  1.0  -0.5588
  O  O215  1  0.760300  0.185500  0.589700  1.0  -0.5397
  O  O216  1  0.605800  0.200900  0.632200  1.0  -0.5649
  O  O217  1  0.419700  0.065400  0.586700  1.0  -0.5523
  O  O218  1  0.731500  0.992600  0.584300  1.0  -0.5583
  O  O219  1  0.260300  0.314500  0.910300  1.0  -0.5395
  O  O220  1  0.105800  0.299100  0.867800  1.0  -0.5651
  O  O221  1  0.919700  0.434600  0.913300  1.0  -0.5513
  O  O222  1  0.231500  0.507400  0.915700  1.0  -0.5584
  O  O223  1  0.739700  0.685500  0.910300  1.0  -0.5397
  O  O224  1  0.894200  0.700900  0.867800  1.0  -0.5663
  O  O225  1  0.080300  0.565400  0.913300  1.0  -0.5506
  O  O226  1  0.768500  0.492600  0.915700  1.0  -0.5589
  O  O227  1  0.760300  0.185500  0.410300  1.0  -0.5395
  O  O228  1  0.605800  0.200900  0.367800  1.0  -0.5651
  O  O229  1  0.419700  0.065400  0.413300  1.0  -0.5516
  O  O230  1  0.731500  0.992600  0.415700  1.0  -0.558
  O  O231  1  0.239700  0.814500  0.410300  1.0  -0.5399
  O  O232  1  0.394200  0.799100  0.367800  1.0  -0.5667
  O  O233  1  0.580300  0.934600  0.413300  1.0  -0.5514
  O  O234  1  0.268500  0.007400  0.415700  1.0  -0.5588
  O  O235  1  0.739700  0.685500  0.089700  1.0  -0.5399
  O  O236  1  0.894200  0.700900  0.132200  1.0  -0.5663
  O  O237  1  0.080300  0.565400  0.086700  1.0  -0.5511
  O  O238  1  0.768500  0.492600  0.084300  1.0  -0.559
  O  O239  1  0.260300  0.314500  0.089700  1.0  -0.5401
  O  O240  1  0.105800  0.299100  0.132200  1.0  -0.5652
  O  O241  1  0.919700  0.434600  0.086700  1.0  -0.5517
  O  O242  1  0.231500  0.507400  0.084300  1.0  -0.5584
  O  O243  1  0.412300  0.883600  0.500000  1.0  -0.7769
  O  O244  1  0.106300  0.915900  0.500000  1.0  -0.742
  O  O245  1  0.587700  0.116400  0.500000  1.0  -0.7776
  O  O246  1  0.893700  0.084100  0.500000  1.0  -0.7387
  O  O247  1  0.087700  0.383600  0.000000  1.0  -0.778
  O  O248  1  0.393700  0.415900  0.000000  1.0  -0.7419
  O  O249  1  0.912300  0.616400  0.000000  1.0  -0.7763
  O  O250  1  0.606300  0.584100  0.000000  1.0  -0.7404
  O  O251  1  0.028000  0.930200  0.721800  1.0  -0.5219
  O  O252  1  0.972000  0.069800  0.721800  1.0  -0.5226
  O  O253  1  0.000000  0.000000  0.613400  1.0  -0.479
  O  O254  1  0.472000  0.430200  0.778200  1.0  -0.5228
  O  O255  1  0.528000  0.569800  0.778200  1.0  -0.5216
  O  O256  1  0.500000  0.500000  0.886600  1.0  -0.4792
  O  O257  1  0.972000  0.069800  0.278200  1.0  -0.5218
  O  O258  1  0.028000  0.930200  0.278200  1.0  -0.5226
  O  O259  1  0.000000  0.000000  0.386600  1.0  -0.4792
  O  O260  1  0.528000  0.569800  0.221800  1.0  -0.5225
  O  O261  1  0.472000  0.430200  0.221800  1.0  -0.5219
  O  O262  1  0.500000  0.500000  0.113400  1.0  -0.479
