# generated using pymatgen
data_Fe4Ni3H40(C26O9)2
_symmetry_space_group_name_H-M   'P 1'
_cell_length_a   13.44220000
_cell_length_b   15.26500000
_cell_length_c   15.85800000
_cell_angle_alpha   90.00000000
_cell_angle_beta   94.54300000
_cell_angle_gamma   90.00000000
_symmetry_Int_Tables_number   1
_chemical_formula_structural   Fe4Ni3H40(C26O9)2
_chemical_formula_sum   'Fe8 Ni6 H80 C104 O36'
_cell_volume   3243.76174397
_cell_formula_units_Z   2
loop_
 _symmetry_equiv_pos_site_id
 _symmetry_equiv_pos_as_xyz
  1  'x, y, z'
loop_
 _atom_site_type_symbol
 _atom_site_label
 _atom_site_symmetry_multiplicity
 _atom_site_fract_x
 _atom_site_fract_y
 _atom_site_fract_z
 _atom_site_occupancy
 _atom_site_charge
  Fe  Fe1  1  0.785180  0.153150  0.257920  1.0  0.2273
  Fe  Fe2  1  0.756150  0.188340  0.775810  1.0  0.3046
  Fe  Fe3  1  0.714820  0.653150  0.242080  1.0  0.2253
  Fe  Fe4  1  0.743850  0.688340  0.724190  1.0  0.3044
  Fe  Fe5  1  0.214820  0.846850  0.742080  1.0  0.2251
  Fe  Fe6  1  0.243850  0.811660  0.224190  1.0  0.3043
  Fe  Fe7  1  0.285180  0.346850  0.757920  1.0  0.2273
  Fe  Fe8  1  0.256150  0.311660  0.275810  1.0  0.3044
  Ni  Ni9  1  0.737960  0.409440  0.497050  1.0  0.9511
  Ni  Ni10  1  0.762040  0.909440  0.002950  1.0  0.9471
  Ni  Ni11  1  0.262040  0.590560  0.502950  1.0  0.9467
  Ni  Ni12  1  0.237960  0.090560  0.997050  1.0  0.9505
  Ni  Ni13  1  0.000000  0.000000  0.000000  1.0  0.8386
  Ni  Ni14  1  0.500000  0.500000  0.500000  1.0  0.8386
  H  H15  1  0.929600  0.874200  0.081800  1.0  0.3615
  H  H16  1  0.933600  0.844400  0.985700  1.0  0.3363
  H  H17  1  0.876400  0.314500  0.259700  1.0  0.1287
  H  H18  1  0.926400  0.225000  0.154300  1.0  0.1313
  H  H19  1  0.645200  0.122000  0.121500  1.0  0.1262
  H  H20  1  0.590700  0.225100  0.219600  1.0  0.134
  H  H21  1  0.806500  0.179100  0.429100  1.0  0.2072
  H  H22  1  0.960000  0.132000  0.350900  1.0  0.1472
  H  H23  1  0.901700  0.006300  0.254400  1.0  0.1253
  H  H24  1  0.717900  0.987400  0.255700  1.0  0.1334
  H  H25  1  0.665500  0.077400  0.365200  1.0  0.1305
  H  H26  1  0.657500  0.031300  0.780400  1.0  0.1222
  H  H27  1  0.599400  0.118200  0.669300  1.0  0.1187
  H  H28  1  0.877000  0.205900  0.646200  1.0  0.1236
  H  H29  1  0.935900  0.110700  0.752000  1.0  0.1131
  H  H30  1  0.680300  0.180000  0.930300  1.0  0.135
  H  H31  1  0.593000  0.264700  0.808200  1.0  0.1266
  H  H32  1  0.724200  0.350100  0.736200  1.0  0.1348
  H  H33  1  0.892700  0.318200  0.813800  1.0  0.1403
  H  H34  1  0.865500  0.213100  0.933700  1.0  0.1277
  H  H35  1  0.570400  0.374200  0.418200  1.0  0.3595
  H  H36  1  0.566400  0.344400  0.514300  1.0  0.3369
  H  H37  1  0.623600  0.814500  0.240300  1.0  0.1287
  H  H38  1  0.573600  0.725000  0.345700  1.0  0.1314
  H  H39  1  0.854800  0.622000  0.378500  1.0  0.1263
  H  H40  1  0.909300  0.725100  0.280400  1.0  0.1347
  H  H41  1  0.693500  0.679100  0.070900  1.0  0.2081
  H  H42  1  0.540000  0.632000  0.149100  1.0  0.1485
  H  H43  1  0.598300  0.506300  0.245600  1.0  0.1259
  H  H44  1  0.782100  0.487400  0.244300  1.0  0.1342
  H  H45  1  0.834500  0.577400  0.134800  1.0  0.1314
  H  H46  1  0.842500  0.531300  0.719600  1.0  0.1229
  H  H47  1  0.900600  0.618200  0.830700  1.0  0.1188
  H  H48  1  0.623000  0.705900  0.853800  1.0  0.1234
  H  H49  1  0.564100  0.610700  0.748000  1.0  0.113
  H  H50  1  0.819700  0.680000  0.569700  1.0  0.1353
  H  H51  1  0.907000  0.764700  0.691800  1.0  0.1275
  H  H52  1  0.775800  0.850100  0.763800  1.0  0.1348
  H  H53  1  0.607300  0.818200  0.686200  1.0  0.1401
  H  H54  1  0.634500  0.713100  0.566300  1.0  0.1271
  H  H55  1  0.070400  0.125800  0.918200  1.0  0.3604
  H  H56  1  0.066400  0.155600  0.014300  1.0  0.3375
  H  H57  1  0.123600  0.685500  0.740300  1.0  0.1282
  H  H58  1  0.073600  0.775000  0.845700  1.0  0.1316
  H  H59  1  0.354800  0.878000  0.878500  1.0  0.1262
  H  H60  1  0.409300  0.774900  0.780400  1.0  0.1346
  H  H61  1  0.193500  0.820900  0.570900  1.0  0.2085
  H  H62  1  0.040000  0.868000  0.649100  1.0  0.1484
  H  H63  1  0.098300  0.993700  0.745600  1.0  0.1263
  H  H64  1  0.282100  0.012600  0.744300  1.0  0.135
  H  H65  1  0.334500  0.922600  0.634800  1.0  0.1313
  H  H66  1  0.342500  0.968700  0.219600  1.0  0.1233
  H  H67  1  0.400600  0.881800  0.330700  1.0  0.1192
  H  H68  1  0.123000  0.794100  0.353800  1.0  0.1233
  H  H69  1  0.064100  0.889300  0.248000  1.0  0.1132
  H  H70  1  0.319700  0.820000  0.069700  1.0  0.135
  H  H71  1  0.407000  0.735300  0.191800  1.0  0.1277
  H  H72  1  0.275800  0.649900  0.263800  1.0  0.1353
  H  H73  1  0.107300  0.681800  0.186200  1.0  0.14
  H  H74  1  0.134500  0.786900  0.066300  1.0  0.1272
  H  H75  1  0.429600  0.625800  0.581800  1.0  0.3611
  H  H76  1  0.433600  0.655600  0.485700  1.0  0.3367
  H  H77  1  0.376400  0.185500  0.759700  1.0  0.1287
  H  H78  1  0.426400  0.275000  0.654300  1.0  0.1312
  H  H79  1  0.145200  0.378000  0.621500  1.0  0.1266
  H  H80  1  0.090700  0.274900  0.719600  1.0  0.1341
  H  H81  1  0.306500  0.320900  0.929100  1.0  0.2081
  H  H82  1  0.460000  0.368000  0.850900  1.0  0.1474
  H  H83  1  0.401700  0.493700  0.754400  1.0  0.1254
  H  H84  1  0.217900  0.512600  0.755700  1.0  0.1342
  H  H85  1  0.165500  0.422600  0.865200  1.0  0.1304
  H  H86  1  0.157500  0.468700  0.280400  1.0  0.122
  H  H87  1  0.099400  0.381800  0.169300  1.0  0.1186
  H  H88  1  0.377000  0.294100  0.146200  1.0  0.1235
  H  H89  1  0.435900  0.389300  0.252000  1.0  0.1131
  H  H90  1  0.180300  0.320000  0.430300  1.0  0.1345
  H  H91  1  0.093000  0.235300  0.308200  1.0  0.1268
  H  H92  1  0.224200  0.149900  0.236200  1.0  0.1348
  H  H93  1  0.392700  0.181800  0.313800  1.0  0.1396
  H  H94  1  0.365500  0.286900  0.433700  1.0  0.1277
  C  C95  1  0.695500  0.330000  0.326800  1.0  0.6363
  C  C96  1  0.729200  0.276900  0.251800  1.0  0.0098
  C  C97  1  0.829400  0.276200  0.231000  1.0  -0.1697
  C  C98  1  0.859900  0.221300  0.170400  1.0  -0.1153
  C  C99  1  0.792600  0.157800  0.130300  1.0  0.0272
  C  C100  1  0.692000  0.161100  0.149300  1.0  -0.1812
  C  C101  1  0.659100  0.221900  0.209000  1.0  -0.1899
  C  C102  1  0.825600  0.084800  0.076300  1.0  0.6842
  C  C103  1  0.811000  0.135400  0.386900  1.0  -0.17
  C  C104  1  0.894400  0.108600  0.344000  1.0  -0.1266
  C  C105  1  0.860000  0.039200  0.288300  1.0  -0.1066
  C  C106  1  0.758900  0.026100  0.290200  1.0  -0.134
  C  C107  1  0.731700  0.077000  0.348200  1.0  -0.0885
  C  C108  1  0.839700  0.011900  0.857900  1.0  0.6865
  C  C109  1  0.803500  0.061600  0.778300  1.0  0.1305
  C  C110  1  0.703400  0.066200  0.752500  1.0  -0.1263
  C  C111  1  0.668500  0.119900  0.687500  1.0  -0.1976
  C  C112  1  0.729600  0.176300  0.647400  1.0  0.1093
  C  C113  1  0.830900  0.170300  0.673100  1.0  -0.1587
  C  C114  1  0.866200  0.113500  0.736800  1.0  -0.1745
  C  C115  1  0.691600  0.246800  0.587500  1.0  0.6768
  C  C116  1  0.711500  0.217500  0.892500  1.0  -0.163
  C  C117  1  0.662600  0.264900  0.824100  1.0  -0.1044
  C  C118  1  0.736000  0.312700  0.783800  1.0  -0.0894
  C  C119  1  0.830400  0.294900  0.827300  1.0  -0.1803
  C  C120  1  0.815100  0.236000  0.894400  1.0  -0.1842
  C  C121  1  0.804500  0.830000  0.173200  1.0  0.6346
  C  C122  1  0.770800  0.776900  0.248200  1.0  0.01
  C  C123  1  0.670600  0.776200  0.269000  1.0  -0.1711
  C  C124  1  0.640100  0.721300  0.329600  1.0  -0.1135
  C  C125  1  0.707400  0.657800  0.369700  1.0  0.0299
  C  C126  1  0.808000  0.661100  0.350700  1.0  -0.1814
  C  C127  1  0.840900  0.721900  0.291000  1.0  -0.1952
  C  C128  1  0.674400  0.584800  0.423700  1.0  0.6842
  C  C129  1  0.689000  0.635400  0.113100  1.0  -0.1728
  C  C130  1  0.605600  0.608600  0.156000  1.0  -0.1296
  C  C131  1  0.640000  0.539200  0.211700  1.0  -0.1068
  C  C132  1  0.741100  0.526100  0.209800  1.0  -0.1336
  C  C133  1  0.768300  0.577000  0.151800  1.0  -0.0889
  C  C134  1  0.660300  0.511900  0.642100  1.0  0.6852
  C  C135  1  0.696500  0.561600  0.721700  1.0  0.1308
  C  C136  1  0.796600  0.566200  0.747500  1.0  -0.1286
  C  C137  1  0.831500  0.619900  0.812500  1.0  -0.1991
  C  C138  1  0.770400  0.676300  0.852600  1.0  0.1089
  C  C139  1  0.669100  0.670300  0.826900  1.0  -0.1551
  C  C140  1  0.633800  0.613500  0.763200  1.0  -0.1704
  C  C141  1  0.808400  0.746800  0.912500  1.0  0.6768
  C  C142  1  0.788500  0.717500  0.607500  1.0  -0.1628
  C  C143  1  0.837400  0.764900  0.675900  1.0  -0.1049
  C  C144  1  0.764000  0.812700  0.716200  1.0  -0.0898
  C  C145  1  0.669600  0.794900  0.672700  1.0  -0.1791
  C  C146  1  0.684900  0.736000  0.605600  1.0  -0.1842
  C  C147  1  0.304500  0.670000  0.673200  1.0  0.6342
  C  C148  1  0.270800  0.723100  0.748200  1.0  0.0118
  C  C149  1  0.170600  0.723800  0.769000  1.0  -0.1717
  C  C150  1  0.140100  0.778700  0.829600  1.0  -0.1138
  C  C151  1  0.207400  0.842200  0.869700  1.0  0.0289
  C  C152  1  0.308000  0.838900  0.850700  1.0  -0.1819
  C  C153  1  0.340900  0.778100  0.791000  1.0  -0.1954
  C  C154  1  0.174400  0.915200  0.923700  1.0  0.6849
  C  C155  1  0.189000  0.864600  0.613100  1.0  -0.1717
  C  C156  1  0.105600  0.891400  0.656000  1.0  -0.1282
  C  C157  1  0.140000  0.960800  0.711700  1.0  -0.1059
  C  C158  1  0.241100  0.973900  0.709800  1.0  -0.1317
  C  C159  1  0.268300  0.923000  0.651800  1.0  -0.0865
  C  C160  1  0.160300  0.988100  0.142100  1.0  0.6843
  C  C161  1  0.196500  0.938400  0.221700  1.0  0.1324
  C  C162  1  0.296600  0.933800  0.247500  1.0  -0.1265
  C  C163  1  0.331500  0.880100  0.312500  1.0  -0.1975
  C  C164  1  0.270400  0.823700  0.352600  1.0  0.1087
  C  C165  1  0.169100  0.829700  0.326900  1.0  -0.155
  C  C166  1  0.133800  0.886500  0.263200  1.0  -0.1699
  C  C167  1  0.308400  0.753200  0.412500  1.0  0.6756
  C  C168  1  0.288500  0.782500  0.107500  1.0  -0.1635
  C  C169  1  0.337400  0.735100  0.175900  1.0  -0.107
  C  C170  1  0.264000  0.687300  0.216200  1.0  -0.0874
  C  C171  1  0.169600  0.705100  0.172700  1.0  -0.1792
  C  C172  1  0.184900  0.764000  0.105600  1.0  -0.1865
  C  C173  1  0.195500  0.170000  0.826800  1.0  0.6357
  C  C174  1  0.229200  0.223100  0.751800  1.0  0.0113
  C  C175  1  0.329400  0.223800  0.731000  1.0  -0.171
  C  C176  1  0.359900  0.278700  0.670400  1.0  -0.1159
  C  C177  1  0.292600  0.342200  0.630300  1.0  0.0269
  C  C178  1  0.192000  0.338900  0.649300  1.0  -0.1816
  C  C179  1  0.159100  0.278100  0.709000  1.0  -0.1911
  C  C180  1  0.325600  0.415200  0.576300  1.0  0.6853
  C  C181  1  0.311000  0.364600  0.886900  1.0  -0.17
  C  C182  1  0.394400  0.391400  0.844000  1.0  -0.1259
  C  C183  1  0.360000  0.460800  0.788300  1.0  -0.1071
  C  C184  1  0.258900  0.473900  0.790200  1.0  -0.1335
  C  C185  1  0.231700  0.423000  0.848200  1.0  -0.0868
  C  C186  1  0.339700  0.488100  0.357900  1.0  0.6852
  C  C187  1  0.303500  0.438400  0.278300  1.0  0.1313
  C  C188  1  0.203400  0.433800  0.252500  1.0  -0.1239
  C  C189  1  0.168500  0.380100  0.187500  1.0  -0.1967
  C  C190  1  0.229600  0.323700  0.147400  1.0  0.1081
  C  C191  1  0.330900  0.329700  0.173100  1.0  -0.1581
  C  C192  1  0.366200  0.386500  0.236800  1.0  -0.171
  C  C193  1  0.191600  0.253200  0.087500  1.0  0.6772
  C  C194  1  0.211500  0.282500  0.392500  1.0  -0.1622
  C  C195  1  0.162600  0.235100  0.324100  1.0  -0.1036
  C  C196  1  0.236000  0.187300  0.283800  1.0  -0.0866
  C  C197  1  0.330400  0.205100  0.327300  1.0  -0.1799
  C  C198  1  0.315100  0.264000  0.394400  1.0  -0.1862
  O  O199  1  0.601500  0.337600  0.328200  1.0  -0.5374
  O  O200  1  0.759200  0.357800  0.378300  1.0  -0.5477
  O  O201  1  0.917100  0.084300  0.063400  1.0  -0.5788
  O  O202  1  0.763000  0.031700  0.053400  1.0  -0.5698
  O  O203  1  0.913900  0.892800  0.022400  1.0  -0.7636
  O  O204  1  0.775200  0.960300  0.884700  1.0  -0.6037
  O  O205  1  0.922400  0.026900  0.889100  1.0  -0.5574
  O  O206  1  0.598700  0.258500  0.579500  1.0  -0.5757
  O  O207  1  0.754400  0.288000  0.550300  1.0  -0.5743
  O  O208  1  0.898500  0.837600  0.171800  1.0  -0.5365
  O  O209  1  0.740800  0.857800  0.121700  1.0  -0.549
  O  O210  1  0.582900  0.584300  0.436600  1.0  -0.5784
  O  O211  1  0.737000  0.531700  0.446600  1.0  -0.5678
  O  O212  1  0.586100  0.392800  0.477600  1.0  -0.7625
  O  O213  1  0.724800  0.460300  0.615300  1.0  -0.6044
  O  O214  1  0.577600  0.526900  0.610900  1.0  -0.5579
  O  O215  1  0.901300  0.758500  0.920500  1.0  -0.5762
  O  O216  1  0.745600  0.788000  0.949700  1.0  -0.5751
  O  O217  1  0.398500  0.662400  0.671800  1.0  -0.5365
  O  O218  1  0.240800  0.642200  0.621700  1.0  -0.549
  O  O219  1  0.082900  0.915700  0.936600  1.0  -0.5784
  O  O220  1  0.237000  0.968300  0.946600  1.0  -0.5675
  O  O221  1  0.086100  0.107200  0.977600  1.0  -0.762
  O  O222  1  0.224800  0.039700  0.115300  1.0  -0.6051
  O  O223  1  0.077600  0.973100  0.110900  1.0  -0.5579
  O  O224  1  0.401300  0.741500  0.420500  1.0  -0.5767
  O  O225  1  0.245600  0.712000  0.449700  1.0  -0.575
  O  O226  1  0.101500  0.162400  0.828200  1.0  -0.5371
  O  O227  1  0.259200  0.142200  0.878300  1.0  -0.5475
  O  O228  1  0.417100  0.415700  0.563400  1.0  -0.5785
  O  O229  1  0.263000  0.468300  0.553400  1.0  -0.5688
  O  O230  1  0.413900  0.607200  0.522400  1.0  -0.7623
  O  O231  1  0.275200  0.539700  0.384700  1.0  -0.6049
  O  O232  1  0.422400  0.473100  0.389100  1.0  -0.5572
  O  O233  1  0.098700  0.241500  0.079500  1.0  -0.5748
  O  O234  1  0.254400  0.212000  0.050300  1.0  -0.5741
