# generated using pymatgen
data_Cd5H26(C25O12)2
_symmetry_space_group_name_H-M   'P 1'
_cell_length_a   14.15120000
_cell_length_b   14.50760000
_cell_length_c   25.80730000
_cell_angle_alpha   90.00000000
_cell_angle_beta   92.16600000
_cell_angle_gamma   90.00000000
_symmetry_Int_Tables_number   1
_chemical_formula_structural   Cd5H26(C25O12)2
_chemical_formula_sum   'Cd10 H52 C100 O48'
_cell_volume   5294.45189363
_cell_formula_units_Z   2
loop_
 _symmetry_equiv_pos_site_id
 _symmetry_equiv_pos_as_xyz
  1  'x, y, z'
loop_
 _atom_site_type_symbol
 _atom_site_label
 _atom_site_symmetry_multiplicity
 _atom_site_fract_x
 _atom_site_fract_y
 _atom_site_fract_z
 _atom_site_occupancy
 _atom_site_charge
  Cd  Cd1  1  0.837130  0.209750  0.375850  1.0  0.9591
  Cd  Cd2  1  0.749830  0.292440  0.500260  1.0  1.0515
  Cd  Cd3  1  0.663250  0.374560  0.624740  1.0  0.9419
  Cd  Cd4  1  0.246690  0.054310  0.018530  1.0  1.0588
  Cd  Cd5  1  0.328250  0.165860  0.911430  1.0  0.7402
  Cd  Cd6  1  0.162870  0.709750  0.624150  1.0  0.9527
  Cd  Cd7  1  0.250170  0.792440  0.499740  1.0  1.0516
  Cd  Cd8  1  0.336750  0.874560  0.375260  1.0  0.9437
  Cd  Cd9  1  0.753310  0.554310  0.981470  1.0  1.0591
  Cd  Cd10  1  0.671750  0.665860  0.088570  1.0  0.7361
  H  H11  1  0.573700  0.289000  0.288500  1.0  0.1213
  H  H12  1  0.329900  0.428500  0.296600  1.0  0.1265
  H  H13  1  0.506800  0.412800  0.421000  1.0  0.1082
  H  H14  1  0.355100  0.482900  0.431700  1.0  0.0784
  H  H15  1  0.344300  0.551700  0.384700  1.0  0.1222
  H  H16  1  0.240700  0.570600  0.461000  1.0  0.106
  H  H17  1  0.982800  0.500800  0.507100  1.0  0.115
  H  H18  1  0.088400  0.383900  0.383100  1.0  0.1152
  H  H19  1  0.393400  0.250700  0.140700  1.0  0.1184
  H  H20  1  0.497700  0.326300  0.005900  1.0  0.1141
  H  H21  1  0.567600  0.463200  0.136000  1.0  0.1265
  H  H22  1  0.428500  0.261200  0.224500  1.0  0.0886
  H  H23  1  0.356100  0.343400  0.220800  1.0  0.0879
  H  H24  1  0.910600  0.259600  0.714400  1.0  0.1132
  H  H25  1  0.157900  0.128600  0.705500  1.0  0.1155
  H  H26  1  0.995400  0.173700  0.578000  1.0  0.1156
  H  H27  1  0.046700  0.142900  0.790500  1.0  0.1067
  H  H28  1  0.125000  0.218600  0.784400  1.0  0.0943
  H  H29  1  0.900700  0.381900  0.849900  1.0  0.1359
  H  H30  1  0.994300  0.309800  0.991300  1.0  0.1127
  H  H31  1  0.111900  0.199700  0.869500  1.0  0.1088
  H  H32  1  0.408400  0.206400  0.616200  1.0  0.135
  H  H33  1  0.515500  0.085400  0.489800  1.0  0.1278
  H  H34  1  0.258800  0.011500  0.538300  1.0  0.1236
  H  H35  1  0.158800  0.026200  0.614200  1.0  0.1087
  H  H36  1  0.140600  0.096000  0.568100  1.0  0.0871
  H  H37  1  0.426300  0.789000  0.711500  1.0  0.1216
  H  H38  1  0.670100  0.928500  0.703400  1.0  0.1268
  H  H39  1  0.493200  0.912800  0.579000  1.0  0.1085
  H  H40  1  0.644900  0.982900  0.568300  1.0  0.0779
  H  H41  1  0.655700  0.051700  0.615300  1.0  0.1219
  H  H42  1  0.759300  0.070600  0.539000  1.0  0.1062
  H  H43  1  0.017200  0.000800  0.492900  1.0  0.1145
  H  H44  1  0.911600  0.883900  0.616900  1.0  0.1156
  H  H45  1  0.606600  0.750700  0.859300  1.0  0.1189
  H  H46  1  0.502300  0.826300  0.994100  1.0  0.1147
  H  H47  1  0.432400  0.963200  0.864000  1.0  0.1267
  H  H48  1  0.571500  0.761200  0.775500  1.0  0.0888
  H  H49  1  0.643900  0.843400  0.779200  1.0  0.0877
  H  H50  1  0.089400  0.759600  0.285600  1.0  0.1131
  H  H51  1  0.842100  0.628600  0.294500  1.0  0.116
  H  H52  1  0.004600  0.673700  0.422000  1.0  0.115
  H  H53  1  0.953300  0.642900  0.209500  1.0  0.106
  H  H54  1  0.875000  0.718600  0.215600  1.0  0.0975
  H  H55  1  0.099300  0.881900  0.150100  1.0  0.1355
  H  H56  1  0.005700  0.809800  0.008700  1.0  0.1126
  H  H57  1  0.888100  0.699700  0.130500  1.0  0.1094
  H  H58  1  0.591600  0.706400  0.383800  1.0  0.1338
  H  H59  1  0.484500  0.585400  0.510200  1.0  0.1285
  H  H60  1  0.741200  0.511500  0.461700  1.0  0.1234
  H  H61  1  0.841200  0.526200  0.385800  1.0  0.1085
  H  H62  1  0.859400  0.596000  0.431900  1.0  0.0854
  C  C63  1  0.645000  0.315700  0.382900  1.0  0.7136
  C  C64  1  0.554300  0.346600  0.357400  1.0  -0.1426
  C  C65  1  0.531600  0.323500  0.307300  1.0  -0.0509
  C  C66  1  0.444800  0.351300  0.283800  1.0  0.1211
  C  C67  1  0.385800  0.406500  0.312200  1.0  -0.0986
  C  C68  1  0.409000  0.430100  0.364700  1.0  0.0962
  C  C69  1  0.491400  0.399200  0.386500  1.0  -0.0563
  C  C70  1  0.340100  0.487500  0.394800  1.0  0.0509
  C  C71  1  0.176500  0.474400  0.417800  1.0  0.2957
  C  C72  1  0.185300  0.536300  0.456900  1.0  -0.1321
  C  C73  1  0.112900  0.549400  0.491100  1.0  -0.1671
  C  C74  1  0.126000  0.613500  0.535400  1.0  0.6905
  C  C75  1  0.031300  0.495400  0.484000  1.0  -0.0347
  C  C76  1  0.021800  0.433500  0.442300  1.0  -0.1445
  C  C77  1  0.933300  0.374200  0.436100  1.0  0.7154
  C  C78  1  0.094100  0.424800  0.410800  1.0  -0.0885
  C  C79  1  0.431000  0.289200  0.121400  1.0  -0.0634
  C  C80  1  0.434500  0.277100  0.067600  1.0  -0.1493
  C  C81  1  0.378300  0.203700  0.040600  1.0  0.7412
  C  C82  1  0.494000  0.333600  0.041600  1.0  -0.0128
  C  C83  1  0.550500  0.403000  0.066500  1.0  -0.1018
  C  C84  1  0.617600  0.456500  0.036300  1.0  0.7326
  C  C85  1  0.537600  0.414500  0.118600  1.0  -0.0944
  C  C86  1  0.482500  0.356800  0.145300  1.0  0.2801
  C  C87  1  0.421200  0.327000  0.229600  1.0  0.062
  C  C88  1  0.853000  0.267000  0.615000  1.0  0.7397
  C  C89  1  0.942400  0.228100  0.641700  1.0  -0.149
  C  C90  1  0.957200  0.234100  0.694300  1.0  -0.0016
  C  C91  1  0.042000  0.202000  0.718700  1.0  0.1064
  C  C92  1  0.104400  0.154400  0.689300  1.0  -0.1439
  C  C93  1  0.090500  0.143400  0.636700  1.0  0.087
  C  C94  1  0.006900  0.181100  0.613400  1.0  -0.0455
  C  C95  1  0.059400  0.203300  0.776200  1.0  0.0365
  C  C96  1  0.002200  0.280600  0.850600  1.0  0.3496
  C  C97  1  0.939300  0.345800  0.871600  1.0  -0.0354
  C  C98  1  0.936300  0.354500  0.923000  1.0  -0.1611
  C  C99  1  0.866900  0.424000  0.945300  1.0  0.6469
  C  C100  1  0.997000  0.302800  0.955500  1.0  0.0218
  C  C101  1  0.058900  0.243600  0.936300  1.0  -0.1421
  C  C102  1  0.120700  0.185000  0.971600  1.0  0.7341
  C  C103  1  0.064700  0.235900  0.883200  1.0  -0.1395
  C  C104  1  0.403300  0.164100  0.589200  1.0  -0.0574
  C  C105  1  0.479100  0.151900  0.555500  1.0  -0.1489
  C  C106  1  0.567300  0.209600  0.563700  1.0  0.7258
  C  C107  1  0.468300  0.090700  0.513700  1.0  -0.0374
  C  C108  1  0.388100  0.038900  0.508400  1.0  -0.1171
  C  C109  1  0.378500  0.975300  0.464900  1.0  0.6628
  C  C110  1  0.312700  0.047800  0.542300  1.0  -0.1817
  C  C111  1  0.321500  0.112400  0.581600  1.0  0.238
  C  C112  1  0.158300  0.090800  0.604700  1.0  0.0677
  C  C113  1  0.355000  0.815700  0.617100  1.0  0.7135
  C  C114  1  0.445700  0.846600  0.642600  1.0  -0.143
  C  C115  1  0.468400  0.823500  0.692700  1.0  -0.0506
  C  C116  1  0.555200  0.851300  0.716200  1.0  0.1215
  C  C117  1  0.614200  0.906500  0.687800  1.0  -0.0977
  C  C118  1  0.591000  0.930100  0.635300  1.0  0.0958
  C  C119  1  0.508600  0.899200  0.613500  1.0  -0.0569
  C  C120  1  0.659900  0.987500  0.605200  1.0  0.0511
  C  C121  1  0.823500  0.974400  0.582200  1.0  0.2945
  C  C122  1  0.814700  0.036300  0.543100  1.0  -0.1337
  C  C123  1  0.887100  0.049400  0.508900  1.0  -0.1657
  C  C124  1  0.874000  0.113500  0.464600  1.0  0.6915
  C  C125  1  0.968700  0.995400  0.516000  1.0  -0.0336
  C  C126  1  0.978200  0.933500  0.557700  1.0  -0.1428
  C  C127  1  0.066700  0.874200  0.563900  1.0  0.7167
  C  C128  1  0.905900  0.924800  0.589200  1.0  -0.0887
  C  C129  1  0.569000  0.789200  0.878600  1.0  -0.065
  C  C130  1  0.565500  0.777100  0.932400  1.0  -0.1496
  C  C131  1  0.621700  0.703700  0.959400  1.0  0.7412
  C  C132  1  0.506000  0.833600  0.958400  1.0  -0.0122
  C  C133  1  0.449500  0.903000  0.933500  1.0  -0.1026
  C  C134  1  0.382400  0.956500  0.963700  1.0  0.7328
  C  C135  1  0.462400  0.914500  0.881400  1.0  -0.0941
  C  C136  1  0.517500  0.856800  0.854700  1.0  0.2814
  C  C137  1  0.578800  0.827000  0.770400  1.0  0.0621
  C  C138  1  0.147000  0.767000  0.385000  1.0  0.7386
  C  C139  1  0.057600  0.728100  0.358300  1.0  -0.1511
  C  C140  1  0.042800  0.734100  0.305700  1.0  -0.0021
  C  C141  1  0.958000  0.702000  0.281300  1.0  0.105
  C  C142  1  0.895600  0.654400  0.310700  1.0  -0.141
  C  C143  1  0.909500  0.643400  0.363300  1.0  0.0883
  C  C144  1  0.993100  0.681100  0.386600  1.0  -0.0457
  C  C145  1  0.940600  0.703300  0.223800  1.0  0.0359
  C  C146  1  0.997800  0.780600  0.149400  1.0  0.3497
  C  C147  1  0.060700  0.845800  0.128400  1.0  -0.0354
  C  C148  1  0.063700  0.854500  0.077000  1.0  -0.1556
  C  C149  1  0.133100  0.924000  0.054700  1.0  0.6463
  C  C150  1  0.003000  0.802800  0.044500  1.0  0.0173
  C  C151  1  0.941100  0.743600  0.063700  1.0  -0.1448
  C  C152  1  0.879300  0.685000  0.028400  1.0  0.7349
  C  C153  1  0.935300  0.735900  0.116800  1.0  -0.1409
  C  C154  1  0.596700  0.664100  0.410800  1.0  -0.0581
  C  C155  1  0.520900  0.651900  0.444500  1.0  -0.1484
  C  C156  1  0.432700  0.709600  0.436300  1.0  0.727
  C  C157  1  0.531700  0.590700  0.486300  1.0  -0.0396
  C  C158  1  0.611900  0.538900  0.491600  1.0  -0.1142
  C  C159  1  0.621500  0.475300  0.535100  1.0  0.6631
  C  C160  1  0.687300  0.547800  0.457700  1.0  -0.1802
  C  C161  1  0.678500  0.612400  0.418400  1.0  0.2408
  C  C162  1  0.841700  0.590800  0.395300  1.0  0.0678
  O  O163  1  0.705400  0.278200  0.354200  1.0  -0.6595
  O  O164  1  0.655300  0.325900  0.431500  1.0  -0.6815
  O  O165  1  0.200000  0.659700  0.539800  1.0  -0.6465
  O  O166  1  0.062500  0.615600  0.568900  1.0  -0.643
  O  O167  1  0.873300  0.378700  0.471100  1.0  -0.6882
  O  O168  1  0.926900  0.329400  0.395600  1.0  -0.6155
  O  O169  1  0.330200  0.152700  0.066700  1.0  -0.5509
  O  O170  1  0.381500  0.202800  0.992900  1.0  -0.7029
  O  O171  1  0.623800  0.446700  0.989200  1.0  -0.5524
  O  O172  1  0.667900  0.516400  0.060200  1.0  -0.6816
  O  O173  1  0.845700  0.260400  0.569500  1.0  -0.6333
  O  O174  1  0.797300  0.302700  0.645500  1.0  -0.6426
  O  O175  1  0.818800  0.474200  0.913500  1.0  -0.6039
  O  O176  1  0.865100  0.436500  0.993600  1.0  -0.5529
  O  O177  1  0.109100  0.180900  0.016700  1.0  -0.5465
  O  O178  1  0.185500  0.139000  0.949500  1.0  -0.6822
  O  O179  1  0.571000  0.258000  0.603700  1.0  -0.6454
  O  O180  1  0.627200  0.207000  0.529800  1.0  -0.6532
  O  O181  1  0.436700  0.972000  0.429400  1.0  -0.6769
  O  O182  1  0.302300  0.921400  0.458900  1.0  -0.7225
  O  O183  1  0.246400  0.453200  0.383500  1.0  -0.2712
  O  O184  1  0.481100  0.374300  0.198400  1.0  -0.2768
  O  O185  1  0.997700  0.271700  0.798800  1.0  -0.2777
  O  O186  1  0.250900  0.132400  0.615500  1.0  -0.2692
  O  O187  1  0.294600  0.778200  0.645800  1.0  -0.6637
  O  O188  1  0.344700  0.825900  0.568500  1.0  -0.6816
  O  O189  1  0.800000  0.159700  0.460200  1.0  -0.6481
  O  O190  1  0.937500  0.115600  0.431100  1.0  -0.6419
  O  O191  1  0.126700  0.878700  0.528900  1.0  -0.6893
  O  O192  1  0.073100  0.829400  0.604400  1.0  -0.6184
  O  O193  1  0.669800  0.652700  0.933300  1.0  -0.5534
  O  O194  1  0.618500  0.702800  0.007100  1.0  -0.7038
  O  O195  1  0.376200  0.946700  0.010800  1.0  -0.5514
  O  O196  1  0.332100  0.016400  0.939800  1.0  -0.6832
  O  O197  1  0.154300  0.760400  0.430500  1.0  -0.6329
  O  O198  1  0.202700  0.802700  0.354500  1.0  -0.646
  O  O199  1  0.181200  0.974200  0.086500  1.0  -0.599
  O  O200  1  0.134900  0.936500  0.006400  1.0  -0.5541
  O  O201  1  0.890900  0.680900  0.983300  1.0  -0.5447
  O  O202  1  0.814500  0.639000  0.050500  1.0  -0.6812
  O  O203  1  0.429000  0.758000  0.396300  1.0  -0.646
  O  O204  1  0.372800  0.707000  0.470200  1.0  -0.6527
  O  O205  1  0.563300  0.472000  0.570600  1.0  -0.6755
  O  O206  1  0.697700  0.421400  0.541100  1.0  -0.721
  O  O207  1  0.753600  0.953200  0.616500  1.0  -0.2715
  O  O208  1  0.518900  0.874300  0.801600  1.0  -0.278
  O  O209  1  0.002300  0.771700  0.201200  1.0  -0.2782
  O  O210  1  0.749100  0.632400  0.384500  1.0  -0.2718
