# generated using pymatgen
data_Zn7H26C18(N4O)8
_symmetry_space_group_name_H-M   'P 1'
_cell_length_a   16.54080000
_cell_length_b   17.45890000
_cell_length_c   17.45890000
_cell_angle_alpha   97.99610000
_cell_angle_beta   95.47190000
_cell_angle_gamma   84.52810000
_symmetry_Int_Tables_number   1
_chemical_formula_structural   Zn7H26C18(N4O)8
_chemical_formula_sum   'Zn28 H104 C72 N128 O32'
_cell_volume   4952.81843850
_cell_formula_units_Z   4
loop_
 _symmetry_equiv_pos_site_id
 _symmetry_equiv_pos_as_xyz
  1  'x, y, z'
loop_
 _atom_site_type_symbol
 _atom_site_label
 _atom_site_symmetry_multiplicity
 _atom_site_fract_x
 _atom_site_fract_y
 _atom_site_fract_z
 _atom_site_occupancy
 _atom_site_charge
  Zn  Zn1  1  0.042910  0.479210  0.246570  1.0  0.7811
  Zn  Zn2  1  0.862830  0.936210  0.288230  1.0  0.9089
  Zn  Zn3  1  0.774290  0.755060  0.258300  1.0  0.5538
  Zn  Zn4  1  0.679500  0.577480  0.231620  1.0  0.8697
  Zn  Zn5  1  0.039050  0.206600  0.416520  1.0  0.9285
  Zn  Zn6  1  0.008020  0.237790  0.014150  1.0  0.7396
  Zn  Zn7  1  0.028420  0.043150  0.276870  1.0  0.8945
  Zn  Zn8  1  0.457090  0.246570  0.479210  1.0  0.7798
  Zn  Zn9  1  0.637170  0.288230  0.936210  1.0  0.9101
  Zn  Zn10  1  0.725710  0.258300  0.755060  1.0  0.5539
  Zn  Zn11  1  0.820500  0.231620  0.577480  1.0  0.8713
  Zn  Zn12  1  0.460950  0.416520  0.206600  1.0  0.9298
  Zn  Zn13  1  0.491980  0.014150  0.237790  1.0  0.7402
  Zn  Zn14  1  0.471580  0.276870  0.043150  1.0  0.8949
  Zn  Zn15  1  0.957090  0.520790  0.753430  1.0  0.7841
  Zn  Zn16  1  0.137170  0.063790  0.711770  1.0  0.9092
  Zn  Zn17  1  0.225710  0.244940  0.741700  1.0  0.5537
  Zn  Zn18  1  0.320500  0.422520  0.768380  1.0  0.8709
  Zn  Zn19  1  0.960950  0.793400  0.583480  1.0  0.9287
  Zn  Zn20  1  0.991980  0.762210  0.985850  1.0  0.7397
  Zn  Zn21  1  0.971580  0.956850  0.723130  1.0  0.8952
  Zn  Zn22  1  0.542910  0.753430  0.520790  1.0  0.78
  Zn  Zn23  1  0.362830  0.711770  0.063790  1.0  0.9085
  Zn  Zn24  1  0.274290  0.741700  0.244940  1.0  0.5548
  Zn  Zn25  1  0.179500  0.768380  0.422520  1.0  0.8714
  Zn  Zn26  1  0.539050  0.583480  0.793400  1.0  0.9284
  Zn  Zn27  1  0.508020  0.985850  0.762210  1.0  0.7406
  Zn  Zn28  1  0.528420  0.723130  0.956850  1.0  0.8947
  H  H29  1  0.899700  0.065800  0.341600  1.0  0.2376
  H  H30  1  0.140300  0.103000  0.363000  1.0  0.3994
  H  H31  1  0.818800  0.665200  0.098600  1.0  0.3515
  H  H32  1  0.871600  0.667600  0.034600  1.0  0.3405
  H  H33  1  0.970500  0.900300  0.132500  1.0  0.0707
  H  H34  1  0.796000  0.421900  0.210300  1.0  0.3423
  H  H35  1  0.885600  0.401100  0.213900  1.0  0.3346
  H  H36  1  0.956500  0.651400  0.259200  1.0  0.0632
  H  H37  1  0.714500  0.845800  0.115000  1.0  0.3361
  H  H38  1  0.650900  0.846200  0.048600  1.0  0.3697
  H  H39  1  0.557800  0.614700  0.079100  1.0  0.0691
  H  H40  1  0.066600  0.640900  0.446300  1.0  0.3615
  H  H41  1  0.039000  0.567200  0.402800  1.0  0.349
  H  H42  1  0.181300  0.576300  0.190700  1.0  0.0875
  H  H43  1  0.940300  0.980400  0.460400  1.0  0.2802
  H  H44  1  0.962600  0.940600  0.530600  1.0  0.2514
  H  H45  1  0.876500  0.706000  0.420800  1.0  0.0765
  H  H46  1  0.737000  0.089500  0.274300  1.0  0.3429
  H  H47  1  0.646800  0.106400  0.266200  1.0  0.288
  H  H48  1  0.590100  0.853600  0.261000  1.0  0.0729
  H  H49  1  0.945400  0.198600  0.242800  1.0  0.3302
  H  H50  1  0.949600  0.251000  0.183200  1.0  0.3271
  H  H51  1  0.058100  0.978700  0.103300  1.0  0.1145
  H  H52  1  0.251300  0.324200  0.445400  1.0  0.3403
  H  H53  1  0.201500  0.261300  0.458900  1.0  0.3424
  H  H54  1  0.964600  0.352300  0.334700  1.0  0.0597
  H  H55  1  0.600300  0.341600  0.065800  1.0  0.237
  H  H56  1  0.359700  0.363000  0.103000  1.0  0.4028
  H  H57  1  0.681200  0.098600  0.665200  1.0  0.3511
  H  H58  1  0.628400  0.034600  0.667600  1.0  0.3408
  H  H59  1  0.529500  0.132500  0.900300  1.0  0.0703
  H  H60  1  0.704000  0.210300  0.421900  1.0  0.3428
  H  H61  1  0.614400  0.213900  0.401100  1.0  0.3325
  H  H62  1  0.543500  0.259200  0.651400  1.0  0.0621
  H  H63  1  0.785500  0.115000  0.845800  1.0  0.3324
  H  H64  1  0.849100  0.048600  0.846200  1.0  0.3695
  H  H65  1  0.942200  0.079100  0.614700  1.0  0.069
  H  H66  1  0.433400  0.446300  0.640900  1.0  0.3611
  H  H67  1  0.461000  0.402800  0.567200  1.0  0.3485
  H  H68  1  0.318700  0.190700  0.576300  1.0  0.0897
  H  H69  1  0.559700  0.460400  0.980400  1.0  0.278
  H  H70  1  0.537400  0.530600  0.940600  1.0  0.2528
  H  H71  1  0.623500  0.420800  0.706000  1.0  0.0757
  H  H72  1  0.763000  0.274300  0.089500  1.0  0.3423
  H  H73  1  0.853200  0.266200  0.106400  1.0  0.2907
  H  H74  1  0.909900  0.261000  0.853600  1.0  0.0726
  H  H75  1  0.554600  0.242800  0.198600  1.0  0.3316
  H  H76  1  0.550400  0.183200  0.251000  1.0  0.3264
  H  H77  1  0.441900  0.103300  0.978700  1.0  0.1132
  H  H78  1  0.248700  0.445400  0.324200  1.0  0.3379
  H  H79  1  0.298500  0.458900  0.261300  1.0  0.3427
  H  H80  1  0.535400  0.334700  0.352300  1.0  0.058
  H  H81  1  0.100300  0.934200  0.658400  1.0  0.2376
  H  H82  1  0.859700  0.897000  0.637000  1.0  0.4017
  H  H83  1  0.181200  0.334800  0.901400  1.0  0.3523
  H  H84  1  0.128400  0.332400  0.965400  1.0  0.3408
  H  H85  1  0.029500  0.099700  0.867500  1.0  0.0705
  H  H86  1  0.204000  0.578100  0.789700  1.0  0.3433
  H  H87  1  0.114400  0.598900  0.786100  1.0  0.3325
  H  H88  1  0.043500  0.348600  0.740800  1.0  0.0634
  H  H89  1  0.285500  0.154200  0.885000  1.0  0.3345
  H  H90  1  0.349100  0.153800  0.951400  1.0  0.3692
  H  H91  1  0.442200  0.385300  0.920900  1.0  0.0701
  H  H92  1  0.933400  0.359100  0.553700  1.0  0.3603
  H  H93  1  0.961000  0.432800  0.597200  1.0  0.3502
  H  H94  1  0.818700  0.423700  0.809300  1.0  0.0847
  H  H95  1  0.059700  0.019600  0.539600  1.0  0.2783
  H  H96  1  0.037400  0.059400  0.469400  1.0  0.2523
  H  H97  1  0.123500  0.294000  0.579200  1.0  0.0769
  H  H98  1  0.263000  0.910500  0.725700  1.0  0.344
  H  H99  1  0.353200  0.893600  0.733800  1.0  0.2893
  H  H100  1  0.409900  0.146400  0.739000  1.0  0.0725
  H  H101  1  0.054600  0.801400  0.757200  1.0  0.3297
  H  H102  1  0.050400  0.749000  0.816800  1.0  0.3268
  H  H103  1  0.941900  0.021300  0.896700  1.0  0.1144
  H  H104  1  0.748700  0.675800  0.554600  1.0  0.3403
  H  H105  1  0.798500  0.738700  0.541100  1.0  0.3451
  H  H106  1  0.035400  0.647700  0.665300  1.0  0.059
  H  H107  1  0.399700  0.658400  0.934200  1.0  0.2372
  H  H108  1  0.640300  0.637000  0.897000  1.0  0.3992
  H  H109  1  0.318800  0.901400  0.334800  1.0  0.3516
  H  H110  1  0.371600  0.965400  0.332400  1.0  0.3412
  H  H111  1  0.470500  0.867500  0.099700  1.0  0.0698
  H  H112  1  0.296000  0.789700  0.578100  1.0  0.3416
  H  H113  1  0.385600  0.786100  0.598900  1.0  0.3343
  H  H114  1  0.456500  0.740800  0.348600  1.0  0.0619
  H  H115  1  0.214500  0.885000  0.154200  1.0  0.3336
  H  H116  1  0.150900  0.951400  0.153800  1.0  0.3692
  H  H117  1  0.057800  0.920900  0.385300  1.0  0.069
  H  H118  1  0.566600  0.553700  0.359100  1.0  0.3612
  H  H119  1  0.539000  0.597200  0.432800  1.0  0.3474
  H  H120  1  0.681300  0.809300  0.423700  1.0  0.0865
  H  H121  1  0.440300  0.539600  0.019600  1.0  0.2794
  H  H122  1  0.462600  0.469400  0.059400  1.0  0.2521
  H  H123  1  0.376500  0.579200  0.294000  1.0  0.0757
  H  H124  1  0.237000  0.725700  0.910500  1.0  0.3416
  H  H125  1  0.146800  0.733800  0.893600  1.0  0.2877
  H  H126  1  0.090100  0.739000  0.146400  1.0  0.073
  H  H127  1  0.445400  0.757200  0.801400  1.0  0.3312
  H  H128  1  0.449600  0.816800  0.749000  1.0  0.3247
  H  H129  1  0.558100  0.896700  0.021300  1.0  0.115
  H  H130  1  0.751300  0.554600  0.675800  1.0  0.3398
  H  H131  1  0.701500  0.541100  0.738700  1.0  0.3411
  H  H132  1  0.464600  0.665300  0.647700  1.0  0.0586
  C  C133  1  0.042500  0.366300  0.120500  1.0  0.8597
  C  C134  1  0.623300  0.430900  0.188100  1.0  0.7535
  C  C135  1  0.876600  0.756900  0.111900  1.0  0.6839
  C  C136  1  0.937300  0.861100  0.136300  1.0  0.2712
  C  C137  1  0.858100  0.512500  0.228700  1.0  0.6456
  C  C138  1  0.916400  0.616600  0.250400  1.0  0.2764
  C  C139  1  0.651100  0.757800  0.102600  1.0  0.6298
  C  C140  1  0.592300  0.654000  0.095400  1.0  0.2693
  C  C141  1  0.114600  0.613500  0.347700  1.0  0.6313
  C  C142  1  0.167500  0.597300  0.240100  1.0  0.2631
  C  C143  1  0.913400  0.873200  0.444400  1.0  0.4809
  C  C144  1  0.883000  0.757600  0.416800  1.0  0.2835
  C  C145  1  0.679300  0.997900  0.268500  1.0  0.6365
  C  C146  1  0.627800  0.890400  0.264000  1.0  0.2711
  C  C147  1  0.002100  0.146600  0.153200  1.0  0.3943
  C  C148  1  0.045100  0.032000  0.109000  1.0  0.0522
  C  C149  1  0.139400  0.335500  0.395300  1.0  0.3859
  C  C150  1  0.019900  0.356200  0.348400  1.0  0.2734
  C  C151  1  0.457500  0.120500  0.366300  1.0  0.8597
  C  C152  1  0.876700  0.188100  0.430900  1.0  0.7522
  C  C153  1  0.623400  0.111900  0.756900  1.0  0.6831
  C  C154  1  0.562700  0.136300  0.861100  1.0  0.2715
  C  C155  1  0.641900  0.228700  0.512500  1.0  0.6457
  C  C156  1  0.583600  0.250400  0.616600  1.0  0.2774
  C  C157  1  0.848900  0.102600  0.757800  1.0  0.6295
  C  C158  1  0.907700  0.095400  0.654000  1.0  0.2696
  C  C159  1  0.385400  0.347700  0.613500  1.0  0.6308
  C  C160  1  0.332500  0.240100  0.597300  1.0  0.2617
  C  C161  1  0.586600  0.444400  0.873200  1.0  0.4804
  C  C162  1  0.617000  0.416800  0.757600  1.0  0.2828
  C  C163  1  0.820700  0.268500  0.997900  1.0  0.637
  C  C164  1  0.872200  0.264000  0.890400  1.0  0.2707
  C  C165  1  0.497900  0.153200  0.146600  1.0  0.3922
  C  C166  1  0.454900  0.109000  0.032000  1.0  0.0521
  C  C167  1  0.360600  0.395300  0.335500  1.0  0.3854
  C  C168  1  0.480100  0.348400  0.356200  1.0  0.2734
  C  C169  1  0.957500  0.633700  0.879500  1.0  0.8599
  C  C170  1  0.376700  0.569100  0.811900  1.0  0.7531
  C  C171  1  0.123400  0.243100  0.888100  1.0  0.6842
  C  C172  1  0.062700  0.138900  0.863700  1.0  0.2709
  C  C173  1  0.141900  0.487500  0.771300  1.0  0.6457
  C  C174  1  0.083600  0.383400  0.749600  1.0  0.2758
  C  C175  1  0.348900  0.242200  0.897400  1.0  0.6308
  C  C176  1  0.407700  0.346000  0.904600  1.0  0.2684
  C  C177  1  0.885400  0.386500  0.652300  1.0  0.631
  C  C178  1  0.832500  0.402700  0.759900  1.0  0.2635
  C  C179  1  0.086600  0.126800  0.555600  1.0  0.4806
  C  C180  1  0.117000  0.242400  0.583200  1.0  0.2817
  C  C181  1  0.320700  0.002100  0.731500  1.0  0.6367
  C  C182  1  0.372200  0.109600  0.736000  1.0  0.2696
  C  C183  1  0.997900  0.853400  0.846800  1.0  0.3929
  C  C184  1  0.954900  0.968000  0.891000  1.0  0.0535
  C  C185  1  0.860600  0.664500  0.604700  1.0  0.3858
  C  C186  1  0.980100  0.643800  0.651600  1.0  0.2741
  C  C187  1  0.542500  0.879500  0.633700  1.0  0.8599
  C  C188  1  0.123300  0.811900  0.569100  1.0  0.753
  C  C189  1  0.376600  0.888100  0.243100  1.0  0.6837
  C  C190  1  0.437300  0.863700  0.138900  1.0  0.2721
  C  C191  1  0.358100  0.771300  0.487500  1.0  0.6451
  C  C192  1  0.416400  0.749600  0.383400  1.0  0.2776
  C  C193  1  0.151100  0.897400  0.242200  1.0  0.6294
  C  C194  1  0.092300  0.904600  0.346000  1.0  0.2703
  C  C195  1  0.614600  0.652300  0.386500  1.0  0.6307
  C  C196  1  0.667500  0.759900  0.402700  1.0  0.2608
  C  C197  1  0.413400  0.555600  0.126800  1.0  0.4808
  C  C198  1  0.383000  0.583200  0.242400  1.0  0.2835
  C  C199  1  0.179300  0.731500  0.002100  1.0  0.6373
  C  C200  1  0.127800  0.736000  0.109600  1.0  0.272
  C  C201  1  0.502100  0.846800  0.853400  1.0  0.3935
  C  C202  1  0.545100  0.891000  0.968000  1.0  0.0522
  C  C203  1  0.639400  0.604700  0.664500  1.0  0.3852
  C  C204  1  0.519900  0.651600  0.643800  1.0  0.2731
  N  N205  1  0.930800  0.797080  0.082720  1.0  -0.5135
  N  N206  1  0.850900  0.793380  0.178620  1.0  -0.3357
  N  N207  1  0.892000  0.861710  0.193890  1.0  -0.2686
  N  N208  1  0.852800  0.688500  0.077700  1.0  -0.7389
  N  N209  1  0.933000  0.539040  0.238960  1.0  -0.5507
  N  N210  1  0.799700  0.570040  0.232960  1.0  -0.38
  N  N211  1  0.838100  0.638280  0.247720  1.0  -0.2532
  N  N212  1  0.844900  0.435700  0.216100  1.0  -0.743
  N  N213  1  0.591500  0.717850  0.060750  1.0  -0.4749
  N  N214  1  0.685600  0.721250  0.160550  1.0  -0.3233
  N  N215  1  0.646600  0.652950  0.154650  1.0  -0.2829
  N  N216  1  0.675000  0.824600  0.086800  1.0  -0.6816
  N  N217  1  0.116700  0.565300  0.280900  1.0  -0.4676
  N  N218  1  0.160000  0.672120  0.349080  1.0  -0.3765
  N  N219  1  0.194900  0.661320  0.278080  1.0  -0.2671
  N  N220  1  0.067600  0.606200  0.406200  1.0  -0.7428
  N  N221  1  0.916800  0.806810  0.475390  1.0  -0.5038
  N  N222  1  0.881000  0.866200  0.371400  1.0  -0.3924
  N  N223  1  0.860500  0.789900  0.353700  1.0  -0.2795
  N  N224  1  0.942300  0.939500  0.483300  1.0  -0.6618
  N  N225  1  0.606300  0.968030  0.261370  1.0  -0.5594
  N  N226  1  0.741500  0.943700  0.273900  1.0  -0.3885
  N  N227  1  0.707100  0.873480  0.271120  1.0  -0.2687
  N  N228  1  0.688900  0.073800  0.269800  1.0  -0.7241
  N  N229  1  0.020200  0.077700  0.173700  1.0  -0.3665
  N  N230  1  0.015400  0.151510  0.079690  1.0  -0.4172
  N  N231  1  0.047100  0.078500  0.056100  1.0  -0.1863
  N  N232  1  0.960400  0.206300  0.198900  1.0  -0.7333
  N  N233  1  0.065200  0.306600  0.388800  1.0  -0.4814
  N  N234  1  0.139300  0.398600  0.362000  1.0  -0.341
  N  N235  1  0.059200  0.410700  0.329900  1.0  -0.2941
  N  N236  1  0.205900  0.302800  0.438800  1.0  -0.7506
  N  N237  1  0.569200  0.082720  0.797080  1.0  -0.5109
  N  N238  1  0.649100  0.178620  0.793380  1.0  -0.3366
  N  N239  1  0.608000  0.193890  0.861710  1.0  -0.2655
  N  N240  1  0.647200  0.077700  0.688500  1.0  -0.7389
  N  N241  1  0.567000  0.238960  0.539040  1.0  -0.5523
  N  N242  1  0.700300  0.232960  0.570040  1.0  -0.3782
  N  N243  1  0.661900  0.247720  0.638280  1.0  -0.2509
  N  N244  1  0.655100  0.216100  0.435700  1.0  -0.7434
  N  N245  1  0.908500  0.060750  0.717850  1.0  -0.4758
  N  N246  1  0.814400  0.160550  0.721250  1.0  -0.3228
  N  N247  1  0.853400  0.154650  0.652950  1.0  -0.2817
  N  N248  1  0.825000  0.086800  0.824600  1.0  -0.6787
  N  N249  1  0.383300  0.280900  0.565300  1.0  -0.4661
  N  N250  1  0.340000  0.349080  0.672120  1.0  -0.379
  N  N251  1  0.305100  0.278080  0.661320  1.0  -0.2665
  N  N252  1  0.432400  0.406200  0.606200  1.0  -0.7438
  N  N253  1  0.583200  0.475390  0.806810  1.0  -0.5041
  N  N254  1  0.619000  0.371400  0.866200  1.0  -0.3929
  N  N255  1  0.639500  0.353700  0.789900  1.0  -0.2798
  N  N256  1  0.557700  0.483300  0.939500  1.0  -0.663
  N  N257  1  0.893700  0.261370  0.968030  1.0  -0.5581
  N  N258  1  0.758500  0.273900  0.943700  1.0  -0.3868
  N  N259  1  0.792900  0.271120  0.873480  1.0  -0.2696
  N  N260  1  0.811100  0.269800  0.073800  1.0  -0.7254
  N  N261  1  0.479800  0.173700  0.077700  1.0  -0.3658
  N  N262  1  0.484600  0.079690  0.151510  1.0  -0.4201
  N  N263  1  0.452900  0.056100  0.078500  1.0  -0.1866
  N  N264  1  0.539600  0.198900  0.206300  1.0  -0.7333
  N  N265  1  0.434800  0.388800  0.306600  1.0  -0.4786
  N  N266  1  0.360700  0.362000  0.398600  1.0  -0.3438
  N  N267  1  0.440800  0.329900  0.410700  1.0  -0.2936
  N  N268  1  0.294100  0.438800  0.302800  1.0  -0.7524
  N  N269  1  0.069200  0.202920  0.917280  1.0  -0.5117
  N  N270  1  0.149100  0.206620  0.821380  1.0  -0.3358
  N  N271  1  0.108000  0.138290  0.806110  1.0  -0.2695
  N  N272  1  0.147200  0.311500  0.922300  1.0  -0.7415
  N  N273  1  0.067000  0.460960  0.761040  1.0  -0.5508
  N  N274  1  0.200300  0.429960  0.767040  1.0  -0.3794
  N  N275  1  0.161900  0.361720  0.752280  1.0  -0.2533
  N  N276  1  0.155100  0.564300  0.783900  1.0  -0.7439
  N  N277  1  0.408500  0.282150  0.939250  1.0  -0.4753
  N  N278  1  0.314400  0.278750  0.839450  1.0  -0.3243
  N  N279  1  0.353400  0.347050  0.845350  1.0  -0.2834
  N  N280  1  0.325000  0.175400  0.913200  1.0  -0.6775
  N  N281  1  0.883300  0.434700  0.719100  1.0  -0.4661
  N  N282  1  0.840000  0.327880  0.650920  1.0  -0.3763
  N  N283  1  0.805100  0.338680  0.721920  1.0  -0.2673
  N  N284  1  0.932400  0.393800  0.593800  1.0  -0.7419
  N  N285  1  0.083200  0.193190  0.524610  1.0  -0.5038
  N  N286  1  0.119000  0.133800  0.628600  1.0  -0.3923
  N  N287  1  0.139500  0.210100  0.646300  1.0  -0.2792
  N  N288  1  0.057700  0.060500  0.516700  1.0  -0.6624
  N  N289  1  0.393700  0.031970  0.738630  1.0  -0.558
  N  N290  1  0.258500  0.056300  0.726100  1.0  -0.3891
  N  N291  1  0.292900  0.126520  0.728880  1.0  -0.269
  N  N292  1  0.311100  0.926200  0.730200  1.0  -0.7231
  N  N293  1  0.979800  0.922300  0.826300  1.0  -0.3667
  N  N294  1  0.984600  0.848490  0.920310  1.0  -0.4191
  N  N295  1  0.952900  0.921500  0.943900  1.0  -0.1837
  N  N296  1  0.039600  0.793700  0.801100  1.0  -0.7333
  N  N297  1  0.934800  0.693400  0.611200  1.0  -0.4794
  N  N298  1  0.860700  0.601400  0.638000  1.0  -0.3413
  N  N299  1  0.940800  0.589300  0.670100  1.0  -0.295
  N  N300  1  0.794100  0.697200  0.561200  1.0  -0.751
  N  N301  1  0.430800  0.917280  0.202920  1.0  -0.5096
  N  N302  1  0.350900  0.821380  0.206620  1.0  -0.3367
  N  N303  1  0.392000  0.806110  0.138290  1.0  -0.2657
  N  N304  1  0.352800  0.922300  0.311500  1.0  -0.7415
  N  N305  1  0.433000  0.761040  0.460960  1.0  -0.5503
  N  N306  1  0.299700  0.767040  0.429960  1.0  -0.3784
  N  N307  1  0.338100  0.752280  0.361720  1.0  -0.252
  N  N308  1  0.344900  0.783900  0.564300  1.0  -0.7441
  N  N309  1  0.091500  0.939250  0.282150  1.0  -0.4753
  N  N310  1  0.185600  0.839450  0.278750  1.0  -0.3248
  N  N311  1  0.146600  0.845350  0.347050  1.0  -0.2803
  N  N312  1  0.175000  0.913200  0.175400  1.0  -0.6801
  N  N313  1  0.616700  0.719100  0.434700  1.0  -0.4651
  N  N314  1  0.660000  0.650920  0.327880  1.0  -0.3772
  N  N315  1  0.694900  0.721920  0.338680  1.0  -0.2673
  N  N316  1  0.567600  0.593800  0.393800  1.0  -0.7451
  N  N317  1  0.416800  0.524610  0.193190  1.0  -0.5042
  N  N318  1  0.381000  0.628600  0.133800  1.0  -0.3925
  N  N319  1  0.360500  0.646300  0.210100  1.0  -0.281
  N  N320  1  0.442300  0.516700  0.060500  1.0  -0.6602
  N  N321  1  0.106300  0.738630  0.031970  1.0  -0.5586
  N  N322  1  0.241500  0.726100  0.056300  1.0  -0.3879
  N  N323  1  0.207100  0.728880  0.126520  1.0  -0.2694
  N  N324  1  0.188900  0.730200  0.926200  1.0  -0.7253
  N  N325  1  0.520200  0.826300  0.922300  1.0  -0.3661
  N  N326  1  0.515400  0.920310  0.848490  1.0  -0.4181
  N  N327  1  0.547100  0.943900  0.921500  1.0  -0.1885
  N  N328  1  0.460400  0.801100  0.793700  1.0  -0.7335
  N  N329  1  0.565200  0.611200  0.693400  1.0  -0.48
  N  N330  1  0.639300  0.638000  0.601400  1.0  -0.3428
  N  N331  1  0.559200  0.670100  0.589300  1.0  -0.294
  N  N332  1  0.705900  0.561200  0.697200  1.0  -0.7511
  O  O333  1  0.923900  0.024500  0.309900  1.0  -0.9225
  O  O334  1  0.084300  0.114450  0.354450  1.0  -0.9321
  O  O335  1  0.980000  0.350030  0.148170  1.0  -0.5789
  O  O336  1  0.083600  0.424320  0.151500  1.0  -0.6085
  O  O337  1  0.070000  0.324680  0.059880  1.0  -0.6489
  O  O338  1  0.613900  0.493790  0.234810  1.0  -0.6075
  O  O339  1  0.571800  0.379100  0.186900  1.0  -0.6363
  O  O340  1  0.685300  0.406600  0.151600  1.0  -0.5896
  O  O341  1  0.576100  0.309900  0.024500  1.0  -0.9231
  O  O342  1  0.415700  0.354450  0.114450  1.0  -0.9325
  O  O343  1  0.520000  0.148170  0.350030  1.0  -0.5777
  O  O344  1  0.416400  0.151500  0.424320  1.0  -0.6052
  O  O345  1  0.430000  0.059880  0.324680  1.0  -0.6503
  O  O346  1  0.886100  0.234810  0.493790  1.0  -0.6079
  O  O347  1  0.928200  0.186900  0.379100  1.0  -0.6373
  O  O348  1  0.814700  0.151600  0.406600  1.0  -0.5885
  O  O349  1  0.076100  0.975500  0.690100  1.0  -0.9235
  O  O350  1  0.915700  0.885550  0.645550  1.0  -0.933
  O  O351  1  0.020000  0.649970  0.851830  1.0  -0.5788
  O  O352  1  0.916400  0.575680  0.848500  1.0  -0.6074
  O  O353  1  0.930000  0.675320  0.940120  1.0  -0.6504
  O  O354  1  0.386100  0.506210  0.765190  1.0  -0.6092
  O  O355  1  0.428200  0.620900  0.813100  1.0  -0.6362
  O  O356  1  0.314700  0.593400  0.848400  1.0  -0.5885
  O  O357  1  0.423900  0.690100  0.975500  1.0  -0.9241
  O  O358  1  0.584300  0.645550  0.885550  1.0  -0.9314
  O  O359  1  0.480000  0.851830  0.649970  1.0  -0.5776
  O  O360  1  0.583600  0.848500  0.575680  1.0  -0.6092
  O  O361  1  0.570000  0.940120  0.675320  1.0  -0.65
  O  O362  1  0.113900  0.765190  0.506210  1.0  -0.6078
  O  O363  1  0.071800  0.813100  0.620900  1.0  -0.637
  O  O364  1  0.185300  0.848400  0.593400  1.0  -0.589
