# generated using pymatgen
data_KH5C6NO3
_symmetry_space_group_name_H-M   'P 1'
_cell_length_a   3.67690000
_cell_length_b   8.20420000
_cell_length_c   26.29200000
_cell_angle_alpha   90.00000000
_cell_angle_beta   92.92400000
_cell_angle_gamma   90.00000000
_symmetry_Int_Tables_number   1
_chemical_formula_structural   KH5C6NO3
_chemical_formula_sum   'K4 H20 C24 N4 O12'
_cell_volume   792.09248861
_cell_formula_units_Z   4
loop_
 _symmetry_equiv_pos_site_id
 _symmetry_equiv_pos_as_xyz
  1  'x, y, z'
loop_
 _atom_site_type_symbol
 _atom_site_label
 _atom_site_symmetry_multiplicity
 _atom_site_fract_x
 _atom_site_fract_y
 _atom_site_fract_z
 _atom_site_occupancy
 _atom_site_charge
  K  K1  1  0.937670  0.272040  0.777110  1.0  0.9301
  K  K2  1  0.062330  0.772040  0.722890  1.0  0.9298
  K  K3  1  0.062330  0.727960  0.222890  1.0  0.93
  K  K4  1  0.937670  0.227960  0.277110  1.0  0.9296
  H  H5  1  0.501000  0.546000  0.825200  1.0  0.437
  H  H6  1  0.472000  0.461000  0.868000  1.0  0.4551
  H  H7  1  0.464800  0.662500  0.620800  1.0  0.0666
  H  H8  1  0.086200  0.203200  0.613700  1.0  0.0943
  H  H9  1  0.889400  0.249000  0.529300  1.0  0.1212
  H  H10  1  0.499000  0.046000  0.674800  1.0  0.4375
  H  H11  1  0.528000  0.961000  0.632000  1.0  0.4539
  H  H12  1  0.535200  0.162500  0.879200  1.0  0.0664
  H  H13  1  0.913800  0.703200  0.886300  1.0  0.0946
  H  H14  1  0.110600  0.749000  0.970700  1.0  0.1207
  H  H15  1  0.499000  0.454000  0.174800  1.0  0.4391
  H  H16  1  0.528000  0.539000  0.132000  1.0  0.4528
  H  H17  1  0.535200  0.337500  0.379200  1.0  0.0662
  H  H18  1  0.913800  0.796800  0.386300  1.0  0.094
  H  H19  1  0.110600  0.751000  0.470700  1.0  0.1208
  H  H20  1  0.501000  0.954000  0.325200  1.0  0.4378
  H  H21  1  0.472000  0.039000  0.368000  1.0  0.4546
  H  H22  1  0.464800  0.837500  0.120800  1.0  0.0669
  H  H23  1  0.086200  0.296800  0.113700  1.0  0.0937
  H  H24  1  0.889400  0.251000  0.029300  1.0  0.1219
  C  C25  1  0.065000  0.483200  0.526900  1.0  0.2205
  C  C26  1  0.347300  0.576600  0.602120  1.0  0.1922
  C  C27  1  0.301900  0.429600  0.626360  1.0  -0.2319
  C  C28  1  0.125600  0.306200  0.598380  1.0  0.0161
  C  C29  1  0.008400  0.333100  0.548570  1.0  -0.1537
  C  C30  1  0.441800  0.404000  0.681020  1.0  0.7078
  C  C31  1  0.935000  0.983200  0.973100  1.0  0.221
  C  C32  1  0.652700  0.076600  0.897880  1.0  0.1917
  C  C33  1  0.698100  0.929600  0.873640  1.0  -0.2309
  C  C34  1  0.874400  0.806200  0.901620  1.0  0.0165
  C  C35  1  0.991600  0.833100  0.951430  1.0  -0.1543
  C  C36  1  0.558200  0.904000  0.818980  1.0  0.7117
  C  C37  1  0.935000  0.516800  0.473100  1.0  0.2205
  C  C38  1  0.652700  0.423400  0.397880  1.0  0.1917
  C  C39  1  0.698100  0.570400  0.373640  1.0  -0.2309
  C  C40  1  0.874400  0.693800  0.401620  1.0  0.0158
  C  C41  1  0.991600  0.666900  0.451430  1.0  -0.1547
  C  C42  1  0.558200  0.596000  0.318980  1.0  0.7116
  C  C43  1  0.065000  0.016800  0.026900  1.0  0.22
  C  C44  1  0.347300  0.923400  0.102120  1.0  0.1917
  C  C45  1  0.301900  0.070400  0.126360  1.0  -0.2318
  C  C46  1  0.125600  0.193800  0.098380  1.0  0.0159
  C  C47  1  0.008400  0.166900  0.048570  1.0  -0.1554
  C  C48  1  0.441800  0.096000  0.181020  1.0  0.7088
  N  N49  1  0.234100  0.605300  0.553330  1.0  -0.4289
  N  N50  1  0.765900  0.105300  0.946670  1.0  -0.429
  N  N51  1  0.765900  0.394700  0.446670  1.0  -0.4304
  N  N52  1  0.234100  0.894700  0.053330  1.0  -0.4292
  O  O53  1  0.409100  0.263200  0.699340  1.0  -0.7253
  O  O54  1  0.578400  0.523800  0.704220  1.0  -0.759
  O  O55  1  0.450700  0.453400  0.836610  1.0  -0.9446
  O  O56  1  0.590900  0.763200  0.800660  1.0  -0.7262
  O  O57  1  0.421600  0.023800  0.795780  1.0  -0.7595
  O  O58  1  0.549300  0.953400  0.663390  1.0  -0.9419
  O  O59  1  0.590900  0.736800  0.300660  1.0  -0.7254
  O  O60  1  0.421600  0.476200  0.295780  1.0  -0.7576
  O  O61  1  0.549300  0.546600  0.163390  1.0  -0.9418
  O  O62  1  0.409100  0.236800  0.199340  1.0  -0.7258
  O  O63  1  0.578400  0.976200  0.204220  1.0  -0.7559
  O  O64  1  0.450700  0.046600  0.336610  1.0  -0.9442
