# generated using pymatgen
data_TbPH11C7NO5
_symmetry_space_group_name_H-M   'P 1'
_cell_length_a   5.52940000
_cell_length_b   13.35230000
_cell_length_c   20.64200000
_cell_angle_alpha   90.00000000
_cell_angle_beta   95.37800000
_cell_angle_gamma   90.00000000
_symmetry_Int_Tables_number   1
_chemical_formula_structural   TbPH11C7NO5
_chemical_formula_sum   'Tb4 P4 H44 C28 N4 O20'
_cell_volume   1517.29452379
_cell_formula_units_Z   4
loop_
 _symmetry_equiv_pos_site_id
 _symmetry_equiv_pos_as_xyz
  1  'x, y, z'
loop_
 _atom_site_type_symbol
 _atom_site_label
 _atom_site_symmetry_multiplicity
 _atom_site_fract_x
 _atom_site_fract_y
 _atom_site_fract_z
 _atom_site_occupancy
 _atom_site_charge
  Tb  Tb1  1  0.872350  0.632670  0.527820  1.0  2.2923
  Tb  Tb2  1  0.127650  0.132670  0.972180  1.0  2.2964
  Tb  Tb3  1  0.127650  0.367330  0.472180  1.0  2.2934
  Tb  Tb4  1  0.872350  0.867330  0.027820  1.0  2.295
  P  P5  1  0.589900  0.520880  0.413950  1.0  1.5952
  P  P6  1  0.410100  0.020880  0.086050  1.0  1.5961
  P  P7  1  0.410100  0.479120  0.586050  1.0  1.5963
  P  P8  1  0.589900  0.979120  0.913950  1.0  1.5954
  H  H9  1  0.835100  0.580200  0.336700  1.0  0.1271
  H  H10  1  0.740600  0.472900  0.317100  1.0  0.1582
  H  H11  1  0.622600  0.728600  0.298400  1.0  0.0437
  H  H12  1  0.414400  0.698900  0.341700  1.0  0.0872
  H  H13  1  0.124800  0.701300  0.248800  1.0  0.071
  H  H14  1  0.253500  0.806100  0.254900  1.0  0.0771
  H  H15  1  0.515400  0.758500  0.175400  1.0  0.0998
  H  H16  1  0.451700  0.599800  0.122000  1.0  0.1006
  H  H17  1  0.248100  0.573600  0.167600  1.0  0.0795
  H  H18  1  0.625300  0.497700  0.209800  1.0  0.0629
  H  H19  1  0.748500  0.603900  0.215100  1.0  0.0457
  H  H20  1  0.164900  0.080200  0.163300  1.0  0.1267
  H  H21  1  0.259400  0.972900  0.182900  1.0  0.1585
  H  H22  1  0.377400  0.228600  0.201600  1.0  0.0442
  H  H23  1  0.585600  0.198900  0.158300  1.0  0.0888
  H  H24  1  0.875200  0.201300  0.251200  1.0  0.0732
  H  H25  1  0.746500  0.306100  0.245100  1.0  0.0778
  H  H26  1  0.484600  0.258500  0.324600  1.0  0.1001
  H  H27  1  0.548300  0.099800  0.378000  1.0  0.1007
  H  H28  1  0.751900  0.073600  0.332400  1.0  0.0809
  H  H29  1  0.374700  0.997700  0.290200  1.0  0.0633
  H  H30  1  0.251500  0.103900  0.284900  1.0  0.044
  H  H31  1  0.164900  0.419800  0.663300  1.0  0.1266
  H  H32  1  0.259400  0.527100  0.682900  1.0  0.1578
  H  H33  1  0.377400  0.271400  0.701600  1.0  0.0435
  H  H34  1  0.585600  0.301100  0.658300  1.0  0.0881
  H  H35  1  0.875200  0.298700  0.751200  1.0  0.0732
  H  H36  1  0.746500  0.193900  0.745100  1.0  0.0762
  H  H37  1  0.484600  0.241500  0.824600  1.0  0.1003
  H  H38  1  0.548300  0.400200  0.878000  1.0  0.1007
  H  H39  1  0.751900  0.426400  0.832400  1.0  0.0808
  H  H40  1  0.374700  0.502300  0.790200  1.0  0.0647
  H  H41  1  0.251500  0.396100  0.784900  1.0  0.0441
  H  H42  1  0.835100  0.919800  0.836700  1.0  0.1275
  H  H43  1  0.740600  0.027100  0.817100  1.0  0.1579
  H  H44  1  0.622600  0.771400  0.798400  1.0  0.0437
  H  H45  1  0.414400  0.801100  0.841700  1.0  0.0871
  H  H46  1  0.124800  0.798700  0.748800  1.0  0.0715
  H  H47  1  0.253500  0.693900  0.754900  1.0  0.0776
  H  H48  1  0.515400  0.741500  0.675400  1.0  0.0993
  H  H49  1  0.451700  0.900200  0.622000  1.0  0.101
  H  H50  1  0.248100  0.926400  0.667600  1.0  0.0786
  H  H51  1  0.625300  0.002300  0.709800  1.0  0.0649
  H  H52  1  0.748500  0.896100  0.715100  1.0  0.0462
  C  C53  1  0.692200  0.537700  0.332800  1.0  -0.4192
  C  C54  1  0.470900  0.692200  0.298800  1.0  0.0062
  C  C55  1  0.278300  0.735600  0.246400  1.0  -0.1696
  C  C56  1  0.361500  0.723000  0.177900  1.0  -0.1586
  C  C57  1  0.399600  0.609400  0.165100  1.0  -0.1634
  C  C58  1  0.596900  0.568200  0.217500  1.0  0.0257
  C  C59  1  0.170400  0.764200  0.125100  1.0  0.6996
  C  C60  1  0.307800  0.037700  0.167200  1.0  -0.4202
  C  C61  1  0.529100  0.192200  0.201200  1.0  0.0058
  C  C62  1  0.721700  0.235600  0.253600  1.0  -0.1695
  C  C63  1  0.638500  0.223000  0.322100  1.0  -0.1589
  C  C64  1  0.600400  0.109400  0.334900  1.0  -0.1632
  C  C65  1  0.403100  0.068200  0.282500  1.0  0.0276
  C  C66  1  0.829600  0.264200  0.374900  1.0  0.7011
  C  C67  1  0.307800  0.462300  0.667200  1.0  -0.4196
  C  C68  1  0.529100  0.307800  0.701200  1.0  0.0062
  C  C69  1  0.721700  0.264400  0.753600  1.0  -0.1696
  C  C70  1  0.638500  0.277000  0.822100  1.0  -0.1582
  C  C71  1  0.600400  0.390600  0.834900  1.0  -0.1646
  C  C72  1  0.403100  0.431800  0.782500  1.0  0.0263
  C  C73  1  0.829600  0.235800  0.874900  1.0  0.7006
  C  C74  1  0.692200  0.962300  0.832800  1.0  -0.4186
  C  C75  1  0.470900  0.807800  0.798800  1.0  0.0067
  C  C76  1  0.278300  0.764400  0.746400  1.0  -0.169
  C  C77  1  0.361500  0.777000  0.677900  1.0  -0.1583
  C  C78  1  0.399600  0.890600  0.665100  1.0  -0.1642
  C  C79  1  0.596900  0.931800  0.717500  1.0  0.0276
  C  C80  1  0.170400  0.735800  0.625100  1.0  0.7
  N  N81  1  0.509500  0.582200  0.283400  1.0  -0.2687
  N  N82  1  0.490500  0.082200  0.216600  1.0  -0.2679
  N  N83  1  0.490500  0.417800  0.716600  1.0  -0.2671
  N  N84  1  0.509500  0.917800  0.783400  1.0  -0.2683
  O  O85  1  0.540800  0.623000  0.444400  1.0  -0.9741
  O  O86  1  0.822400  0.481400  0.454300  1.0  -1.1037
  O  O87  1  0.376000  0.450200  0.409140  1.0  -0.9187
  O  O88  1  0.002000  0.819200  0.140900  1.0  -0.6757
  O  O89  1  0.197800  0.748800  0.067400  1.0  -0.7329
  O  O90  1  0.459200  0.123000  0.055600  1.0  -0.9761
  O  O91  1  0.177600  0.981400  0.045700  1.0  -1.1026
  O  O92  1  0.624000  0.950200  0.090860  1.0  -0.9173
  O  O93  1  0.998000  0.319200  0.359100  1.0  -0.676
  O  O94  1  0.802200  0.248800  0.432600  1.0  -0.7228
  O  O95  1  0.459200  0.377000  0.555600  1.0  -0.9753
  O  O96  1  0.177600  0.518600  0.545700  1.0  -1.1026
  O  O97  1  0.624000  0.549800  0.590860  1.0  -0.9167
  O  O98  1  0.998000  0.180800  0.859100  1.0  -0.6753
  O  O99  1  0.802200  0.251200  0.932600  1.0  -0.7245
  O  O100  1  0.540800  0.877000  0.944400  1.0  -0.9741
  O  O101  1  0.822400  0.018600  0.954300  1.0  -1.1039
  O  O102  1  0.376000  0.049800  0.909140  1.0  -0.9177
  O  O103  1  0.002000  0.680800  0.640900  1.0  -0.6755
  O  O104  1  0.197800  0.751200  0.567400  1.0  -0.7338
