# generated using pymatgen
data_GdPH11C7NO5
_symmetry_space_group_name_H-M   'P 1'
_cell_length_a   5.51500000
_cell_length_b   13.39300000
_cell_length_c   20.81050000
_cell_angle_alpha   90.00000000
_cell_angle_beta   95.38200000
_cell_angle_gamma   90.00000000
_symmetry_Int_Tables_number   1
_chemical_formula_structural   GdPH11C7NO5
_chemical_formula_sum   'Gd4 P4 H44 C28 N4 O20'
_cell_volume   1530.33697683
_cell_formula_units_Z   4
loop_
 _symmetry_equiv_pos_site_id
 _symmetry_equiv_pos_as_xyz
  1  'x, y, z'
loop_
 _atom_site_type_symbol
 _atom_site_label
 _atom_site_symmetry_multiplicity
 _atom_site_fract_x
 _atom_site_fract_y
 _atom_site_fract_z
 _atom_site_occupancy
 _atom_site_charge
  Gd  Gd1  1  0.872440  0.632550  0.527770  1.0  2.2167
  Gd  Gd2  1  0.127560  0.132550  0.972230  1.0  2.2209
  Gd  Gd3  1  0.127560  0.367450  0.472230  1.0  2.2161
  Gd  Gd4  1  0.872440  0.867450  0.027770  1.0  2.2195
  P  P5  1  0.590700  0.521210  0.414160  1.0  1.5764
  P  P6  1  0.409300  0.021210  0.085840  1.0  1.5772
  P  P7  1  0.409300  0.478790  0.585840  1.0  1.5771
  P  P8  1  0.590700  0.978790  0.914160  1.0  1.5764
  H  H9  1  0.832400  0.582200  0.336700  1.0  0.1305
  H  H10  1  0.743500  0.474500  0.317700  1.0  0.1576
  H  H11  1  0.621200  0.727700  0.299200  1.0  0.043
  H  H12  1  0.409500  0.697000  0.340900  1.0  0.0838
  H  H13  1  0.255500  0.805100  0.255900  1.0  0.0836
  H  H14  1  0.126500  0.700800  0.248500  1.0  0.0752
  H  H15  1  0.518400  0.760000  0.175000  1.0  0.1128
  H  H16  1  0.247300  0.573900  0.167900  1.0  0.0861
  H  H17  1  0.451300  0.598500  0.122400  1.0  0.0937
  H  H18  1  0.625300  0.496900  0.209500  1.0  0.0692
  H  H19  1  0.750000  0.602600  0.214900  1.0  0.0506
  H  H20  1  0.167600  0.082200  0.163300  1.0  0.1304
  H  H21  1  0.256500  0.974500  0.182300  1.0  0.1578
  H  H22  1  0.378800  0.227700  0.200800  1.0  0.0424
  H  H23  1  0.590500  0.197000  0.159100  1.0  0.0848
  H  H24  1  0.744500  0.305100  0.244100  1.0  0.0842
  H  H25  1  0.873500  0.200800  0.251500  1.0  0.0765
  H  H26  1  0.481600  0.260000  0.325000  1.0  0.1127
  H  H27  1  0.752700  0.073900  0.332100  1.0  0.0863
  H  H28  1  0.548700  0.098500  0.377600  1.0  0.0929
  H  H29  1  0.374700  0.996900  0.290500  1.0  0.0693
  H  H30  1  0.250000  0.102600  0.285100  1.0  0.0489
  H  H31  1  0.167600  0.417800  0.663300  1.0  0.1303
  H  H32  1  0.256500  0.525500  0.682300  1.0  0.1572
  H  H33  1  0.378800  0.272300  0.700800  1.0  0.0418
  H  H34  1  0.590500  0.303000  0.659100  1.0  0.084
  H  H35  1  0.744500  0.194900  0.744100  1.0  0.0817
  H  H36  1  0.873500  0.299200  0.751500  1.0  0.0765
  H  H37  1  0.481600  0.240000  0.825000  1.0  0.1126
  H  H38  1  0.752700  0.426100  0.832100  1.0  0.0863
  H  H39  1  0.548700  0.401500  0.877600  1.0  0.0929
  H  H40  1  0.374700  0.503100  0.790500  1.0  0.0703
  H  H41  1  0.250000  0.397400  0.785100  1.0  0.049
  H  H42  1  0.832400  0.917800  0.836700  1.0  0.1309
  H  H43  1  0.743500  0.025500  0.817700  1.0  0.1573
  H  H44  1  0.621200  0.772300  0.799200  1.0  0.0438
  H  H45  1  0.409500  0.803000  0.840900  1.0  0.0839
  H  H46  1  0.255500  0.694900  0.755900  1.0  0.0829
  H  H47  1  0.126500  0.799200  0.748500  1.0  0.0752
  H  H48  1  0.518400  0.740000  0.675000  1.0  0.1121
  H  H49  1  0.247300  0.926100  0.667900  1.0  0.0851
  H  H50  1  0.451300  0.901500  0.622400  1.0  0.0942
  H  H51  1  0.625300  0.003100  0.709500  1.0  0.0705
  H  H52  1  0.750000  0.897400  0.714900  1.0  0.0513
  C  C53  1  0.691100  0.538800  0.332900  1.0  -0.4057
  C  C54  1  0.468900  0.691300  0.298700  1.0  0.0204
  C  C55  1  0.280700  0.735100  0.246700  1.0  -0.1479
  C  C56  1  0.364000  0.724700  0.177600  1.0  -0.1641
  C  C57  1  0.400000  0.608900  0.165200  1.0  -0.1816
  C  C58  1  0.597600  0.567200  0.217200  1.0  0.0414
  C  C59  1  0.171300  0.763900  0.125000  1.0  0.7031
  C  C60  1  0.308900  0.038800  0.167100  1.0  -0.407
  C  C61  1  0.531100  0.191300  0.201300  1.0  0.0203
  C  C62  1  0.719300  0.235100  0.253300  1.0  -0.1482
  C  C63  1  0.636000  0.224700  0.322400  1.0  -0.1637
  C  C64  1  0.600000  0.108900  0.334800  1.0  -0.1736
  C  C65  1  0.402400  0.067200  0.282800  1.0  0.0417
  C  C66  1  0.828700  0.263900  0.375000  1.0  0.7034
  C  C67  1  0.308900  0.461200  0.667100  1.0  -0.4063
  C  C68  1  0.531100  0.308700  0.701300  1.0  0.0205
  C  C69  1  0.719300  0.264900  0.753300  1.0  -0.1489
  C  C70  1  0.636000  0.275300  0.822400  1.0  -0.1625
  C  C71  1  0.600000  0.391100  0.834800  1.0  -0.1743
  C  C72  1  0.402400  0.432800  0.782800  1.0  0.0407
  C  C73  1  0.828700  0.236100  0.875000  1.0  0.7029
  C  C74  1  0.691100  0.961200  0.832900  1.0  -0.4051
  C  C75  1  0.468900  0.808700  0.798700  1.0  0.0206
  C  C76  1  0.280700  0.764900  0.746700  1.0  -0.1479
  C  C77  1  0.364000  0.775300  0.677600  1.0  -0.1634
  C  C78  1  0.400000  0.891100  0.665200  1.0  -0.1822
  C  C79  1  0.597600  0.932800  0.717200  1.0  0.0429
  C  C80  1  0.171300  0.736100  0.625000  1.0  0.7032
  N  N81  1  0.508800  0.581300  0.282500  1.0  -0.2733
  N  N82  1  0.491200  0.081300  0.217500  1.0  -0.2725
  N  N83  1  0.491200  0.418700  0.717500  1.0  -0.2719
  N  N84  1  0.508800  0.918700  0.782500  1.0  -0.2731
  O  O85  1  0.540700  0.622700  0.444400  1.0  -0.9739
  O  O86  1  0.821400  0.480800  0.454800  1.0  -1.0854
  O  O87  1  0.374600  0.450300  0.408780  1.0  -0.9069
  O  O88  1  0.001900  0.819100  0.140800  1.0  -0.6717
  O  O89  1  0.198900  0.748900  0.067700  1.0  -0.7414
  O  O90  1  0.459300  0.122700  0.055600  1.0  -0.9757
  O  O91  1  0.178600  0.980800  0.045200  1.0  -1.0849
  O  O92  1  0.625400  0.950300  0.091220  1.0  -0.9062
  O  O93  1  0.998100  0.319100  0.359200  1.0  -0.6723
  O  O94  1  0.801100  0.248900  0.432300  1.0  -0.7377
  O  O95  1  0.459300  0.377300  0.555600  1.0  -0.9752
  O  O96  1  0.178600  0.519200  0.545200  1.0  -1.0848
  O  O97  1  0.625400  0.549700  0.591220  1.0  -0.9056
  O  O98  1  0.998100  0.180900  0.859200  1.0  -0.6716
  O  O99  1  0.801100  0.251100  0.932300  1.0  -0.7384
  O  O100  1  0.540700  0.877300  0.944400  1.0  -0.9741
  O  O101  1  0.821400  0.019200  0.954800  1.0  -1.0856
  O  O102  1  0.374600  0.049700  0.908780  1.0  -0.9061
  O  O103  1  0.001900  0.680900  0.640800  1.0  -0.6714
  O  O104  1  0.198900  0.751100  0.567700  1.0  -0.7414
