# generated using pymatgen
data_EuPH11C7NO5
_symmetry_space_group_name_H-M   'P 1'
_cell_length_a   5.55200000
_cell_length_b   13.36860000
_cell_length_c   20.79700000
_cell_angle_alpha   90.00000000
_cell_angle_beta   95.57700000
_cell_angle_gamma   90.00000000
_symmetry_Int_Tables_number   1
_chemical_formula_structural   EuPH11C7NO5
_chemical_formula_sum   'Eu4 P4 H44 C28 N4 O20'
_cell_volume   1536.29798552
_cell_formula_units_Z   4
loop_
 _symmetry_equiv_pos_site_id
 _symmetry_equiv_pos_as_xyz
  1  'x, y, z'
loop_
 _atom_site_type_symbol
 _atom_site_label
 _atom_site_symmetry_multiplicity
 _atom_site_fract_x
 _atom_site_fract_y
 _atom_site_fract_z
 _atom_site_occupancy
 _atom_site_charge
  Eu  Eu1  1  0.872350  0.632670  0.527820  1.0  2.1898
  Eu  Eu2  1  0.127650  0.132670  0.972180  1.0  2.1937
  Eu  Eu3  1  0.127650  0.367330  0.472180  1.0  2.191
  Eu  Eu4  1  0.872350  0.867330  0.027820  1.0  2.1915
  P  P5  1  0.589900  0.520880  0.413950  1.0  1.5315
  P  P6  1  0.410100  0.020880  0.086050  1.0  1.532
  P  P7  1  0.410100  0.479120  0.586050  1.0  1.5319
  P  P8  1  0.589900  0.979120  0.913950  1.0  1.5314
  H  H9  1  0.834500  0.580100  0.336700  1.0  0.1314
  H  H10  1  0.740400  0.473000  0.317300  1.0  0.1716
  H  H11  1  0.621900  0.728600  0.298600  1.0  0.0568
  H  H12  1  0.414500  0.698800  0.341300  1.0  0.0989
  H  H13  1  0.125400  0.701300  0.248600  1.0  0.0871
  H  H14  1  0.253400  0.806000  0.254800  1.0  0.08
  H  H15  1  0.514800  0.758500  0.175500  1.0  0.1153
  H  H16  1  0.451600  0.599900  0.122400  1.0  0.0921
  H  H17  1  0.248700  0.573500  0.167400  1.0  0.0895
  H  H18  1  0.625400  0.497800  0.209900  1.0  0.0748
  H  H19  1  0.747900  0.604000  0.215200  1.0  0.0569
  H  H20  1  0.165500  0.080100  0.163300  1.0  0.1318
  H  H21  1  0.259600  0.973000  0.182700  1.0  0.172
  H  H22  1  0.378100  0.228600  0.201400  1.0  0.056
  H  H23  1  0.585500  0.198800  0.158700  1.0  0.0989
  H  H24  1  0.874600  0.201300  0.251400  1.0  0.0896
  H  H25  1  0.746600  0.306000  0.245200  1.0  0.0802
  H  H26  1  0.485200  0.258500  0.324500  1.0  0.1157
  H  H27  1  0.548400  0.099900  0.377600  1.0  0.0918
  H  H28  1  0.751300  0.073500  0.332600  1.0  0.0891
  H  H29  1  0.374600  0.997800  0.290100  1.0  0.075
  H  H30  1  0.252100  0.104000  0.284800  1.0  0.0545
  H  H31  1  0.165500  0.419900  0.663300  1.0  0.1324
  H  H32  1  0.259600  0.527000  0.682700  1.0  0.1713
  H  H33  1  0.378100  0.271400  0.701400  1.0  0.0565
  H  H34  1  0.585500  0.301200  0.658700  1.0  0.0984
  H  H35  1  0.874600  0.298700  0.751400  1.0  0.0898
  H  H36  1  0.746600  0.194000  0.745200  1.0  0.0781
  H  H37  1  0.485200  0.241500  0.824500  1.0  0.1158
  H  H38  1  0.548400  0.400100  0.877600  1.0  0.0916
  H  H39  1  0.751300  0.426500  0.832600  1.0  0.0886
  H  H40  1  0.374600  0.502200  0.790100  1.0  0.0764
  H  H41  1  0.252100  0.396000  0.784800  1.0  0.0543
  H  H42  1  0.834500  0.919900  0.836700  1.0  0.1317
  H  H43  1  0.740400  0.027000  0.817300  1.0  0.1714
  H  H44  1  0.621900  0.771400  0.798600  1.0  0.057
  H  H45  1  0.414500  0.801200  0.841300  1.0  0.0987
  H  H46  1  0.125400  0.798700  0.748600  1.0  0.0875
  H  H47  1  0.253400  0.694000  0.754800  1.0  0.08
  H  H48  1  0.514800  0.741500  0.675500  1.0  0.1149
  H  H49  1  0.451600  0.900100  0.622400  1.0  0.0928
  H  H50  1  0.248700  0.926500  0.667400  1.0  0.0884
  H  H51  1  0.625400  0.002200  0.709900  1.0  0.0767
  H  H52  1  0.747900  0.896000  0.715200  1.0  0.0574
  C  C53  1  0.692200  0.537700  0.332800  1.0  -0.4155
  C  C54  1  0.470900  0.692200  0.298800  1.0  -0.0008
  C  C55  1  0.278300  0.735600  0.246400  1.0  -0.1338
  C  C56  1  0.361500  0.723000  0.177900  1.0  -0.1484
  C  C57  1  0.399600  0.609400  0.165100  1.0  -0.1552
  C  C58  1  0.596900  0.568200  0.217500  1.0  0.0272
  C  C59  1  0.170400  0.764200  0.125100  1.0  0.6986
  C  C60  1  0.307800  0.037700  0.167200  1.0  -0.4169
  C  C61  1  0.529100  0.192200  0.201200  1.0  -0.0004
  C  C62  1  0.721700  0.235600  0.253600  1.0  -0.1333
  C  C63  1  0.638500  0.223000  0.322100  1.0  -0.1486
  C  C64  1  0.600400  0.109400  0.334900  1.0  -0.1521
  C  C65  1  0.403100  0.068200  0.282500  1.0  0.0287
  C  C66  1  0.829600  0.264200  0.374900  1.0  0.6991
  C  C67  1  0.307800  0.462300  0.667200  1.0  -0.4166
  C  C68  1  0.529100  0.307800  0.701200  1.0  -0.0005
  C  C69  1  0.721700  0.264400  0.753600  1.0  -0.134
  C  C70  1  0.638500  0.277000  0.822100  1.0  -0.1481
  C  C71  1  0.600400  0.390600  0.834900  1.0  -0.152
  C  C72  1  0.403100  0.431800  0.782500  1.0  0.0271
  C  C73  1  0.829600  0.235800  0.874900  1.0  0.6985
  C  C74  1  0.692200  0.962300  0.832800  1.0  -0.4152
  C  C75  1  0.470900  0.807800  0.798800  1.0  -0.0005
  C  C76  1  0.278300  0.764400  0.746400  1.0  -0.1336
  C  C77  1  0.361500  0.777000  0.677900  1.0  -0.1482
  C  C78  1  0.399600  0.890600  0.665100  1.0  -0.1551
  C  C79  1  0.596900  0.931800  0.717500  1.0  0.0285
  C  C80  1  0.170400  0.735800  0.625100  1.0  0.6987
  N  N81  1  0.509500  0.582200  0.283400  1.0  -0.2617
  N  N82  1  0.490500  0.082200  0.216600  1.0  -0.2599
  N  N83  1  0.490500  0.417800  0.716600  1.0  -0.2584
  N  N84  1  0.509500  0.917800  0.783400  1.0  -0.2607
  O  O85  1  0.540800  0.623000  0.444400  1.0  -0.9704
  O  O86  1  0.822400  0.481400  0.454300  1.0  -1.0927
  O  O87  1  0.376000  0.450200  0.409100  1.0  -0.911
  O  O88  1  0.002000  0.819200  0.140900  1.0  -0.6697
  O  O89  1  0.197800  0.748800  0.067400  1.0  -0.7503
  O  O90  1  0.459200  0.123000  0.055600  1.0  -0.9727
  O  O91  1  0.177600  0.981400  0.045700  1.0  -1.0917
  O  O92  1  0.624000  0.950200  0.090900  1.0  -0.91
  O  O93  1  0.998000  0.319200  0.359100  1.0  -0.6708
  O  O94  1  0.802200  0.248800  0.432600  1.0  -0.7438
  O  O95  1  0.459200  0.377000  0.555600  1.0  -0.972
  O  O96  1  0.177600  0.518600  0.545700  1.0  -1.0919
  O  O97  1  0.624000  0.549800  0.590900  1.0  -0.9095
  O  O98  1  0.998000  0.180800  0.859100  1.0  -0.6706
  O  O99  1  0.802200  0.251200  0.932600  1.0  -0.7452
  O  O100  1  0.540800  0.877000  0.944400  1.0  -0.9704
  O  O101  1  0.822400  0.018600  0.954300  1.0  -1.093
  O  O102  1  0.376000  0.049800  0.909100  1.0  -0.9107
  O  O103  1  0.002000  0.680800  0.640900  1.0  -0.6702
  O  O104  1  0.197800  0.751200  0.567400  1.0  -0.7512
