# generated using pymatgen
data_DyPH11C7NO5
_symmetry_space_group_name_H-M   'P 1'
_cell_length_a   5.52860000
_cell_length_b   13.31400000
_cell_length_c   20.59900000
_cell_angle_alpha   90.00000000
_cell_angle_beta   95.24400000
_cell_angle_gamma   90.00000000
_symmetry_Int_Tables_number   1
_chemical_formula_structural   DyPH11C7NO5
_chemical_formula_sum   'Dy4 P4 H44 C28 N4 O20'
_cell_volume   1509.90042431
_cell_formula_units_Z   4
loop_
 _symmetry_equiv_pos_site_id
 _symmetry_equiv_pos_as_xyz
  1  'x, y, z'
loop_
 _atom_site_type_symbol
 _atom_site_label
 _atom_site_symmetry_multiplicity
 _atom_site_fract_x
 _atom_site_fract_y
 _atom_site_fract_z
 _atom_site_occupancy
 _atom_site_charge
  Dy  Dy1  1  0.872350  0.632670  0.527820  1.0  2.3108
  Dy  Dy2  1  0.127650  0.132670  0.972180  1.0  2.3139
  Dy  Dy3  1  0.127650  0.367330  0.472180  1.0  2.3119
  Dy  Dy4  1  0.872350  0.867330  0.027820  1.0  2.3131
  P  P5  1  0.589900  0.520900  0.413950  1.0  1.6187
  P  P6  1  0.410100  0.020900  0.086050  1.0  1.6191
  P  P7  1  0.410100  0.479100  0.586050  1.0  1.6191
  P  P8  1  0.589900  0.979100  0.913950  1.0  1.6187
  H  H9  1  0.834900  0.580400  0.336600  1.0  0.1249
  H  H10  1  0.740800  0.472700  0.317100  1.0  0.1597
  H  H11  1  0.622500  0.728700  0.298300  1.0  0.0407
  H  H12  1  0.414400  0.698900  0.341800  1.0  0.0828
  H  H13  1  0.124900  0.701100  0.248800  1.0  0.0699
  H  H14  1  0.253300  0.806300  0.254900  1.0  0.0773
  H  H15  1  0.515300  0.758700  0.175300  1.0  0.0969
  H  H16  1  0.451700  0.599700  0.121900  1.0  0.0844
  H  H17  1  0.248200  0.573400  0.167700  1.0  0.0787
  H  H18  1  0.625500  0.497500  0.209800  1.0  0.0634
  H  H19  1  0.748400  0.604100  0.215000  1.0  0.0448
  H  H20  1  0.165100  0.080400  0.163400  1.0  0.1247
  H  H21  1  0.259200  0.972700  0.182900  1.0  0.1597
  H  H22  1  0.377500  0.228700  0.201700  1.0  0.0408
  H  H23  1  0.585600  0.198900  0.158200  1.0  0.0843
  H  H24  1  0.875100  0.201100  0.251200  1.0  0.0714
  H  H25  1  0.746700  0.306300  0.245100  1.0  0.0779
  H  H26  1  0.484700  0.258700  0.324700  1.0  0.0973
  H  H27  1  0.548300  0.099700  0.378100  1.0  0.0843
  H  H28  1  0.751800  0.073400  0.332300  1.0  0.0797
  H  H29  1  0.374500  0.997500  0.290200  1.0  0.0637
  H  H30  1  0.251600  0.104100  0.285000  1.0  0.0433
  H  H31  1  0.165100  0.419600  0.663400  1.0  0.1247
  H  H32  1  0.259200  0.527300  0.682900  1.0  0.159
  H  H33  1  0.377500  0.271300  0.701700  1.0  0.0397
  H  H34  1  0.585600  0.301100  0.658200  1.0  0.0833
  H  H35  1  0.875100  0.298900  0.751200  1.0  0.0716
  H  H36  1  0.746700  0.193700  0.745100  1.0  0.0764
  H  H37  1  0.484700  0.241300  0.824700  1.0  0.0974
  H  H38  1  0.548300  0.400300  0.878100  1.0  0.0843
  H  H39  1  0.751800  0.426600  0.832300  1.0  0.0791
  H  H40  1  0.374500  0.502500  0.790200  1.0  0.065
  H  H41  1  0.251600  0.395900  0.785000  1.0  0.0434
  H  H42  1  0.834900  0.919600  0.836600  1.0  0.1253
  H  H43  1  0.740800  0.027300  0.817100  1.0  0.1591
  H  H44  1  0.622500  0.771300  0.798300  1.0  0.0402
  H  H45  1  0.414400  0.801100  0.841800  1.0  0.0826
  H  H46  1  0.124900  0.798900  0.748800  1.0  0.0701
  H  H47  1  0.253300  0.693700  0.754900  1.0  0.0777
  H  H48  1  0.515300  0.741300  0.675300  1.0  0.0962
  H  H49  1  0.451700  0.900300  0.621900  1.0  0.0848
  H  H50  1  0.248200  0.926600  0.667700  1.0  0.0778
  H  H51  1  0.625500  0.002500  0.709800  1.0  0.0652
  H  H52  1  0.748400  0.895900  0.715000  1.0  0.0452
  C  C53  1  0.692200  0.537700  0.332800  1.0  -0.4169
  C  C54  1  0.471000  0.692200  0.298800  1.0  0.02
  C  C55  1  0.278000  0.735600  0.246400  1.0  -0.1559
  C  C56  1  0.361000  0.723000  0.177900  1.0  -0.1589
  C  C57  1  0.400000  0.609400  0.165100  1.0  -0.1585
  C  C58  1  0.597000  0.568200  0.217500  1.0  0.0281
  C  C59  1  0.170400  0.764200  0.125100  1.0  0.705
  C  C60  1  0.307800  0.037700  0.167200  1.0  -0.418
  C  C61  1  0.529000  0.192200  0.201200  1.0  0.0203
  C  C62  1  0.722000  0.235600  0.253600  1.0  -0.1563
  C  C63  1  0.639000  0.223000  0.322100  1.0  -0.1595
  C  C64  1  0.600000  0.109400  0.334900  1.0  -0.1566
  C  C65  1  0.403000  0.068200  0.282500  1.0  0.03
  C  C66  1  0.829600  0.264200  0.374900  1.0  0.7054
  C  C67  1  0.307800  0.462300  0.667200  1.0  -0.4175
  C  C68  1  0.529000  0.307800  0.701200  1.0  0.0204
  C  C69  1  0.722000  0.264400  0.753600  1.0  -0.1565
  C  C70  1  0.639000  0.277000  0.822100  1.0  -0.1589
  C  C71  1  0.600000  0.390600  0.834900  1.0  -0.1564
  C  C72  1  0.403000  0.431800  0.782500  1.0  0.0294
  C  C73  1  0.829600  0.235800  0.874900  1.0  0.7049
  C  C74  1  0.692200  0.962300  0.832800  1.0  -0.4164
  C  C75  1  0.471000  0.807800  0.798800  1.0  0.02
  C  C76  1  0.278000  0.764400  0.746400  1.0  -0.1555
  C  C77  1  0.361000  0.777000  0.677900  1.0  -0.1586
  C  C78  1  0.400000  0.890600  0.665100  1.0  -0.1583
  C  C79  1  0.597000  0.931800  0.717500  1.0  0.0309
  C  C80  1  0.170400  0.735800  0.625100  1.0  0.7053
  N  N81  1  0.509500  0.582200  0.283400  1.0  -0.2716
  N  N82  1  0.490500  0.082200  0.216600  1.0  -0.2707
  N  N83  1  0.490500  0.417800  0.716600  1.0  -0.2697
  N  N84  1  0.509500  0.917800  0.783400  1.0  -0.2711
  O  O85  1  0.540800  0.623000  0.444400  1.0  -0.9889
  O  O86  1  0.822400  0.481400  0.454300  1.0  -1.1178
  O  O87  1  0.376000  0.450200  0.409100  1.0  -0.9224
  O  O88  1  0.002000  0.819200  0.140900  1.0  -0.6836
  O  O89  1  0.197800  0.748800  0.067400  1.0  -0.7454
  O  O90  1  0.459200  0.123000  0.055600  1.0  -0.9903
  O  O91  1  0.177600  0.981400  0.045700  1.0  -1.1171
  O  O92  1  0.624000  0.950200  0.090900  1.0  -0.9211
  O  O93  1  0.998000  0.319200  0.359100  1.0  -0.6836
  O  O94  1  0.802200  0.248800  0.432600  1.0  -0.73
  O  O95  1  0.459200  0.377000  0.555600  1.0  -0.9896
  O  O96  1  0.177600  0.518600  0.545700  1.0  -1.1171
  O  O97  1  0.624000  0.549800  0.590900  1.0  -0.9205
  O  O98  1  0.998000  0.180800  0.859100  1.0  -0.683
  O  O99  1  0.802200  0.251200  0.932600  1.0  -0.7326
  O  O100  1  0.540800  0.877000  0.944400  1.0  -0.9887
  O  O101  1  0.822400  0.018600  0.954300  1.0  -1.118
  O  O102  1  0.376000  0.049800  0.909100  1.0  -0.9217
  O  O103  1  0.002000  0.680800  0.640900  1.0  -0.6833
  O  O104  1  0.197800  0.751200  0.567400  1.0  -0.7475
