# generated using pymatgen
data_RbFe(CN)6
_symmetry_space_group_name_H-M   'P 1'
_cell_length_a   8.86700000
_cell_length_b   8.86700000
_cell_length_c   21.49900000
_cell_angle_alpha   90.00000000
_cell_angle_beta   90.00000000
_cell_angle_gamma   120.00000000
_symmetry_Int_Tables_number   1
_chemical_formula_structural   RbFe(CN)6
_chemical_formula_sum   'Rb3 Fe3 C18 N18'
_cell_volume   1463.86931817
_cell_formula_units_Z   3
loop_
 _symmetry_equiv_pos_site_id
 _symmetry_equiv_pos_as_xyz
  1  'x, y, z'
loop_
 _atom_site_type_symbol
 _atom_site_label
 _atom_site_symmetry_multiplicity
 _atom_site_fract_x
 _atom_site_fract_y
 _atom_site_fract_z
 _atom_site_occupancy
 _atom_site_charge
  Rb  Rb1  1  0.000000  0.000000  0.500000  1.0  1.0108
  Rb  Rb2  1  0.666667  0.333333  0.833330  1.0  1.01
  Rb  Rb3  1  0.333333  0.666667  0.166670  1.0  1.0097
  Fe  Fe4  1  0.333333  0.666667  0.666667  1.0  -0.247
  Fe  Fe5  1  0.000000  0.000000  0.000000  1.0  -0.2432
  Fe  Fe6  1  0.666667  0.333333  0.333333  1.0  -0.246
  C  C7  1  0.229300  0.770700  0.615000  1.0  0.2835
  C  C8  1  0.895970  0.104030  0.948330  1.0  0.2831
  C  C9  1  0.562630  0.437370  0.281670  1.0  0.2835
  C  C10  1  0.229300  0.458600  0.615000  1.0  0.2828
  C  C11  1  0.895970  0.791930  0.948330  1.0  0.2772
  C  C12  1  0.562630  0.125270  0.281670  1.0  0.2828
  C  C13  1  0.541400  0.770700  0.615000  1.0  0.2835
  C  C14  1  0.208070  0.104030  0.948330  1.0  0.2773
  C  C15  1  0.874730  0.437370  0.281670  1.0  0.2835
  C  C16  1  0.770700  0.229300  0.385000  1.0  0.2836
  C  C17  1  0.437370  0.562630  0.718330  1.0  0.2836
  C  C18  1  0.104030  0.895970  0.051670  1.0  0.2828
  C  C19  1  0.458600  0.229300  0.385000  1.0  0.2815
  C  C20  1  0.125270  0.562630  0.718330  1.0  0.2815
  C  C21  1  0.791930  0.895970  0.051670  1.0  0.2759
  C  C22  1  0.770700  0.541400  0.385000  1.0  0.2788
  C  C23  1  0.437370  0.874730  0.718330  1.0  0.2788
  C  C24  1  0.104030  0.208070  0.051670  1.0  0.2733
  N  N25  1  0.170300  0.829700  0.585400  1.0  -0.4077
  N  N26  1  0.836970  0.163030  0.918730  1.0  -0.4085
  N  N27  1  0.503630  0.496370  0.252070  1.0  -0.4017
  N  N28  1  0.170300  0.340600  0.585400  1.0  -0.411
  N  N29  1  0.836970  0.673930  0.918730  1.0  -0.4042
  N  N30  1  0.503630  0.007270  0.252070  1.0  -0.4109
  N  N31  1  0.659400  0.829700  0.585400  1.0  -0.4116
  N  N32  1  0.326070  0.163030  0.918730  1.0  -0.4048
  N  N33  1  0.992730  0.496370  0.252070  1.0  -0.4116
  N  N34  1  0.829700  0.170300  0.414600  1.0  -0.4087
  N  N35  1  0.496370  0.503630  0.747930  1.0  -0.4032
  N  N36  1  0.163030  0.836970  0.081270  1.0  -0.4102
  N  N37  1  0.340600  0.170300  0.414600  1.0  -0.4105
  N  N38  1  0.007270  0.503630  0.747930  1.0  -0.4104
  N  N39  1  0.673930  0.836970  0.081270  1.0  -0.4036
  N  N40  1  0.829700  0.659400  0.414600  1.0  -0.4131
  N  N41  1  0.496370  0.992730  0.747930  1.0  -0.4131
  N  N42  1  0.163030  0.326070  0.081270  1.0  -0.4062
