# generated using pymatgen
data_ZnH3C7NO4
_symmetry_space_group_name_H-M   'P 1'
_cell_length_a   10.82850000
_cell_length_b   11.19330000
_cell_length_c   14.79900000
_cell_angle_alpha   90.00000000
_cell_angle_beta   90.00000000
_cell_angle_gamma   90.00000000
_symmetry_Int_Tables_number   1
_chemical_formula_structural   ZnH3C7NO4
_chemical_formula_sum   'Zn4 H12 C28 N4 O16'
_cell_volume   1793.73719929
_cell_formula_units_Z   4
loop_
 _symmetry_equiv_pos_site_id
 _symmetry_equiv_pos_as_xyz
  1  'x, y, z'
loop_
 _atom_site_type_symbol
 _atom_site_label
 _atom_site_symmetry_multiplicity
 _atom_site_fract_x
 _atom_site_fract_y
 _atom_site_fract_z
 _atom_site_occupancy
 _atom_site_charge
  Zn  Zn1  1  0.342790  0.815770  0.158400  1.0  0.9016
  Zn  Zn2  1  0.157210  0.184230  0.658400  1.0  0.9035
  Zn  Zn3  1  0.657210  0.315770  0.341600  1.0  0.9002
  Zn  Zn4  1  0.842790  0.684230  0.841600  1.0  0.9017
  H  H5  1  0.522000  0.536300  0.298800  1.0  0.0979
  H  H6  1  0.438600  0.273900  0.466700  1.0  0.0991
  H  H7  1  0.188500  0.534500  0.420100  1.0  0.1107
  H  H8  1  0.978000  0.463700  0.798800  1.0  0.0974
  H  H9  1  0.061400  0.726100  0.966700  1.0  0.0995
  H  H10  1  0.311500  0.465500  0.920100  1.0  0.1108
  H  H11  1  0.478000  0.036300  0.201200  1.0  0.0966
  H  H12  1  0.561400  0.773900  0.033300  1.0  0.0991
  H  H13  1  0.811500  0.034500  0.079900  1.0  0.111
  H  H14  1  0.022000  0.963700  0.701200  1.0  0.0961
  H  H15  1  0.938600  0.226100  0.533300  1.0  0.0992
  H  H16  1  0.688500  0.965500  0.579900  1.0  0.1107
  C  C17  1  0.464360  0.499090  0.338160  1.0  0.1606
  C  C18  1  0.416040  0.346010  0.437040  1.0  0.1884
  C  C19  1  0.301050  0.394900  0.454140  1.0  -0.1765
  C  C20  1  0.267200  0.499500  0.409800  1.0  0.0116
  C  C21  1  0.350200  0.551790  0.350450  1.0  -0.1739
  C  C22  1  0.212000  0.335600  0.518740  1.0  0.6882
  C  C23  1  0.315800  0.660900  0.296020  1.0  0.6292
  C  C24  1  0.035640  0.500910  0.838160  1.0  0.1625
  C  C25  1  0.083960  0.653990  0.937040  1.0  0.1887
  C  C26  1  0.198950  0.605100  0.954140  1.0  -0.1758
  C  C27  1  0.232800  0.500500  0.909800  1.0  0.0127
  C  C28  1  0.149800  0.448210  0.850450  1.0  -0.1742
  C  C29  1  0.288000  0.664400  0.018740  1.0  0.688
  C  C30  1  0.184200  0.339100  0.796020  1.0  0.6287
  C  C31  1  0.535640  0.999090  0.161840  1.0  0.1625
  C  C32  1  0.583960  0.846010  0.062960  1.0  0.1882
  C  C33  1  0.698950  0.894900  0.045860  1.0  -0.1767
  C  C34  1  0.732800  0.999500  0.090200  1.0  0.0129
  C  C35  1  0.649800  0.051790  0.149550  1.0  -0.174
  C  C36  1  0.788000  0.835600  0.981260  1.0  0.687
  C  C37  1  0.684200  0.160900  0.203980  1.0  0.6289
  C  C38  1  0.964360  0.000910  0.661840  1.0  0.1608
  C  C39  1  0.916040  0.153990  0.562960  1.0  0.1895
  C  C40  1  0.801050  0.105100  0.545860  1.0  -0.1769
  C  C41  1  0.767200  0.000500  0.590200  1.0  0.0123
  C  C42  1  0.850200  0.948210  0.649550  1.0  -0.1739
  C  C43  1  0.712000  0.164400  0.481260  1.0  0.6878
  C  C44  1  0.815800  0.839100  0.703980  1.0  0.63
  N  N45  1  0.497010  0.396890  0.379970  1.0  -0.3683
  N  N46  1  0.002990  0.603110  0.879970  1.0  -0.3603
  N  N47  1  0.502990  0.896890  0.120030  1.0  -0.3623
  N  N48  1  0.997010  0.103110  0.620030  1.0  -0.368
  O  O49  1  0.260050  0.247180  0.562380  1.0  -0.6157
  O  O50  1  0.106020  0.370470  0.524900  1.0  -0.46
  O  O51  1  0.403040  0.703870  0.247900  1.0  -0.5985
  O  O52  1  0.210250  0.698360  0.298720  1.0  -0.4988
  O  O53  1  0.239950  0.752820  0.062380  1.0  -0.6167
  O  O54  1  0.393980  0.629530  0.024900  1.0  -0.4603
  O  O55  1  0.096960  0.296130  0.747900  1.0  -0.597
  O  O56  1  0.289750  0.301640  0.798720  1.0  -0.4987
  O  O57  1  0.739950  0.747180  0.937620  1.0  -0.6157
  O  O58  1  0.893980  0.870470  0.975100  1.0  -0.4599
  O  O59  1  0.596960  0.203870  0.252100  1.0  -0.5989
  O  O60  1  0.789750  0.198360  0.201280  1.0  -0.4963
  O  O61  1  0.760050  0.252820  0.437620  1.0  -0.6179
  O  O62  1  0.606020  0.129530  0.475100  1.0  -0.4606
  O  O63  1  0.903040  0.796130  0.752100  1.0  -0.5994
  O  O64  1  0.710250  0.801640  0.701280  1.0  -0.4987
