# generated using pymatgen
data_Zn8H12C24N12O11
_symmetry_space_group_name_H-M   'P 1'
_cell_length_a   20.16190000
_cell_length_b   20.16190000
_cell_length_c   20.16190000
_cell_angle_alpha   90.00000000
_cell_angle_beta   90.00000000
_cell_angle_gamma   90.00000000
_symmetry_Int_Tables_number   1
_chemical_formula_structural   Zn8H12C24N12O11
_chemical_formula_sum   'Zn32 H48 C96 N48 O44'
_cell_volume   8195.85694026
_cell_formula_units_Z   4
loop_
 _symmetry_equiv_pos_site_id
 _symmetry_equiv_pos_as_xyz
  1  'x, y, z'
loop_
 _atom_site_type_symbol
 _atom_site_label
 _atom_site_symmetry_multiplicity
 _atom_site_fract_x
 _atom_site_fract_y
 _atom_site_fract_z
 _atom_site_occupancy
 _atom_site_charge
  Zn  Zn1  1  0.190080  0.809830  0.195820  1.0  0.8993
  Zn  Zn2  1  0.304040  0.692290  0.809180  1.0  0.9183
  Zn  Zn3  1  0.309920  0.190170  0.695820  1.0  0.9002
  Zn  Zn4  1  0.195960  0.307710  0.309180  1.0  0.9178
  Zn  Zn5  1  0.809920  0.309830  0.304180  1.0  0.9016
  Zn  Zn6  1  0.695960  0.192290  0.690820  1.0  0.916
  Zn  Zn7  1  0.690080  0.690170  0.804180  1.0  0.9013
  Zn  Zn8  1  0.804040  0.807710  0.190820  1.0  0.9173
  Zn  Zn9  1  0.195820  0.190080  0.809830  1.0  0.9016
  Zn  Zn10  1  0.809180  0.304040  0.692290  1.0  0.9187
  Zn  Zn11  1  0.695820  0.309920  0.190170  1.0  0.8993
  Zn  Zn12  1  0.309180  0.195960  0.307710  1.0  0.918
  Zn  Zn13  1  0.304180  0.809920  0.309830  1.0  0.9008
  Zn  Zn14  1  0.690820  0.695960  0.192290  1.0  0.9184
  Zn  Zn15  1  0.804180  0.690080  0.690170  1.0  0.9
  Zn  Zn16  1  0.190820  0.804040  0.807710  1.0  0.9176
  Zn  Zn17  1  0.809830  0.195820  0.190080  1.0  0.8999
  Zn  Zn18  1  0.692290  0.809180  0.304040  1.0  0.9164
  Zn  Zn19  1  0.190170  0.695820  0.309920  1.0  0.901
  Zn  Zn20  1  0.307710  0.309180  0.195960  1.0  0.9178
  Zn  Zn21  1  0.309830  0.304180  0.809920  1.0  0.901
  Zn  Zn22  1  0.192290  0.690820  0.695960  1.0  0.9168
  Zn  Zn23  1  0.690170  0.804180  0.690080  1.0  0.8986
  Zn  Zn24  1  0.807710  0.190820  0.804040  1.0  0.9172
  Zn  Zn25  1  0.300800  0.699200  0.199200  1.0  0.8585
  Zn  Zn26  1  0.199200  0.300800  0.699200  1.0  0.8603
  Zn  Zn27  1  0.699200  0.199200  0.300800  1.0  0.8603
  Zn  Zn28  1  0.800800  0.800800  0.800800  1.0  0.8602
  Zn  Zn29  1  0.196620  0.196620  0.196620  1.0  0.9623
  Zn  Zn30  1  0.303380  0.803380  0.696620  1.0  0.9627
  Zn  Zn31  1  0.803380  0.696620  0.303380  1.0  0.9621
  Zn  Zn32  1  0.696620  0.303380  0.803380  1.0  0.963
  H  H33  1  0.328000  0.691900  0.036400  1.0  0.0743
  H  H34  1  0.179000  0.818200  0.020000  1.0  0.0848
  H  H35  1  0.186400  0.980000  0.178000  1.0  0.0653
  H  H36  1  0.329900  0.974500  0.310100  1.0  0.0491
  H  H37  1  0.172000  0.308100  0.536400  1.0  0.0739
  H  H38  1  0.321000  0.181800  0.520000  1.0  0.0836
  H  H39  1  0.313600  0.020000  0.678000  1.0  0.0658
  H  H40  1  0.170100  0.025500  0.810100  1.0  0.0488
  H  H41  1  0.672000  0.191900  0.463600  1.0  0.0736
  H  H42  1  0.821000  0.318200  0.480000  1.0  0.0835
  H  H43  1  0.813600  0.480000  0.322000  1.0  0.0662
  H  H44  1  0.670100  0.474500  0.189900  1.0  0.0485
  H  H45  1  0.828000  0.808100  0.963600  1.0  0.0738
  H  H46  1  0.679000  0.681800  0.980000  1.0  0.0846
  H  H47  1  0.686400  0.520000  0.822000  1.0  0.066
  H  H48  1  0.829900  0.525500  0.689900  1.0  0.048
  H  H49  1  0.036400  0.328000  0.691900  1.0  0.0753
  H  H50  1  0.020000  0.179000  0.818200  1.0  0.0855
  H  H51  1  0.178000  0.186400  0.980000  1.0  0.0656
  H  H52  1  0.310100  0.329900  0.974500  1.0  0.0482
  H  H53  1  0.536400  0.172000  0.308100  1.0  0.0753
  H  H54  1  0.520000  0.321000  0.181800  1.0  0.0847
  H  H55  1  0.678000  0.313600  0.020000  1.0  0.0658
  H  H56  1  0.810100  0.170100  0.025500  1.0  0.0477
  H  H57  1  0.463600  0.672000  0.191900  1.0  0.0744
  H  H58  1  0.480000  0.821000  0.318200  1.0  0.084
  H  H59  1  0.322000  0.813600  0.480000  1.0  0.0659
  H  H60  1  0.189900  0.670100  0.474500  1.0  0.0485
  H  H61  1  0.963600  0.828000  0.808100  1.0  0.0746
  H  H62  1  0.980000  0.679000  0.681800  1.0  0.0846
  H  H63  1  0.822000  0.686400  0.520000  1.0  0.0652
  H  H64  1  0.689900  0.829900  0.525500  1.0  0.0484
  H  H65  1  0.691900  0.036400  0.328000  1.0  0.0725
  H  H66  1  0.818200  0.020000  0.179000  1.0  0.0845
  H  H67  1  0.980000  0.178000  0.186400  1.0  0.0655
  H  H68  1  0.974500  0.310100  0.329900  1.0  0.0476
  H  H69  1  0.308100  0.536400  0.172000  1.0  0.0729
  H  H70  1  0.181800  0.520000  0.321000  1.0  0.0848
  H  H71  1  0.020000  0.678000  0.313600  1.0  0.0662
  H  H72  1  0.025500  0.810100  0.170100  1.0  0.047
  H  H73  1  0.191900  0.463600  0.672000  1.0  0.0727
  H  H74  1  0.318200  0.480000  0.821000  1.0  0.0834
  H  H75  1  0.480000  0.322000  0.813600  1.0  0.0667
  H  H76  1  0.474500  0.189900  0.670100  1.0  0.0469
  H  H77  1  0.808100  0.963600  0.828000  1.0  0.0722
  H  H78  1  0.681800  0.980000  0.679000  1.0  0.0843
  H  H79  1  0.520000  0.822000  0.686400  1.0  0.066
  H  H80  1  0.525500  0.689900  0.829900  1.0  0.0482
  C  C81  1  0.292900  0.721500  0.047200  1.0  -0.033
  C  C82  1  0.212100  0.790000  0.038300  1.0  0.0047
  C  C83  1  0.255200  0.753900  0.004200  1.0  0.0437
  C  C84  1  0.210000  0.959700  0.213400  1.0  0.1886
  C  C85  1  0.290800  0.958500  0.289300  1.0  0.2064
  C  C86  1  0.257700  0.735900  0.932700  1.0  0.1992
  C  C87  1  0.249700  0.002700  0.260300  1.0  -0.1563
  C  C88  1  0.250600  0.081200  0.264200  1.0  0.6542
  C  C89  1  0.207100  0.278500  0.547200  1.0  -0.0329
  C  C90  1  0.287900  0.210000  0.538300  1.0  0.0055
  C  C91  1  0.244800  0.246100  0.504200  1.0  0.043
  C  C92  1  0.290000  0.040300  0.713400  1.0  0.191
  C  C93  1  0.209200  0.041500  0.789300  1.0  0.2037
  C  C94  1  0.242300  0.264100  0.432700  1.0  0.1988
  C  C95  1  0.250300  0.997300  0.760300  1.0  -0.1565
  C  C96  1  0.249400  0.918800  0.764200  1.0  0.6495
  C  C97  1  0.707100  0.221500  0.452800  1.0  -0.0333
  C  C98  1  0.787900  0.290000  0.461700  1.0  0.0054
  C  C99  1  0.744800  0.253900  0.495800  1.0  0.0398
  C  C100  1  0.790000  0.459700  0.286600  1.0  0.1903
  C  C101  1  0.709200  0.458500  0.210700  1.0  0.2026
  C  C102  1  0.742300  0.235900  0.567300  1.0  0.2004
  C  C103  1  0.750300  0.502700  0.239700  1.0  -0.1554
  C  C104  1  0.749400  0.581200  0.235800  1.0  0.6534
  C  C105  1  0.792900  0.778500  0.952800  1.0  -0.0331
  C  C106  1  0.712100  0.710000  0.961700  1.0  0.0052
  C  C107  1  0.755200  0.746100  0.995800  1.0  0.0315
  C  C108  1  0.710000  0.540300  0.786600  1.0  0.1894
  C  C109  1  0.790800  0.541500  0.710700  1.0  0.2044
  C  C110  1  0.757700  0.764100  0.067300  1.0  0.1999
  C  C111  1  0.749700  0.497300  0.739700  1.0  -0.1576
  C  C112  1  0.750600  0.418800  0.735800  1.0  0.6497
  C  C113  1  0.047200  0.292900  0.721500  1.0  -0.0357
  C  C114  1  0.038300  0.212100  0.790000  1.0  0.0038
  C  C115  1  0.004200  0.255200  0.753900  1.0  0.0474
  C  C116  1  0.213400  0.210000  0.959700  1.0  0.1894
  C  C117  1  0.289300  0.290800  0.958500  1.0  0.2027
  C  C118  1  0.932700  0.257700  0.735900  1.0  0.1955
  C  C119  1  0.260300  0.249700  0.002700  1.0  -0.1567
  C  C120  1  0.264200  0.250600  0.081200  1.0  0.6541
  C  C121  1  0.547200  0.207100  0.278500  1.0  -0.0351
  C  C122  1  0.538300  0.287900  0.210000  1.0  0.0028
  C  C123  1  0.504200  0.244800  0.246100  1.0  0.0469
  C  C124  1  0.713400  0.290000  0.040300  1.0  0.1874
  C  C125  1  0.789300  0.209200  0.041500  1.0  0.2042
  C  C126  1  0.432700  0.242300  0.264100  1.0  0.1967
  C  C127  1  0.760300  0.250300  0.997300  1.0  -0.1591
  C  C128  1  0.764200  0.249400  0.918800  1.0  0.6524
  C  C129  1  0.452800  0.707100  0.221500  1.0  -0.0342
  C  C130  1  0.461700  0.787900  0.290000  1.0  0.0052
  C  C131  1  0.495800  0.744800  0.253900  1.0  0.0425
  C  C132  1  0.286600  0.790000  0.459700  1.0  0.189
  C  C133  1  0.210700  0.709200  0.458500  1.0  0.2039
  C  C134  1  0.567300  0.742300  0.235900  1.0  0.198
  C  C135  1  0.239700  0.750300  0.502700  1.0  -0.1564
  C  C136  1  0.235800  0.749400  0.581200  1.0  0.6539
  C  C137  1  0.952800  0.792900  0.778500  1.0  -0.0352
  C  C138  1  0.961700  0.712100  0.710000  1.0  0.0041
  C  C139  1  0.995800  0.755200  0.746100  1.0  0.0354
  C  C140  1  0.786600  0.710000  0.540300  1.0  0.1929
  C  C141  1  0.710700  0.790800  0.541500  1.0  0.2024
  C  C142  1  0.067300  0.757700  0.764100  1.0  0.1993
  C  C143  1  0.739700  0.749700  0.497300  1.0  -0.1591
  C  C144  1  0.735800  0.750600  0.418800  1.0  0.6535
  C  C145  1  0.721500  0.047200  0.292900  1.0  -0.033
  C  C146  1  0.790000  0.038300  0.212100  1.0  0.0054
  C  C147  1  0.753900  0.004200  0.255200  1.0  0.046
  C  C148  1  0.959700  0.213400  0.210000  1.0  0.1877
  C  C149  1  0.958500  0.289300  0.290800  1.0  0.2034
  C  C150  1  0.735900  0.932700  0.257700  1.0  0.1966
  C  C151  1  0.002700  0.260300  0.249700  1.0  -0.1568
  C  C152  1  0.081200  0.264200  0.250600  1.0  0.6509
  C  C153  1  0.278500  0.547200  0.207100  1.0  -0.0314
  C  C154  1  0.210000  0.538300  0.287900  1.0  0.0058
  C  C155  1  0.246100  0.504200  0.244800  1.0  0.0459
  C  C156  1  0.040300  0.713400  0.290000  1.0  0.1887
  C  C157  1  0.041500  0.789300  0.209200  1.0  0.2022
  C  C158  1  0.264100  0.432700  0.242300  1.0  0.199
  C  C159  1  0.997300  0.760300  0.250300  1.0  -0.1587
  C  C160  1  0.918800  0.764200  0.249400  1.0  0.6521
  C  C161  1  0.221500  0.452800  0.707100  1.0  -0.0323
  C  C162  1  0.290000  0.461700  0.787900  1.0  0.0062
  C  C163  1  0.253900  0.495800  0.744800  1.0  0.0449
  C  C164  1  0.459700  0.286600  0.790000  1.0  0.1865
  C  C165  1  0.458500  0.210700  0.709200  1.0  0.2025
  C  C166  1  0.235900  0.567300  0.742300  1.0  0.1965
  C  C167  1  0.502700  0.239700  0.750300  1.0  -0.157
  C  C168  1  0.581200  0.235800  0.749400  1.0  0.651
  C  C169  1  0.778500  0.952800  0.792900  1.0  -0.0313
  C  C170  1  0.710000  0.961700  0.712100  1.0  0.0044
  C  C171  1  0.746100  0.995800  0.755200  1.0  0.0375
  C  C172  1  0.540300  0.786600  0.710000  1.0  0.1861
  C  C173  1  0.541500  0.710700  0.790800  1.0  0.2031
  C  C174  1  0.764100  0.067300  0.757700  1.0  0.198
  C  C175  1  0.497300  0.739700  0.749700  1.0  -0.159
  C  C176  1  0.418800  0.735800  0.750600  1.0  0.6527
  N  N177  1  0.273000  0.737400  0.107800  1.0  -0.1926
  N  N178  1  0.223070  0.779770  0.102240  1.0  -0.221
  N  N179  1  0.207700  0.900800  0.219700  1.0  -0.3277
  N  N180  1  0.098600  0.790000  0.219400  1.0  -0.315
  N  N181  1  0.227000  0.262600  0.607800  1.0  -0.1942
  N  N182  1  0.276930  0.220230  0.602240  1.0  -0.2232
  N  N183  1  0.292300  0.099200  0.719700  1.0  -0.3278
  N  N184  1  0.401400  0.210000  0.719400  1.0  -0.3139
  N  N185  1  0.727000  0.237400  0.392200  1.0  -0.1959
  N  N186  1  0.776930  0.279770  0.397760  1.0  -0.2214
  N  N187  1  0.792300  0.400800  0.280300  1.0  -0.3269
  N  N188  1  0.901400  0.290000  0.280600  1.0  -0.3138
  N  N189  1  0.773000  0.762600  0.892200  1.0  -0.1945
  N  N190  1  0.723070  0.720230  0.897760  1.0  -0.2198
  N  N191  1  0.707700  0.599200  0.780300  1.0  -0.3277
  N  N192  1  0.598600  0.710000  0.780600  1.0  -0.3148
  N  N193  1  0.107800  0.273000  0.737400  1.0  -0.1938
  N  N194  1  0.102240  0.223070  0.779770  1.0  -0.2191
  N  N195  1  0.219700  0.207700  0.900800  1.0  -0.3293
  N  N196  1  0.219400  0.098600  0.790000  1.0  -0.3153
  N  N197  1  0.607800  0.227000  0.262600  1.0  -0.1938
  N  N198  1  0.602240  0.276930  0.220230  1.0  -0.2184
  N  N199  1  0.719700  0.292300  0.099200  1.0  -0.329
  N  N200  1  0.719400  0.401400  0.210000  1.0  -0.3151
  N  N201  1  0.392200  0.727000  0.237400  1.0  -0.1932
  N  N202  1  0.397760  0.776930  0.279770  1.0  -0.2198
  N  N203  1  0.280300  0.792300  0.400800  1.0  -0.3287
  N  N204  1  0.280600  0.901400  0.290000  1.0  -0.314
  N  N205  1  0.892200  0.773000  0.762600  1.0  -0.193
  N  N206  1  0.897760  0.723070  0.720230  1.0  -0.219
  N  N207  1  0.780300  0.707700  0.599200  1.0  -0.328
  N  N208  1  0.780600  0.598600  0.710000  1.0  -0.3144
  N  N209  1  0.737400  0.107800  0.273000  1.0  -0.1964
  N  N210  1  0.779770  0.102240  0.223070  1.0  -0.2161
  N  N211  1  0.900800  0.219700  0.207700  1.0  -0.3274
  N  N212  1  0.790000  0.219400  0.098600  1.0  -0.3119
  N  N213  1  0.262600  0.607800  0.227000  1.0  -0.1961
  N  N214  1  0.220230  0.602240  0.276930  1.0  -0.2189
  N  N215  1  0.099200  0.719700  0.292300  1.0  -0.3272
  N  N216  1  0.210000  0.719400  0.401400  1.0  -0.3138
  N  N217  1  0.237400  0.392200  0.727000  1.0  -0.1952
  N  N218  1  0.279770  0.397760  0.776930  1.0  -0.2181
  N  N219  1  0.400800  0.280300  0.792300  1.0  -0.3277
  N  N220  1  0.290000  0.280600  0.901400  1.0  -0.3132
  N  N221  1  0.762600  0.892200  0.773000  1.0  -0.1954
  N  N222  1  0.720230  0.897760  0.723070  1.0  -0.2169
  N  N223  1  0.599200  0.780300  0.707700  1.0  -0.3272
  N  N224  1  0.710000  0.780600  0.598600  1.0  -0.3127
  O  O225  1  0.257100  0.703600  0.891100  1.0  -0.6374
  O  O226  1  0.217950  0.105330  0.220000  1.0  -0.648
  O  O227  1  0.291400  0.111500  0.292000  1.0  -0.6368
  O  O228  1  0.242900  0.296400  0.391100  1.0  -0.6378
  O  O229  1  0.282050  0.894670  0.720000  1.0  -0.649
  O  O230  1  0.208600  0.888500  0.792000  1.0  -0.638
  O  O231  1  0.742900  0.203600  0.608900  1.0  -0.6373
  O  O232  1  0.782050  0.605330  0.280000  1.0  -0.6482
  O  O233  1  0.708600  0.611500  0.208000  1.0  -0.635
  O  O234  1  0.757100  0.796400  0.108900  1.0  -0.6355
  O  O235  1  0.717950  0.394670  0.780000  1.0  -0.6481
  O  O236  1  0.791400  0.388500  0.708000  1.0  -0.6363
  O  O237  1  0.891100  0.257100  0.703600  1.0  -0.637
  O  O238  1  0.220000  0.217950  0.105330  1.0  -0.6488
  O  O239  1  0.292000  0.291400  0.111500  1.0  -0.6399
  O  O240  1  0.391100  0.242900  0.296400  1.0  -0.6371
  O  O241  1  0.720000  0.282050  0.894670  1.0  -0.6487
  O  O242  1  0.792000  0.208600  0.888500  1.0  -0.6372
  O  O243  1  0.608900  0.742900  0.203600  1.0  -0.6348
  O  O244  1  0.280000  0.782050  0.605330  1.0  -0.6493
  O  O245  1  0.208000  0.708600  0.611500  1.0  -0.6388
  O  O246  1  0.108900  0.757100  0.796400  1.0  -0.6336
  O  O247  1  0.780000  0.717950  0.394670  1.0  -0.649
  O  O248  1  0.708000  0.791400  0.388500  1.0  -0.6397
  O  O249  1  0.703600  0.891100  0.257100  1.0  -0.636
  O  O250  1  0.105330  0.220000  0.217950  1.0  -0.6496
  O  O251  1  0.111500  0.292000  0.291400  1.0  -0.6406
  O  O252  1  0.296400  0.391100  0.242900  1.0  -0.6361
  O  O253  1  0.894670  0.720000  0.282050  1.0  -0.6496
  O  O254  1  0.888500  0.792000  0.208600  1.0  -0.6374
  O  O255  1  0.203600  0.608900  0.742900  1.0  -0.6349
  O  O256  1  0.605330  0.280000  0.782050  1.0  -0.6497
  O  O257  1  0.611500  0.208000  0.708600  1.0  -0.637
  O  O258  1  0.796400  0.108900  0.757100  1.0  -0.6324
  O  O259  1  0.394670  0.780000  0.717950  1.0  -0.6494
  O  O260  1  0.388500  0.708000  0.791400  1.0  -0.6377
  O  O261  1  0.244860  0.755140  0.255140  1.0  -1.2191
  O  O262  1  0.255140  0.244860  0.755140  1.0  -1.2188
  O  O263  1  0.755140  0.255140  0.244860  1.0  -1.218
  O  O264  1  0.744860  0.744860  0.744860  1.0  -1.2186
  O  O265  1  0.244400  0.744400  0.755600  1.0  -1.236
  O  O266  1  0.255600  0.255600  0.255600  1.0  -1.2356
  O  O267  1  0.755600  0.244400  0.744400  1.0  -1.236
  O  O268  1  0.744400  0.755600  0.244400  1.0  -1.236
