# generated using pymatgen
data_Zn7H12C21(N3O2)4
_symmetry_space_group_name_H-M   'P 1'
_cell_length_a   20.14050000
_cell_length_b   20.14050000
_cell_length_c   20.14050000
_cell_angle_alpha   90.00000000
_cell_angle_beta   90.00000000
_cell_angle_gamma   90.00000000
_symmetry_Int_Tables_number   1
_chemical_formula_structural   Zn7H12C21(N3O2)4
_chemical_formula_sum   'Zn28 H48 C84 N48 O32'
_cell_volume   8169.78718851
_cell_formula_units_Z   4
loop_
 _symmetry_equiv_pos_site_id
 _symmetry_equiv_pos_as_xyz
  1  'x, y, z'
loop_
 _atom_site_type_symbol
 _atom_site_label
 _atom_site_symmetry_multiplicity
 _atom_site_fract_x
 _atom_site_fract_y
 _atom_site_fract_z
 _atom_site_occupancy
 _atom_site_charge
  Zn  Zn1  1  0.303300  0.808900  0.196970  1.0  0.7464
  Zn  Zn2  1  0.303320  0.804040  0.807940  1.0  0.9404
  Zn  Zn3  1  0.196700  0.191100  0.696970  1.0  0.7464
  Zn  Zn4  1  0.196680  0.195960  0.307940  1.0  0.9412
  Zn  Zn5  1  0.696700  0.308900  0.303030  1.0  0.7466
  Zn  Zn6  1  0.696680  0.304040  0.692060  1.0  0.9405
  Zn  Zn7  1  0.803300  0.691100  0.803030  1.0  0.7468
  Zn  Zn8  1  0.803320  0.695960  0.192060  1.0  0.9405
  Zn  Zn9  1  0.196970  0.303300  0.808900  1.0  0.7448
  Zn  Zn10  1  0.807940  0.303320  0.804040  1.0  0.9402
  Zn  Zn11  1  0.696970  0.196700  0.191100  1.0  0.747
  Zn  Zn12  1  0.307940  0.196680  0.195960  1.0  0.9395
  Zn  Zn13  1  0.303030  0.696700  0.308900  1.0  0.7448
  Zn  Zn14  1  0.692060  0.696680  0.304040  1.0  0.94
  Zn  Zn15  1  0.803030  0.803300  0.691100  1.0  0.7466
  Zn  Zn16  1  0.192060  0.803320  0.695960  1.0  0.9396
  Zn  Zn17  1  0.808900  0.196970  0.303300  1.0  0.7412
  Zn  Zn18  1  0.804040  0.807940  0.303320  1.0  0.9403
  Zn  Zn19  1  0.191100  0.696970  0.196700  1.0  0.741
  Zn  Zn20  1  0.195960  0.307940  0.196680  1.0  0.9392
  Zn  Zn21  1  0.308900  0.303030  0.696700  1.0  0.7408
  Zn  Zn22  1  0.304040  0.692060  0.696680  1.0  0.9394
  Zn  Zn23  1  0.691100  0.803030  0.803300  1.0  0.7409
  Zn  Zn24  1  0.695960  0.192060  0.803320  1.0  0.94
  Zn  Zn25  1  0.190330  0.690330  0.809670  1.0  0.9405
  Zn  Zn26  1  0.309670  0.309670  0.309670  1.0  0.9405
  Zn  Zn27  1  0.809670  0.190330  0.690330  1.0  0.94
  Zn  Zn28  1  0.690330  0.809670  0.190330  1.0  0.9398
  H  H29  1  0.183000  0.672100  0.978400  1.0  0.1068
  H  H30  1  0.330700  0.799700  0.974800  1.0  0.1076
  H  H31  1  0.235300  0.956400  0.663600  1.0  0.0377
  H  H32  1  0.325200  0.989200  0.812900  1.0  0.1809
  H  H33  1  0.317000  0.327900  0.478400  1.0  0.1067
  H  H34  1  0.169300  0.200300  0.474800  1.0  0.1086
  H  H35  1  0.264700  0.043600  0.163600  1.0  0.0411
  H  H36  1  0.174800  0.010800  0.312900  1.0  0.183
  H  H37  1  0.817000  0.172100  0.521600  1.0  0.107
  H  H38  1  0.669300  0.299700  0.525200  1.0  0.1079
  H  H39  1  0.764700  0.456400  0.836400  1.0  0.0388
  H  H40  1  0.674800  0.489200  0.687100  1.0  0.1805
  H  H41  1  0.683000  0.827900  0.021600  1.0  0.1068
  H  H42  1  0.830700  0.700300  0.025200  1.0  0.1072
  H  H43  1  0.735300  0.543600  0.336400  1.0  0.0394
  H  H44  1  0.825200  0.510800  0.187100  1.0  0.1792
  H  H45  1  0.978400  0.183000  0.672100  1.0  0.1049
  H  H46  1  0.974800  0.330700  0.799700  1.0  0.1103
  H  H47  1  0.663600  0.235300  0.956400  1.0  0.0389
  H  H48  1  0.812900  0.325200  0.989200  1.0  0.1798
  H  H49  1  0.478400  0.317000  0.327900  1.0  0.1049
  H  H50  1  0.474800  0.169300  0.200300  1.0  0.1098
  H  H51  1  0.163600  0.264700  0.043600  1.0  0.0419
  H  H52  1  0.312900  0.174800  0.010800  1.0  0.1799
  H  H53  1  0.521600  0.817000  0.172100  1.0  0.1051
  H  H54  1  0.525200  0.669300  0.299700  1.0  0.1111
  H  H55  1  0.836400  0.764700  0.456400  1.0  0.044
  H  H56  1  0.687100  0.674800  0.489200  1.0  0.1822
  H  H57  1  0.021600  0.683000  0.827900  1.0  0.1054
  H  H58  1  0.025200  0.830700  0.700300  1.0  0.1096
  H  H59  1  0.336400  0.735300  0.543600  1.0  0.044
  H  H60  1  0.187100  0.825200  0.510800  1.0  0.1812
  H  H61  1  0.672100  0.978400  0.183000  1.0  0.1041
  H  H62  1  0.799700  0.974800  0.330700  1.0  0.1059
  H  H63  1  0.956400  0.663600  0.235300  1.0  0.0406
  H  H64  1  0.989200  0.812900  0.325200  1.0  0.1808
  H  H65  1  0.327900  0.478400  0.317000  1.0  0.1037
  H  H66  1  0.200300  0.474800  0.169300  1.0  0.1063
  H  H67  1  0.043600  0.163600  0.264700  1.0  0.0438
  H  H68  1  0.010800  0.312900  0.174800  1.0  0.1802
  H  H69  1  0.172100  0.521600  0.817000  1.0  0.1041
  H  H70  1  0.299700  0.525200  0.669300  1.0  0.1061
  H  H71  1  0.456400  0.836400  0.764700  1.0  0.0391
  H  H72  1  0.489200  0.687100  0.674800  1.0  0.1793
  H  H73  1  0.827900  0.021600  0.683000  1.0  0.1037
  H  H74  1  0.700300  0.025200  0.830700  1.0  0.1064
  H  H75  1  0.543600  0.336400  0.735300  1.0  0.0392
  H  H76  1  0.510800  0.187100  0.825200  1.0  0.1833
  C  C77  1  0.209900  0.708000  0.963800  1.0  0.0259
  C  C78  1  0.241500  0.752600  0.005400  1.0  -0.1178
  C  C79  1  0.238800  0.755700  0.074800  1.0  0.5085
  C  C80  1  0.290200  0.779800  0.961300  1.0  0.0246
  C  C81  1  0.237300  0.952610  0.710600  1.0  0.0231
  C  C82  1  0.293300  0.969760  0.784100  1.0  0.0419
  C  C83  1  0.250900  0.003300  0.736600  1.0  0.2309
  C  C84  1  0.290100  0.292000  0.463800  1.0  0.0257
  C  C85  1  0.258500  0.247400  0.505400  1.0  -0.1182
  C  C86  1  0.261200  0.244300  0.574800  1.0  0.508
  C  C87  1  0.209800  0.220200  0.461300  1.0  0.0256
  C  C88  1  0.262700  0.047390  0.210600  1.0  0.0219
  C  C89  1  0.206700  0.030240  0.284100  1.0  0.0389
  C  C90  1  0.249100  0.996700  0.236600  1.0  0.2358
  C  C91  1  0.790100  0.208000  0.536200  1.0  0.0262
  C  C92  1  0.758500  0.252600  0.494600  1.0  -0.1167
  C  C93  1  0.761200  0.255700  0.425200  1.0  0.506
  C  C94  1  0.709800  0.279800  0.538700  1.0  0.0277
  C  C95  1  0.762700  0.452610  0.789400  1.0  0.0208
  C  C96  1  0.706700  0.469760  0.715900  1.0  0.0403
  C  C97  1  0.749100  0.503300  0.763400  1.0  0.2322
  C  C98  1  0.709900  0.792000  0.036200  1.0  0.027
  C  C99  1  0.741500  0.747400  0.994600  1.0  -0.1169
  C  C100  1  0.738800  0.744300  0.925200  1.0  0.5074
  C  C101  1  0.790200  0.720200  0.038700  1.0  0.0227
  C  C102  1  0.737300  0.547390  0.289400  1.0  0.0208
  C  C103  1  0.793300  0.530240  0.215900  1.0  0.0373
  C  C104  1  0.750900  0.496700  0.263400  1.0  0.2334
  C  C105  1  0.963800  0.209900  0.708000  1.0  0.0257
  C  C106  1  0.005400  0.241500  0.752600  1.0  -0.1169
  C  C107  1  0.074800  0.238800  0.755700  1.0  0.5087
  C  C108  1  0.961300  0.290200  0.779800  1.0  0.0261
  C  C109  1  0.710600  0.237300  0.952610  1.0  0.0199
  C  C110  1  0.784100  0.293300  0.969760  1.0  0.0432
  C  C111  1  0.736600  0.250900  0.003300  1.0  0.2309
  C  C112  1  0.463800  0.290100  0.292000  1.0  0.0259
  C  C113  1  0.505400  0.258500  0.247400  1.0  -0.1157
  C  C114  1  0.574800  0.261200  0.244300  1.0  0.5092
  C  C115  1  0.461300  0.209800  0.220200  1.0  0.022
  C  C116  1  0.210600  0.262700  0.047390  1.0  0.0207
  C  C117  1  0.284100  0.206700  0.030240  1.0  0.0387
  C  C118  1  0.236600  0.249100  0.996700  1.0  0.2311
  C  C119  1  0.536200  0.790100  0.208000  1.0  0.0254
  C  C120  1  0.494600  0.758500  0.252600  1.0  -0.1171
  C  C121  1  0.425200  0.761200  0.255700  1.0  0.5095
  C  C122  1  0.538700  0.709800  0.279800  1.0  0.0226
  C  C123  1  0.789400  0.762700  0.452610  1.0  0.0199
  C  C124  1  0.715900  0.706700  0.469760  1.0  0.0385
  C  C125  1  0.763400  0.749100  0.503300  1.0  0.229
  C  C126  1  0.036200  0.709900  0.792000  1.0  0.0255
  C  C127  1  0.994600  0.741500  0.747400  1.0  -0.1175
  C  C128  1  0.925200  0.738800  0.744300  1.0  0.5088
  C  C129  1  0.038700  0.790200  0.720200  1.0  0.0256
  C  C130  1  0.289400  0.737300  0.547390  1.0  0.0182
  C  C131  1  0.215900  0.793300  0.530240  1.0  0.0402
  C  C132  1  0.263400  0.750900  0.496700  1.0  0.2304
  C  C133  1  0.708000  0.963800  0.209900  1.0  0.0277
  C  C134  1  0.752600  0.005400  0.241500  1.0  -0.1159
  C  C135  1  0.755700  0.074800  0.238800  1.0  0.5067
  C  C136  1  0.779800  0.961300  0.290200  1.0  0.0278
  C  C137  1  0.952610  0.710600  0.237300  1.0  0.0207
  C  C138  1  0.969760  0.784100  0.293300  1.0  0.0416
  C  C139  1  0.003300  0.736600  0.250900  1.0  0.2316
  C  C140  1  0.292000  0.463800  0.290100  1.0  0.0281
  C  C141  1  0.247400  0.505400  0.258500  1.0  -0.1166
  C  C142  1  0.244300  0.574800  0.261200  1.0  0.5081
  C  C143  1  0.220200  0.461300  0.209800  1.0  0.0283
  C  C144  1  0.047390  0.210600  0.262700  1.0  0.0205
  C  C145  1  0.030240  0.284100  0.206700  1.0  0.0405
  C  C146  1  0.996700  0.236600  0.249100  1.0  0.2287
  C  C147  1  0.208000  0.536200  0.790100  1.0  0.0293
  C  C148  1  0.252600  0.494600  0.758500  1.0  -0.1162
  C  C149  1  0.255700  0.425200  0.761200  1.0  0.5069
  C  C150  1  0.279800  0.538700  0.709800  1.0  0.0274
  C  C151  1  0.452610  0.789400  0.762700  1.0  0.0192
  C  C152  1  0.469760  0.715900  0.706700  1.0  0.0384
  C  C153  1  0.503300  0.763400  0.749100  1.0  0.2322
  C  C154  1  0.792000  0.036200  0.709900  1.0  0.0263
  C  C155  1  0.747400  0.994600  0.741500  1.0  -0.1173
  C  C156  1  0.744300  0.925200  0.738800  1.0  0.5078
  C  C157  1  0.720200  0.038700  0.790200  1.0  0.0275
  C  C158  1  0.547390  0.289400  0.737300  1.0  0.0221
  C  C159  1  0.530240  0.215900  0.793300  1.0  0.0367
  C  C160  1  0.496700  0.263400  0.750900  1.0  0.2288
  N  N161  1  0.270400  0.773000  0.898100  1.0  -0.4023
  N  N162  1  0.222300  0.722200  0.900900  1.0  -0.2456
  N  N163  1  0.225300  0.896400  0.729800  1.0  -0.2862
  N  N164  1  0.275400  0.896900  0.777800  1.0  -0.3294
  N  N165  1  0.229600  0.227000  0.398100  1.0  -0.4015
  N  N166  1  0.277700  0.277800  0.400900  1.0  -0.2454
  N  N167  1  0.274700  0.103600  0.229800  1.0  -0.2858
  N  N168  1  0.224600  0.103100  0.277800  1.0  -0.3319
  N  N169  1  0.729600  0.273000  0.601900  1.0  -0.4023
  N  N170  1  0.777700  0.222200  0.599100  1.0  -0.2442
  N  N171  1  0.774700  0.396400  0.770200  1.0  -0.2855
  N  N172  1  0.724600  0.396900  0.722200  1.0  -0.3336
  N  N173  1  0.770400  0.727000  0.101900  1.0  -0.4016
  N  N174  1  0.722300  0.777800  0.099100  1.0  -0.2447
  N  N175  1  0.725300  0.603600  0.270200  1.0  -0.2864
  N  N176  1  0.775400  0.603100  0.222200  1.0  -0.3323
  N  N177  1  0.898100  0.270400  0.773000  1.0  -0.3987
  N  N178  1  0.900900  0.222300  0.722200  1.0  -0.2458
  N  N179  1  0.729800  0.225300  0.896400  1.0  -0.2802
  N  N180  1  0.777800  0.275400  0.896900  1.0  -0.3349
  N  N181  1  0.398100  0.229600  0.227000  1.0  -0.4
  N  N182  1  0.400900  0.277700  0.277800  1.0  -0.2444
  N  N183  1  0.229800  0.274700  0.103600  1.0  -0.2836
  N  N184  1  0.277800  0.224600  0.103100  1.0  -0.3344
  N  N185  1  0.601900  0.729600  0.273000  1.0  -0.3995
  N  N186  1  0.599100  0.777700  0.222200  1.0  -0.2441
  N  N187  1  0.770200  0.774700  0.396400  1.0  -0.2805
  N  N188  1  0.722200  0.724600  0.396900  1.0  -0.3353
  N  N189  1  0.101900  0.770400  0.727000  1.0  -0.4003
  N  N190  1  0.099100  0.722300  0.777800  1.0  -0.2439
  N  N191  1  0.270200  0.725300  0.603600  1.0  -0.2833
  N  N192  1  0.222200  0.775400  0.603100  1.0  -0.3355
  N  N193  1  0.773000  0.898100  0.270400  1.0  -0.3984
  N  N194  1  0.722200  0.900900  0.222300  1.0  -0.2436
  N  N195  1  0.896400  0.729800  0.225300  1.0  -0.2806
  N  N196  1  0.896900  0.777800  0.275400  1.0  -0.3335
  N  N197  1  0.227000  0.398100  0.229600  1.0  -0.3991
  N  N198  1  0.277800  0.400900  0.277700  1.0  -0.2431
  N  N199  1  0.103600  0.229800  0.274700  1.0  -0.2831
  N  N200  1  0.103100  0.277800  0.224600  1.0  -0.3344
  N  N201  1  0.273000  0.601900  0.729600  1.0  -0.3997
  N  N202  1  0.222200  0.599100  0.777700  1.0  -0.2449
  N  N203  1  0.396400  0.770200  0.774700  1.0  -0.2834
  N  N204  1  0.396900  0.722200  0.724600  1.0  -0.3319
  N  N205  1  0.727000  0.101900  0.770400  1.0  -0.4009
  N  N206  1  0.777800  0.099100  0.722300  1.0  -0.245
  N  N207  1  0.603600  0.270200  0.725300  1.0  -0.2807
  N  N208  1  0.603100  0.222200  0.775400  1.0  -0.3306
  O  O209  1  0.277700  0.792200  0.105800  1.0  -0.6388
  O  O210  1  0.204700  0.726800  0.106500  1.0  -0.5932
  O  O211  1  0.222300  0.207800  0.605800  1.0  -0.6382
  O  O212  1  0.295300  0.273200  0.606500  1.0  -0.5924
  O  O213  1  0.722300  0.292200  0.394200  1.0  -0.6395
  O  O214  1  0.795300  0.226800  0.393500  1.0  -0.5926
  O  O215  1  0.777700  0.707800  0.894200  1.0  -0.6389
  O  O216  1  0.704700  0.773200  0.893500  1.0  -0.593
  O  O217  1  0.105800  0.277700  0.792200  1.0  -0.6382
  O  O218  1  0.106500  0.204700  0.726800  1.0  -0.59
  O  O219  1  0.605800  0.222300  0.207800  1.0  -0.6368
  O  O220  1  0.606500  0.295300  0.273200  1.0  -0.5888
  O  O221  1  0.394200  0.722300  0.292200  1.0  -0.6379
  O  O222  1  0.393500  0.795300  0.226800  1.0  -0.5902
  O  O223  1  0.894200  0.777700  0.707800  1.0  -0.6372
  O  O224  1  0.893500  0.704700  0.773200  1.0  -0.5902
  O  O225  1  0.792200  0.105800  0.277700  1.0  -0.6377
  O  O226  1  0.726800  0.106500  0.204700  1.0  -0.5876
  O  O227  1  0.207800  0.605800  0.222300  1.0  -0.6379
  O  O228  1  0.273200  0.606500  0.295300  1.0  -0.5879
  O  O229  1  0.292200  0.394200  0.722300  1.0  -0.6385
  O  O230  1  0.226800  0.393500  0.795300  1.0  -0.5879
  O  O231  1  0.707800  0.894200  0.777700  1.0  -0.6378
  O  O232  1  0.773200  0.893500  0.704700  1.0  -0.5885
  O  O233  1  0.248300  0.748300  0.751700  1.0  -1.2457
  O  O234  1  0.251700  0.251700  0.251700  1.0  -1.2454
  O  O235  1  0.751700  0.248300  0.748300  1.0  -1.2453
  O  O236  1  0.748300  0.751700  0.248300  1.0  -1.2455
  O  O237  1  0.245700  0.754300  0.254300  1.0  -0.7873
  O  O238  1  0.254300  0.245700  0.754300  1.0  -0.7885
  O  O239  1  0.754300  0.254300  0.245700  1.0  -0.7882
  O  O240  1  0.745700  0.745700  0.745700  1.0  -0.7903
