# generated using pymatgen
data_Zn7H9C21(N6O7)2
_symmetry_space_group_name_H-M   'P 1'
_cell_length_a   20.16160000
_cell_length_b   20.16160000
_cell_length_c   20.16160000
_cell_angle_alpha   90.00000000
_cell_angle_beta   90.00000000
_cell_angle_gamma   90.00000000
_symmetry_Int_Tables_number   1
_chemical_formula_structural   Zn7H9C21(N6O7)2
_chemical_formula_sum   'Zn28 H36 C84 N48 O56'
_cell_volume   8195.49109371
_cell_formula_units_Z   4
loop_
 _symmetry_equiv_pos_site_id
 _symmetry_equiv_pos_as_xyz
  1  'x, y, z'
loop_
 _atom_site_type_symbol
 _atom_site_label
 _atom_site_symmetry_multiplicity
 _atom_site_fract_x
 _atom_site_fract_y
 _atom_site_fract_z
 _atom_site_occupancy
 _atom_site_charge
  Zn  Zn1  1  0.304160  0.808870  0.197460  1.0  1.1132
  Zn  Zn2  1  0.302810  0.803820  0.807990  1.0  0.952
  Zn  Zn3  1  0.195840  0.191130  0.697460  1.0  1.114
  Zn  Zn4  1  0.197190  0.196180  0.307990  1.0  0.9531
  Zn  Zn5  1  0.695840  0.308870  0.302540  1.0  1.1131
  Zn  Zn6  1  0.697190  0.303820  0.692010  1.0  0.9519
  Zn  Zn7  1  0.804160  0.691130  0.802540  1.0  1.1137
  Zn  Zn8  1  0.802810  0.696180  0.192010  1.0  0.9513
  Zn  Zn9  1  0.197460  0.304160  0.808870  1.0  1.114
  Zn  Zn10  1  0.807990  0.302810  0.803820  1.0  0.9521
  Zn  Zn11  1  0.697460  0.195840  0.191130  1.0  1.1132
  Zn  Zn12  1  0.307990  0.197190  0.196180  1.0  0.9512
  Zn  Zn13  1  0.302540  0.695840  0.308870  1.0  1.1136
  Zn  Zn14  1  0.692010  0.697190  0.303820  1.0  0.9526
  Zn  Zn15  1  0.802540  0.804160  0.691130  1.0  1.1127
  Zn  Zn16  1  0.192010  0.802810  0.696180  1.0  0.9522
  Zn  Zn17  1  0.808870  0.197460  0.304160  1.0  1.1105
  Zn  Zn18  1  0.803820  0.807990  0.302810  1.0  0.952
  Zn  Zn19  1  0.191130  0.697460  0.195840  1.0  1.1121
  Zn  Zn20  1  0.196180  0.307990  0.197190  1.0  0.9513
  Zn  Zn21  1  0.308870  0.302540  0.695840  1.0  1.1115
  Zn  Zn22  1  0.303820  0.692010  0.697190  1.0  0.9511
  Zn  Zn23  1  0.691130  0.802540  0.804160  1.0  1.1126
  Zn  Zn24  1  0.696180  0.192010  0.802810  1.0  0.9523
  Zn  Zn25  1  0.189750  0.689750  0.810250  1.0  0.9561
  Zn  Zn26  1  0.310250  0.310250  0.310250  1.0  0.9546
  Zn  Zn27  1  0.810250  0.189750  0.689750  1.0  0.9537
  Zn  Zn28  1  0.689750  0.810250  0.189750  1.0  0.9545
  H  H29  1  0.184100  0.671200  0.981000  1.0  0.1462
  H  H30  1  0.333900  0.794000  0.982300  1.0  0.1686
  H  H31  1  0.213300  0.950500  0.664800  1.0  0.0961
  H  H32  1  0.315900  0.328800  0.481000  1.0  0.1449
  H  H33  1  0.166100  0.206000  0.482300  1.0  0.1696
  H  H34  1  0.286700  0.049500  0.164800  1.0  0.096
  H  H35  1  0.815900  0.171200  0.519000  1.0  0.1469
  H  H36  1  0.666100  0.294000  0.517700  1.0  0.1695
  H  H37  1  0.786700  0.450500  0.835200  1.0  0.1001
  H  H38  1  0.684100  0.828800  0.019000  1.0  0.1457
  H  H39  1  0.833900  0.706000  0.017700  1.0  0.1698
  H  H40  1  0.713300  0.549500  0.335200  1.0  0.0996
  H  H41  1  0.981000  0.184100  0.671200  1.0  0.1469
  H  H42  1  0.982300  0.333900  0.794000  1.0  0.1707
  H  H43  1  0.664800  0.213300  0.950500  1.0  0.0936
  H  H44  1  0.481000  0.315900  0.328800  1.0  0.145
  H  H45  1  0.482300  0.166100  0.206000  1.0  0.1732
  H  H46  1  0.164800  0.286700  0.049500  1.0  0.0937
  H  H47  1  0.519000  0.815900  0.171200  1.0  0.1462
  H  H48  1  0.517700  0.666100  0.294000  1.0  0.1732
  H  H49  1  0.835200  0.786700  0.450500  1.0  0.0978
  H  H50  1  0.019000  0.684100  0.828800  1.0  0.146
  H  H51  1  0.017700  0.833900  0.706000  1.0  0.1699
  H  H52  1  0.335200  0.713300  0.549500  1.0  0.0978
  H  H53  1  0.671200  0.981000  0.184100  1.0  0.1448
  H  H54  1  0.794000  0.982300  0.333900  1.0  0.1667
  H  H55  1  0.950500  0.664800  0.213300  1.0  0.1003
  H  H56  1  0.328800  0.481000  0.315900  1.0  0.1449
  H  H57  1  0.206000  0.482300  0.166100  1.0  0.1683
  H  H58  1  0.049500  0.164800  0.286700  1.0  0.0994
  H  H59  1  0.171200  0.519000  0.815900  1.0  0.1448
  H  H60  1  0.294000  0.517700  0.666100  1.0  0.1676
  H  H61  1  0.450500  0.835200  0.786700  1.0  0.0989
  H  H62  1  0.828800  0.019000  0.684100  1.0  0.1452
  H  H63  1  0.706000  0.017700  0.833900  1.0  0.1679
  H  H64  1  0.549500  0.335200  0.713300  1.0  0.0981
  C  C65  1  0.209800  0.707200  0.964800  1.0  0.0624
  C  C66  1  0.240300  0.752900  0.002900  1.0  0.0735
  C  C67  1  0.236100  0.763500  0.074900  1.0  0.5874
  C  C68  1  0.292300  0.777700  0.967400  1.0  0.0933
  C  C69  1  0.228900  0.947000  0.709100  1.0  0.2366
  C  C70  1  0.248000  0.002100  0.736400  1.0  0.0826
  C  C71  1  0.220800  0.075800  0.731300  1.0  0.2529
  C  C72  1  0.290200  0.292800  0.464800  1.0  0.0639
  C  C73  1  0.259700  0.247100  0.502900  1.0  0.0735
  C  C74  1  0.263900  0.236500  0.574900  1.0  0.5879
  C  C75  1  0.207700  0.222300  0.467400  1.0  0.0933
  C  C76  1  0.271100  0.053000  0.209100  1.0  0.2372
  C  C77  1  0.252000  0.997900  0.236400  1.0  0.0813
  C  C78  1  0.279200  0.924200  0.231300  1.0  0.2495
  C  C79  1  0.790200  0.207200  0.535200  1.0  0.0632
  C  C80  1  0.759700  0.252900  0.497100  1.0  0.0732
  C  C81  1  0.763900  0.263500  0.425100  1.0  0.5869
  C  C82  1  0.707700  0.277700  0.532600  1.0  0.094
  C  C83  1  0.771100  0.447000  0.790900  1.0  0.2387
  C  C84  1  0.752000  0.502100  0.763600  1.0  0.0846
  C  C85  1  0.779200  0.575800  0.768700  1.0  0.2511
  C  C86  1  0.709800  0.792800  0.035200  1.0  0.0633
  C  C87  1  0.740300  0.747100  0.997100  1.0  0.0722
  C  C88  1  0.736100  0.736500  0.925100  1.0  0.5885
  C  C89  1  0.792300  0.722300  0.032600  1.0  0.0939
  C  C90  1  0.728900  0.553000  0.290900  1.0  0.2372
  C  C91  1  0.748000  0.497900  0.263600  1.0  0.0833
  C  C92  1  0.720800  0.424200  0.268700  1.0  0.2515
  C  C93  1  0.964800  0.209800  0.707200  1.0  0.063
  C  C94  1  0.002900  0.240300  0.752900  1.0  0.0741
  C  C95  1  0.074900  0.236100  0.763500  1.0  0.5904
  C  C96  1  0.967400  0.292300  0.777700  1.0  0.0934
  C  C97  1  0.709100  0.228900  0.947000  1.0  0.2366
  C  C98  1  0.736400  0.248000  0.002100  1.0  0.0801
  C  C99  1  0.731300  0.220800  0.075800  1.0  0.2464
  C  C100  1  0.464800  0.290200  0.292800  1.0  0.0644
  C  C101  1  0.502900  0.259700  0.247100  1.0  0.0733
  C  C102  1  0.574900  0.263900  0.236500  1.0  0.59
  C  C103  1  0.467400  0.207700  0.222300  1.0  0.0919
  C  C104  1  0.209100  0.271100  0.053000  1.0  0.2385
  C  C105  1  0.236400  0.252000  0.997900  1.0  0.0829
  C  C106  1  0.231300  0.279200  0.924200  1.0  0.2478
  C  C107  1  0.535200  0.790200  0.207200  1.0  0.0637
  C  C108  1  0.497100  0.759700  0.252900  1.0  0.0733
  C  C109  1  0.425100  0.763900  0.263500  1.0  0.5855
  C  C110  1  0.532600  0.707700  0.277700  1.0  0.0922
  C  C111  1  0.790900  0.771100  0.447000  1.0  0.2381
  C  C112  1  0.763600  0.752000  0.502100  1.0  0.0791
  C  C113  1  0.768700  0.779200  0.575800  1.0  0.2469
  C  C114  1  0.035200  0.709800  0.792800  1.0  0.063
  C  C115  1  0.997100  0.740300  0.747100  1.0  0.0716
  C  C116  1  0.925100  0.736100  0.736500  1.0  0.5855
  C  C117  1  0.032600  0.792300  0.722300  1.0  0.0929
  C  C118  1  0.290900  0.728900  0.553000  1.0  0.2395
  C  C119  1  0.263600  0.748000  0.497900  1.0  0.0826
  C  C120  1  0.268700  0.720800  0.424200  1.0  0.2467
  C  C121  1  0.707200  0.964800  0.209800  1.0  0.0648
  C  C122  1  0.752900  0.002900  0.240300  1.0  0.0718
  C  C123  1  0.763500  0.074900  0.236100  1.0  0.5906
  C  C124  1  0.777700  0.967400  0.292300  1.0  0.0934
  C  C125  1  0.947000  0.709100  0.228900  1.0  0.2359
  C  C126  1  0.002100  0.736400  0.248000  1.0  0.0837
  C  C127  1  0.075800  0.731300  0.220800  1.0  0.2515
  C  C128  1  0.292800  0.464800  0.290200  1.0  0.0658
  C  C129  1  0.247100  0.502900  0.259700  1.0  0.0729
  C  C130  1  0.236500  0.574900  0.263900  1.0  0.5929
  C  C131  1  0.222300  0.467400  0.207700  1.0  0.0941
  C  C132  1  0.053000  0.209100  0.271100  1.0  0.2361
  C  C133  1  0.997900  0.236400  0.252000  1.0  0.0842
  C  C134  1  0.924200  0.231300  0.279200  1.0  0.2521
  C  C135  1  0.207200  0.535200  0.790200  1.0  0.0642
  C  C136  1  0.252900  0.497100  0.759700  1.0  0.073
  C  C137  1  0.263500  0.425100  0.763900  1.0  0.5876
  C  C138  1  0.277700  0.532600  0.707700  1.0  0.0946
  C  C139  1  0.447000  0.790900  0.771100  1.0  0.2362
  C  C140  1  0.502100  0.763600  0.752000  1.0  0.0834
  C  C141  1  0.575800  0.768700  0.779200  1.0  0.2529
  C  C142  1  0.792800  0.035200  0.709800  1.0  0.0645
  C  C143  1  0.747100  0.997100  0.740300  1.0  0.0717
  C  C144  1  0.736500  0.925100  0.736100  1.0  0.5873
  C  C145  1  0.722300  0.032600  0.792300  1.0  0.0916
  C  C146  1  0.553000  0.290900  0.728900  1.0  0.2356
  C  C147  1  0.497900  0.263600  0.748000  1.0  0.0831
  C  C148  1  0.424200  0.268700  0.720800  1.0  0.2516
  N  N149  1  0.266700  0.772500  0.901600  1.0  -0.2781
  N  N150  1  0.221700  0.720700  0.897800  1.0  -0.3235
  N  N151  1  0.228200  0.898400  0.729800  1.0  -0.1551
  N  N152  1  0.278400  0.893800  0.780000  1.0  -0.2625
  N  N153  1  0.233300  0.227500  0.401600  1.0  -0.2789
  N  N154  1  0.278300  0.279300  0.397800  1.0  -0.3235
  N  N155  1  0.271800  0.101600  0.229800  1.0  -0.156
  N  N156  1  0.221600  0.106200  0.280000  1.0  -0.2642
  N  N157  1  0.733300  0.272500  0.598400  1.0  -0.276
  N  N158  1  0.778300  0.220700  0.602200  1.0  -0.3206
  N  N159  1  0.771800  0.398400  0.770200  1.0  -0.1542
  N  N160  1  0.721600  0.393800  0.720000  1.0  -0.2645
  N  N161  1  0.766700  0.727500  0.098400  1.0  -0.2755
  N  N162  1  0.721700  0.779300  0.102200  1.0  -0.3221
  N  N163  1  0.728200  0.601600  0.270200  1.0  -0.1568
  N  N164  1  0.778400  0.606200  0.220000  1.0  -0.2646
  N  N165  1  0.901600  0.266700  0.772500  1.0  -0.2727
  N  N166  1  0.897800  0.221700  0.720700  1.0  -0.3201
  N  N167  1  0.729800  0.228200  0.898400  1.0  -0.1602
  N  N168  1  0.780000  0.278400  0.893800  1.0  -0.2658
  N  N169  1  0.401600  0.233300  0.227500  1.0  -0.274
  N  N170  1  0.397800  0.278300  0.279300  1.0  -0.3209
  N  N171  1  0.229800  0.271800  0.101600  1.0  -0.155
  N  N172  1  0.280000  0.221600  0.106200  1.0  -0.2665
  N  N173  1  0.598400  0.733300  0.272500  1.0  -0.2726
  N  N174  1  0.602200  0.778300  0.220700  1.0  -0.3211
  N  N175  1  0.770200  0.771800  0.398400  1.0  -0.1606
  N  N176  1  0.720000  0.721600  0.393800  1.0  -0.2672
  N  N177  1  0.098400  0.766700  0.727500  1.0  -0.2746
  N  N178  1  0.102200  0.721700  0.779300  1.0  -0.322
  N  N179  1  0.270200  0.728200  0.601600  1.0  -0.1558
  N  N180  1  0.220000  0.778400  0.606200  1.0  -0.2662
  N  N181  1  0.772500  0.901600  0.266700  1.0  -0.2717
  N  N182  1  0.720700  0.897800  0.221700  1.0  -0.3213
  N  N183  1  0.898400  0.729800  0.228200  1.0  -0.156
  N  N184  1  0.893800  0.780000  0.278400  1.0  -0.2672
  N  N185  1  0.227500  0.401600  0.233300  1.0  -0.2732
  N  N186  1  0.279300  0.397800  0.278300  1.0  -0.3208
  N  N187  1  0.101600  0.229800  0.271800  1.0  -0.1557
  N  N188  1  0.106200  0.280000  0.221600  1.0  -0.2689
  N  N189  1  0.272500  0.598400  0.733300  1.0  -0.273
  N  N190  1  0.220700  0.602200  0.778300  1.0  -0.3224
  N  N191  1  0.398400  0.770200  0.771800  1.0  -0.1563
  N  N192  1  0.393800  0.720000  0.721600  1.0  -0.2673
  N  N193  1  0.727500  0.098400  0.766700  1.0  -0.2728
  N  N194  1  0.779300  0.102200  0.721700  1.0  -0.3204
  N  N195  1  0.601600  0.270200  0.728200  1.0  -0.1556
  N  N196  1  0.606200  0.220000  0.778400  1.0  -0.2682
  O  O197  1  0.275500  0.789700  0.107100  1.0  -0.5688
  O  O198  1  0.204200  0.726500  0.107400  1.0  -0.6044
  O  O199  1  0.208200  0.103700  0.701900  1.0  -0.6937
  O  O200  1  0.218700  0.113200  0.790500  1.0  -0.6128
  O  O201  1  0.224500  0.210300  0.607100  1.0  -0.571
  O  O202  1  0.295800  0.273500  0.607400  1.0  -0.6049
  O  O203  1  0.291800  0.896300  0.201900  1.0  -0.6932
  O  O204  1  0.281300  0.886800  0.290500  1.0  -0.6171
  O  O205  1  0.724500  0.289700  0.392900  1.0  -0.5707
  O  O206  1  0.795800  0.226500  0.392600  1.0  -0.604
  O  O207  1  0.791800  0.603700  0.798100  1.0  -0.6912
  O  O208  1  0.781300  0.613200  0.709500  1.0  -0.6115
  O  O209  1  0.775500  0.710300  0.892900  1.0  -0.5684
  O  O210  1  0.704200  0.773500  0.892600  1.0  -0.6052
  O  O211  1  0.708200  0.396300  0.298100  1.0  -0.6919
  O  O212  1  0.718700  0.386800  0.209500  1.0  -0.6125
  O  O213  1  0.107100  0.275500  0.789700  1.0  -0.5687
  O  O214  1  0.107400  0.204200  0.726500  1.0  -0.6053
  O  O215  1  0.701900  0.208200  0.103700  1.0  -0.6929
  O  O216  1  0.790500  0.218700  0.113200  1.0  -0.6181
  O  O217  1  0.607100  0.224500  0.210300  1.0  -0.5696
  O  O218  1  0.607400  0.295800  0.273500  1.0  -0.6057
  O  O219  1  0.201900  0.291800  0.896300  1.0  -0.6932
  O  O220  1  0.290500  0.281300  0.886800  1.0  -0.6217
  O  O221  1  0.392900  0.724500  0.289700  1.0  -0.5693
  O  O222  1  0.392600  0.795800  0.226500  1.0  -0.6041
  O  O223  1  0.798100  0.791800  0.603700  1.0  -0.6904
  O  O224  1  0.709500  0.781300  0.613200  1.0  -0.6218
  O  O225  1  0.892900  0.775500  0.710300  1.0  -0.5697
  O  O226  1  0.892600  0.704200  0.773500  1.0  -0.6046
  O  O227  1  0.298100  0.708200  0.396300  1.0  -0.691
  O  O228  1  0.209500  0.718700  0.386800  1.0  -0.6228
  O  O229  1  0.789700  0.107100  0.275500  1.0  -0.5674
  O  O230  1  0.726500  0.107400  0.204200  1.0  -0.6021
  O  O231  1  0.103700  0.701900  0.208200  1.0  -0.6891
  O  O232  1  0.113200  0.790500  0.218700  1.0  -0.6191
  O  O233  1  0.210300  0.607100  0.224500  1.0  -0.5693
  O  O234  1  0.273500  0.607400  0.295800  1.0  -0.6029
  O  O235  1  0.896300  0.201900  0.291800  1.0  -0.687
  O  O236  1  0.886800  0.290500  0.281300  1.0  -0.6215
  O  O237  1  0.289700  0.392900  0.724500  1.0  -0.5683
  O  O238  1  0.226500  0.392600  0.795800  1.0  -0.6035
  O  O239  1  0.603700  0.798100  0.791800  1.0  -0.6862
  O  O240  1  0.613200  0.709500  0.781300  1.0  -0.6213
  O  O241  1  0.710300  0.892900  0.775500  1.0  -0.5697
  O  O242  1  0.773500  0.892600  0.704200  1.0  -0.6023
  O  O243  1  0.396300  0.298100  0.708200  1.0  -0.686
  O  O244  1  0.386800  0.209500  0.718700  1.0  -0.6215
  O  O245  1  0.247000  0.747000  0.753000  1.0  -1.1756
  O  O246  1  0.253000  0.253000  0.253000  1.0  -1.1761
  O  O247  1  0.753000  0.247000  0.747000  1.0  -1.1763
  O  O248  1  0.747000  0.753000  0.247000  1.0  -1.1761
  O  O249  1  0.245000  0.755000  0.255000  1.0  -0.8738
  O  O250  1  0.255000  0.245000  0.755000  1.0  -0.873
  O  O251  1  0.755000  0.255000  0.245000  1.0  -0.8729
  O  O252  1  0.745000  0.745000  0.745000  1.0  -0.8744
