# generated using pymatgen
data_LiH8C7NO2
_symmetry_space_group_name_H-M   'P 1'
_cell_length_a   7.15550000
_cell_length_b   12.42380000
_cell_length_c   11.75750000
_cell_angle_alpha   90.00000000
_cell_angle_beta   91.78200000
_cell_angle_gamma   90.00000000
_symmetry_Int_Tables_number   1
_chemical_formula_structural   LiH8C7NO2
_chemical_formula_sum   'Li4 H32 C28 N4 O8'
_cell_volume   1044.71863202
_cell_formula_units_Z   4
loop_
 _symmetry_equiv_pos_site_id
 _symmetry_equiv_pos_as_xyz
  1  'x, y, z'
loop_
 _atom_site_type_symbol
 _atom_site_label
 _atom_site_symmetry_multiplicity
 _atom_site_fract_x
 _atom_site_fract_y
 _atom_site_fract_z
 _atom_site_occupancy
 _atom_site_charge
  Li  Li1  1  0.603000  0.052500  0.427200  1.0  0.8266
  Li  Li2  1  0.397000  0.552500  0.072800  1.0  0.8267
  Li  Li3  1  0.397000  0.947500  0.572800  1.0  0.8265
  Li  Li4  1  0.603000  0.447500  0.927200  1.0  0.8265
  H  H5  1  0.379000  0.093800  0.774200  1.0  0.0833
  H  H6  1  0.707000  0.260600  0.566600  1.0  0.0817
  H  H7  1  0.725400  0.390600  0.700500  1.0  0.0496
  H  H8  1  0.404000  0.231900  0.899600  1.0  0.0417
  H  H9  1  0.974000  0.159500  0.405600  1.0  0.0561
  H  H10  1  0.126700  0.070800  0.388500  1.0  0.0508
  H  H11  1  0.043000  0.885800  0.403700  1.0  0.0429
  H  H12  1  0.836100  0.855500  0.431000  1.0  0.0557
  H  H13  1  0.621000  0.593800  0.725800  1.0  0.083
  H  H14  1  0.293000  0.760600  0.933400  1.0  0.0826
  H  H15  1  0.274600  0.890600  0.799500  1.0  0.0497
  H  H16  1  0.596000  0.731900  0.600400  1.0  0.0411
  H  H17  1  0.026000  0.659500  0.094400  1.0  0.0557
  H  H18  1  0.873300  0.570800  0.111500  1.0  0.0485
  H  H19  1  0.957000  0.385800  0.096300  1.0  0.0447
  H  H20  1  0.163900  0.355500  0.069000  1.0  0.0563
  H  H21  1  0.621000  0.906200  0.225800  1.0  0.0832
  H  H22  1  0.293000  0.739400  0.433400  1.0  0.083
  H  H23  1  0.274600  0.609400  0.299500  1.0  0.0493
  H  H24  1  0.596000  0.768100  0.100400  1.0  0.0413
  H  H25  1  0.026000  0.840500  0.594400  1.0  0.0557
  H  H26  1  0.873300  0.929200  0.611500  1.0  0.0483
  H  H27  1  0.957000  0.114200  0.596300  1.0  0.0441
  H  H28  1  0.163900  0.144500  0.569000  1.0  0.0557
  H  H29  1  0.379000  0.406200  0.274200  1.0  0.0833
  H  H30  1  0.707000  0.239400  0.066600  1.0  0.0823
  H  H31  1  0.725400  0.109400  0.200500  1.0  0.0498
  H  H32  1  0.404000  0.268100  0.399600  1.0  0.0417
  H  H33  1  0.974000  0.340500  0.905600  1.0  0.0556
  H  H34  1  0.126700  0.429200  0.888500  1.0  0.0503
  H  H35  1  0.043000  0.614200  0.903700  1.0  0.044
  H  H36  1  0.836100  0.644500  0.931000  1.0  0.0554
  C  C37  1  0.542100  0.157260  0.652260  1.0  0.2896
  C  C38  1  0.450800  0.153550  0.756440  1.0  -0.2222
  C  C39  1  0.644800  0.251540  0.634230  1.0  -0.2517
  C  C40  1  0.653800  0.330040  0.715410  1.0  0.1455
  C  C41  1  0.467100  0.237410  0.831850  1.0  0.1415
  C  C42  1  0.016500  0.088980  0.430400  1.0  0.0566
  C  C43  1  0.934500  0.907880  0.445400  1.0  0.0647
  C  C44  1  0.457900  0.657260  0.847740  1.0  0.2912
  C  C45  1  0.549200  0.653550  0.743560  1.0  -0.2222
  C  C46  1  0.355200  0.751540  0.865770  1.0  -0.2517
  C  C47  1  0.346200  0.830040  0.784590  1.0  0.1453
  C  C48  1  0.532900  0.737410  0.668150  1.0  0.1415
  C  C49  1  0.983500  0.588980  0.069600  1.0  0.0568
  C  C50  1  0.065500  0.407880  0.054600  1.0  0.0643
  C  C51  1  0.457900  0.842740  0.347740  1.0  0.2919
  C  C52  1  0.549200  0.846450  0.243560  1.0  -0.2222
  C  C53  1  0.355200  0.748460  0.365770  1.0  -0.2505
  C  C54  1  0.346200  0.669960  0.284590  1.0  0.1473
  C  C55  1  0.532900  0.762590  0.168150  1.0  0.1415
  C  C56  1  0.983500  0.911020  0.569600  1.0  0.0569
  C  C57  1  0.065500  0.092120  0.554600  1.0  0.0644
  C  C58  1  0.542100  0.342740  0.152260  1.0  0.2898
  C  C59  1  0.450800  0.346450  0.256440  1.0  -0.2225
  C  C60  1  0.644800  0.248460  0.134230  1.0  -0.2519
  C  C61  1  0.653800  0.169960  0.215410  1.0  0.1456
  C  C62  1  0.467100  0.262590  0.331850  1.0  0.1411
  C  C63  1  0.016500  0.411020  0.930400  1.0  0.0556
  C  C64  1  0.934500  0.592120  0.945400  1.0  0.0648
  N  N65  1  0.567500  0.326770  0.814970  1.0  -0.3644
  N  N66  1  0.432500  0.826770  0.685030  1.0  -0.365
  N  N67  1  0.432500  0.673230  0.185030  1.0  -0.3652
  N  N68  1  0.567500  0.173230  0.314970  1.0  -0.3649
  O  O69  1  0.531300  0.079550  0.578760  1.0  -0.7221
  O  O70  1  0.873300  0.011560  0.406590  1.0  -0.4244
  O  O71  1  0.468700  0.579550  0.921240  1.0  -0.7233
  O  O72  1  0.126700  0.511560  0.093410  1.0  -0.4272
  O  O73  1  0.468700  0.920450  0.421240  1.0  -0.7233
  O  O74  1  0.126700  0.988440  0.593410  1.0  -0.4273
  O  O75  1  0.531300  0.420450  0.078760  1.0  -0.7216
  O  O76  1  0.873300  0.488440  0.906590  1.0  -0.4254
