# generated using pymatgen
data_Tb3H12C32NO19
_symmetry_space_group_name_H-M   'P 1'
_cell_length_a   23.25980000
_cell_length_b   19.13650000
_cell_length_c   11.89280000
_cell_angle_alpha   90.00000000
_cell_angle_beta   90.00000000
_cell_angle_gamma   90.00000000
_symmetry_Int_Tables_number   1
_chemical_formula_structural   Tb3H12C32NO19
_chemical_formula_sum   'Tb12 H48 C128 N4 O76'
_cell_volume   5293.61803576
_cell_formula_units_Z   4
loop_
 _symmetry_equiv_pos_site_id
 _symmetry_equiv_pos_as_xyz
  1  'x, y, z'
loop_
 _atom_site_type_symbol
 _atom_site_label
 _atom_site_symmetry_multiplicity
 _atom_site_fract_x
 _atom_site_fract_y
 _atom_site_fract_z
 _atom_site_occupancy
 _atom_site_charge
  Tb  Tb1  1  0.439560  0.250000  0.584000  1.0  2.2953
  Tb  Tb2  1  0.566280  0.250000  0.072260  1.0  2.2668
  Tb  Tb3  1  0.560440  0.750000  0.416000  1.0  2.2943
  Tb  Tb4  1  0.433720  0.750000  0.927740  1.0  2.2663
  Tb  Tb5  1  0.939560  0.250000  0.416000  1.0  2.2952
  Tb  Tb6  1  0.066280  0.250000  0.927740  1.0  2.2668
  Tb  Tb7  1  0.060440  0.750000  0.584000  1.0  2.294
  Tb  Tb8  1  0.933720  0.750000  0.072260  1.0  2.2666
  Tb  Tb9  1  0.250000  0.000000  0.733900  1.0  2.2399
  Tb  Tb10  1  0.750000  0.500000  0.266100  1.0  2.231
  Tb  Tb11  1  0.750000  0.000000  0.266100  1.0  2.231
  Tb  Tb12  1  0.250000  0.500000  0.733900  1.0  2.2399
  H  H13  1  0.473900  0.094100  0.799000  1.0  0.1074
  H  H14  1  0.469500  0.902400  0.696400  1.0  0.1003
  H  H15  1  0.386200  0.946900  0.055900  1.0  0.1119
  H  H16  1  0.433800  0.045000  0.118100  1.0  0.1029
  H  H17  1  0.387000  0.057900  0.446000  1.0  0.1183
  H  H18  1  0.432200  0.957500  0.379500  1.0  0.1033
  H  H19  1  0.526100  0.594100  0.201000  1.0  0.1071
  H  H20  1  0.530500  0.402400  0.303600  1.0  0.1003
  H  H21  1  0.613800  0.446900  0.944100  1.0  0.1115
  H  H22  1  0.566200  0.545000  0.881900  1.0  0.1028
  H  H23  1  0.613000  0.557900  0.554000  1.0  0.1178
  H  H24  1  0.567800  0.457500  0.620500  1.0  0.1027
  H  H25  1  0.973900  0.405900  0.201000  1.0  0.1089
  H  H26  1  0.969500  0.597600  0.303600  1.0  0.0993
  H  H27  1  0.886200  0.553100  0.944100  1.0  0.1115
  H  H28  1  0.933800  0.455000  0.881900  1.0  0.1025
  H  H29  1  0.887000  0.442100  0.554000  1.0  0.1186
  H  H30  1  0.932200  0.542500  0.620500  1.0  0.1029
  H  H31  1  0.026100  0.905900  0.799000  1.0  0.1088
  H  H32  1  0.030500  0.097600  0.696400  1.0  0.0992
  H  H33  1  0.113800  0.053100  0.055900  1.0  0.1116
  H  H34  1  0.066200  0.955000  0.118100  1.0  0.1024
  H  H35  1  0.113000  0.942100  0.446000  1.0  0.1181
  H  H36  1  0.067800  0.042500  0.379500  1.0  0.103
  H  H37  1  0.526100  0.905900  0.201000  1.0  0.1088
  H  H38  1  0.530500  0.097600  0.303600  1.0  0.0994
  H  H39  1  0.613800  0.053100  0.944100  1.0  0.1117
  H  H40  1  0.566200  0.955000  0.881900  1.0  0.1023
  H  H41  1  0.613000  0.942100  0.554000  1.0  0.118
  H  H42  1  0.567800  0.042500  0.620500  1.0  0.1026
  H  H43  1  0.473900  0.405900  0.799000  1.0  0.1085
  H  H44  1  0.469500  0.597600  0.696400  1.0  0.0991
  H  H45  1  0.386200  0.553100  0.055900  1.0  0.1119
  H  H46  1  0.433800  0.455000  0.118100  1.0  0.1028
  H  H47  1  0.387000  0.442100  0.446000  1.0  0.1181
  H  H48  1  0.432200  0.542500  0.379500  1.0  0.103
  H  H49  1  0.026100  0.594100  0.799000  1.0  0.1073
  H  H50  1  0.030500  0.402400  0.696400  1.0  0.1002
  H  H51  1  0.113800  0.446900  0.055900  1.0  0.1116
  H  H52  1  0.066200  0.545000  0.118100  1.0  0.1026
  H  H53  1  0.113000  0.557900  0.446000  1.0  0.1183
  H  H54  1  0.067800  0.457500  0.379500  1.0  0.1032
  H  H55  1  0.973900  0.094100  0.201000  1.0  0.107
  H  H56  1  0.969500  0.902400  0.303600  1.0  0.1004
  H  H57  1  0.886200  0.946900  0.944100  1.0  0.111
  H  H58  1  0.933800  0.045000  0.881900  1.0  0.1026
  H  H59  1  0.887000  0.057900  0.554000  1.0  0.1184
  H  H60  1  0.932200  0.957500  0.620500  1.0  0.1033
  C  C61  1  0.363900  0.099300  0.652800  1.0  0.7287
  C  C62  1  0.487400  0.857500  0.490700  1.0  0.6706
  C  C63  1  0.455400  0.919900  0.531000  1.0  -0.1501
  C  C64  1  0.399500  0.038200  0.611200  1.0  -0.0873
  C  C65  1  0.455300  0.065200  0.850300  1.0  -0.0437
  C  C66  1  0.452400  0.933400  0.646400  1.0  -0.0517
  C  C67  1  0.398400  0.963400  0.889600  1.0  -0.1123
  C  C68  1  0.424700  0.991600  0.687500  1.0  -0.0597
  C  C69  1  0.458400  0.080300  0.964700  1.0  -0.1357
  C  C70  1  0.402900  0.977200  0.004200  1.0  -0.0531
  C  C71  1  0.424900  0.007300  0.811800  1.0  0.0021
  C  C72  1  0.361600  0.902900  0.850300  1.0  0.7162
  C  C73  1  0.431900  0.035500  0.041600  1.0  -0.0316
  C  C74  1  0.492600  0.142000  0.003200  1.0  0.694
  C  C75  1  0.403000  0.026200  0.496300  1.0  -0.07
  C  C76  1  0.430600  0.966200  0.456400  1.0  -0.0284
  C  C77  1  0.636100  0.599300  0.347200  1.0  0.7274
  C  C78  1  0.512600  0.357500  0.509300  1.0  0.6717
  C  C79  1  0.544600  0.419900  0.469000  1.0  -0.1491
  C  C80  1  0.600500  0.538200  0.388800  1.0  -0.0853
  C  C81  1  0.544700  0.565200  0.149700  1.0  -0.044
  C  C82  1  0.547600  0.433400  0.353600  1.0  -0.0522
  C  C83  1  0.601600  0.463400  0.110400  1.0  -0.1109
  C  C84  1  0.575300  0.491600  0.312500  1.0  -0.0587
  C  C85  1  0.541600  0.580300  0.035300  1.0  -0.1354
  C  C86  1  0.597100  0.477200  0.995800  1.0  -0.0562
  C  C87  1  0.575100  0.507300  0.188200  1.0  0.0027
  C  C88  1  0.638400  0.402900  0.149700  1.0  0.7171
  C  C89  1  0.568100  0.535500  0.958400  1.0  -0.0324
  C  C90  1  0.507400  0.642000  0.996800  1.0  0.6945
  C  C91  1  0.597000  0.526200  0.503700  1.0  -0.0677
  C  C92  1  0.569400  0.466200  0.543600  1.0  -0.0299
  C  C93  1  0.863900  0.400700  0.347200  1.0  0.726
  C  C94  1  0.987400  0.642500  0.509300  1.0  0.6682
  C  C95  1  0.955400  0.580100  0.469000  1.0  -0.1474
  C  C96  1  0.899500  0.461800  0.388800  1.0  -0.0876
  C  C97  1  0.955300  0.434800  0.149700  1.0  -0.0433
  C  C98  1  0.952400  0.566600  0.353600  1.0  -0.0527
  C  C99  1  0.898400  0.536600  0.110400  1.0  -0.1108
  C  C100  1  0.924700  0.508400  0.312500  1.0  -0.0595
  C  C101  1  0.958400  0.419700  0.035300  1.0  -0.1367
  C  C102  1  0.902900  0.522800  0.995800  1.0  -0.0549
  C  C103  1  0.924900  0.492700  0.188200  1.0  0.0027
  C  C104  1  0.861600  0.597100  0.149700  1.0  0.7191
  C  C105  1  0.931900  0.464500  0.958400  1.0  -0.0309
  C  C106  1  0.992600  0.358000  0.996800  1.0  0.6933
  C  C107  1  0.903000  0.473800  0.503700  1.0  -0.068
  C  C108  1  0.930600  0.533800  0.543600  1.0  -0.0311
  C  C109  1  0.136100  0.900700  0.652800  1.0  0.7295
  C  C110  1  0.012600  0.142500  0.490700  1.0  0.669
  C  C111  1  0.044600  0.080100  0.531000  1.0  -0.1476
  C  C112  1  0.100500  0.961800  0.611200  1.0  -0.085
  C  C113  1  0.044700  0.934800  0.850300  1.0  -0.0441
  C  C114  1  0.047600  0.066600  0.646400  1.0  -0.0522
  C  C115  1  0.101600  0.036600  0.889600  1.0  -0.1104
  C  C116  1  0.075300  0.008400  0.687500  1.0  -0.059
  C  C117  1  0.041600  0.919700  0.964700  1.0  -0.1354
  C  C118  1  0.097100  0.022800  0.004200  1.0  -0.0563
  C  C119  1  0.075100  0.992700  0.811800  1.0  0.0031
  C  C120  1  0.138400  0.097100  0.850300  1.0  0.7155
  C  C121  1  0.068100  0.964500  0.041600  1.0  -0.0327
  C  C122  1  0.007400  0.858000  0.003200  1.0  0.6937
  C  C123  1  0.097000  0.973800  0.496300  1.0  -0.0703
  C  C124  1  0.069400  0.033800  0.456400  1.0  -0.0284
  C  C125  1  0.636100  0.900700  0.347200  1.0  0.7301
  C  C126  1  0.512600  0.142500  0.509300  1.0  0.6688
  C  C127  1  0.544600  0.080100  0.469000  1.0  -0.1478
  C  C128  1  0.600500  0.961800  0.388800  1.0  -0.0847
  C  C129  1  0.544700  0.934800  0.149700  1.0  -0.0438
  C  C130  1  0.547600  0.066600  0.353600  1.0  -0.0525
  C  C131  1  0.601600  0.036600  0.110400  1.0  -0.1103
  C  C132  1  0.575300  0.008400  0.312500  1.0  -0.0588
  C  C133  1  0.541600  0.919700  0.035300  1.0  -0.1355
  C  C134  1  0.597100  0.022800  0.995800  1.0  -0.0571
  C  C135  1  0.575100  0.992700  0.188200  1.0  0.0031
  C  C136  1  0.638400  0.097100  0.149700  1.0  0.7155
  C  C137  1  0.568100  0.964500  0.958400  1.0  -0.0319
  C  C138  1  0.507400  0.858000  0.996800  1.0  0.6937
  C  C139  1  0.597000  0.973800  0.503700  1.0  -0.0685
  C  C140  1  0.569400  0.033800  0.543600  1.0  -0.0291
  C  C141  1  0.363900  0.400700  0.652800  1.0  0.7265
  C  C142  1  0.487400  0.642500  0.490700  1.0  0.6683
  C  C143  1  0.455400  0.580100  0.531000  1.0  -0.1476
  C  C144  1  0.399500  0.461800  0.611200  1.0  -0.0872
  C  C145  1  0.455300  0.434800  0.850300  1.0  -0.0438
  C  C146  1  0.452400  0.566600  0.646400  1.0  -0.052
  C  C147  1  0.398400  0.536600  0.889600  1.0  -0.1112
  C  C148  1  0.424700  0.508400  0.687500  1.0  -0.0597
  C  C149  1  0.458400  0.419700  0.964700  1.0  -0.1363
  C  C150  1  0.402900  0.522800  0.004200  1.0  -0.0544
  C  C151  1  0.424900  0.492700  0.811800  1.0  0.0025
  C  C152  1  0.361600  0.597100  0.850300  1.0  0.7195
  C  C153  1  0.431900  0.464500  0.041600  1.0  -0.0317
  C  C154  1  0.492600  0.358000  0.003200  1.0  0.6933
  C  C155  1  0.403000  0.473800  0.496300  1.0  -0.0698
  C  C156  1  0.430600  0.533800  0.456400  1.0  -0.0299
  C  C157  1  0.136100  0.599300  0.652800  1.0  0.7268
  C  C158  1  0.012600  0.357500  0.490700  1.0  0.6717
  C  C159  1  0.044600  0.419900  0.531000  1.0  -0.149
  C  C160  1  0.100500  0.538200  0.611200  1.0  -0.0854
  C  C161  1  0.044700  0.565200  0.850300  1.0  -0.0442
  C  C162  1  0.047600  0.433400  0.646400  1.0  -0.0513
  C  C163  1  0.101600  0.463400  0.889600  1.0  -0.1112
  C  C164  1  0.075300  0.491600  0.687500  1.0  -0.0587
  C  C165  1  0.041600  0.580300  0.964700  1.0  -0.1355
  C  C166  1  0.097100  0.477200  0.004200  1.0  -0.056
  C  C167  1  0.075100  0.507300  0.811800  1.0  0.0025
  C  C168  1  0.138400  0.402900  0.850300  1.0  0.7167
  C  C169  1  0.068100  0.535500  0.041600  1.0  -0.0315
  C  C170  1  0.007400  0.642000  0.003200  1.0  0.6944
  C  C171  1  0.097000  0.526200  0.496300  1.0  -0.0697
  C  C172  1  0.069400  0.466200  0.456400  1.0  -0.0278
  C  C173  1  0.863900  0.099300  0.347200  1.0  0.7286
  C  C174  1  0.987400  0.857500  0.509300  1.0  0.6708
  C  C175  1  0.955400  0.919900  0.469000  1.0  -0.1496
  C  C176  1  0.899500  0.038200  0.388800  1.0  -0.0879
  C  C177  1  0.955300  0.065200  0.149700  1.0  -0.0435
  C  C178  1  0.952400  0.933400  0.353600  1.0  -0.0528
  C  C179  1  0.898400  0.963400  0.110400  1.0  -0.1118
  C  C180  1  0.924700  0.991600  0.312500  1.0  -0.0597
  C  C181  1  0.958400  0.080300  0.035300  1.0  -0.1356
  C  C182  1  0.902900  0.977200  0.995800  1.0  -0.0537
  C  C183  1  0.924900  0.007300  0.188200  1.0  0.0023
  C  C184  1  0.861600  0.902900  0.149700  1.0  0.7159
  C  C185  1  0.931900  0.035500  0.958400  1.0  -0.0325
  C  C186  1  0.992600  0.142000  0.996800  1.0  0.6943
  C  C187  1  0.903000  0.026200  0.503700  1.0  -0.0688
  C  C188  1  0.930600  0.966200  0.543600  1.0  -0.0316
  N  N189  1  0.250000  0.000000  0.977200  1.0  0.84
  N  N190  1  0.750000  0.500000  0.022800  1.0  0.8412
  N  N191  1  0.750000  0.000000  0.022800  1.0  0.8412
  N  N192  1  0.250000  0.500000  0.977200  1.0  0.84
  O  O193  1  0.318200  0.917200  0.790800  1.0  -0.7512
  O  O194  1  0.374200  0.842500  0.878700  1.0  -0.7839
  O  O195  1  0.490500  0.163000  0.104400  1.0  -0.6459
  O  O196  1  0.483800  0.837600  0.389200  1.0  -0.6381
  O  O197  1  0.379900  0.160100  0.633100  1.0  -0.8004
  O  O198  1  0.318700  0.084900  0.705300  1.0  -0.7576
  O  O199  1  0.524500  0.173600  0.934200  1.0  -0.6234
  O  O200  1  0.282200  0.040100  0.922700  1.0  -0.585
  O  O201  1  0.519900  0.824200  0.557000  1.0  -0.6426
  O  O202  1  0.681800  0.417200  0.209200  1.0  -0.7505
  O  O203  1  0.625800  0.342500  0.121300  1.0  -0.7865
  O  O204  1  0.509500  0.663000  0.895600  1.0  -0.6423
  O  O205  1  0.516200  0.337600  0.610800  1.0  -0.6396
  O  O206  1  0.620100  0.660100  0.366900  1.0  -0.7985
  O  O207  1  0.681300  0.584900  0.294700  1.0  -0.756
  O  O208  1  0.475500  0.673600  0.065800  1.0  -0.6237
  O  O209  1  0.717800  0.540100  0.077300  1.0  -0.5839
  O  O210  1  0.480100  0.324200  0.443000  1.0  -0.6393
  O  O211  1  0.818200  0.582800  0.209200  1.0  -0.7515
  O  O212  1  0.874200  0.657500  0.121300  1.0  -0.7852
  O  O213  1  0.990500  0.337000  0.895600  1.0  -0.6411
  O  O214  1  0.983800  0.662400  0.610800  1.0  -0.6414
  O  O215  1  0.879900  0.339900  0.366900  1.0  -0.7988
  O  O216  1  0.818700  0.415100  0.294700  1.0  -0.7554
  O  O217  1  0.024500  0.326400  0.065800  1.0  -0.6255
  O  O218  1  0.782200  0.459900  0.077300  1.0  -0.5828
  O  O219  1  0.019900  0.675800  0.443000  1.0  -0.6416
  O  O220  1  0.181800  0.082800  0.790800  1.0  -0.7532
  O  O221  1  0.125800  0.157500  0.878700  1.0  -0.786
  O  O222  1  0.009500  0.837000  0.104400  1.0  -0.6436
  O  O223  1  0.016200  0.162400  0.389200  1.0  -0.6376
  O  O224  1  0.120100  0.839900  0.633100  1.0  -0.8004
  O  O225  1  0.181300  0.915100  0.705300  1.0  -0.7571
  O  O226  1  0.975500  0.826400  0.934200  1.0  -0.6223
  O  O227  1  0.217800  0.959900  0.922700  1.0  -0.5844
  O  O228  1  0.980100  0.175800  0.557000  1.0  -0.641
  O  O229  1  0.681800  0.082800  0.209200  1.0  -0.7533
  O  O230  1  0.625800  0.157500  0.121300  1.0  -0.7857
  O  O231  1  0.509500  0.837000  0.895600  1.0  -0.6415
  O  O232  1  0.516200  0.162400  0.610800  1.0  -0.642
  O  O233  1  0.620100  0.839900  0.366900  1.0  -0.7999
  O  O234  1  0.681300  0.915100  0.294700  1.0  -0.7557
  O  O235  1  0.475500  0.826400  0.065800  1.0  -0.624
  O  O236  1  0.717800  0.959900  0.077300  1.0  -0.5841
  O  O237  1  0.480100  0.175800  0.443000  1.0  -0.6397
  O  O238  1  0.318200  0.582800  0.790800  1.0  -0.753
  O  O239  1  0.374200  0.657500  0.878700  1.0  -0.7855
  O  O240  1  0.490500  0.337000  0.104400  1.0  -0.6432
  O  O241  1  0.483800  0.662400  0.389200  1.0  -0.6396
  O  O242  1  0.379900  0.339900  0.633100  1.0  -0.7992
  O  O243  1  0.318700  0.415100  0.705300  1.0  -0.7561
  O  O244  1  0.524500  0.326400  0.934200  1.0  -0.6232
  O  O245  1  0.282200  0.459900  0.922700  1.0  -0.5835
  O  O246  1  0.519900  0.675800  0.557000  1.0  -0.6425
  O  O247  1  0.181800  0.417200  0.790800  1.0  -0.7513
  O  O248  1  0.125800  0.342500  0.878700  1.0  -0.7866
  O  O249  1  0.009500  0.663000  0.104400  1.0  -0.6453
  O  O250  1  0.016200  0.337600  0.389200  1.0  -0.638
  O  O251  1  0.120100  0.660100  0.633100  1.0  -0.7991
  O  O252  1  0.181300  0.584900  0.705300  1.0  -0.7568
  O  O253  1  0.975500  0.673600  0.934200  1.0  -0.6226
  O  O254  1  0.217800  0.540100  0.922700  1.0  -0.5842
  O  O255  1  0.980100  0.324200  0.557000  1.0  -0.6409
  O  O256  1  0.818200  0.917200  0.209200  1.0  -0.7482
  O  O257  1  0.874200  0.842500  0.121300  1.0  -0.7844
  O  O258  1  0.990500  0.163000  0.895600  1.0  -0.6424
  O  O259  1  0.983800  0.837600  0.610800  1.0  -0.6413
  O  O260  1  0.879900  0.160100  0.366900  1.0  -0.8001
  O  O261  1  0.818700  0.084900  0.294700  1.0  -0.7574
  O  O262  1  0.024500  0.173600  0.065800  1.0  -0.6248
  O  O263  1  0.782200  0.040100  0.077300  1.0  -0.5849
  O  O264  1  0.019900  0.824200  0.443000  1.0  -0.6413
  O  O265  1  0.250000  0.000000  0.078200  1.0  -0.4538
  O  O266  1  0.750000  0.500000  0.921800  1.0  -0.4489
  O  O267  1  0.750000  0.000000  0.921800  1.0  -0.4489
  O  O268  1  0.250000  0.500000  0.078200  1.0  -0.4538
