# generated using pymatgen
data_Zr3H32C56(O7F3)2
_symmetry_space_group_name_H-M   'P 1'
_cell_length_a   49.92000000
_cell_length_b   49.92000000
_cell_length_c   16.19500000
_cell_angle_alpha   90.00000000
_cell_angle_beta   90.00000000
_cell_angle_gamma   120.00000000
_symmetry_Int_Tables_number   1
_chemical_formula_structural   Zr3H32C56(O7F3)2
_chemical_formula_sum   'Zr18 H192 C336 O84 F36'
_cell_volume   34951.09104621
_cell_formula_units_Z   6
loop_
 _symmetry_equiv_pos_site_id
 _symmetry_equiv_pos_as_xyz
  1  'x, y, z'
loop_
 _atom_site_type_symbol
 _atom_site_label
 _atom_site_symmetry_multiplicity
 _atom_site_fract_x
 _atom_site_fract_y
 _atom_site_fract_z
 _atom_site_occupancy
 _atom_site_charge
  Zr  Zr1  1  0.463880  0.000000  0.108300  1.0  2.0654
  Zr  Zr2  1  0.000000  0.463880  0.108300  1.0  2.0683
  Zr  Zr3  1  0.536120  0.536120  0.108300  1.0  2.0661
  Zr  Zr4  1  0.536120  0.000000  0.108300  1.0  2.0491
  Zr  Zr5  1  0.000000  0.536120  0.108300  1.0  2.0667
  Zr  Zr6  1  0.463880  0.463880  0.108300  1.0  2.0705
  Zr  Zr7  1  0.000000  0.463880  0.891700  1.0  2.0678
  Zr  Zr8  1  0.463880  0.000000  0.891700  1.0  2.065
  Zr  Zr9  1  0.536120  0.536120  0.891700  1.0  2.0658
  Zr  Zr10  1  0.000000  0.536120  0.891700  1.0  2.0664
  Zr  Zr11  1  0.536120  0.000000  0.891700  1.0  2.0485
  Zr  Zr12  1  0.463880  0.463880  0.891700  1.0  2.0701
  Zr  Zr13  1  0.526690  0.053380  0.000000  1.0  1.9876
  Zr  Zr14  1  0.946620  0.473310  0.000000  1.0  1.9841
  Zr  Zr15  1  0.526690  0.473310  0.000000  1.0  1.9824
  Zr  Zr16  1  0.473310  0.946620  0.000000  1.0  1.9882
  Zr  Zr17  1  0.053380  0.526690  0.000000  1.0  1.9836
  Zr  Zr18  1  0.473310  0.526690  0.000000  1.0  1.9852
  H  H19  1  0.454270  0.078340  0.227940  1.0  0.1382
  H  H20  1  0.457180  0.120600  0.304750  1.0  0.1344
  H  H21  1  0.547520  0.176420  0.225450  1.0  0.1394
  H  H22  1  0.544500  0.134250  0.149030  1.0  0.1347
  H  H23  1  0.455890  0.161260  0.319070  1.0  0.1353
  H  H24  1  0.457660  0.202790  0.396810  1.0  0.137
  H  H25  1  0.552910  0.243750  0.414380  1.0  0.1394
  H  H26  1  0.551120  0.202200  0.336620  1.0  0.141
  H  H27  1  0.921660  0.375930  0.227940  1.0  0.1386
  H  H28  1  0.879400  0.336580  0.304750  1.0  0.1331
  H  H29  1  0.823580  0.371100  0.225450  1.0  0.139
  H  H30  1  0.865750  0.410250  0.149030  1.0  0.1337
  H  H31  1  0.838740  0.294630  0.319070  1.0  0.1354
  H  H32  1  0.797210  0.254870  0.396810  1.0  0.1359
  H  H33  1  0.756250  0.309160  0.414380  1.0  0.1394
  H  H34  1  0.797800  0.348920  0.336620  1.0  0.1416
  H  H35  1  0.624070  0.545730  0.227940  1.0  0.1401
  H  H36  1  0.663420  0.542820  0.304750  1.0  0.1337
  H  H37  1  0.628900  0.452480  0.225450  1.0  0.1396
  H  H38  1  0.589750  0.455500  0.149030  1.0  0.1347
  H  H39  1  0.705370  0.544110  0.319070  1.0  0.1364
  H  H40  1  0.745130  0.542340  0.396810  1.0  0.1382
  H  H41  1  0.690840  0.447090  0.414380  1.0  0.1383
  H  H42  1  0.651080  0.448880  0.336620  1.0  0.1417
  H  H43  1  0.545730  0.921660  0.227940  1.0  0.139
  H  H44  1  0.542820  0.879400  0.304750  1.0  0.1343
  H  H45  1  0.452480  0.823580  0.225450  1.0  0.1397
  H  H46  1  0.455500  0.865750  0.149030  1.0  0.1346
  H  H47  1  0.544110  0.838740  0.319070  1.0  0.1367
  H  H48  1  0.542340  0.797210  0.396810  1.0  0.1382
  H  H49  1  0.447090  0.756250  0.414380  1.0  0.1387
  H  H50  1  0.448880  0.797800  0.336620  1.0  0.1407
  H  H51  1  0.078340  0.624070  0.227940  1.0  0.1382
  H  H52  1  0.120600  0.663420  0.304750  1.0  0.1345
  H  H53  1  0.176420  0.628900  0.225450  1.0  0.1392
  H  H54  1  0.134250  0.589750  0.149030  1.0  0.1342
  H  H55  1  0.161260  0.705370  0.319070  1.0  0.1353
  H  H56  1  0.202790  0.745130  0.396810  1.0  0.1358
  H  H57  1  0.243750  0.690840  0.414380  1.0  0.1387
  H  H58  1  0.202200  0.651080  0.336620  1.0  0.1416
  H  H59  1  0.375930  0.454270  0.227940  1.0  0.1392
  H  H60  1  0.336580  0.457180  0.304750  1.0  0.1337
  H  H61  1  0.371100  0.547520  0.225450  1.0  0.139
  H  H62  1  0.410250  0.544500  0.149030  1.0  0.1336
  H  H63  1  0.294630  0.455890  0.319070  1.0  0.1362
  H  H64  1  0.254870  0.457660  0.396810  1.0  0.1364
  H  H65  1  0.309160  0.552910  0.414380  1.0  0.1391
  H  H66  1  0.348920  0.551120  0.336620  1.0  0.1413
  H  H67  1  0.078340  0.454270  0.772060  1.0  0.1391
  H  H68  1  0.120600  0.457180  0.695250  1.0  0.1335
  H  H69  1  0.176420  0.547520  0.774550  1.0  0.1394
  H  H70  1  0.134250  0.544500  0.850970  1.0  0.1337
  H  H71  1  0.161260  0.455890  0.680930  1.0  0.1365
  H  H72  1  0.202790  0.457660  0.603190  1.0  0.1379
  H  H73  1  0.243750  0.552910  0.585620  1.0  0.1392
  H  H74  1  0.202200  0.551120  0.663380  1.0  0.1417
  H  H75  1  0.375930  0.921660  0.772060  1.0  0.139
  H  H76  1  0.336580  0.879400  0.695250  1.0  0.1344
  H  H77  1  0.371100  0.823580  0.774550  1.0  0.1402
  H  H78  1  0.410250  0.865750  0.850970  1.0  0.1348
  H  H79  1  0.294630  0.838740  0.680930  1.0  0.1358
  H  H80  1  0.254870  0.797210  0.603190  1.0  0.1347
  H  H81  1  0.309160  0.756250  0.585620  1.0  0.1391
  H  H82  1  0.348920  0.797800  0.663380  1.0  0.1404
  H  H83  1  0.545730  0.624070  0.772060  1.0  0.139
  H  H84  1  0.542820  0.663420  0.695250  1.0  0.1349
  H  H85  1  0.452480  0.628900  0.774550  1.0  0.1389
  H  H86  1  0.455500  0.589750  0.850970  1.0  0.1334
  H  H87  1  0.544110  0.705370  0.680930  1.0  0.1358
  H  H88  1  0.542340  0.745130  0.603190  1.0  0.1375
  H  H89  1  0.447090  0.690840  0.585620  1.0  0.1391
  H  H90  1  0.448880  0.651080  0.663380  1.0  0.1414
  H  H91  1  0.921660  0.545730  0.772060  1.0  0.1394
  H  H92  1  0.879400  0.542820  0.695250  1.0  0.1342
  H  H93  1  0.823580  0.452480  0.774550  1.0  0.1396
  H  H94  1  0.865750  0.455500  0.850970  1.0  0.1335
  H  H95  1  0.838740  0.544110  0.680930  1.0  0.1362
  H  H96  1  0.797210  0.542340  0.603190  1.0  0.1392
  H  H97  1  0.756250  0.447090  0.585620  1.0  0.1381
  H  H98  1  0.797800  0.448880  0.663380  1.0  0.1413
  H  H99  1  0.624070  0.078340  0.772060  1.0  0.1388
  H  H100  1  0.663420  0.120600  0.695250  1.0  0.1335
  H  H101  1  0.628900  0.176420  0.774550  1.0  0.1396
  H  H102  1  0.589750  0.134250  0.850970  1.0  0.1343
  H  H103  1  0.705370  0.161260  0.680930  1.0  0.1354
  H  H104  1  0.745130  0.202790  0.603190  1.0  0.1355
  H  H105  1  0.690840  0.243750  0.585620  1.0  0.1402
  H  H106  1  0.651080  0.202200  0.663380  1.0  0.1403
  H  H107  1  0.454270  0.375930  0.772060  1.0  0.1384
  H  H108  1  0.457180  0.336580  0.695250  1.0  0.1338
  H  H109  1  0.547520  0.371100  0.774550  1.0  0.1391
  H  H110  1  0.544500  0.410250  0.850970  1.0  0.1332
  H  H111  1  0.455890  0.294630  0.680930  1.0  0.1356
  H  H112  1  0.457660  0.254870  0.603190  1.0  0.1358
  H  H113  1  0.552910  0.309160  0.585620  1.0  0.139
  H  H114  1  0.551120  0.348920  0.663380  1.0  0.1414
  H  H115  1  0.545730  0.921660  0.772060  1.0  0.1391
  H  H116  1  0.542820  0.879400  0.695250  1.0  0.1343
  H  H117  1  0.452480  0.823580  0.774550  1.0  0.1401
  H  H118  1  0.455500  0.865750  0.850970  1.0  0.1353
  H  H119  1  0.544110  0.838740  0.680930  1.0  0.1362
  H  H120  1  0.542340  0.797210  0.603190  1.0  0.1381
  H  H121  1  0.447090  0.756250  0.585620  1.0  0.139
  H  H122  1  0.448880  0.797800  0.663380  1.0  0.1406
  H  H123  1  0.078340  0.624070  0.772060  1.0  0.1382
  H  H124  1  0.120600  0.663420  0.695250  1.0  0.1343
  H  H125  1  0.176420  0.628900  0.774550  1.0  0.1391
  H  H126  1  0.134250  0.589750  0.850970  1.0  0.1342
  H  H127  1  0.161260  0.705370  0.680930  1.0  0.1353
  H  H128  1  0.202790  0.745130  0.603190  1.0  0.1357
  H  H129  1  0.243750  0.690840  0.585620  1.0  0.1389
  H  H130  1  0.202200  0.651080  0.663380  1.0  0.1411
  H  H131  1  0.375930  0.454270  0.772060  1.0  0.1391
  H  H132  1  0.336580  0.457180  0.695250  1.0  0.1334
  H  H133  1  0.371100  0.547520  0.774550  1.0  0.1391
  H  H134  1  0.410250  0.544500  0.850970  1.0  0.1339
  H  H135  1  0.294630  0.455890  0.680930  1.0  0.1363
  H  H136  1  0.254870  0.457660  0.603190  1.0  0.136
  H  H137  1  0.309160  0.552910  0.585620  1.0  0.1393
  H  H138  1  0.348920  0.551120  0.663380  1.0  0.1414
  H  H139  1  0.454270  0.078340  0.772060  1.0  0.1381
  H  H140  1  0.457180  0.120600  0.695250  1.0  0.1338
  H  H141  1  0.547520  0.176420  0.774550  1.0  0.1393
  H  H142  1  0.544500  0.134250  0.850970  1.0  0.1351
  H  H143  1  0.455890  0.161260  0.680930  1.0  0.1358
  H  H144  1  0.457660  0.202790  0.603190  1.0  0.1366
  H  H145  1  0.552910  0.243750  0.585620  1.0  0.1395
  H  H146  1  0.551120  0.202200  0.663380  1.0  0.1406
  H  H147  1  0.921660  0.375930  0.772060  1.0  0.1389
  H  H148  1  0.879400  0.336580  0.695250  1.0  0.1335
  H  H149  1  0.823580  0.371100  0.774550  1.0  0.139
  H  H150  1  0.865750  0.410250  0.850970  1.0  0.1343
  H  H151  1  0.838740  0.294630  0.680930  1.0  0.1354
  H  H152  1  0.797210  0.254870  0.603190  1.0  0.1359
  H  H153  1  0.756250  0.309160  0.585620  1.0  0.1397
  H  H154  1  0.797800  0.348920  0.663380  1.0  0.1416
  H  H155  1  0.624070  0.545730  0.772060  1.0  0.1398
  H  H156  1  0.663420  0.542820  0.695250  1.0  0.1338
  H  H157  1  0.628900  0.452480  0.774550  1.0  0.1398
  H  H158  1  0.589750  0.455500  0.850970  1.0  0.135
  H  H159  1  0.705370  0.544110  0.680930  1.0  0.1365
  H  H160  1  0.745130  0.542340  0.603190  1.0  0.1382
  H  H161  1  0.690840  0.447090  0.585620  1.0  0.1381
  H  H162  1  0.651080  0.448880  0.663380  1.0  0.1414
  H  H163  1  0.921660  0.545730  0.227940  1.0  0.1395
  H  H164  1  0.879400  0.542820  0.304750  1.0  0.1341
  H  H165  1  0.823580  0.452480  0.225450  1.0  0.1391
  H  H166  1  0.865750  0.455500  0.149030  1.0  0.1344
  H  H167  1  0.838740  0.544110  0.319070  1.0  0.136
  H  H168  1  0.797210  0.542340  0.396810  1.0  0.1393
  H  H169  1  0.756250  0.447090  0.414380  1.0  0.1383
  H  H170  1  0.797800  0.448880  0.336620  1.0  0.1415
  H  H171  1  0.624070  0.078340  0.227940  1.0  0.1385
  H  H172  1  0.663420  0.120600  0.304750  1.0  0.1337
  H  H173  1  0.628900  0.176420  0.225450  1.0  0.1395
  H  H174  1  0.589750  0.134250  0.149030  1.0  0.1354
  H  H175  1  0.705370  0.161260  0.319070  1.0  0.1354
  H  H176  1  0.745130  0.202790  0.396810  1.0  0.1356
  H  H177  1  0.690840  0.243750  0.414380  1.0  0.1401
  H  H178  1  0.651080  0.202200  0.336620  1.0  0.1403
  H  H179  1  0.454270  0.375930  0.227940  1.0  0.1382
  H  H180  1  0.457180  0.336580  0.304750  1.0  0.1343
  H  H181  1  0.547520  0.371100  0.225450  1.0  0.1392
  H  H182  1  0.544500  0.410250  0.149030  1.0  0.1348
  H  H183  1  0.455890  0.294630  0.319070  1.0  0.1352
  H  H184  1  0.457660  0.254870  0.396810  1.0  0.136
  H  H185  1  0.552910  0.309160  0.414380  1.0  0.1387
  H  H186  1  0.551120  0.348920  0.336620  1.0  0.1415
  H  H187  1  0.078340  0.454270  0.227940  1.0  0.1391
  H  H188  1  0.120600  0.457180  0.304750  1.0  0.134
  H  H189  1  0.176420  0.547520  0.225450  1.0  0.1395
  H  H190  1  0.134250  0.544500  0.149030  1.0  0.1353
  H  H191  1  0.161260  0.455890  0.319070  1.0  0.1363
  H  H192  1  0.202790  0.457660  0.396810  1.0  0.1386
  H  H193  1  0.243750  0.552910  0.414380  1.0  0.1391
  H  H194  1  0.202200  0.551120  0.336620  1.0  0.1416
  H  H195  1  0.375930  0.921660  0.227940  1.0  0.139
  H  H196  1  0.336580  0.879400  0.304750  1.0  0.1345
  H  H197  1  0.371100  0.823580  0.225450  1.0  0.14
  H  H198  1  0.410250  0.865750  0.149030  1.0  0.136
  H  H199  1  0.294630  0.838740  0.319070  1.0  0.1358
  H  H200  1  0.254870  0.797210  0.396810  1.0  0.1348
  H  H201  1  0.309160  0.756250  0.414380  1.0  0.1389
  H  H202  1  0.348920  0.797800  0.336620  1.0  0.1409
  H  H203  1  0.545730  0.624070  0.227940  1.0  0.1389
  H  H204  1  0.542820  0.663420  0.304750  1.0  0.1343
  H  H205  1  0.452480  0.628900  0.225450  1.0  0.1389
  H  H206  1  0.455500  0.589750  0.149030  1.0  0.1346
  H  H207  1  0.544110  0.705370  0.319070  1.0  0.1363
  H  H208  1  0.542340  0.745130  0.396810  1.0  0.1377
  H  H209  1  0.447090  0.690840  0.414380  1.0  0.1389
  H  H210  1  0.448880  0.651080  0.336620  1.0  0.1416
  C  C211  1  0.497280  0.075730  0.132950  1.0  0.6218
  C  C212  1  0.499150  0.102840  0.182220  1.0  -0.0428
  C  C213  1  0.473760  0.098870  0.227500  1.0  -0.0463
  C  C214  1  0.475450  0.123460  0.272180  1.0  -0.1116
  C  C215  1  0.502230  0.152260  0.272690  1.0  0.0274
  C  C216  1  0.527930  0.155970  0.226280  1.0  -0.0946
  C  C217  1  0.526230  0.131390  0.181610  1.0  -0.0461
  C  C218  1  0.503360  0.178340  0.321500  1.0  0.0488
  C  C219  1  0.476180  0.178520  0.339020  1.0  -0.1083
  C  C220  1  0.477220  0.202690  0.384250  1.0  -0.0596
  C  C221  1  0.505410  0.226700  0.412020  1.0  0.043
  C  C222  1  0.532610  0.226500  0.394460  1.0  -0.1188
  C  C223  1  0.531570  0.202330  0.349220  1.0  -0.0923
  C  C224  1  0.924270  0.421550  0.132950  1.0  0.6236
  C  C225  1  0.897160  0.396310  0.182220  1.0  -0.0426
  C  C226  1  0.901130  0.374890  0.227500  1.0  -0.046
  C  C227  1  0.876540  0.351990  0.272180  1.0  -0.1102
  C  C228  1  0.847740  0.349970  0.272690  1.0  0.0265
  C  C229  1  0.844030  0.371960  0.226280  1.0  -0.093
  C  C230  1  0.868610  0.394840  0.181610  1.0  -0.046
  C  C231  1  0.821660  0.325020  0.321500  1.0  0.0483
  C  C232  1  0.821480  0.297660  0.339020  1.0  -0.1085
  C  C233  1  0.797310  0.274530  0.384250  1.0  -0.0609
  C  C234  1  0.773300  0.278710  0.412020  1.0  0.0429
  C  C235  1  0.773500  0.306110  0.394460  1.0  -0.1187
  C  C236  1  0.797670  0.329240  0.349220  1.0  -0.0932
  C  C237  1  0.578450  0.502720  0.132950  1.0  0.6214
  C  C238  1  0.603690  0.500850  0.182220  1.0  -0.0411
  C  C239  1  0.625110  0.526240  0.227500  1.0  -0.0475
  C  C240  1  0.648010  0.524550  0.272180  1.0  -0.117
  C  C241  1  0.650030  0.497770  0.272690  1.0  0.0275
  C  C242  1  0.628040  0.472070  0.226280  1.0  -0.096
  C  C243  1  0.605160  0.473770  0.181610  1.0  -0.0502
  C  C244  1  0.674980  0.496640  0.321500  1.0  0.0486
  C  C245  1  0.702340  0.523820  0.339020  1.0  -0.1123
  C  C246  1  0.725470  0.522780  0.384250  1.0  -0.0615
  C  C247  1  0.721290  0.494590  0.412020  1.0  0.0426
  C  C248  1  0.693890  0.467390  0.394460  1.0  -0.1203
  C  C249  1  0.670760  0.468430  0.349220  1.0  -0.0957
  C  C250  1  0.502720  0.924270  0.132950  1.0  0.6245
  C  C251  1  0.500850  0.897160  0.182220  1.0  -0.0428
  C  C252  1  0.526240  0.901130  0.227500  1.0  -0.0464
  C  C253  1  0.524550  0.876540  0.272180  1.0  -0.1131
  C  C254  1  0.497770  0.847740  0.272690  1.0  0.0271
  C  C255  1  0.472070  0.844030  0.226280  1.0  -0.0945
  C  C256  1  0.473770  0.868610  0.181610  1.0  -0.0449
  C  C257  1  0.496640  0.821660  0.321500  1.0  0.0484
  C  C258  1  0.523820  0.821480  0.339020  1.0  -0.1091
  C  C259  1  0.522780  0.797310  0.384250  1.0  -0.0576
  C  C260  1  0.494590  0.773300  0.412020  1.0  0.043
  C  C261  1  0.467390  0.773500  0.394460  1.0  -0.1181
  C  C262  1  0.468430  0.797670  0.349220  1.0  -0.0894
  C  C263  1  0.075730  0.578450  0.132950  1.0  0.6225
  C  C264  1  0.102840  0.603690  0.182220  1.0  -0.0423
  C  C265  1  0.098870  0.625110  0.227500  1.0  -0.0432
  C  C266  1  0.123460  0.648010  0.272180  1.0  -0.1106
  C  C267  1  0.152260  0.650030  0.272690  1.0  0.0272
  C  C268  1  0.155970  0.628040  0.226280  1.0  -0.0936
  C  C269  1  0.131390  0.605160  0.181610  1.0  -0.0484
  C  C270  1  0.178340  0.674980  0.321500  1.0  0.0484
  C  C271  1  0.178520  0.702340  0.339020  1.0  -0.1079
  C  C272  1  0.202690  0.725470  0.384250  1.0  -0.0621
  C  C273  1  0.226700  0.721290  0.412020  1.0  0.044
  C  C274  1  0.226500  0.693890  0.394460  1.0  -0.118
  C  C275  1  0.202330  0.670760  0.349220  1.0  -0.0922
  C  C276  1  0.421550  0.497280  0.132950  1.0  0.6206
  C  C277  1  0.396310  0.499150  0.182220  1.0  -0.042
  C  C278  1  0.374890  0.473760  0.227500  1.0  -0.0475
  C  C279  1  0.351990  0.475450  0.272180  1.0  -0.1175
  C  C280  1  0.349970  0.502230  0.272690  1.0  0.0269
  C  C281  1  0.371960  0.527930  0.226280  1.0  -0.0959
  C  C282  1  0.394840  0.526230  0.181610  1.0  -0.0466
  C  C283  1  0.325020  0.503360  0.321500  1.0  0.0483
  C  C284  1  0.297660  0.476180  0.339020  1.0  -0.1117
  C  C285  1  0.274530  0.477220  0.384250  1.0  -0.0633
  C  C286  1  0.278710  0.505410  0.412020  1.0  0.0429
  C  C287  1  0.306110  0.532610  0.394460  1.0  -0.1207
  C  C288  1  0.329240  0.531570  0.349220  1.0  -0.0946
  C  C289  1  0.075730  0.497280  0.867050  1.0  0.6212
  C  C290  1  0.102840  0.499150  0.817780  1.0  -0.0418
  C  C291  1  0.098870  0.473760  0.772500  1.0  -0.0461
  C  C292  1  0.123460  0.475450  0.727820  1.0  -0.1159
  C  C293  1  0.152260  0.502230  0.727310  1.0  0.0276
  C  C294  1  0.155970  0.527930  0.773720  1.0  -0.096
  C  C295  1  0.131390  0.526230  0.818390  1.0  -0.0487
  C  C296  1  0.178340  0.503360  0.678500  1.0  0.0483
  C  C297  1  0.178520  0.476180  0.660980  1.0  -0.1118
  C  C298  1  0.202690  0.477220  0.615750  1.0  -0.0637
  C  C299  1  0.226700  0.505410  0.587980  1.0  0.0421
  C  C300  1  0.226500  0.532610  0.605540  1.0  -0.1191
  C  C301  1  0.202330  0.531570  0.650780  1.0  -0.0957
  C  C302  1  0.421550  0.924270  0.867050  1.0  0.6213
  C  C303  1  0.396310  0.897160  0.817780  1.0  -0.0431
  C  C304  1  0.374890  0.901130  0.772500  1.0  -0.0465
  C  C305  1  0.351990  0.876540  0.727820  1.0  -0.1113
  C  C306  1  0.349970  0.847740  0.727310  1.0  0.0269
  C  C307  1  0.371960  0.844030  0.773720  1.0  -0.0945
  C  C308  1  0.394840  0.868610  0.818390  1.0  -0.0461
  C  C309  1  0.325020  0.821660  0.678500  1.0  0.0485
  C  C310  1  0.297660  0.821480  0.660980  1.0  -0.1083
  C  C311  1  0.274530  0.797310  0.615750  1.0  -0.0608
  C  C312  1  0.278710  0.773300  0.587980  1.0  0.0422
  C  C313  1  0.306110  0.773500  0.605540  1.0  -0.1211
  C  C314  1  0.329240  0.797670  0.650780  1.0  -0.0914
  C  C315  1  0.502720  0.578450  0.867050  1.0  0.6238
  C  C316  1  0.500850  0.603690  0.817780  1.0  -0.0424
  C  C317  1  0.526240  0.625110  0.772500  1.0  -0.0458
  C  C318  1  0.524550  0.648010  0.727820  1.0  -0.111
  C  C319  1  0.497770  0.650030  0.727310  1.0  0.0266
  C  C320  1  0.472070  0.628040  0.773720  1.0  -0.0932
  C  C321  1  0.473770  0.605160  0.818390  1.0  -0.0469
  C  C322  1  0.496640  0.674980  0.678500  1.0  0.0477
  C  C323  1  0.523820  0.702340  0.660980  1.0  -0.1078
  C  C324  1  0.522780  0.725470  0.615750  1.0  -0.0631
  C  C325  1  0.494590  0.721290  0.587980  1.0  0.0428
  C  C326  1  0.467390  0.693890  0.605540  1.0  -0.1213
  C  C327  1  0.468430  0.670760  0.650780  1.0  -0.0932
  C  C328  1  0.924270  0.502720  0.867050  1.0  0.6208
  C  C329  1  0.897160  0.500850  0.817780  1.0  -0.0417
  C  C330  1  0.901130  0.526240  0.772500  1.0  -0.0457
  C  C331  1  0.876540  0.524550  0.727820  1.0  -0.117
  C  C332  1  0.847740  0.497770  0.727310  1.0  0.027
  C  C333  1  0.844030  0.472070  0.773720  1.0  -0.0955
  C  C334  1  0.868610  0.473770  0.818390  1.0  -0.0485
  C  C335  1  0.821660  0.496640  0.678500  1.0  0.0478
  C  C336  1  0.821480  0.523820  0.660980  1.0  -0.1099
  C  C337  1  0.797310  0.522780  0.615750  1.0  -0.0622
  C  C338  1  0.773300  0.494590  0.587980  1.0  0.0426
  C  C339  1  0.773500  0.467390  0.605540  1.0  -0.1243
  C  C340  1  0.797670  0.468430  0.650780  1.0  -0.0959
  C  C341  1  0.578450  0.075730  0.867050  1.0  0.6243
  C  C342  1  0.603690  0.102840  0.817780  1.0  -0.0421
  C  C343  1  0.625110  0.098870  0.772500  1.0  -0.0451
  C  C344  1  0.648010  0.123460  0.727820  1.0  -0.1123
  C  C345  1  0.650030  0.152260  0.727310  1.0  0.0277
  C  C346  1  0.628040  0.155970  0.773720  1.0  -0.095
  C  C347  1  0.605160  0.131390  0.818390  1.0  -0.0457
  C  C348  1  0.674980  0.178340  0.678500  1.0  0.0479
  C  C349  1  0.702340  0.178520  0.660980  1.0  -0.1082
  C  C350  1  0.725470  0.202690  0.615750  1.0  -0.0592
  C  C351  1  0.721290  0.226700  0.587980  1.0  0.0429
  C  C352  1  0.693890  0.226500  0.605540  1.0  -0.1195
  C  C353  1  0.670760  0.202330  0.650780  1.0  -0.0904
  C  C354  1  0.497280  0.421550  0.867050  1.0  0.6213
  C  C355  1  0.499150  0.396310  0.817780  1.0  -0.042
  C  C356  1  0.473760  0.374890  0.772500  1.0  -0.0429
  C  C357  1  0.475450  0.351990  0.727820  1.0  -0.1099
  C  C358  1  0.502230  0.349970  0.727310  1.0  0.0274
  C  C359  1  0.527930  0.371960  0.773720  1.0  -0.0939
  C  C360  1  0.526230  0.394840  0.818390  1.0  -0.0481
  C  C361  1  0.503360  0.325020  0.678500  1.0  0.0483
  C  C362  1  0.476180  0.297660  0.660980  1.0  -0.1077
  C  C363  1  0.477220  0.274530  0.615750  1.0  -0.0627
  C  C364  1  0.505410  0.278710  0.587980  1.0  0.0429
  C  C365  1  0.532610  0.306110  0.605540  1.0  -0.1192
  C  C366  1  0.531570  0.329240  0.650780  1.0  -0.0925
  C  C367  1  0.502720  0.924270  0.867050  1.0  0.6245
  C  C368  1  0.500850  0.897160  0.817780  1.0  -0.0429
  C  C369  1  0.526240  0.901130  0.772500  1.0  -0.0461
  C  C370  1  0.524550  0.876540  0.727820  1.0  -0.1126
  C  C371  1  0.497770  0.847740  0.727310  1.0  0.0272
  C  C372  1  0.472070  0.844030  0.773720  1.0  -0.0936
  C  C373  1  0.473770  0.868610  0.818390  1.0  -0.045
  C  C374  1  0.496640  0.821660  0.678500  1.0  0.0481
  C  C375  1  0.523820  0.821480  0.660980  1.0  -0.1082
  C  C376  1  0.522780  0.797310  0.615750  1.0  -0.0589
  C  C377  1  0.494590  0.773300  0.587980  1.0  0.0426
  C  C378  1  0.467390  0.773500  0.605540  1.0  -0.1201
  C  C379  1  0.468430  0.797670  0.650780  1.0  -0.0902
  C  C380  1  0.075730  0.578450  0.867050  1.0  0.622
  C  C381  1  0.102840  0.603690  0.817780  1.0  -0.0421
  C  C382  1  0.098870  0.625110  0.772500  1.0  -0.0428
  C  C383  1  0.123460  0.648010  0.727820  1.0  -0.1095
  C  C384  1  0.152260  0.650030  0.727310  1.0  0.0273
  C  C385  1  0.155970  0.628040  0.773720  1.0  -0.0939
  C  C386  1  0.131390  0.605160  0.818390  1.0  -0.0479
  C  C387  1  0.178340  0.674980  0.678500  1.0  0.0481
  C  C388  1  0.178520  0.702340  0.660980  1.0  -0.1083
  C  C389  1  0.202690  0.725470  0.615750  1.0  -0.0634
  C  C390  1  0.226700  0.721290  0.587980  1.0  0.0435
  C  C391  1  0.226500  0.693890  0.605540  1.0  -0.12
  C  C392  1  0.202330  0.670760  0.650780  1.0  -0.0922
  C  C393  1  0.421550  0.497280  0.867050  1.0  0.6202
  C  C394  1  0.396310  0.499150  0.817780  1.0  -0.0418
  C  C395  1  0.374890  0.473760  0.772500  1.0  -0.0473
  C  C396  1  0.351990  0.475450  0.727820  1.0  -0.1171
  C  C397  1  0.349970  0.502230  0.727310  1.0  0.027
  C  C398  1  0.371960  0.527930  0.773720  1.0  -0.0961
  C  C399  1  0.394840  0.526230  0.818390  1.0  -0.0474
  C  C400  1  0.325020  0.503360  0.678500  1.0  0.0477
  C  C401  1  0.297660  0.476180  0.660980  1.0  -0.1112
  C  C402  1  0.274530  0.477220  0.615750  1.0  -0.0638
  C  C403  1  0.278710  0.505410  0.587980  1.0  0.0426
  C  C404  1  0.306110  0.532610  0.605540  1.0  -0.1225
  C  C405  1  0.329240  0.531570  0.650780  1.0  -0.0944
  C  C406  1  0.497280  0.075730  0.867050  1.0  0.6212
  C  C407  1  0.499150  0.102840  0.817780  1.0  -0.0425
  C  C408  1  0.473760  0.098870  0.772500  1.0  -0.0461
  C  C409  1  0.475450  0.123460  0.727820  1.0  -0.111
  C  C410  1  0.502230  0.152260  0.727310  1.0  0.0276
  C  C411  1  0.527930  0.155970  0.773720  1.0  -0.0951
  C  C412  1  0.526230  0.131390  0.818390  1.0  -0.0463
  C  C413  1  0.503360  0.178340  0.678500  1.0  0.0484
  C  C414  1  0.476180  0.178520  0.660980  1.0  -0.1084
  C  C415  1  0.477220  0.202690  0.615750  1.0  -0.0612
  C  C416  1  0.505410  0.226700  0.587980  1.0  0.0424
  C  C417  1  0.532610  0.226500  0.605540  1.0  -0.1207
  C  C418  1  0.531570  0.202330  0.650780  1.0  -0.0916
  C  C419  1  0.924270  0.421550  0.867050  1.0  0.6234
  C  C420  1  0.897160  0.396310  0.817780  1.0  -0.0426
  C  C421  1  0.901130  0.374890  0.772500  1.0  -0.0458
  C  C422  1  0.876540  0.351990  0.727820  1.0  -0.1108
  C  C423  1  0.847740  0.349970  0.727310  1.0  0.0267
  C  C424  1  0.844030  0.371960  0.773720  1.0  -0.0929
  C  C425  1  0.868610  0.394840  0.818390  1.0  -0.047
  C  C426  1  0.821660  0.325020  0.678500  1.0  0.0478
  C  C427  1  0.821480  0.297660  0.660980  1.0  -0.1076
  C  C428  1  0.797310  0.274530  0.615750  1.0  -0.062
  C  C429  1  0.773300  0.278710  0.587980  1.0  0.0421
  C  C430  1  0.773500  0.306110  0.605540  1.0  -0.1203
  C  C431  1  0.797670  0.329240  0.650780  1.0  -0.0934
  C  C432  1  0.578450  0.502720  0.867050  1.0  0.621
  C  C433  1  0.603690  0.500850  0.817780  1.0  -0.041
  C  C434  1  0.625110  0.526240  0.772500  1.0  -0.047
  C  C435  1  0.648010  0.524550  0.727820  1.0  -0.1161
  C  C436  1  0.650030  0.497770  0.727310  1.0  0.0276
  C  C437  1  0.628040  0.472070  0.773720  1.0  -0.0956
  C  C438  1  0.605160  0.473770  0.818390  1.0  -0.0496
  C  C439  1  0.674980  0.496640  0.678500  1.0  0.0484
  C  C440  1  0.702340  0.523820  0.660980  1.0  -0.1117
  C  C441  1  0.725470  0.522780  0.615750  1.0  -0.0614
  C  C442  1  0.721290  0.494590  0.587980  1.0  0.042
  C  C443  1  0.693890  0.467390  0.605540  1.0  -0.1217
  C  C444  1  0.670760  0.468430  0.650780  1.0  -0.0961
  C  C445  1  0.924270  0.502720  0.132950  1.0  0.6212
  C  C446  1  0.897160  0.500850  0.182220  1.0  -0.042
  C  C447  1  0.901130  0.526240  0.227500  1.0  -0.0461
  C  C448  1  0.876540  0.524550  0.272180  1.0  -0.1179
  C  C449  1  0.847740  0.497770  0.272690  1.0  0.0269
  C  C450  1  0.844030  0.472070  0.226280  1.0  -0.0963
  C  C451  1  0.868610  0.473770  0.181610  1.0  -0.0488
  C  C452  1  0.821660  0.496640  0.321500  1.0  0.0483
  C  C453  1  0.821480  0.523820  0.339020  1.0  -0.1106
  C  C454  1  0.797310  0.522780  0.384250  1.0  -0.0618
  C  C455  1  0.773300  0.494590  0.412020  1.0  0.043
  C  C456  1  0.773500  0.467390  0.394460  1.0  -0.1225
  C  C457  1  0.797670  0.468430  0.349220  1.0  -0.0955
  C  C458  1  0.578450  0.075730  0.132950  1.0  0.6244
  C  C459  1  0.603690  0.102840  0.182220  1.0  -0.0424
  C  C460  1  0.625110  0.098870  0.227500  1.0  -0.0454
  C  C461  1  0.648010  0.123460  0.272180  1.0  -0.1121
  C  C462  1  0.650030  0.152260  0.272690  1.0  0.0276
  C  C463  1  0.628040  0.155970  0.226280  1.0  -0.0946
  C  C464  1  0.605160  0.131390  0.181610  1.0  -0.045
  C  C465  1  0.674980  0.178340  0.321500  1.0  0.0483
  C  C466  1  0.702340  0.178520  0.339020  1.0  -0.109
  C  C467  1  0.725470  0.202690  0.384250  1.0  -0.058
  C  C468  1  0.721290  0.226700  0.412020  1.0  0.0434
  C  C469  1  0.693890  0.226500  0.394460  1.0  -0.1176
  C  C470  1  0.670760  0.202330  0.349220  1.0  -0.0897
  C  C471  1  0.497280  0.421550  0.132950  1.0  0.6218
  C  C472  1  0.499150  0.396310  0.182220  1.0  -0.0423
  C  C473  1  0.473760  0.374890  0.227500  1.0  -0.0433
  C  C474  1  0.475450  0.351990  0.272180  1.0  -0.1099
  C  C475  1  0.502230  0.349970  0.272690  1.0  0.0272
  C  C476  1  0.527930  0.371960  0.226280  1.0  -0.0936
  C  C477  1  0.526230  0.394840  0.181610  1.0  -0.0477
  C  C478  1  0.503360  0.325020  0.321500  1.0  0.0487
  C  C479  1  0.476180  0.297660  0.339020  1.0  -0.1077
  C  C480  1  0.477220  0.274530  0.384250  1.0  -0.0614
  C  C481  1  0.505410  0.278710  0.412020  1.0  0.0436
  C  C482  1  0.532610  0.306110  0.394460  1.0  -0.1176
  C  C483  1  0.531570  0.329240  0.349220  1.0  -0.0929
  C  C484  1  0.075730  0.497280  0.132950  1.0  0.6215
  C  C485  1  0.102840  0.499150  0.182220  1.0  -0.0419
  C  C486  1  0.098870  0.473760  0.227500  1.0  -0.0462
  C  C487  1  0.123460  0.475450  0.272180  1.0  -0.1156
  C  C488  1  0.152260  0.502230  0.272690  1.0  0.0274
  C  C489  1  0.155970  0.527930  0.226280  1.0  -0.0955
  C  C490  1  0.131390  0.526230  0.181610  1.0  -0.0481
  C  C491  1  0.178340  0.503360  0.321500  1.0  0.0486
  C  C492  1  0.178520  0.476180  0.339020  1.0  -0.1123
  C  C493  1  0.202690  0.477220  0.384250  1.0  -0.0635
  C  C494  1  0.226700  0.505410  0.412020  1.0  0.0424
  C  C495  1  0.226500  0.532610  0.394460  1.0  -0.1179
  C  C496  1  0.202330  0.531570  0.349220  1.0  -0.0958
  C  C497  1  0.421550  0.924270  0.132950  1.0  0.6219
  C  C498  1  0.396310  0.897160  0.182220  1.0  -0.0431
  C  C499  1  0.374890  0.901130  0.227500  1.0  -0.0469
  C  C500  1  0.351990  0.876540  0.272180  1.0  -0.1124
  C  C501  1  0.349970  0.847740  0.272690  1.0  0.0268
  C  C502  1  0.371960  0.844030  0.226280  1.0  -0.0951
  C  C503  1  0.394840  0.868610  0.181610  1.0  -0.0462
  C  C504  1  0.325020  0.821660  0.321500  1.0  0.0489
  C  C505  1  0.297660  0.821480  0.339020  1.0  -0.1083
  C  C506  1  0.274530  0.797310  0.384250  1.0  -0.0595
  C  C507  1  0.278710  0.773300  0.412020  1.0  0.0424
  C  C508  1  0.306110  0.773500  0.394460  1.0  -0.1188
  C  C509  1  0.329240  0.797670  0.349220  1.0  -0.0919
  C  C510  1  0.502720  0.578450  0.132950  1.0  0.624
  C  C511  1  0.500850  0.603690  0.182220  1.0  -0.0425
  C  C512  1  0.526240  0.625110  0.227500  1.0  -0.046
  C  C513  1  0.524550  0.648010  0.272180  1.0  -0.1114
  C  C514  1  0.497770  0.650030  0.272690  1.0  0.0264
  C  C515  1  0.472070  0.628040  0.226280  1.0  -0.0932
  C  C516  1  0.473770  0.605160  0.181610  1.0  -0.0469
  C  C517  1  0.496640  0.674980  0.321500  1.0  0.0482
  C  C518  1  0.523820  0.702340  0.339020  1.0  -0.1085
  C  C519  1  0.522780  0.725470  0.384250  1.0  -0.0625
  C  C520  1  0.494590  0.721290  0.412020  1.0  0.0433
  C  C521  1  0.467390  0.693890  0.394460  1.0  -0.1193
  C  C522  1  0.468430  0.670760  0.349220  1.0  -0.0926
  C  C523  1  0.509800  0.254900  0.458020  1.0  -0.0306
  C  C524  1  0.745100  0.254900  0.458020  1.0  -0.0304
  C  C525  1  0.745100  0.490200  0.458020  1.0  -0.0327
  C  C526  1  0.490200  0.745100  0.458020  1.0  -0.0306
  C  C527  1  0.254900  0.745100  0.458020  1.0  -0.0306
  C  C528  1  0.254900  0.509800  0.458020  1.0  -0.0327
  C  C529  1  0.254900  0.509800  0.541980  1.0  -0.0312
  C  C530  1  0.254900  0.745100  0.541980  1.0  -0.0292
  C  C531  1  0.490200  0.745100  0.541980  1.0  -0.0293
  C  C532  1  0.745100  0.490200  0.541980  1.0  -0.0307
  C  C533  1  0.745100  0.254900  0.541980  1.0  -0.0295
  C  C534  1  0.509800  0.254900  0.541980  1.0  -0.0293
  C  C535  1  0.500000  0.000000  0.271060  1.0  0.3766
  C  C536  1  0.500000  0.000000  0.366060  1.0  0.2037
  C  C537  1  0.000000  0.500000  0.271060  1.0  0.3766
  C  C538  1  0.000000  0.500000  0.366060  1.0  0.2037
  C  C539  1  0.500000  0.500000  0.271060  1.0  0.3766
  C  C540  1  0.500000  0.500000  0.366060  1.0  0.2037
  C  C541  1  0.000000  0.500000  0.728940  1.0  0.3756
  C  C542  1  0.000000  0.500000  0.633940  1.0  0.203
  C  C543  1  0.500000  0.000000  0.728940  1.0  0.3756
  C  C544  1  0.500000  0.000000  0.633940  1.0  0.203
  C  C545  1  0.500000  0.500000  0.728940  1.0  0.3756
  C  C546  1  0.500000  0.500000  0.633940  1.0  0.203
  O  O547  1  0.516810  0.081570  0.072410  1.0  -0.5875
  O  O548  1  0.477080  0.046670  0.147810  1.0  -0.6492
  O  O549  1  0.918430  0.435240  0.072410  1.0  -0.5871
  O  O550  1  0.953330  0.430410  0.147810  1.0  -0.6565
  O  O551  1  0.564760  0.483190  0.072410  1.0  -0.5857
  O  O552  1  0.569590  0.522920  0.147810  1.0  -0.6588
  O  O553  1  0.483190  0.918430  0.072410  1.0  -0.5873
  O  O554  1  0.522920  0.953330  0.147810  1.0  -0.6447
  O  O555  1  0.081570  0.564760  0.072410  1.0  -0.5863
  O  O556  1  0.046670  0.569590  0.147810  1.0  -0.6543
  O  O557  1  0.435240  0.516810  0.072410  1.0  -0.5859
  O  O558  1  0.430410  0.477080  0.147810  1.0  -0.6565
  O  O559  1  0.081570  0.516810  0.927590  1.0  -0.5852
  O  O560  1  0.046670  0.477080  0.852190  1.0  -0.656
  O  O561  1  0.435240  0.918430  0.927590  1.0  -0.5879
  O  O562  1  0.430410  0.953330  0.852190  1.0  -0.6498
  O  O563  1  0.483190  0.564760  0.927590  1.0  -0.5859
  O  O564  1  0.522920  0.569590  0.852190  1.0  -0.654
  O  O565  1  0.918430  0.483190  0.927590  1.0  -0.5852
  O  O566  1  0.953330  0.522920  0.852190  1.0  -0.6581
  O  O567  1  0.564760  0.081570  0.927590  1.0  -0.5868
  O  O568  1  0.569590  0.046670  0.852190  1.0  -0.643
  O  O569  1  0.516810  0.435240  0.927590  1.0  -0.587
  O  O570  1  0.477080  0.430410  0.852190  1.0  -0.6556
  O  O571  1  0.483190  0.918430  0.927590  1.0  -0.5875
  O  O572  1  0.522920  0.953330  0.852190  1.0  -0.6441
  O  O573  1  0.081570  0.564760  0.927590  1.0  -0.5862
  O  O574  1  0.046670  0.569590  0.852190  1.0  -0.654
  O  O575  1  0.435240  0.516810  0.927590  1.0  -0.5852
  O  O576  1  0.430410  0.477080  0.852190  1.0  -0.6555
  O  O577  1  0.516810  0.081570  0.927590  1.0  -0.587
  O  O578  1  0.477080  0.046670  0.852190  1.0  -0.6495
  O  O579  1  0.918430  0.435240  0.927590  1.0  -0.5871
  O  O580  1  0.953330  0.430410  0.852190  1.0  -0.6561
  O  O581  1  0.564760  0.483190  0.927590  1.0  -0.5859
  O  O582  1  0.569590  0.522920  0.852190  1.0  -0.6585
  O  O583  1  0.918430  0.483190  0.072410  1.0  -0.5857
  O  O584  1  0.953330  0.522920  0.147810  1.0  -0.6583
  O  O585  1  0.564760  0.081570  0.072410  1.0  -0.5867
  O  O586  1  0.569590  0.046670  0.147810  1.0  -0.6432
  O  O587  1  0.516810  0.435240  0.072410  1.0  -0.5871
  O  O588  1  0.477080  0.430410  0.147810  1.0  -0.6556
  O  O589  1  0.081570  0.516810  0.072410  1.0  -0.5853
  O  O590  1  0.046670  0.477080  0.147810  1.0  -0.6571
  O  O591  1  0.435240  0.918430  0.072410  1.0  -0.5882
  O  O592  1  0.430410  0.953330  0.147810  1.0  -0.6501
  O  O593  1  0.483190  0.564760  0.072410  1.0  -0.5863
  O  O594  1  0.522920  0.569590  0.147810  1.0  -0.6544
  O  O595  1  0.476160  0.000000  0.231550  1.0  -0.5951
  O  O596  1  0.000000  0.476160  0.231550  1.0  -0.5961
  O  O597  1  0.523840  0.523840  0.231550  1.0  -0.5952
  O  O598  1  0.523840  0.000000  0.231550  1.0  -0.5957
  O  O599  1  0.000000  0.523840  0.231550  1.0  -0.595
  O  O600  1  0.476160  0.476160  0.231550  1.0  -0.5958
  O  O601  1  0.000000  0.476160  0.768450  1.0  -0.5961
  O  O602  1  0.476160  0.000000  0.768450  1.0  -0.5951
  O  O603  1  0.523840  0.523840  0.768450  1.0  -0.5953
  O  O604  1  0.000000  0.523840  0.768450  1.0  -0.5949
  O  O605  1  0.523840  0.000000  0.768450  1.0  -0.5953
  O  O606  1  0.476160  0.476160  0.768450  1.0  -0.5959
  O  O607  1  0.513380  0.026760  0.108840  1.0  -0.8157
  O  O608  1  0.973240  0.486620  0.108840  1.0  -0.8166
  O  O609  1  0.513380  0.486620  0.108840  1.0  -0.8165
  O  O610  1  0.486620  0.973240  0.108840  1.0  -0.8166
  O  O611  1  0.026760  0.513380  0.108840  1.0  -0.8158
  O  O612  1  0.486620  0.513380  0.108840  1.0  -0.8162
  O  O613  1  0.026760  0.513380  0.891160  1.0  -0.8175
  O  O614  1  0.486620  0.973240  0.891160  1.0  -0.8178
  O  O615  1  0.486620  0.513380  0.891160  1.0  -0.8177
  O  O616  1  0.973240  0.486620  0.891160  1.0  -0.8179
  O  O617  1  0.513380  0.026760  0.891160  1.0  -0.8172
  O  O618  1  0.513380  0.486620  0.891160  1.0  -0.8178
  O  O619  1  0.476820  0.030790  0.000000  1.0  -0.8844
  O  O620  1  0.969210  0.446030  0.000000  1.0  -0.885
  O  O621  1  0.553970  0.523180  0.000000  1.0  -0.8879
  O  O622  1  0.523180  0.969210  0.000000  1.0  -0.8823
  O  O623  1  0.030790  0.553970  0.000000  1.0  -0.887
  O  O624  1  0.446030  0.476820  0.000000  1.0  -0.8851
  O  O625  1  0.030790  0.476820  0.000000  1.0  -0.8861
  O  O626  1  0.446030  0.969210  0.000000  1.0  -0.8844
  O  O627  1  0.523180  0.553970  0.000000  1.0  -0.887
  O  O628  1  0.969210  0.523180  0.000000  1.0  -0.8876
  O  O629  1  0.553970  0.030790  0.000000  1.0  -0.8822
  O  O630  1  0.476820  0.446030  0.000000  1.0  -0.8848
  F  F631  1  0.498520  0.026720  0.394910  1.0  -0.2844
  F  F632  1  0.973280  0.471800  0.394910  1.0  -0.2846
  F  F633  1  0.528200  0.501480  0.394910  1.0  -0.2733
  F  F634  1  0.501480  0.973280  0.394910  1.0  -0.282
  F  F635  1  0.026720  0.528200  0.394910  1.0  -0.2865
  F  F636  1  0.471800  0.498520  0.394910  1.0  -0.2796
  F  F637  1  0.026720  0.498520  0.605090  1.0  -0.275
  F  F638  1  0.471800  0.973280  0.605090  1.0  -0.283
  F  F639  1  0.501480  0.528200  0.605090  1.0  -0.2875
  F  F640  1  0.973280  0.501480  0.605090  1.0  -0.2808
  F  F641  1  0.528200  0.026720  0.605090  1.0  -0.2852
  F  F642  1  0.498520  0.471800  0.605090  1.0  -0.2856
  F  F643  1  0.501480  0.973280  0.605090  1.0  -0.2833
  F  F644  1  0.026720  0.528200  0.605090  1.0  -0.2878
  F  F645  1  0.471800  0.498520  0.605090  1.0  -0.2806
  F  F646  1  0.498520  0.026720  0.605090  1.0  -0.2855
  F  F647  1  0.973280  0.471800  0.605090  1.0  -0.2854
  F  F648  1  0.528200  0.501480  0.605090  1.0  -0.2747
  F  F649  1  0.973280  0.501480  0.394910  1.0  -0.2797
  F  F650  1  0.528200  0.026720  0.394910  1.0  -0.2843
  F  F651  1  0.498520  0.471800  0.394910  1.0  -0.2841
  F  F652  1  0.026720  0.498520  0.394910  1.0  -0.2736
  F  F653  1  0.471800  0.973280  0.394910  1.0  -0.2818
  F  F654  1  0.501480  0.528200  0.394910  1.0  -0.287
  F  F655  1  0.471450  0.000000  0.394910  1.0  -0.2002
  F  F656  1  0.000000  0.471450  0.394910  1.0  -0.2044
  F  F657  1  0.528550  0.528550  0.394910  1.0  -0.2019
  F  F658  1  0.528550  0.000000  0.394910  1.0  -0.1947
  F  F659  1  0.000000  0.528550  0.394910  1.0  -0.2043
  F  F660  1  0.471450  0.471450  0.394910  1.0  -0.2051
  F  F661  1  0.000000  0.471450  0.605090  1.0  -0.2045
  F  F662  1  0.471450  0.000000  0.605090  1.0  -0.2009
  F  F663  1  0.528550  0.528550  0.605090  1.0  -0.2023
  F  F664  1  0.000000  0.528550  0.605090  1.0  -0.2043
  F  F665  1  0.528550  0.000000  0.605090  1.0  -0.1946
  F  F666  1  0.471450  0.471450  0.605090  1.0  -0.2053
