# generated using pymatgen
data_Zr3H32(C9O2)6
_symmetry_space_group_name_H-M   'P 1'
_cell_length_a   50.72000000
_cell_length_b   50.72000000
_cell_length_c   15.50200000
_cell_angle_alpha   90.00000000
_cell_angle_beta   90.00000000
_cell_angle_gamma   120.00000000
_symmetry_Int_Tables_number   1
_chemical_formula_structural   Zr3H32(C9O2)6
_chemical_formula_sum   'Zr18 H192 C324 O72'
_cell_volume   34536.38316717
_cell_formula_units_Z   6
loop_
 _symmetry_equiv_pos_site_id
 _symmetry_equiv_pos_as_xyz
  1  'x, y, z'
loop_
 _atom_site_type_symbol
 _atom_site_label
 _atom_site_symmetry_multiplicity
 _atom_site_fract_x
 _atom_site_fract_y
 _atom_site_fract_z
 _atom_site_occupancy
 _atom_site_charge
  Zr  Zr1  1  0.465390  0.000000  0.115380  1.0  2.0869
  Zr  Zr2  1  0.000000  0.465390  0.115380  1.0  2.0868
  Zr  Zr3  1  0.534610  0.534610  0.115380  1.0  2.0855
  Zr  Zr4  1  0.534610  0.000000  0.115380  1.0  2.0825
  Zr  Zr5  1  0.000000  0.534610  0.115380  1.0  2.0866
  Zr  Zr6  1  0.465390  0.465390  0.115380  1.0  2.0882
  Zr  Zr7  1  0.000000  0.465390  0.884620  1.0  2.0846
  Zr  Zr8  1  0.465390  0.000000  0.884620  1.0  2.0847
  Zr  Zr9  1  0.534610  0.534610  0.884620  1.0  2.0832
  Zr  Zr10  1  0.000000  0.534610  0.884620  1.0  2.0842
  Zr  Zr11  1  0.534610  0.000000  0.884620  1.0  2.0805
  Zr  Zr12  1  0.465390  0.465390  0.884620  1.0  2.0858
  Zr  Zr13  1  0.527420  0.054840  0.000000  1.0  2.111
  Zr  Zr14  1  0.945160  0.472580  0.000000  1.0  2.1128
  Zr  Zr15  1  0.527420  0.472580  0.000000  1.0  2.1138
  Zr  Zr16  1  0.472580  0.945160  0.000000  1.0  2.116
  Zr  Zr17  1  0.054840  0.527420  0.000000  1.0  2.112
  Zr  Zr18  1  0.472580  0.527420  0.000000  1.0  2.1112
  H  H19  1  0.440600  0.073060  0.199800  1.0  0.1115
  H  H20  1  0.437750  0.113510  0.269960  1.0  0.1154
  H  H21  1  0.531940  0.165490  0.268240  1.0  0.1124
  H  H22  1  0.534660  0.125120  0.198340  1.0  0.1114
  H  H23  1  0.436010  0.138010  0.364670  1.0  0.1085
  H  H24  1  0.433560  0.179720  0.434660  1.0  0.1221
  H  H25  1  0.521030  0.242120  0.356030  1.0  0.1727
  H  H26  1  0.525050  0.202330  0.285880  1.0  0.1101
  H  H27  1  0.926940  0.367540  0.199800  1.0  0.1125
  H  H28  1  0.886490  0.324240  0.269960  1.0  0.1169
  H  H29  1  0.834510  0.366450  0.268240  1.0  0.1115
  H  H30  1  0.874880  0.409540  0.198340  1.0  0.1109
  H  H31  1  0.861990  0.298000  0.364670  1.0  0.1077
  H  H32  1  0.820280  0.253840  0.434660  1.0  0.1219
  H  H33  1  0.757880  0.278910  0.356030  1.0  0.1734
  H  H34  1  0.797670  0.322720  0.285880  1.0  0.1097
  H  H35  1  0.632460  0.559400  0.199800  1.0  0.1126
  H  H36  1  0.675760  0.562250  0.269960  1.0  0.1163
  H  H37  1  0.633550  0.468060  0.268240  1.0  0.1131
  H  H38  1  0.590460  0.465340  0.198340  1.0  0.1117
  H  H39  1  0.702000  0.563990  0.364670  1.0  0.108
  H  H40  1  0.746160  0.566440  0.434660  1.0  0.1241
  H  H41  1  0.721090  0.478970  0.356030  1.0  0.1731
  H  H42  1  0.677280  0.474950  0.285880  1.0  0.1115
  H  H43  1  0.559400  0.926940  0.199800  1.0  0.1126
  H  H44  1  0.562250  0.886490  0.269960  1.0  0.1158
  H  H45  1  0.468060  0.834510  0.268240  1.0  0.1128
  H  H46  1  0.465340  0.874880  0.198340  1.0  0.1109
  H  H47  1  0.563990  0.861990  0.364670  1.0  0.108
  H  H48  1  0.566440  0.820280  0.434660  1.0  0.1217
  H  H49  1  0.478970  0.757880  0.356030  1.0  0.1729
  H  H50  1  0.474950  0.797670  0.285880  1.0  0.1095
  H  H51  1  0.073060  0.632460  0.199800  1.0  0.1124
  H  H52  1  0.113510  0.675760  0.269960  1.0  0.1163
  H  H53  1  0.165490  0.633550  0.268240  1.0  0.1123
  H  H54  1  0.125120  0.590460  0.198340  1.0  0.1117
  H  H55  1  0.138010  0.702000  0.364670  1.0  0.1063
  H  H56  1  0.179720  0.746160  0.434660  1.0  0.1215
  H  H57  1  0.242120  0.721090  0.356030  1.0  0.172
  H  H58  1  0.202330  0.677280  0.285880  1.0  0.1102
  H  H59  1  0.367540  0.440600  0.199800  1.0  0.112
  H  H60  1  0.324240  0.437750  0.269960  1.0  0.1148
  H  H61  1  0.366450  0.531940  0.268240  1.0  0.1121
  H  H62  1  0.409540  0.534660  0.198340  1.0  0.1116
  H  H63  1  0.298000  0.436010  0.364670  1.0  0.1097
  H  H64  1  0.253840  0.433560  0.434660  1.0  0.1256
  H  H65  1  0.278910  0.521030  0.356030  1.0  0.1742
  H  H66  1  0.322720  0.525050  0.285880  1.0  0.1102
  H  H67  1  0.073060  0.440600  0.800200  1.0  0.1117
  H  H68  1  0.113510  0.437750  0.730040  1.0  0.1155
  H  H69  1  0.165490  0.531940  0.731760  1.0  0.1124
  H  H70  1  0.125120  0.534660  0.801660  1.0  0.1111
  H  H71  1  0.138010  0.436010  0.635330  1.0  0.1092
  H  H72  1  0.179720  0.433560  0.565340  1.0  0.124
  H  H73  1  0.242120  0.521030  0.643970  1.0  0.1741
  H  H74  1  0.202330  0.525050  0.714120  1.0  0.1113
  H  H75  1  0.367540  0.926940  0.800200  1.0  0.1124
  H  H76  1  0.324240  0.886490  0.730040  1.0  0.1156
  H  H77  1  0.366450  0.834510  0.731760  1.0  0.1125
  H  H78  1  0.409540  0.874880  0.801660  1.0  0.1107
  H  H79  1  0.298000  0.861990  0.635330  1.0  0.1074
  H  H80  1  0.253840  0.820280  0.565340  1.0  0.1209
  H  H81  1  0.278910  0.757880  0.643970  1.0  0.1729
  H  H82  1  0.322720  0.797670  0.714120  1.0  0.1104
  H  H83  1  0.559400  0.632460  0.800200  1.0  0.112
  H  H84  1  0.562250  0.675760  0.730040  1.0  0.1172
  H  H85  1  0.468060  0.633550  0.731760  1.0  0.1119
  H  H86  1  0.465340  0.590460  0.801660  1.0  0.1112
  H  H87  1  0.563990  0.702000  0.635330  1.0  0.107
  H  H88  1  0.566440  0.746160  0.565340  1.0  0.1239
  H  H89  1  0.478970  0.721090  0.643970  1.0  0.1733
  H  H90  1  0.474950  0.677280  0.714120  1.0  0.1102
  H  H91  1  0.926940  0.559400  0.800200  1.0  0.1124
  H  H92  1  0.886490  0.562250  0.730040  1.0  0.1164
  H  H93  1  0.834510  0.468060  0.731760  1.0  0.1128
  H  H94  1  0.874880  0.465340  0.801660  1.0  0.1111
  H  H95  1  0.861990  0.563990  0.635330  1.0  0.108
  H  H96  1  0.820280  0.566440  0.565340  1.0  0.1244
  H  H97  1  0.757880  0.478970  0.643970  1.0  0.1731
  H  H98  1  0.797670  0.474950  0.714120  1.0  0.1122
  H  H99  1  0.632460  0.073060  0.800200  1.0  0.1117
  H  H100  1  0.675760  0.113510  0.730040  1.0  0.116
  H  H101  1  0.633550  0.165490  0.731760  1.0  0.1129
  H  H102  1  0.590460  0.125120  0.801660  1.0  0.1106
  H  H103  1  0.702000  0.138010  0.635330  1.0  0.1092
  H  H104  1  0.746160  0.179720  0.565340  1.0  0.1214
  H  H105  1  0.721090  0.242120  0.643970  1.0  0.1734
  H  H106  1  0.677280  0.202330  0.714120  1.0  0.1105
  H  H107  1  0.440600  0.367540  0.800200  1.0  0.1123
  H  H108  1  0.437750  0.324240  0.730040  1.0  0.116
  H  H109  1  0.531940  0.366450  0.731760  1.0  0.1127
  H  H110  1  0.534660  0.409540  0.801660  1.0  0.1095
  H  H111  1  0.436010  0.298000  0.635330  1.0  0.1064
  H  H112  1  0.433560  0.253840  0.565340  1.0  0.1251
  H  H113  1  0.521030  0.278910  0.643970  1.0  0.1726
  H  H114  1  0.525050  0.322720  0.714120  1.0  0.1115
  H  H115  1  0.559400  0.926940  0.800200  1.0  0.1121
  H  H116  1  0.562250  0.886490  0.730040  1.0  0.116
  H  H117  1  0.468060  0.834510  0.731760  1.0  0.1129
  H  H118  1  0.465340  0.874880  0.801660  1.0  0.1105
  H  H119  1  0.563990  0.861990  0.635330  1.0  0.1079
  H  H120  1  0.566440  0.820280  0.565340  1.0  0.1243
  H  H121  1  0.478970  0.757880  0.643970  1.0  0.1731
  H  H122  1  0.474950  0.797670  0.714120  1.0  0.1103
  H  H123  1  0.073060  0.632460  0.800200  1.0  0.1122
  H  H124  1  0.113510  0.675760  0.730040  1.0  0.1162
  H  H125  1  0.165490  0.633550  0.731760  1.0  0.1124
  H  H126  1  0.125120  0.590460  0.801660  1.0  0.1108
  H  H127  1  0.138010  0.702000  0.635330  1.0  0.1064
  H  H128  1  0.179720  0.746160  0.565340  1.0  0.122
  H  H129  1  0.242120  0.721090  0.643970  1.0  0.1727
  H  H130  1  0.202330  0.677280  0.714120  1.0  0.1106
  H  H131  1  0.367540  0.440600  0.800200  1.0  0.1116
  H  H132  1  0.324240  0.437750  0.730040  1.0  0.115
  H  H133  1  0.366450  0.531940  0.731760  1.0  0.1125
  H  H134  1  0.409540  0.534660  0.801660  1.0  0.1111
  H  H135  1  0.298000  0.436010  0.635330  1.0  0.1096
  H  H136  1  0.253840  0.433560  0.565340  1.0  0.126
  H  H137  1  0.278910  0.521030  0.643970  1.0  0.1739
  H  H138  1  0.322720  0.525050  0.714120  1.0  0.1113
  H  H139  1  0.440600  0.073060  0.800200  1.0  0.1115
  H  H140  1  0.437750  0.113510  0.730040  1.0  0.1156
  H  H141  1  0.531940  0.165490  0.731760  1.0  0.1128
  H  H142  1  0.534660  0.125120  0.801660  1.0  0.1108
  H  H143  1  0.436010  0.138010  0.635330  1.0  0.1083
  H  H144  1  0.433560  0.179720  0.565340  1.0  0.1228
  H  H145  1  0.521030  0.242120  0.643970  1.0  0.1731
  H  H146  1  0.525050  0.202330  0.714120  1.0  0.1106
  H  H147  1  0.926940  0.367540  0.800200  1.0  0.1122
  H  H148  1  0.886490  0.324240  0.730040  1.0  0.1172
  H  H149  1  0.834510  0.366450  0.731760  1.0  0.1118
  H  H150  1  0.874880  0.409540  0.801660  1.0  0.1105
  H  H151  1  0.861990  0.298000  0.635330  1.0  0.1071
  H  H152  1  0.820280  0.253840  0.565340  1.0  0.1209
  H  H153  1  0.757880  0.278910  0.643970  1.0  0.1734
  H  H154  1  0.797670  0.322720  0.714120  1.0  0.1104
  H  H155  1  0.632460  0.559400  0.800200  1.0  0.1124
  H  H156  1  0.675760  0.562250  0.730040  1.0  0.1165
  H  H157  1  0.633550  0.468060  0.731760  1.0  0.113
  H  H158  1  0.590460  0.465340  0.801660  1.0  0.1111
  H  H159  1  0.702000  0.563990  0.635330  1.0  0.1078
  H  H160  1  0.746160  0.566440  0.565340  1.0  0.1244
  H  H161  1  0.721090  0.478970  0.643970  1.0  0.1732
  H  H162  1  0.677280  0.474950  0.714120  1.0  0.1119
  H  H163  1  0.926940  0.559400  0.199800  1.0  0.1126
  H  H164  1  0.886490  0.562250  0.269960  1.0  0.1162
  H  H165  1  0.834510  0.468060  0.268240  1.0  0.1128
  H  H166  1  0.874880  0.465340  0.198340  1.0  0.1116
  H  H167  1  0.861990  0.563990  0.364670  1.0  0.1083
  H  H168  1  0.820280  0.566440  0.434660  1.0  0.122
  H  H169  1  0.757880  0.478970  0.356030  1.0  0.173
  H  H170  1  0.797670  0.474950  0.285880  1.0  0.1117
  H  H171  1  0.632460  0.073060  0.199800  1.0  0.1121
  H  H172  1  0.675760  0.113510  0.269960  1.0  0.1157
  H  H173  1  0.633550  0.165490  0.268240  1.0  0.1125
  H  H174  1  0.590460  0.125120  0.198340  1.0  0.111
  H  H175  1  0.702000  0.138010  0.364670  1.0  0.1092
  H  H176  1  0.746160  0.179720  0.434660  1.0  0.121
  H  H177  1  0.721090  0.242120  0.356030  1.0  0.1729
  H  H178  1  0.677280  0.202330  0.285880  1.0  0.1095
  H  H179  1  0.440600  0.367540  0.199800  1.0  0.1124
  H  H180  1  0.437750  0.324240  0.269960  1.0  0.1159
  H  H181  1  0.531940  0.366450  0.268240  1.0  0.1124
  H  H182  1  0.534660  0.409540  0.198340  1.0  0.1105
  H  H183  1  0.436010  0.298000  0.364670  1.0  0.1067
  H  H184  1  0.433560  0.253840  0.434660  1.0  0.1243
  H  H185  1  0.521030  0.278910  0.356030  1.0  0.1724
  H  H186  1  0.525050  0.322720  0.285880  1.0  0.1113
  H  H187  1  0.073060  0.440600  0.199800  1.0  0.1118
  H  H188  1  0.113510  0.437750  0.269960  1.0  0.1153
  H  H189  1  0.165490  0.531940  0.268240  1.0  0.1121
  H  H190  1  0.125120  0.534660  0.198340  1.0  0.1117
  H  H191  1  0.138010  0.436010  0.364670  1.0  0.1092
  H  H192  1  0.179720  0.433560  0.434660  1.0  0.1239
  H  H193  1  0.242120  0.521030  0.356030  1.0  0.1742
  H  H194  1  0.202330  0.525050  0.285880  1.0  0.1105
  H  H195  1  0.367540  0.926940  0.199800  1.0  0.1126
  H  H196  1  0.324240  0.886490  0.269960  1.0  0.1155
  H  H197  1  0.366450  0.834510  0.268240  1.0  0.1124
  H  H198  1  0.409540  0.874880  0.198340  1.0  0.1114
  H  H199  1  0.298000  0.861990  0.364670  1.0  0.1076
  H  H200  1  0.253840  0.820280  0.434660  1.0  0.1215
  H  H201  1  0.278910  0.757880  0.356030  1.0  0.1727
  H  H202  1  0.322720  0.797670  0.285880  1.0  0.1099
  H  H203  1  0.559400  0.632460  0.199800  1.0  0.1126
  H  H204  1  0.562250  0.675760  0.269960  1.0  0.117
  H  H205  1  0.468060  0.633550  0.268240  1.0  0.1118
  H  H206  1  0.465340  0.590460  0.198340  1.0  0.1117
  H  H207  1  0.563990  0.702000  0.364670  1.0  0.1072
  H  H208  1  0.566440  0.746160  0.434660  1.0  0.1239
  H  H209  1  0.478970  0.721090  0.356030  1.0  0.1731
  H  H210  1  0.474950  0.677280  0.285880  1.0  0.1094
  C  C211  1  0.489700  0.069840  0.148330  1.0  0.6809
  C  C212  1  0.487870  0.095790  0.193340  1.0  -0.0793
  C  C213  1  0.459680  0.092410  0.214170  1.0  -0.0661
  C  C214  1  0.458020  0.115940  0.254980  1.0  -0.1327
  C  C215  1  0.484170  0.143090  0.275720  1.0  -0.0618
  C  C216  1  0.512730  0.146220  0.254130  1.0  -0.1062
  C  C217  1  0.514390  0.122690  0.213320  1.0  -0.0688
  C  C218  1  0.481650  0.167900  0.319470  1.0  0.0136
  C  C219  1  0.455050  0.161330  0.362740  1.0  -0.1332
  C  C220  1  0.452710  0.184480  0.403550  1.0  -0.135
  C  C221  1  0.476940  0.214200  0.401160  1.0  0.0176
  C  C222  1  0.503570  0.220750  0.357820  1.0  -0.1523
  C  C223  1  0.505910  0.197610  0.317010  1.0  -0.117
  C  C224  1  0.930160  0.419860  0.148330  1.0  0.6812
  C  C225  1  0.904210  0.392080  0.193340  1.0  -0.0778
  C  C226  1  0.907590  0.367270  0.214170  1.0  -0.0642
  C  C227  1  0.884060  0.342080  0.254980  1.0  -0.1341
  C  C228  1  0.856910  0.341080  0.275720  1.0  -0.0626
  C  C229  1  0.853780  0.366510  0.254130  1.0  -0.1053
  C  C230  1  0.877310  0.391700  0.213320  1.0  -0.0693
  C  C231  1  0.832100  0.313750  0.319470  1.0  0.0139
  C  C232  1  0.838670  0.293720  0.362740  1.0  -0.1231
  C  C233  1  0.815520  0.268230  0.403550  1.0  -0.1324
  C  C234  1  0.785800  0.262740  0.401160  1.0  0.0164
  C  C235  1  0.779250  0.282820  0.357820  1.0  -0.1499
  C  C236  1  0.802390  0.308300  0.317010  1.0  -0.1154
  C  C237  1  0.580140  0.510300  0.148330  1.0  0.6796
  C  C238  1  0.607920  0.512130  0.193340  1.0  -0.0782
  C  C239  1  0.632730  0.540320  0.214170  1.0  -0.0675
  C  C240  1  0.657920  0.541980  0.254980  1.0  -0.1382
  C  C241  1  0.658920  0.515830  0.275720  1.0  -0.0623
  C  C242  1  0.633490  0.487270  0.254130  1.0  -0.1107
  C  C243  1  0.608300  0.485610  0.213320  1.0  -0.0694
  C  C244  1  0.686250  0.518350  0.319470  1.0  0.0124
  C  C245  1  0.706280  0.544950  0.362740  1.0  -0.1317
  C  C246  1  0.731770  0.547290  0.403550  1.0  -0.1346
  C  C247  1  0.737260  0.523060  0.401160  1.0  0.0178
  C  C248  1  0.717180  0.496430  0.357820  1.0  -0.1552
  C  C249  1  0.691700  0.494090  0.317010  1.0  -0.1224
  C  C250  1  0.510300  0.930160  0.148330  1.0  0.6804
  C  C251  1  0.512130  0.904210  0.193340  1.0  -0.0786
  C  C252  1  0.540320  0.907590  0.214170  1.0  -0.0652
  C  C253  1  0.541980  0.884060  0.254980  1.0  -0.135
  C  C254  1  0.515830  0.856910  0.275720  1.0  -0.062
  C  C255  1  0.487270  0.853780  0.254130  1.0  -0.1058
  C  C256  1  0.485610  0.877310  0.213320  1.0  -0.0685
  C  C257  1  0.518350  0.832100  0.319470  1.0  0.0136
  C  C258  1  0.544950  0.838670  0.362740  1.0  -0.1267
  C  C259  1  0.547290  0.815520  0.403550  1.0  -0.1328
  C  C260  1  0.523060  0.785800  0.401160  1.0  0.0175
  C  C261  1  0.496430  0.779250  0.357820  1.0  -0.1513
  C  C262  1  0.494090  0.802390  0.317010  1.0  -0.1161
  C  C263  1  0.069840  0.580140  0.148330  1.0  0.6809
  C  C264  1  0.095790  0.607920  0.193340  1.0  -0.0785
  C  C265  1  0.092410  0.632730  0.214170  1.0  -0.0632
  C  C266  1  0.115940  0.657920  0.254980  1.0  -0.1318
  C  C267  1  0.143090  0.658920  0.275720  1.0  -0.0625
  C  C268  1  0.146220  0.633490  0.254130  1.0  -0.1063
  C  C269  1  0.122690  0.608300  0.213320  1.0  -0.0675
  C  C270  1  0.167900  0.686250  0.319470  1.0  0.0139
  C  C271  1  0.161330  0.706280  0.362740  1.0  -0.1258
  C  C272  1  0.184480  0.731770  0.403550  1.0  -0.1334
  C  C273  1  0.214200  0.737260  0.401160  1.0  0.0183
  C  C274  1  0.220750  0.717180  0.357820  1.0  -0.1529
  C  C275  1  0.197610  0.691700  0.317010  1.0  -0.1167
  C  C276  1  0.419860  0.489700  0.148330  1.0  0.6809
  C  C277  1  0.392080  0.487870  0.193340  1.0  -0.0777
  C  C278  1  0.367270  0.459680  0.214170  1.0  -0.0671
  C  C279  1  0.342080  0.458020  0.254980  1.0  -0.1409
  C  C280  1  0.341080  0.484170  0.275720  1.0  -0.0628
  C  C281  1  0.366510  0.512730  0.254130  1.0  -0.1098
  C  C282  1  0.391700  0.514390  0.213320  1.0  -0.0694
  C  C283  1  0.313750  0.481650  0.319470  1.0  0.0138
  C  C284  1  0.293720  0.455050  0.362740  1.0  -0.1329
  C  C285  1  0.268230  0.452710  0.403550  1.0  -0.1354
  C  C286  1  0.262740  0.476940  0.401160  1.0  0.0164
  C  C287  1  0.282820  0.503570  0.357820  1.0  -0.1536
  C  C288  1  0.308300  0.505910  0.317010  1.0  -0.1205
  C  C289  1  0.069840  0.489700  0.851670  1.0  0.6803
  C  C290  1  0.095790  0.487870  0.806660  1.0  -0.078
  C  C291  1  0.092410  0.459680  0.785830  1.0  -0.0671
  C  C292  1  0.115940  0.458020  0.745020  1.0  -0.1384
  C  C293  1  0.143090  0.484170  0.724280  1.0  -0.0622
  C  C294  1  0.146220  0.512730  0.745870  1.0  -0.1089
  C  C295  1  0.122690  0.514390  0.786680  1.0  -0.0706
  C  C296  1  0.167900  0.481650  0.680530  1.0  0.0118
  C  C297  1  0.161330  0.455050  0.637260  1.0  -0.1356
  C  C298  1  0.184480  0.452710  0.596450  1.0  -0.1343
  C  C299  1  0.214200  0.476940  0.598840  1.0  0.0168
  C  C300  1  0.220750  0.503570  0.642180  1.0  -0.15
  C  C301  1  0.197610  0.505910  0.682990  1.0  -0.1217
  C  C302  1  0.419860  0.930160  0.851670  1.0  0.6807
  C  C303  1  0.392080  0.904210  0.806660  1.0  -0.0786
  C  C304  1  0.367270  0.907590  0.785830  1.0  -0.0659
  C  C305  1  0.342080  0.884060  0.745020  1.0  -0.1319
  C  C306  1  0.341080  0.856910  0.724280  1.0  -0.0624
  C  C307  1  0.366510  0.853780  0.745870  1.0  -0.1062
  C  C308  1  0.391700  0.877310  0.786680  1.0  -0.0679
  C  C309  1  0.313750  0.832100  0.680530  1.0  0.0125
  C  C310  1  0.293720  0.838670  0.637260  1.0  -0.1309
  C  C311  1  0.268230  0.815520  0.596450  1.0  -0.1353
  C  C312  1  0.262740  0.785800  0.598840  1.0  0.0176
  C  C313  1  0.282820  0.779250  0.642180  1.0  -0.1501
  C  C314  1  0.308300  0.802390  0.682990  1.0  -0.1165
  C  C315  1  0.510300  0.580140  0.851670  1.0  0.6811
  C  C316  1  0.512130  0.607920  0.806660  1.0  -0.0777
  C  C317  1  0.540320  0.632730  0.785830  1.0  -0.0639
  C  C318  1  0.541980  0.657920  0.745020  1.0  -0.1345
  C  C319  1  0.515830  0.658920  0.724280  1.0  -0.0627
  C  C320  1  0.487270  0.633490  0.745870  1.0  -0.1056
  C  C321  1  0.485610  0.608300  0.786680  1.0  -0.0674
  C  C322  1  0.518350  0.686250  0.680530  1.0  0.0131
  C  C323  1  0.544950  0.706280  0.637260  1.0  -0.1246
  C  C324  1  0.547290  0.731770  0.596450  1.0  -0.1326
  C  C325  1  0.523060  0.737260  0.598840  1.0  0.0167
  C  C326  1  0.496430  0.717180  0.642180  1.0  -0.1493
  C  C327  1  0.494090  0.691700  0.682990  1.0  -0.117
  C  C328  1  0.930160  0.510300  0.851670  1.0  0.6809
  C  C329  1  0.904210  0.512130  0.806660  1.0  -0.0776
  C  C330  1  0.907590  0.540320  0.785830  1.0  -0.0655
  C  C331  1  0.884060  0.541980  0.745020  1.0  -0.1396
  C  C332  1  0.856910  0.515830  0.724280  1.0  -0.0629
  C  C333  1  0.853780  0.487270  0.745870  1.0  -0.1109
  C  C334  1  0.877310  0.485610  0.786680  1.0  -0.0681
  C  C335  1  0.832100  0.518350  0.680530  1.0  0.013
  C  C336  1  0.838670  0.544950  0.637260  1.0  -0.1286
  C  C337  1  0.815520  0.547290  0.596450  1.0  -0.1368
  C  C338  1  0.785800  0.523060  0.598840  1.0  0.0174
  C  C339  1  0.779250  0.496430  0.642180  1.0  -0.1535
  C  C340  1  0.802390  0.494090  0.682990  1.0  -0.1216
  C  C341  1  0.580140  0.069840  0.851670  1.0  0.6814
  C  C342  1  0.607920  0.095790  0.806660  1.0  -0.0792
  C  C343  1  0.632730  0.092410  0.785830  1.0  -0.0648
  C  C344  1  0.657920  0.115940  0.745020  1.0  -0.1355
  C  C345  1  0.658920  0.143090  0.724280  1.0  -0.0616
  C  C346  1  0.633490  0.146220  0.745870  1.0  -0.1054
  C  C347  1  0.608300  0.122690  0.786680  1.0  -0.0685
  C  C348  1  0.686250  0.167900  0.680530  1.0  0.0131
  C  C349  1  0.706280  0.161330  0.637260  1.0  -0.1306
  C  C350  1  0.731770  0.184480  0.596450  1.0  -0.133
  C  C351  1  0.737260  0.214200  0.598840  1.0  0.0175
  C  C352  1  0.717180  0.220750  0.642180  1.0  -0.1488
  C  C353  1  0.691700  0.197610  0.682990  1.0  -0.1175
  C  C354  1  0.489700  0.419860  0.851670  1.0  0.681
  C  C355  1  0.487870  0.392080  0.806660  1.0  -0.0781
  C  C356  1  0.459680  0.367270  0.785830  1.0  -0.0637
  C  C357  1  0.458020  0.342080  0.745020  1.0  -0.1317
  C  C358  1  0.484170  0.341080  0.724280  1.0  -0.0625
  C  C359  1  0.512730  0.366510  0.745870  1.0  -0.1065
  C  C360  1  0.514390  0.391700  0.786680  1.0  -0.0691
  C  C361  1  0.481650  0.313750  0.680530  1.0  0.0132
  C  C362  1  0.455050  0.293720  0.637260  1.0  -0.1262
  C  C363  1  0.452710  0.268230  0.596450  1.0  -0.1335
  C  C364  1  0.476940  0.262740  0.598840  1.0  0.0178
  C  C365  1  0.503570  0.282820  0.642180  1.0  -0.1488
  C  C366  1  0.505910  0.308300  0.682990  1.0  -0.1166
  C  C367  1  0.510300  0.930160  0.851670  1.0  0.6805
  C  C368  1  0.512130  0.904210  0.806660  1.0  -0.0785
  C  C369  1  0.540320  0.907590  0.785830  1.0  -0.0651
  C  C370  1  0.541980  0.884060  0.745020  1.0  -0.135
  C  C371  1  0.515830  0.856910  0.724280  1.0  -0.062
  C  C372  1  0.487270  0.853780  0.745870  1.0  -0.1055
  C  C373  1  0.485610  0.877310  0.786680  1.0  -0.0683
  C  C374  1  0.518350  0.832100  0.680530  1.0  0.0129
  C  C375  1  0.544950  0.838670  0.637260  1.0  -0.1271
  C  C376  1  0.547290  0.815520  0.596450  1.0  -0.1329
  C  C377  1  0.523060  0.785800  0.598840  1.0  0.0174
  C  C378  1  0.496430  0.779250  0.642180  1.0  -0.1489
  C  C379  1  0.494090  0.802390  0.682990  1.0  -0.1174
  C  C380  1  0.069840  0.580140  0.851670  1.0  0.6811
  C  C381  1  0.095790  0.607920  0.806660  1.0  -0.0783
  C  C382  1  0.092410  0.632730  0.785830  1.0  -0.0629
  C  C383  1  0.115940  0.657920  0.745020  1.0  -0.1315
  C  C384  1  0.143090  0.658920  0.724280  1.0  -0.0626
  C  C385  1  0.146220  0.633490  0.745870  1.0  -0.1064
  C  C386  1  0.122690  0.608300  0.786680  1.0  -0.0672
  C  C387  1  0.167900  0.686250  0.680530  1.0  0.0133
  C  C388  1  0.161330  0.706280  0.637260  1.0  -0.1265
  C  C389  1  0.184480  0.731770  0.596450  1.0  -0.1343
  C  C390  1  0.214200  0.737260  0.598840  1.0  0.0176
  C  C391  1  0.220750  0.717180  0.642180  1.0  -0.1493
  C  C392  1  0.197610  0.691700  0.682990  1.0  -0.1165
  C  C393  1  0.419860  0.489700  0.851670  1.0  0.681
  C  C394  1  0.392080  0.487870  0.806660  1.0  -0.0775
  C  C395  1  0.367270  0.459680  0.785830  1.0  -0.0672
  C  C396  1  0.342080  0.458020  0.745020  1.0  -0.1404
  C  C397  1  0.341080  0.484170  0.724280  1.0  -0.0629
  C  C398  1  0.366510  0.512730  0.745870  1.0  -0.1097
  C  C399  1  0.391700  0.514390  0.786680  1.0  -0.0691
  C  C400  1  0.313750  0.481650  0.680530  1.0  0.0129
  C  C401  1  0.293720  0.455050  0.637260  1.0  -0.1331
  C  C402  1  0.268230  0.452710  0.596450  1.0  -0.1359
  C  C403  1  0.262740  0.476940  0.598840  1.0  0.017
  C  C404  1  0.282820  0.503570  0.642180  1.0  -0.1499
  C  C405  1  0.308300  0.505910  0.682990  1.0  -0.1205
  C  C406  1  0.489700  0.069840  0.851670  1.0  0.6812
  C  C407  1  0.487870  0.095790  0.806660  1.0  -0.0792
  C  C408  1  0.459680  0.092410  0.785830  1.0  -0.0659
  C  C409  1  0.458020  0.115940  0.745020  1.0  -0.1323
  C  C410  1  0.484170  0.143090  0.724280  1.0  -0.0618
  C  C411  1  0.512730  0.146220  0.745870  1.0  -0.106
  C  C412  1  0.514390  0.122690  0.786680  1.0  -0.0683
  C  C413  1  0.481650  0.167900  0.680530  1.0  0.0128
  C  C414  1  0.455050  0.161330  0.637260  1.0  -0.1341
  C  C415  1  0.452710  0.184480  0.596450  1.0  -0.1355
  C  C416  1  0.476940  0.214200  0.598840  1.0  0.0177
  C  C417  1  0.503570  0.220750  0.642180  1.0  -0.1488
  C  C418  1  0.505910  0.197610  0.682990  1.0  -0.1164
  C  C419  1  0.930160  0.419860  0.851670  1.0  0.6813
  C  C420  1  0.904210  0.392080  0.806660  1.0  -0.0776
  C  C421  1  0.907590  0.367270  0.785830  1.0  -0.0638
  C  C422  1  0.884060  0.342080  0.745020  1.0  -0.1342
  C  C423  1  0.856910  0.341080  0.724280  1.0  -0.0627
  C  C424  1  0.853780  0.366510  0.745870  1.0  -0.1051
  C  C425  1  0.877310  0.391700  0.786680  1.0  -0.0691
  C  C426  1  0.832100  0.313750  0.680530  1.0  0.013
  C  C427  1  0.838670  0.293720  0.637260  1.0  -0.1242
  C  C428  1  0.815520  0.268230  0.596450  1.0  -0.1324
  C  C429  1  0.785800  0.262740  0.598840  1.0  0.017
  C  C430  1  0.779250  0.282820  0.642180  1.0  -0.1474
  C  C431  1  0.802390  0.308300  0.682990  1.0  -0.1168
  C  C432  1  0.580140  0.510300  0.851670  1.0  0.68
  C  C433  1  0.607920  0.512130  0.806660  1.0  -0.078
  C  C434  1  0.632730  0.540320  0.785830  1.0  -0.0673
  C  C435  1  0.657920  0.541980  0.745020  1.0  -0.1378
  C  C436  1  0.658920  0.515830  0.724280  1.0  -0.0622
  C  C437  1  0.633490  0.487270  0.745870  1.0  -0.1105
  C  C438  1  0.608300  0.485610  0.786680  1.0  -0.0693
  C  C439  1  0.686250  0.518350  0.680530  1.0  0.0118
  C  C440  1  0.706280  0.544950  0.637260  1.0  -0.1324
  C  C441  1  0.731770  0.547290  0.596450  1.0  -0.1352
  C  C442  1  0.737260  0.523060  0.598840  1.0  0.0172
  C  C443  1  0.717180  0.496430  0.642180  1.0  -0.1522
  C  C444  1  0.691700  0.494090  0.682990  1.0  -0.1225
  C  C445  1  0.930160  0.510300  0.148330  1.0  0.681
  C  C446  1  0.904210  0.512130  0.193340  1.0  -0.0778
  C  C447  1  0.907590  0.540320  0.214170  1.0  -0.0657
  C  C448  1  0.884060  0.541980  0.254980  1.0  -0.14
  C  C449  1  0.856910  0.515830  0.275720  1.0  -0.0628
  C  C450  1  0.853780  0.487270  0.254130  1.0  -0.111
  C  C451  1  0.877310  0.485610  0.213320  1.0  -0.0682
  C  C452  1  0.832100  0.518350  0.319470  1.0  0.0138
  C  C453  1  0.838670  0.544950  0.362740  1.0  -0.1282
  C  C454  1  0.815520  0.547290  0.403550  1.0  -0.1358
  C  C455  1  0.785800  0.523060  0.401160  1.0  0.0176
  C  C456  1  0.779250  0.496430  0.357820  1.0  -0.154
  C  C457  1  0.802390  0.494090  0.317010  1.0  -0.1217
  C  C458  1  0.580140  0.069840  0.148330  1.0  0.6812
  C  C459  1  0.607920  0.095790  0.193340  1.0  -0.0794
  C  C460  1  0.632730  0.092410  0.214170  1.0  -0.0647
  C  C461  1  0.657920  0.115940  0.254980  1.0  -0.1356
  C  C462  1  0.658920  0.143090  0.275720  1.0  -0.0616
  C  C463  1  0.633490  0.146220  0.254130  1.0  -0.1055
  C  C464  1  0.608300  0.122690  0.213320  1.0  -0.0687
  C  C465  1  0.686250  0.167900  0.319470  1.0  0.0137
  C  C466  1  0.706280  0.161330  0.362740  1.0  -0.1301
  C  C467  1  0.731770  0.184480  0.403550  1.0  -0.1331
  C  C468  1  0.737260  0.214200  0.401160  1.0  0.0175
  C  C469  1  0.717180  0.220750  0.357820  1.0  -0.1498
  C  C470  1  0.691700  0.197610  0.317010  1.0  -0.1162
  C  C471  1  0.489700  0.419860  0.148330  1.0  0.6807
  C  C472  1  0.487870  0.392080  0.193340  1.0  -0.0783
  C  C473  1  0.459680  0.367270  0.214170  1.0  -0.0639
  C  C474  1  0.458020  0.342080  0.254980  1.0  -0.1322
  C  C475  1  0.484170  0.341080  0.275720  1.0  -0.0625
  C  C476  1  0.512730  0.366510  0.254130  1.0  -0.1066
  C  C477  1  0.514390  0.391700  0.213320  1.0  -0.0695
  C  C478  1  0.481650  0.313750  0.319470  1.0  0.014
  C  C479  1  0.455050  0.293720  0.362740  1.0  -0.1251
  C  C480  1  0.452710  0.268230  0.403550  1.0  -0.1329
  C  C481  1  0.476940  0.262740  0.401160  1.0  0.0175
  C  C482  1  0.503570  0.282820  0.357820  1.0  -0.1502
  C  C483  1  0.505910  0.308300  0.317010  1.0  -0.1168
  C  C484  1  0.069840  0.489700  0.148330  1.0  0.6799
  C  C485  1  0.095790  0.487870  0.193340  1.0  -0.0783
  C  C486  1  0.092410  0.459680  0.214170  1.0  -0.0671
  C  C487  1  0.115940  0.458020  0.254980  1.0  -0.1388
  C  C488  1  0.143090  0.484170  0.275720  1.0  -0.0622
  C  C489  1  0.146220  0.512730  0.254130  1.0  -0.1091
  C  C490  1  0.122690  0.514390  0.213320  1.0  -0.0708
  C  C491  1  0.167900  0.481650  0.319470  1.0  0.0124
  C  C492  1  0.161330  0.455050  0.362740  1.0  -0.135
  C  C493  1  0.184480  0.452710  0.403550  1.0  -0.1336
  C  C494  1  0.214200  0.476940  0.401160  1.0  0.0168
  C  C495  1  0.220750  0.503570  0.357820  1.0  -0.1518
  C  C496  1  0.197610  0.505910  0.317010  1.0  -0.1218
  C  C497  1  0.419860  0.930160  0.148330  1.0  0.6806
  C  C498  1  0.392080  0.904210  0.193340  1.0  -0.0787
  C  C499  1  0.367270  0.907590  0.214170  1.0  -0.0663
  C  C500  1  0.342080  0.884060  0.254980  1.0  -0.1322
  C  C501  1  0.341080  0.856910  0.275720  1.0  -0.0623
  C  C502  1  0.366510  0.853780  0.254130  1.0  -0.1063
  C  C503  1  0.391700  0.877310  0.213320  1.0  -0.0684
  C  C504  1  0.313750  0.832100  0.319470  1.0  0.0134
  C  C505  1  0.293720  0.838670  0.362740  1.0  -0.13
  C  C506  1  0.268230  0.815520  0.403550  1.0  -0.1346
  C  C507  1  0.262740  0.785800  0.401160  1.0  0.0174
  C  C508  1  0.282820  0.779250  0.357820  1.0  -0.1515
  C  C509  1  0.308300  0.802390  0.317010  1.0  -0.1169
  C  C510  1  0.510300  0.580140  0.148330  1.0  0.6812
  C  C511  1  0.512130  0.607920  0.193340  1.0  -0.0778
  C  C512  1  0.540320  0.632730  0.214170  1.0  -0.0643
  C  C513  1  0.541980  0.657920  0.254980  1.0  -0.1344
  C  C514  1  0.515830  0.658920  0.275720  1.0  -0.0626
  C  C515  1  0.487270  0.633490  0.254130  1.0  -0.1054
  C  C516  1  0.485610  0.608300  0.213320  1.0  -0.0676
  C  C517  1  0.518350  0.686250  0.319470  1.0  0.0138
  C  C518  1  0.544950  0.706280  0.362740  1.0  -0.1238
  C  C519  1  0.547290  0.731770  0.403550  1.0  -0.132
  C  C520  1  0.523060  0.737260  0.401160  1.0  0.0173
  C  C521  1  0.496430  0.717180  0.357820  1.0  -0.1499
  C  C522  1  0.494090  0.691700  0.317010  1.0  -0.1154
  C  C523  1  0.478820  0.239410  0.456450  1.0  -0.0123
  C  C524  1  0.760590  0.239410  0.456450  1.0  -0.0124
  C  C525  1  0.760590  0.521180  0.456450  1.0  -0.0126
  C  C526  1  0.521180  0.760590  0.456450  1.0  -0.0125
  C  C527  1  0.239410  0.760590  0.456450  1.0  -0.0124
  C  C528  1  0.239410  0.478820  0.456450  1.0  -0.0122
  C  C529  1  0.239410  0.478820  0.543550  1.0  -0.0121
  C  C530  1  0.239410  0.760590  0.543550  1.0  -0.0123
  C  C531  1  0.521180  0.760590  0.543550  1.0  -0.0123
  C  C532  1  0.760590  0.521180  0.543550  1.0  -0.0125
  C  C533  1  0.760590  0.239410  0.543550  1.0  -0.0122
  C  C534  1  0.478820  0.239410  0.543550  1.0  -0.0122
  O  O535  1  0.510470  0.074940  0.093080  1.0  -0.6448
  O  O536  1  0.470000  0.042200  0.166050  1.0  -0.6062
  O  O537  1  0.925060  0.435530  0.093080  1.0  -0.6417
  O  O538  1  0.957800  0.427800  0.166050  1.0  -0.6048
  O  O539  1  0.564470  0.489530  0.093080  1.0  -0.6449
  O  O540  1  0.572200  0.530000  0.166050  1.0  -0.6038
  O  O541  1  0.489530  0.925060  0.093080  1.0  -0.644
  O  O542  1  0.530000  0.957800  0.166050  1.0  -0.605
  O  O543  1  0.074940  0.564470  0.093080  1.0  -0.6438
  O  O544  1  0.042200  0.572200  0.166050  1.0  -0.6058
  O  O545  1  0.435530  0.510470  0.093080  1.0  -0.6452
  O  O546  1  0.427800  0.470000  0.166050  1.0  -0.6058
  O  O547  1  0.074940  0.510470  0.906920  1.0  -0.6453
  O  O548  1  0.042200  0.470000  0.833950  1.0  -0.6058
  O  O549  1  0.435530  0.925060  0.906920  1.0  -0.6444
  O  O550  1  0.427800  0.957800  0.833950  1.0  -0.6073
  O  O551  1  0.489530  0.564470  0.906920  1.0  -0.6425
  O  O552  1  0.530000  0.572200  0.833950  1.0  -0.6065
  O  O553  1  0.925060  0.489530  0.906920  1.0  -0.6441
  O  O554  1  0.957800  0.530000  0.833950  1.0  -0.6057
  O  O555  1  0.564470  0.074940  0.906920  1.0  -0.6441
  O  O556  1  0.572200  0.042200  0.833950  1.0  -0.6065
  O  O557  1  0.510470  0.435530  0.906920  1.0  -0.6427
  O  O558  1  0.470000  0.427800  0.833950  1.0  -0.6053
  O  O559  1  0.489530  0.925060  0.906920  1.0  -0.6437
  O  O560  1  0.530000  0.957800  0.833950  1.0  -0.6059
  O  O561  1  0.074940  0.564470  0.906920  1.0  -0.6437
  O  O562  1  0.042200  0.572200  0.833950  1.0  -0.6062
  O  O563  1  0.435530  0.510470  0.906920  1.0  -0.6444
  O  O564  1  0.427800  0.470000  0.833950  1.0  -0.6056
  O  O565  1  0.510470  0.074940  0.906920  1.0  -0.6451
  O  O566  1  0.470000  0.042200  0.833950  1.0  -0.6075
  O  O567  1  0.925060  0.435530  0.906920  1.0  -0.6414
  O  O568  1  0.957800  0.427800  0.833950  1.0  -0.6061
  O  O569  1  0.564470  0.489530  0.906920  1.0  -0.6445
  O  O570  1  0.572200  0.530000  0.833950  1.0  -0.6062
  O  O571  1  0.925060  0.489530  0.093080  1.0  -0.6444
  O  O572  1  0.957800  0.530000  0.166050  1.0  -0.6036
  O  O573  1  0.564470  0.074940  0.093080  1.0  -0.6433
  O  O574  1  0.572200  0.042200  0.166050  1.0  -0.6061
  O  O575  1  0.510470  0.435530  0.093080  1.0  -0.6428
  O  O576  1  0.470000  0.427800  0.166050  1.0  -0.6044
  O  O577  1  0.074940  0.510470  0.093080  1.0  -0.6449
  O  O578  1  0.042200  0.470000  0.166050  1.0  -0.6051
  O  O579  1  0.435530  0.925060  0.093080  1.0  -0.6445
  O  O580  1  0.427800  0.957800  0.166050  1.0  -0.6065
  O  O581  1  0.489530  0.564470  0.093080  1.0  -0.6421
  O  O582  1  0.530000  0.572200  0.166050  1.0  -0.6058
  O  O583  1  0.515120  0.030240  0.123220  1.0  -0.9786
  O  O584  1  0.969760  0.484880  0.123220  1.0  -0.979
  O  O585  1  0.515120  0.484880  0.123220  1.0  -0.9785
  O  O586  1  0.484880  0.969760  0.123220  1.0  -0.9787
  O  O587  1  0.030240  0.515120  0.123220  1.0  -0.9787
  O  O588  1  0.484880  0.515120  0.123220  1.0  -0.9792
  O  O589  1  0.030240  0.515120  0.876780  1.0  -0.9801
  O  O590  1  0.484880  0.969760  0.876780  1.0  -0.98
  O  O591  1  0.484880  0.515120  0.876780  1.0  -0.981
  O  O592  1  0.969760  0.484880  0.876780  1.0  -0.9805
  O  O593  1  0.515120  0.030240  0.876780  1.0  -0.9802
  O  O594  1  0.515120  0.484880  0.876780  1.0  -0.9798
  O  O595  1  0.477870  0.028950  0.000000  1.0  -0.9069
  O  O596  1  0.971050  0.448920  0.000000  1.0  -0.9065
  O  O597  1  0.551080  0.522130  0.000000  1.0  -0.9072
  O  O598  1  0.522130  0.971050  0.000000  1.0  -0.9056
  O  O599  1  0.028950  0.551080  0.000000  1.0  -0.9066
  O  O600  1  0.448920  0.477870  0.000000  1.0  -0.9069
  O  O601  1  0.028950  0.477870  0.000000  1.0  -0.9071
  O  O602  1  0.448920  0.971050  0.000000  1.0  -0.9069
  O  O603  1  0.522130  0.551080  0.000000  1.0  -0.9064
  O  O604  1  0.971050  0.522130  0.000000  1.0  -0.9073
  O  O605  1  0.551080  0.028950  0.000000  1.0  -0.9056
  O  O606  1  0.477870  0.448920  0.000000  1.0  -0.9062
