# generated using pymatgen
data_Ce3(C3O4)4
_symmetry_space_group_name_H-M   'P 1'
_cell_length_a   18.57280000
_cell_length_b   18.57280000
_cell_length_c   18.57280000
_cell_angle_alpha   90.00000000
_cell_angle_beta   90.00000000
_cell_angle_gamma   90.00000000
_symmetry_Int_Tables_number   1
_chemical_formula_structural   Ce3(C3O4)4
_chemical_formula_sum   'Ce24 C96 O128'
_cell_volume   6406.66692695
_cell_formula_units_Z   8
loop_
 _symmetry_equiv_pos_site_id
 _symmetry_equiv_pos_as_xyz
  1  'x, y, z'
loop_
 _atom_site_type_symbol
 _atom_site_label
 _atom_site_symmetry_multiplicity
 _atom_site_fract_x
 _atom_site_fract_y
 _atom_site_fract_z
 _atom_site_occupancy
 _atom_site_charge
  Ce  Ce1  1  0.392900  0.259800  0.244100  1.0  2.2295
  Ce  Ce2  1  0.607100  0.740200  0.244100  1.0  2.2325
  Ce  Ce3  1  0.607100  0.259800  0.755900  1.0  2.2372
  Ce  Ce4  1  0.392900  0.740200  0.755900  1.0  2.2341
  Ce  Ce5  1  0.244100  0.392900  0.259800  1.0  2.2314
  Ce  Ce6  1  0.244100  0.607100  0.740200  1.0  2.2322
  Ce  Ce7  1  0.755900  0.607100  0.259800  1.0  2.2369
  Ce  Ce8  1  0.755900  0.392900  0.740200  1.0  2.2373
  Ce  Ce9  1  0.259800  0.244100  0.392900  1.0  2.2247
  Ce  Ce10  1  0.740200  0.244100  0.607100  1.0  2.2256
  Ce  Ce11  1  0.259800  0.755900  0.607100  1.0  2.2304
  Ce  Ce12  1  0.740200  0.755900  0.392900  1.0  2.2192
  Ce  Ce13  1  0.107100  0.240200  0.255900  1.0  2.2378
  Ce  Ce14  1  0.892900  0.759800  0.255900  1.0  2.2351
  Ce  Ce15  1  0.892900  0.240200  0.744100  1.0  2.2303
  Ce  Ce16  1  0.107100  0.759800  0.744100  1.0  2.2332
  Ce  Ce17  1  0.255900  0.107100  0.240200  1.0  2.2374
  Ce  Ce18  1  0.255900  0.892900  0.759800  1.0  2.2367
  Ce  Ce19  1  0.744100  0.892900  0.240200  1.0  2.232
  Ce  Ce20  1  0.744100  0.107100  0.759800  1.0  2.2318
  Ce  Ce21  1  0.240200  0.255900  0.107100  1.0  2.2311
  Ce  Ce22  1  0.759800  0.255900  0.892900  1.0  2.2301
  Ce  Ce23  1  0.240200  0.744100  0.892900  1.0  2.2248
  Ce  Ce24  1  0.759800  0.744100  0.107100  1.0  2.2365
  C  C25  1  0.426000  0.269000  0.064000  1.0  0.7129
  C  C26  1  0.463000  0.274000  0.000000  1.0  0.0679
  C  C27  1  0.450000  0.259000  0.419000  1.0  0.6119
  C  C28  1  0.509000  0.267000  0.464000  1.0  0.0817
  C  C29  1  0.574000  0.731000  0.064000  1.0  0.7132
  C  C30  1  0.537000  0.726000  0.000000  1.0  0.0679
  C  C31  1  0.550000  0.741000  0.419000  1.0  0.6118
  C  C32  1  0.491000  0.733000  0.464000  1.0  0.0781
  C  C33  1  0.574000  0.269000  0.936000  1.0  0.7133
  C  C34  1  0.537000  0.274000  0.000000  1.0  0.0664
  C  C35  1  0.550000  0.259000  0.581000  1.0  0.6109
  C  C36  1  0.491000  0.267000  0.536000  1.0  0.0765
  C  C37  1  0.426000  0.731000  0.936000  1.0  0.7128
  C  C38  1  0.463000  0.726000  0.000000  1.0  0.067
  C  C39  1  0.450000  0.741000  0.581000  1.0  0.6117
  C  C40  1  0.509000  0.733000  0.536000  1.0  0.0797
  C  C41  1  0.064000  0.426000  0.269000  1.0  0.7126
  C  C42  1  0.000000  0.463000  0.274000  1.0  0.0697
  C  C43  1  0.419000  0.450000  0.259000  1.0  0.6111
  C  C44  1  0.464000  0.509000  0.267000  1.0  0.0774
  C  C45  1  0.064000  0.574000  0.731000  1.0  0.7125
  C  C46  1  0.000000  0.537000  0.726000  1.0  0.0696
  C  C47  1  0.419000  0.550000  0.741000  1.0  0.6107
  C  C48  1  0.464000  0.491000  0.733000  1.0  0.0775
  C  C49  1  0.936000  0.574000  0.269000  1.0  0.7123
  C  C50  1  0.000000  0.537000  0.274000  1.0  0.0688
  C  C51  1  0.581000  0.550000  0.259000  1.0  0.6118
  C  C52  1  0.536000  0.491000  0.267000  1.0  0.0772
  C  C53  1  0.936000  0.426000  0.731000  1.0  0.7124
  C  C54  1  0.000000  0.463000  0.726000  1.0  0.0684
  C  C55  1  0.581000  0.450000  0.741000  1.0  0.6114
  C  C56  1  0.536000  0.509000  0.733000  1.0  0.0765
  C  C57  1  0.269000  0.064000  0.426000  1.0  0.7128
  C  C58  1  0.274000  0.000000  0.463000  1.0  0.0686
  C  C59  1  0.259000  0.419000  0.450000  1.0  0.6116
  C  C60  1  0.267000  0.464000  0.509000  1.0  0.072
  C  C61  1  0.731000  0.064000  0.574000  1.0  0.7122
  C  C62  1  0.726000  0.000000  0.537000  1.0  0.067
  C  C63  1  0.741000  0.419000  0.550000  1.0  0.6123
  C  C64  1  0.733000  0.464000  0.491000  1.0  0.0758
  C  C65  1  0.269000  0.936000  0.574000  1.0  0.7125
  C  C66  1  0.274000  0.000000  0.537000  1.0  0.0684
  C  C67  1  0.259000  0.581000  0.550000  1.0  0.6121
  C  C68  1  0.267000  0.536000  0.491000  1.0  0.0763
  C  C69  1  0.731000  0.936000  0.426000  1.0  0.7126
  C  C70  1  0.726000  0.000000  0.463000  1.0  0.0684
  C  C71  1  0.741000  0.581000  0.450000  1.0  0.6127
  C  C72  1  0.733000  0.536000  0.509000  1.0  0.0719
  C  C73  1  0.074000  0.231000  0.436000  1.0  0.7131
  C  C74  1  0.037000  0.226000  0.500000  1.0  0.0669
  C  C75  1  0.050000  0.241000  0.081000  1.0  0.6113
  C  C76  1  0.991000  0.233000  0.036000  1.0  0.0765
  C  C77  1  0.926000  0.769000  0.436000  1.0  0.7131
  C  C78  1  0.963000  0.774000  0.500000  1.0  0.0665
  C  C79  1  0.950000  0.759000  0.081000  1.0  0.6113
  C  C80  1  0.009000  0.767000  0.036000  1.0  0.0797
  C  C81  1  0.926000  0.231000  0.564000  1.0  0.7129
  C  C82  1  0.963000  0.226000  0.500000  1.0  0.0683
  C  C83  1  0.950000  0.241000  0.919000  1.0  0.6123
  C  C84  1  0.009000  0.233000  0.964000  1.0  0.0818
  C  C85  1  0.074000  0.769000  0.564000  1.0  0.7132
  C  C86  1  0.037000  0.774000  0.500000  1.0  0.0675
  C  C87  1  0.050000  0.759000  0.919000  1.0  0.6115
  C  C88  1  0.991000  0.767000  0.964000  1.0  0.0781
  C  C89  1  0.436000  0.074000  0.231000  1.0  0.7125
  C  C90  1  0.500000  0.037000  0.226000  1.0  0.0682
  C  C91  1  0.081000  0.050000  0.241000  1.0  0.6114
  C  C92  1  0.036000  0.991000  0.233000  1.0  0.0773
  C  C93  1  0.436000  0.926000  0.769000  1.0  0.7123
  C  C94  1  0.500000  0.963000  0.774000  1.0  0.069
  C  C95  1  0.081000  0.950000  0.759000  1.0  0.6118
  C  C96  1  0.036000  0.009000  0.767000  1.0  0.0765
  C  C97  1  0.564000  0.926000  0.231000  1.0  0.7128
  C  C98  1  0.500000  0.963000  0.226000  1.0  0.0692
  C  C99  1  0.919000  0.950000  0.241000  1.0  0.6108
  C  C100  1  0.964000  0.009000  0.233000  1.0  0.0775
  C  C101  1  0.564000  0.074000  0.769000  1.0  0.7123
  C  C102  1  0.500000  0.037000  0.774000  1.0  0.07
  C  C103  1  0.919000  0.050000  0.759000  1.0  0.611
  C  C104  1  0.964000  0.991000  0.767000  1.0  0.0772
  C  C105  1  0.231000  0.436000  0.074000  1.0  0.7121
  C  C106  1  0.226000  0.500000  0.037000  1.0  0.0674
  C  C107  1  0.241000  0.081000  0.050000  1.0  0.6126
  C  C108  1  0.233000  0.036000  0.991000  1.0  0.0766
  C  C109  1  0.769000  0.436000  0.926000  1.0  0.7128
  C  C110  1  0.774000  0.500000  0.963000  1.0  0.0696
  C  C111  1  0.759000  0.081000  0.950000  1.0  0.612
  C  C112  1  0.767000  0.036000  0.009000  1.0  0.0717
  C  C113  1  0.231000  0.564000  0.926000  1.0  0.7126
  C  C114  1  0.226000  0.500000  0.963000  1.0  0.0675
  C  C115  1  0.241000  0.919000  0.950000  1.0  0.6124
  C  C116  1  0.233000  0.964000  0.009000  1.0  0.0724
  C  C117  1  0.769000  0.564000  0.074000  1.0  0.7126
  C  C118  1  0.774000  0.500000  0.037000  1.0  0.0679
  C  C119  1  0.759000  0.919000  0.050000  1.0  0.6118
  C  C120  1  0.767000  0.964000  0.991000  1.0  0.0754
  O  O121  1  0.322500  0.322500  0.177500  1.0  -0.8176
  O  O122  1  0.452000  0.273000  0.128000  1.0  -0.5736
  O  O123  1  0.357000  0.257000  0.053000  1.0  -0.6973
  O  O124  1  0.469600  0.257000  0.349000  1.0  -0.5968
  O  O125  1  0.383000  0.252000  0.434500  1.0  -0.6914
  O  O126  1  0.677500  0.677500  0.177500  1.0  -0.8175
  O  O127  1  0.548000  0.727000  0.128000  1.0  -0.5709
  O  O128  1  0.643000  0.743000  0.053000  1.0  -0.6961
  O  O129  1  0.530400  0.743000  0.349000  1.0  -0.5964
  O  O130  1  0.617000  0.748000  0.434500  1.0  -0.6928
  O  O131  1  0.677500  0.322500  0.822500  1.0  -0.8168
  O  O132  1  0.548000  0.273000  0.872000  1.0  -0.5727
  O  O133  1  0.643000  0.257000  0.947000  1.0  -0.6957
  O  O134  1  0.530400  0.257000  0.651000  1.0  -0.5947
  O  O135  1  0.617000  0.252000  0.565500  1.0  -0.6943
  O  O136  1  0.322500  0.677500  0.822500  1.0  -0.8164
  O  O137  1  0.452000  0.727000  0.872000  1.0  -0.5746
  O  O138  1  0.357000  0.743000  0.947000  1.0  -0.697
  O  O139  1  0.469600  0.743000  0.651000  1.0  -0.5966
  O  O140  1  0.383000  0.748000  0.565500  1.0  -0.6927
  O  O141  1  0.177500  0.322500  0.322500  1.0  -0.8168
  O  O142  1  0.128000  0.452000  0.273000  1.0  -0.5706
  O  O143  1  0.053000  0.357000  0.257000  1.0  -0.6997
  O  O144  1  0.349000  0.469600  0.257000  1.0  -0.5963
  O  O145  1  0.434500  0.383000  0.252000  1.0  -0.6938
  O  O146  1  0.177500  0.677500  0.677500  1.0  -0.8174
  O  O147  1  0.128000  0.548000  0.727000  1.0  -0.569
  O  O148  1  0.053000  0.643000  0.743000  1.0  -0.6997
  O  O149  1  0.349000  0.530400  0.743000  1.0  -0.5972
  O  O150  1  0.434500  0.617000  0.748000  1.0  -0.6915
  O  O151  1  0.822500  0.677500  0.322500  1.0  -0.8158
  O  O152  1  0.872000  0.548000  0.273000  1.0  -0.5693
  O  O153  1  0.947000  0.643000  0.257000  1.0  -0.6992
  O  O154  1  0.651000  0.530400  0.257000  1.0  -0.5958
  O  O155  1  0.565500  0.617000  0.252000  1.0  -0.6927
  O  O156  1  0.822500  0.322500  0.677500  1.0  -0.8178
  O  O157  1  0.872000  0.452000  0.727000  1.0  -0.5699
  O  O158  1  0.947000  0.357000  0.743000  1.0  -0.7007
  O  O159  1  0.651000  0.469600  0.743000  1.0  -0.5962
  O  O160  1  0.565500  0.383000  0.748000  1.0  -0.6942
  O  O161  1  0.322500  0.177500  0.322500  1.0  -0.8169
  O  O162  1  0.273000  0.128000  0.452000  1.0  -0.5644
  O  O163  1  0.257000  0.053000  0.357000  1.0  -0.7012
  O  O164  1  0.257000  0.349000  0.469600  1.0  -0.6011
  O  O165  1  0.252000  0.434500  0.383000  1.0  -0.693
  O  O166  1  0.677500  0.177500  0.677500  1.0  -0.8169
  O  O167  1  0.727000  0.128000  0.548000  1.0  -0.5672
  O  O168  1  0.743000  0.053000  0.643000  1.0  -0.6984
  O  O169  1  0.743000  0.349000  0.530400  1.0  -0.6005
  O  O170  1  0.748000  0.434500  0.617000  1.0  -0.6926
  O  O171  1  0.322500  0.822500  0.677500  1.0  -0.8173
  O  O172  1  0.273000  0.872000  0.548000  1.0  -0.5664
  O  O173  1  0.257000  0.947000  0.643000  1.0  -0.7002
  O  O174  1  0.257000  0.651000  0.530400  1.0  -0.5992
  O  O175  1  0.252000  0.565500  0.617000  1.0  -0.691
  O  O176  1  0.677500  0.822500  0.322500  1.0  -0.8177
  O  O177  1  0.727000  0.872000  0.452000  1.0  -0.565
  O  O178  1  0.743000  0.947000  0.357000  1.0  -0.7036
  O  O179  1  0.743000  0.651000  0.469600  1.0  -0.5995
  O  O180  1  0.748000  0.565500  0.383000  1.0  -0.694
  O  O181  1  0.177500  0.177500  0.322500  1.0  -0.8168
  O  O182  1  0.048000  0.227000  0.372000  1.0  -0.5726
  O  O183  1  0.143000  0.243000  0.447000  1.0  -0.6959
  O  O184  1  0.030400  0.243000  0.151000  1.0  -0.595
  O  O185  1  0.117000  0.248000  0.065500  1.0  -0.6942
  O  O186  1  0.822500  0.822500  0.322500  1.0  -0.8167
  O  O187  1  0.952000  0.773000  0.372000  1.0  -0.5745
  O  O188  1  0.857000  0.757000  0.447000  1.0  -0.6969
  O  O189  1  0.969600  0.757000  0.151000  1.0  -0.5965
  O  O190  1  0.883000  0.752000  0.065500  1.0  -0.6928
  O  O191  1  0.822500  0.177500  0.677500  1.0  -0.8171
  O  O192  1  0.952000  0.227000  0.628000  1.0  -0.5736
  O  O193  1  0.857000  0.243000  0.553000  1.0  -0.6968
  O  O194  1  0.969600  0.243000  0.849000  1.0  -0.597
  O  O195  1  0.883000  0.248000  0.934500  1.0  -0.6909
  O  O196  1  0.177500  0.822500  0.677500  1.0  -0.8179
  O  O197  1  0.048000  0.773000  0.628000  1.0  -0.5712
  O  O198  1  0.143000  0.757000  0.553000  1.0  -0.6966
  O  O199  1  0.030400  0.757000  0.849000  1.0  -0.5961
  O  O200  1  0.117000  0.752000  0.934500  1.0  -0.6935
  O  O201  1  0.322500  0.177500  0.177500  1.0  -0.8168
  O  O202  1  0.372000  0.048000  0.227000  1.0  -0.569
  O  O203  1  0.447000  0.143000  0.243000  1.0  -0.6995
  O  O204  1  0.151000  0.030400  0.243000  1.0  -0.5962
  O  O205  1  0.065500  0.117000  0.248000  1.0  -0.6923
  O  O206  1  0.322500  0.822500  0.822500  1.0  -0.8164
  O  O207  1  0.372000  0.952000  0.773000  1.0  -0.5704
  O  O208  1  0.447000  0.857000  0.757000  1.0  -0.7004
  O  O209  1  0.151000  0.969600  0.757000  1.0  -0.5961
  O  O210  1  0.065500  0.883000  0.752000  1.0  -0.6942
  O  O211  1  0.677500  0.822500  0.177500  1.0  -0.8182
  O  O212  1  0.628000  0.952000  0.227000  1.0  -0.5702
  O  O213  1  0.553000  0.857000  0.243000  1.0  -0.6998
  O  O214  1  0.849000  0.969600  0.243000  1.0  -0.5966
  O  O215  1  0.934500  0.883000  0.248000  1.0  -0.6945
  O  O216  1  0.677500  0.177500  0.822500  1.0  -0.8162
  O  O217  1  0.628000  0.048000  0.773000  1.0  -0.5692
  O  O218  1  0.553000  0.143000  0.757000  1.0  -0.6998
  O  O219  1  0.849000  0.030400  0.757000  1.0  -0.5967
  O  O220  1  0.934500  0.117000  0.752000  1.0  -0.691
  O  O221  1  0.177500  0.322500  0.177500  1.0  -0.8174
  O  O222  1  0.227000  0.372000  0.048000  1.0  -0.5665
  O  O223  1  0.243000  0.447000  0.143000  1.0  -0.6998
  O  O224  1  0.243000  0.151000  0.030400  1.0  -0.5993
  O  O225  1  0.248000  0.065500  0.117000  1.0  -0.6924
  O  O226  1  0.822500  0.322500  0.822500  1.0  -0.8175
  O  O227  1  0.773000  0.372000  0.952000  1.0  -0.5642
  O  O228  1  0.757000  0.447000  0.857000  1.0  -0.7041
  O  O229  1  0.757000  0.151000  0.969600  1.0  -0.5996
  O  O230  1  0.752000  0.065500  0.883000  1.0  -0.6925
  O  O231  1  0.177500  0.677500  0.822500  1.0  -0.8173
  O  O232  1  0.227000  0.628000  0.952000  1.0  -0.565
  O  O233  1  0.243000  0.553000  0.857000  1.0  -0.7011
  O  O234  1  0.243000  0.849000  0.969600  1.0  -0.6009
  O  O235  1  0.248000  0.934500  0.883000  1.0  -0.6941
  O  O236  1  0.822500  0.677500  0.177500  1.0  -0.8166
  O  O237  1  0.773000  0.628000  0.048000  1.0  -0.567
  O  O238  1  0.757000  0.553000  0.143000  1.0  -0.6982
  O  O239  1  0.757000  0.849000  0.030400  1.0  -0.6005
  O  O240  1  0.752000  0.934500  0.117000  1.0  -0.6913
  O  O241  1  0.334900  0.334900  0.334900  1.0  -0.9761
  O  O242  1  0.665100  0.665100  0.334900  1.0  -0.9767
  O  O243  1  0.665100  0.334900  0.665100  1.0  -0.9753
  O  O244  1  0.334900  0.665100  0.665100  1.0  -0.9754
  O  O245  1  0.165100  0.165100  0.165100  1.0  -0.9758
  O  O246  1  0.834900  0.834900  0.165100  1.0  -0.9754
  O  O247  1  0.834900  0.165100  0.834900  1.0  -0.9763
  O  O248  1  0.165100  0.834900  0.834900  1.0  -0.9761
