# generated using pymatgen
data_CuH8C12(NO2)2
_symmetry_space_group_name_H-M   'P 1'
_cell_length_a   15.76400000
_cell_length_b   15.76400000
_cell_length_c   16.91800000
_cell_angle_alpha   90.00000000
_cell_angle_beta   90.00000000
_cell_angle_gamma   120.00000000
_symmetry_Int_Tables_number   1
_chemical_formula_structural   CuH8C12(NO2)2
_chemical_formula_sum   'Cu9 H72 C108 N18 O36'
_cell_volume   3640.93147027
_cell_formula_units_Z   9
loop_
 _symmetry_equiv_pos_site_id
 _symmetry_equiv_pos_as_xyz
  1  'x, y, z'
loop_
 _atom_site_type_symbol
 _atom_site_label
 _atom_site_symmetry_multiplicity
 _atom_site_fract_x
 _atom_site_fract_y
 _atom_site_fract_z
 _atom_site_occupancy
 _atom_site_charge
  Cu  Cu1  1  0.167240  0.806220  0.216130  1.0  0.8141
  Cu  Cu2  1  0.847220  0.694510  0.550100  1.0  0.7181
  Cu  Cu3  1  0.527230  0.499640  0.211410  1.0  0.8658
  Cu  Cu4  1  0.193780  0.361020  0.549460  1.0  0.8127
  Cu  Cu5  1  0.305490  0.152710  0.883430  1.0  0.7128
  Cu  Cu6  1  0.500360  0.027590  0.544740  1.0  0.8652
  Cu  Cu7  1  0.638980  0.832760  0.882800  1.0  0.8141
  Cu  Cu8  1  0.847290  0.152780  0.216770  1.0  0.7139
  Cu  Cu9  1  0.972410  0.472770  0.878080  1.0  0.867
  H  H10  1  0.377800  0.919600  0.257400  1.0  0.0779
  H  H11  1  0.522400  0.039500  0.210200  1.0  0.1101
  H  H12  1  0.521400  0.142000  0.113100  1.0  0.1095
  H  H13  1  0.231500  0.964200  0.091200  1.0  0.0988
  H  H14  1  0.054900  0.596200  0.170300  1.0  0.1068
  H  H15  1  0.915200  0.450500  0.208000  1.0  0.1073
  H  H16  1  0.830800  0.446400  0.320400  1.0  0.1171
  H  H17  1  0.008000  0.736800  0.341700  1.0  0.0816
  H  H18  1  0.687900  0.607700  0.424500  1.0  0.0824
  H  H19  1  0.531700  0.745000  0.432500  1.0  0.1211
  H  H20  1  0.627500  0.835000  0.540300  1.0  0.0959
  H  H21  1  0.755000  0.815700  0.583000  1.0  0.1105
  H  H22  1  0.592600  0.656400  0.085200  1.0  0.088
  H  H23  1  0.881600  0.841900  0.111100  1.0  0.1187
  H  H24  1  0.879400  0.750800  0.222100  1.0  0.12
  H  H25  1  0.733800  0.613800  0.258800  1.0  0.0945
  H  H26  1  0.307200  0.504700  0.975700  1.0  0.118
  H  H27  1  0.213700  0.409200  0.866500  1.0  0.1224
  H  H28  1  0.214100  0.266900  0.839100  1.0  0.0833
  H  H29  1  0.397200  0.308200  0.011700  1.0  0.0951
  H  H30  1  0.422300  0.284600  0.174800  1.0  0.0902
  H  H31  1  0.303400  0.141800  0.218800  1.0  0.1124
  H  H32  1  0.202700  0.137500  0.324600  1.0  0.1105
  H  H33  1  0.364600  0.432800  0.334700  1.0  0.1014
  H  H34  1  0.080400  0.458200  0.590730  1.0  0.0773
  H  H35  1  0.960500  0.482900  0.543530  1.0  0.1104
  H  H36  1  0.858000  0.379400  0.446430  1.0  0.1115
  H  H37  1  0.035800  0.267300  0.424530  1.0  0.1006
  H  H38  1  0.403800  0.458700  0.503630  1.0  0.1072
  H  H39  1  0.549500  0.464700  0.541330  1.0  0.1085
  H  H40  1  0.553600  0.384400  0.653730  1.0  0.1192
  H  H41  1  0.263200  0.271200  0.675030  1.0  0.0823
  H  H42  1  0.392300  0.080200  0.757830  1.0  0.0827
  H  H43  1  0.255000  0.786700  0.765830  1.0  0.1201
  H  H44  1  0.165000  0.792500  0.873630  1.0  0.0958
  H  H45  1  0.184300  0.939300  0.916330  1.0  0.1105
  H  H46  1  0.343600  0.936200  0.418530  1.0  0.0882
  H  H47  1  0.158100  0.039700  0.444430  1.0  0.118
  H  H48  1  0.249200  0.128600  0.555430  1.0  0.1195
  H  H49  1  0.386200  0.120000  0.592130  1.0  0.0945
  H  H50  1  0.495300  0.802500  0.309030  1.0  0.1162
  H  H51  1  0.590800  0.804500  0.199830  1.0  0.1206
  H  H52  1  0.733100  0.947200  0.172430  1.0  0.0827
  H  H53  1  0.691800  0.089000  0.345030  1.0  0.0945
  H  H54  1  0.715400  0.137700  0.508130  1.0  0.0908
  H  H55  1  0.858200  0.161600  0.552130  1.0  0.1139
  H  H56  1  0.862500  0.065200  0.657930  1.0  0.1103
  H  H57  1  0.567200  0.931800  0.668030  1.0  0.1008
  H  H58  1  0.541800  0.622200  0.924070  1.0  0.0766
  H  H59  1  0.517100  0.477600  0.876870  1.0  0.1097
  H  H60  1  0.620600  0.478600  0.779770  1.0  0.1095
  H  H61  1  0.732700  0.768500  0.757870  1.0  0.1007
  H  H62  1  0.541300  0.945100  0.836970  1.0  0.1073
  H  H63  1  0.535300  0.084800  0.874670  1.0  0.1088
  H  H64  1  0.615600  0.169200  0.987070  1.0  0.1178
  H  H65  1  0.728800  0.992000  0.008370  1.0  0.0817
  H  H66  1  0.919800  0.312100  0.091170  1.0  0.0819
  H  H67  1  0.213300  0.468300  0.099170  1.0  0.1199
  H  H68  1  0.207500  0.372500  0.206970  1.0  0.0984
  H  H69  1  0.060700  0.245000  0.249670  1.0  0.111
  H  H70  1  0.063800  0.407400  0.751870  1.0  0.088
  H  H71  1  0.960300  0.118400  0.777770  1.0  0.1176
  H  H72  1  0.871400  0.120600  0.888770  1.0  0.1189
  H  H73  1  0.880000  0.266200  0.925470  1.0  0.0939
  H  H74  1  0.197500  0.692800  0.642370  1.0  0.1176
  H  H75  1  0.195500  0.786300  0.533170  1.0  0.1222
  H  H76  1  0.052800  0.785900  0.505770  1.0  0.0837
  H  H77  1  0.911000  0.602800  0.678370  1.0  0.095
  H  H78  1  0.862300  0.577700  0.841470  1.0  0.0902
  H  H79  1  0.838400  0.696600  0.885470  1.0  0.1141
  H  H80  1  0.934800  0.797300  0.991270  1.0  0.1109
  H  H81  1  0.068200  0.635400  0.001370  1.0  0.1007
  C  C82  1  0.377500  0.954700  0.211800  1.0  0.167
  C  C83  1  0.462600  0.027700  0.187000  1.0  -0.0843
  C  C84  1  0.462000  0.085100  0.127700  1.0  -0.1264
  C  C85  1  0.379400  0.063300  0.089300  1.0  -0.1541
  C  C86  1  0.291600  0.981000  0.116800  1.0  0.1559
  C  C87  1  0.017300  0.595900  0.214400  1.0  0.1348
  C  C88  1  0.935400  0.508600  0.237800  1.0  -0.0992
  C  C89  1  0.884600  0.506600  0.302800  1.0  -0.0555
  C  C90  1  0.910500  0.590600  0.343200  1.0  -0.1773
  C  C91  1  0.990900  0.677200  0.315200  1.0  0.1762
  C  C92  1  0.858500  0.591400  0.418000  1.0  0.6421
  C  C93  1  0.674800  0.654200  0.448900  1.0  0.175
  C  C94  1  0.600200  0.666667  0.418200  1.0  -0.1503
  C  C95  1  0.582400  0.734600  0.451900  1.0  -0.0916
  C  C96  1  0.639800  0.788300  0.515300  1.0  -0.1083
  C  C97  1  0.713500  0.775100  0.541900  1.0  0.1228
  C  C98  1  0.542900  0.609400  0.345400  1.0  0.6614
  C  C99  1  0.652000  0.675800  0.112900  1.0  0.1936
  C  C100  1  0.736800  0.760300  0.087500  1.0  -0.1296
  C  C101  1  0.822000  0.786600  0.127700  1.0  -0.0589
  C  C102  1  0.821200  0.732100  0.192900  1.0  -0.1065
  C  C103  1  0.734600  0.650800  0.214200  1.0  0.1677
  C  C104  1  0.421200  0.471200  0.077300  1.0  0.6688
  C  C105  1  0.362200  0.415600  0.004700  1.0  -0.1468
  C  C106  1  0.307100  0.446300  0.961600  1.0  -0.0711
  C  C107  1  0.251700  0.390100  0.897400  1.0  -0.156
  C  C108  1  0.254400  0.307000  0.880900  1.0  0.1807
  C  C109  1  0.360700  0.330000  0.981700  1.0  0.1679
  C  C110  1  0.384200  0.285500  0.218000  1.0  0.1744
  C  C111  1  0.314300  0.200800  0.243100  1.0  -0.1482
  C  C112  1  0.255400  0.198200  0.306700  1.0  -0.0921
  C  C113  1  0.274100  0.280900  0.341200  1.0  -0.1431
  C  C114  1  0.352400  0.373300  0.310500  1.0  0.1425
  C  C115  1  0.219900  0.284500  0.413100  1.0  0.6182
  C  C116  1  0.737700  0.816100  0.014800  1.0  0.6715
  C  C117  1  0.378300  0.123000  0.016900  1.0  0.634
  C  C118  1  0.045300  0.422800  0.545130  1.0  0.169
  C  C119  1  0.972300  0.434900  0.520330  1.0  -0.0879
  C  C120  1  0.914900  0.376900  0.461030  1.0  -0.1265
  C  C121  1  0.936700  0.316100  0.422630  1.0  -0.1533
  C  C122  1  0.019000  0.310600  0.450130  1.0  0.1555
  C  C123  1  0.404100  0.421400  0.547730  1.0  0.1349
  C  C124  1  0.491400  0.426800  0.571130  1.0  -0.101
  C  C125  1  0.493400  0.378000  0.636130  1.0  -0.0519
  C  C126  1  0.409400  0.319900  0.676530  1.0  -0.1787
  C  C127  1  0.322800  0.313700  0.648530  1.0  0.1759
  C  C128  1  0.408600  0.267100  0.751330  1.0  0.6427
  C  C129  1  0.345800  0.020600  0.782230  1.0  0.1759
  C  C130  1  0.333400  0.933600  0.751530  1.0  -0.1515
  C  C131  1  0.265400  0.847800  0.785230  1.0  -0.0941
  C  C132  1  0.211700  0.851500  0.848630  1.0  -0.1061
  C  C133  1  0.224900  0.938400  0.875230  1.0  0.1229
  C  C134  1  0.390600  0.933500  0.678730  1.0  0.6604
  C  C135  1  0.324200  0.976200  0.446230  1.0  0.1927
  C  C136  1  0.239700  0.976500  0.420830  1.0  -0.1333
  C  C137  1  0.213400  0.035400  0.461030  1.0  -0.0602
  C  C138  1  0.267900  0.089100  0.526230  1.0  -0.1073
  C  C139  1  0.349200  0.083800  0.547530  1.0  0.1667
  C  C140  1  0.528800  0.950000  0.410630  1.0  0.6645
  C  C141  1  0.584400  0.946600  0.338030  1.0  -0.1467
  C  C142  1  0.553700  0.860800  0.294930  1.0  -0.0727
  C  C143  1  0.609900  0.861600  0.230730  1.0  -0.1544
  C  C144  1  0.693000  0.947400  0.214230  1.0  0.1807
  C  C145  1  0.670000  0.030700  0.315030  1.0  0.1686
  C  C146  1  0.714500  0.098700  0.551330  1.0  0.1738
  C  C147  1  0.799200  0.113500  0.576430  1.0  -0.148
  C  C148  1  0.801800  0.057200  0.640030  1.0  -0.0887
  C  C149  1  0.719100  0.993200  0.674530  1.0  -0.1432
  C  C150  1  0.626700  0.979100  0.643830  1.0  0.1433
  C  C151  1  0.715500  0.935400  0.746430  1.0  0.6179
  C  C152  1  0.183900  0.921600  0.348130  1.0  0.671
  C  C153  1  0.877000  0.255300  0.350230  1.0  0.6331
  C  C154  1  0.577200  0.622500  0.878470  1.0  0.1688
  C  C155  1  0.565100  0.537400  0.853670  1.0  -0.0874
  C  C156  1  0.623100  0.538000  0.794370  1.0  -0.1267
  C  C157  1  0.683900  0.620600  0.755970  1.0  -0.1531
  C  C158  1  0.689400  0.708400  0.783470  1.0  0.1567
  C  C159  1  0.578600  0.982700  0.881070  1.0  0.1352
  C  C160  1  0.573200  0.064600  0.904470  1.0  -0.1019
  C  C161  1  0.622000  0.115400  0.969470  1.0  -0.0538
  C  C162  1  0.680100  0.089500  0.009870  1.0  -0.1778
  C  C163  1  0.686300  0.009100  0.981870  1.0  0.1773
  C  C164  1  0.732900  0.141500  0.084670  1.0  0.6395
  C  C165  1  0.979400  0.325200  0.115570  1.0  0.1762
  C  C166  1  0.066400  0.399800  0.084870  1.0  -0.1502
  C  C167  1  0.152200  0.417600  0.118570  1.0  -0.09
  C  C168  1  0.148500  0.360200  0.181970  1.0  -0.1054
  C  C169  1  0.061600  0.286500  0.208570  1.0  0.124
  C  C170  1  0.066500  0.457100  0.012070  1.0  0.6608
  C  C171  1  0.023800  0.348000  0.779570  1.0  0.1947
  C  C172  1  0.023500  0.263200  0.754170  1.0  -0.1297
  C  C173  1  0.964600  0.178000  0.794370  1.0  -0.0613
  C  C174  1  0.910900  0.178800  0.859570  1.0  -0.1065
  C  C175  1  0.916200  0.265400  0.880870  1.0  0.1664
  C  C176  1  0.050000  0.578800  0.743970  1.0  0.6687
  C  C177  1  0.053400  0.637800  0.671370  1.0  -0.1484
  C  C178  1  0.139200  0.692900  0.628270  1.0  -0.0697
  C  C179  1  0.138400  0.748300  0.564070  1.0  -0.1554
  C  C180  1  0.052600  0.745600  0.547570  1.0  0.1791
  C  C181  1  0.969300  0.639300  0.648370  1.0  0.1679
  C  C182  1  0.901300  0.615800  0.884670  1.0  0.1757
  C  C183  1  0.886500  0.685700  0.909770  1.0  -0.1491
  C  C184  1  0.942800  0.744600  0.973370  1.0  -0.0921
  C  C185  1  0.006800  0.725900  0.007870  1.0  -0.144
  C  C186  1  0.020900  0.647600  0.977170  1.0  0.1432
  C  C187  1  0.064600  0.780100  0.079770  1.0  0.6209
  C  C188  1  0.078400  0.262300  0.681470  1.0  0.6714
  C  C189  1  0.744700  0.621700  0.683570  1.0  0.6325
  N  N190  1  0.291000  0.927100  0.176900  1.0  -0.2891
  N  N191  1  0.309700  0.277200  0.919000  1.0  -0.3353
  N  N192  1  0.728600  0.703600  0.510400  1.0  -0.3019
  N  N193  1  0.649900  0.621600  0.173300  1.0  -0.3225
  N  N194  1  0.408300  0.376700  0.248500  1.0  -0.2946
  N  N195  1  0.043900  0.680300  0.253900  1.0  -0.3129
  N  N196  1  0.072900  0.363900  0.510230  1.0  -0.2916
  N  N197  1  0.722800  0.032500  0.252330  1.0  -0.3356
  N  N198  1  0.296400  0.025000  0.843730  1.0  -0.3006
  N  N199  1  0.378400  0.028300  0.506630  1.0  -0.3242
  N  N200  1  0.623300  0.031600  0.581830  1.0  -0.2936
  N  N201  1  0.319700  0.363600  0.587230  1.0  -0.314
  N  N202  1  0.636100  0.709000  0.843570  1.0  -0.2902
  N  N203  1  0.967500  0.690300  0.585670  1.0  -0.3341
  N  N204  1  0.975000  0.271400  0.177070  1.0  -0.2996
  N  N205  1  0.971700  0.350100  0.839970  1.0  -0.322
  N  N206  1  0.968400  0.591700  0.915170  1.0  -0.2944
  N  N207  1  0.636400  0.956100  0.920570  1.0  -0.3127
  O  O208  1  0.293800  0.101500  0.991400  1.0  -0.5792
  O  O209  1  0.457800  0.180900  0.988000  1.0  -0.5631
  O  O210  1  0.814900  0.873700  0.984200  1.0  -0.5199
  O  O211  1  0.653300  0.796700  0.990100  1.0  -0.5884
  O  O212  1  0.882100  0.678000  0.440700  1.0  -0.5877
  O  O213  1  0.800700  0.511800  0.447900  1.0  -0.5339
  O  O214  1  0.486300  0.631700  0.313700  1.0  -0.5409
  O  O215  1  0.565200  0.546700  0.319400  1.0  -0.5907
  O  O216  1  0.483800  0.454900  0.102900  1.0  -0.5598
  O  O217  1  0.402800  0.533200  0.106500  1.0  -0.5782
  O  O218  1  0.240700  0.370500  0.439600  1.0  -0.5843
  O  O219  1  0.158000  0.205200  0.441100  1.0  -0.5386
  O  O220  1  0.898500  0.192300  0.324730  1.0  -0.5786
  O  O221  1  0.819100  0.276900  0.321330  1.0  -0.5646
  O  O222  1  0.126300  0.941200  0.317530  1.0  -0.5211
  O  O223  1  0.203300  0.856600  0.323430  1.0  -0.588
  O  O224  1  0.322000  0.204100  0.774030  1.0  -0.5881
  O  O225  1  0.488200  0.288900  0.781230  1.0  -0.5342
  O  O226  1  0.368300  0.854600  0.647030  1.0  -0.5402
  O  O227  1  0.453300  0.018500  0.652730  1.0  -0.5908
  O  O228  1  0.545100  0.028900  0.436230  1.0  -0.5629
  O  O229  1  0.466800  0.869600  0.439830  1.0  -0.5772
  O  O230  1  0.629500  0.870200  0.772930  1.0  -0.5839
  O  O231  1  0.794800  0.952800  0.774430  1.0  -0.54
  O  O232  1  0.807700  0.706200  0.658070  1.0  -0.5797
  O  O233  1  0.723100  0.542200  0.654670  1.0  -0.5637
  O  O234  1  0.058800  0.185100  0.650870  1.0  -0.5199
  O  O235  1  0.143400  0.346700  0.656770  1.0  -0.5895
  O  O236  1  0.795900  0.117900  0.107370  1.0  -0.5858
  O  O237  1  0.711100  0.199300  0.114570  1.0  -0.5344
  O  O238  1  0.145400  0.513700  0.980370  1.0  -0.5389
  O  O239  1  0.981500  0.434800  0.986070  1.0  -0.5896
  O  O240  1  0.971100  0.516200  0.769570  1.0  -0.5611
  O  O241  1  0.130400  0.597200  0.773170  1.0  -0.5785
  O  O242  1  0.129800  0.759300  0.106270  1.0  -0.5825
  O  O243  1  0.047200  0.842000  0.107770  1.0  -0.5387
