# generated using pymatgen
data_Co3P4(HO3)4
_symmetry_space_group_name_H-M   'P 1'
_cell_length_a   15.88200000
_cell_length_b   8.46200000
_cell_length_c   16.09600000
_cell_angle_alpha   90.00000000
_cell_angle_beta   112.56300000
_cell_angle_gamma   90.00000000
_symmetry_Int_Tables_number   1
_chemical_formula_structural   Co3P4(HO3)4
_chemical_formula_sum   'Co12 P16 H16 O48'
_cell_volume   1997.62246866
_cell_formula_units_Z   4
loop_
 _symmetry_equiv_pos_site_id
 _symmetry_equiv_pos_as_xyz
  1  'x, y, z'
loop_
 _atom_site_type_symbol
 _atom_site_label
 _atom_site_symmetry_multiplicity
 _atom_site_fract_x
 _atom_site_fract_y
 _atom_site_fract_z
 _atom_site_occupancy
 _atom_site_charge
  Co  Co1  1  0.363900  0.136540  0.476260  1.0  1.074
  Co  Co2  1  0.863900  0.636540  0.476260  1.0  1.074
  Co  Co3  1  0.636100  0.136540  0.023740  1.0  1.0727
  Co  Co4  1  0.136100  0.636540  0.023740  1.0  1.0727
  Co  Co5  1  0.636100  0.863460  0.523740  1.0  1.0722
  Co  Co6  1  0.136100  0.363460  0.523740  1.0  1.0722
  Co  Co7  1  0.363900  0.863460  0.976260  1.0  1.0737
  Co  Co8  1  0.863900  0.363460  0.976260  1.0  1.0737
  Co  Co9  1  0.000000  0.373280  0.250000  1.0  1.032
  Co  Co10  1  0.500000  0.873280  0.250000  1.0  1.032
  Co  Co11  1  0.000000  0.626720  0.750000  1.0  1.0326
  Co  Co12  1  0.500000  0.126720  0.750000  1.0  1.0326
  P  P13  1  0.152530  0.136760  0.363340  1.0  1.5434
  P  P14  1  0.020180  0.629880  0.400780  1.0  1.5474
  P  P15  1  0.652530  0.636760  0.363340  1.0  1.5434
  P  P16  1  0.520180  0.129880  0.400780  1.0  1.5474
  P  P17  1  0.847470  0.136760  0.136660  1.0  1.5442
  P  P18  1  0.979820  0.629880  0.099220  1.0  1.5461
  P  P19  1  0.347470  0.636760  0.136660  1.0  1.5442
  P  P20  1  0.479820  0.129880  0.099220  1.0  1.5461
  P  P21  1  0.847470  0.863240  0.636660  1.0  1.5424
  P  P22  1  0.979820  0.370120  0.599220  1.0  1.5479
  P  P23  1  0.347470  0.363240  0.636660  1.0  1.5424
  P  P24  1  0.479820  0.870120  0.599220  1.0  1.5479
  P  P25  1  0.152530  0.863240  0.863340  1.0  1.5415
  P  P26  1  0.020180  0.370120  0.900780  1.0  1.5491
  P  P27  1  0.652530  0.363240  0.863340  1.0  1.5415
  P  P28  1  0.520180  0.870120  0.900780  1.0  1.5491
  H  H29  1  0.110000  0.006000  0.344000  1.0  -0.0141
  H  H30  1  0.042000  0.737000  0.353000  1.0  -0.0666
  H  H31  1  0.610000  0.506000  0.344000  1.0  -0.0141
  H  H32  1  0.542000  0.237000  0.353000  1.0  -0.0666
  H  H33  1  0.890000  0.006000  0.156000  1.0  -0.0138
  H  H34  1  0.958000  0.737000  0.147000  1.0  -0.0707
  H  H35  1  0.390000  0.506000  0.156000  1.0  -0.0138
  H  H36  1  0.458000  0.237000  0.147000  1.0  -0.0707
  H  H37  1  0.890000  0.994000  0.656000  1.0  -0.0137
  H  H38  1  0.958000  0.263000  0.647000  1.0  -0.0721
  H  H39  1  0.390000  0.494000  0.656000  1.0  -0.0137
  H  H40  1  0.458000  0.763000  0.647000  1.0  -0.0721
  H  H41  1  0.110000  0.994000  0.844000  1.0  -0.0131
  H  H42  1  0.042000  0.263000  0.853000  1.0  -0.0683
  H  H43  1  0.610000  0.494000  0.844000  1.0  -0.0131
  H  H44  1  0.542000  0.763000  0.853000  1.0  -0.0683
  O  O45  1  0.111300  0.248800  0.284660  1.0  -0.7403
  O  O46  1  0.248150  0.096500  0.375670  1.0  -0.7152
  O  O47  1  0.139600  0.189900  0.446420  1.0  -0.8563
  O  O48  1  0.108490  0.580700  0.476360  1.0  -0.753
  O  O49  1  0.974430  0.491900  0.340590  1.0  -0.7943
  O  O50  1  0.956190  0.715100  0.434600  1.0  -0.7382
  O  O51  1  0.611300  0.748800  0.284660  1.0  -0.7403
  O  O52  1  0.748150  0.596500  0.375670  1.0  -0.7155
  O  O53  1  0.639600  0.689900  0.446420  1.0  -0.8563
  O  O54  1  0.608490  0.080700  0.476360  1.0  -0.753
  O  O55  1  0.474430  0.991900  0.340590  1.0  -0.7943
  O  O56  1  0.456190  0.215100  0.434600  1.0  -0.7382
  O  O57  1  0.888700  0.248800  0.215340  1.0  -0.742
  O  O58  1  0.751850  0.096500  0.124330  1.0  -0.7152
  O  O59  1  0.860400  0.189900  0.053580  1.0  -0.8549
  O  O60  1  0.891510  0.580700  0.023640  1.0  -0.7508
  O  O61  1  0.025570  0.491900  0.159410  1.0  -0.7942
  O  O62  1  0.043810  0.715100  0.065400  1.0  -0.7365
  O  O63  1  0.388700  0.748800  0.215340  1.0  -0.742
  O  O64  1  0.251850  0.596500  0.124330  1.0  -0.7154
  O  O65  1  0.360400  0.689900  0.053580  1.0  -0.8549
  O  O66  1  0.391510  0.080700  0.023640  1.0  -0.7508
  O  O67  1  0.525570  0.991900  0.159410  1.0  -0.7942
  O  O68  1  0.543810  0.215100  0.065400  1.0  -0.7365
  O  O69  1  0.888700  0.751200  0.715340  1.0  -0.7425
  O  O70  1  0.751850  0.903500  0.624330  1.0  -0.7148
  O  O71  1  0.860400  0.810100  0.553580  1.0  -0.8553
  O  O72  1  0.891510  0.419300  0.523640  1.0  -0.751
  O  O73  1  0.025570  0.508100  0.659410  1.0  -0.7941
  O  O74  1  0.043810  0.284900  0.565400  1.0  -0.7387
  O  O75  1  0.388700  0.251200  0.715340  1.0  -0.7425
  O  O76  1  0.251850  0.403500  0.624330  1.0  -0.7148
  O  O77  1  0.360400  0.310100  0.553580  1.0  -0.8553
  O  O78  1  0.391510  0.919300  0.523640  1.0  -0.751
  O  O79  1  0.525570  0.008100  0.659410  1.0  -0.7941
  O  O80  1  0.543810  0.784900  0.565400  1.0  -0.7387
  O  O81  1  0.111300  0.751200  0.784660  1.0  -0.7406
  O  O82  1  0.248150  0.903500  0.875670  1.0  -0.7143
  O  O83  1  0.139600  0.810100  0.946420  1.0  -0.8571
  O  O84  1  0.108490  0.419300  0.976360  1.0  -0.7532
  O  O85  1  0.974430  0.508100  0.840590  1.0  -0.7943
  O  O86  1  0.956190  0.284900  0.934600  1.0  -0.7399
  O  O87  1  0.611300  0.251200  0.784660  1.0  -0.7406
  O  O88  1  0.748150  0.403500  0.875670  1.0  -0.7143
  O  O89  1  0.639600  0.310100  0.946420  1.0  -0.8571
  O  O90  1  0.608490  0.919300  0.976360  1.0  -0.7532
  O  O91  1  0.474430  0.008100  0.840590  1.0  -0.7943
  O  O92  1  0.456190  0.784900  0.934600  1.0  -0.7399
