# generated using pymatgen
data_CoH13C21N7O4
_symmetry_space_group_name_H-M   'P 1'
_cell_length_a   11.14400000
_cell_length_b   15.23920000
_cell_length_c   16.69500000
_cell_angle_alpha   114.41900000
_cell_angle_beta   90.00000000
_cell_angle_gamma   111.44700000
_symmetry_Int_Tables_number   1
_chemical_formula_structural   CoH13C21N7O4
_chemical_formula_sum   'Co4 H52 C84 N28 O16'
_cell_volume   2364.32806486
_cell_formula_units_Z   4
loop_
 _symmetry_equiv_pos_site_id
 _symmetry_equiv_pos_as_xyz
  1  'x, y, z'
loop_
 _atom_site_type_symbol
 _atom_site_label
 _atom_site_symmetry_multiplicity
 _atom_site_fract_x
 _atom_site_fract_y
 _atom_site_fract_z
 _atom_site_occupancy
 _atom_site_charge
  Co  Co1  1  0.000000  0.500000  0.000000  1.0  0.7623
  Co  Co2  1  0.500000  0.500000  0.500000  1.0  0.7623
  Co  Co3  1  0.500000  0.500000  0.000000  1.0  0.9215
  Co  Co4  1  0.000000  0.500000  0.500000  1.0  0.9215
  H  H5  1  0.877100  0.668400  0.869000  1.0  0.1203
  H  H6  1  0.474500  0.431000  0.681100  1.0  0.1056
  H  H7  1  0.758400  0.695400  0.605900  1.0  0.0876
  H  H8  1  0.712500  0.326400  0.882400  1.0  0.0684
  H  H9  1  0.570400  0.156200  0.841700  1.0  0.1319
  H  H10  1  0.808400  0.148000  0.015800  1.0  0.1279
  H  H11  1  0.943300  0.315400  0.047600  1.0  0.0648
  H  H12  1  0.683700  0.868000  0.019500  1.0  0.1278
  H  H13  1  0.669900  0.733400  0.052700  1.0  0.0814
  H  H14  1  0.353100  0.542400  0.875100  1.0  0.0691
  H  H15  1  0.354400  0.671600  0.838600  1.0  0.1173
  H  H16  1  0.365000  0.824200  0.822800  1.0  0.277
  H  H17  1  0.891200  0.747400  0.740000  1.0  0.3361
  H  H18  1  0.208700  0.331600  0.631000  1.0  0.1207
  H  H19  1  0.043500  0.569000  0.818900  1.0  0.1056
  H  H20  1  0.063000  0.304600  0.894100  1.0  0.0877
  H  H21  1  0.386100  0.673600  0.617600  1.0  0.0686
  H  H22  1  0.414200  0.843800  0.658300  1.0  0.132
  H  H23  1  0.660400  0.852000  0.484200  1.0  0.128
  H  H24  1  0.627900  0.684600  0.452400  1.0  0.0635
  H  H25  1  0.815700  0.132000  0.480500  1.0  0.1281
  H  H26  1  0.936500  0.266600  0.447300  1.0  0.081
  H  H27  1  0.810700  0.457600  0.624900  1.0  0.0707
  H  H28  1  0.682800  0.328400  0.661400  1.0  0.1174
  H  H29  1  0.540800  0.175800  0.677200  1.0  0.2763
  H  H30  1  0.143800  0.252600  0.760000  1.0  0.3365
  H  H31  1  0.122900  0.331600  0.131000  1.0  0.1207
  H  H32  1  0.525500  0.569000  0.318900  1.0  0.1057
  H  H33  1  0.241600  0.304600  0.394100  1.0  0.0882
  H  H34  1  0.287500  0.673600  0.117600  1.0  0.0684
  H  H35  1  0.429600  0.843800  0.158300  1.0  0.1323
  H  H36  1  0.191600  0.852000  0.984200  1.0  0.128
  H  H37  1  0.056700  0.684600  0.952400  1.0  0.0641
  H  H38  1  0.316300  0.132000  0.980500  1.0  0.1274
  H  H39  1  0.330100  0.266600  0.947300  1.0  0.0812
  H  H40  1  0.646900  0.457600  0.124900  1.0  0.0702
  H  H41  1  0.645600  0.328400  0.161400  1.0  0.1176
  H  H42  1  0.635000  0.175800  0.177200  1.0  0.276
  H  H43  1  0.108800  0.252600  0.260000  1.0  0.3361
  H  H44  1  0.791300  0.668400  0.369000  1.0  0.1204
  H  H45  1  0.956500  0.431000  0.181100  1.0  0.1057
  H  H46  1  0.937000  0.695400  0.105900  1.0  0.0873
  H  H47  1  0.613900  0.326400  0.382400  1.0  0.0681
  H  H48  1  0.585800  0.156200  0.341700  1.0  0.1319
  H  H49  1  0.339600  0.148000  0.515800  1.0  0.1289
  H  H50  1  0.372100  0.315400  0.547600  1.0  0.0633
  H  H51  1  0.184300  0.868000  0.519500  1.0  0.1279
  H  H52  1  0.063500  0.733400  0.552700  1.0  0.0812
  H  H53  1  0.189300  0.542400  0.375100  1.0  0.0708
  H  H54  1  0.317200  0.671600  0.338600  1.0  0.1171
  H  H55  1  0.459200  0.824200  0.322800  1.0  0.2762
  H  H56  1  0.856200  0.747400  0.240000  1.0  0.337
  C  C57  1  0.764180  0.529960  0.928500  1.0  0.6463
  C  C58  1  0.714520  0.540440  0.849500  1.0  -0.0959
  C  C59  1  0.592350  0.468700  0.792800  1.0  -0.1078
  C  C60  1  0.499330  0.375060  0.803800  1.0  0.6908
  C  C61  1  0.796650  0.620900  0.831800  1.0  -0.1469
  C  C62  1  0.757130  0.629660  0.757500  1.0  0.105
  C  C63  1  0.638070  0.557740  0.699600  1.0  0.1574
  C  C64  1  0.554890  0.477980  0.718200  1.0  -0.1281
  C  C65  1  0.737840  0.663480  0.643800  1.0  0.2668
  C  C66  1  0.732560  0.289520  0.909300  1.0  0.1654
  C  C67  1  0.645620  0.186840  0.884400  1.0  -0.178
  C  C68  1  0.672190  0.130380  0.924000  1.0  0.0373
  C  C69  1  0.786520  0.182040  0.986800  1.0  -0.1866
  C  C70  1  0.866720  0.283240  0.005900  1.0  0.1514
  C  C71  1  0.588740  0.020880  0.903000  1.0  0.3451
  C  C72  1  0.527720  0.873040  0.904900  1.0  0.2799
  C  C73  1  0.520390  0.785380  0.924300  1.0  0.0358
  C  C74  1  0.615000  0.802200  0.989300  1.0  -0.1551
  C  C75  1  0.606300  0.721000  0.008600  1.0  0.1604
  C  C76  1  0.420130  0.609060  0.904700  1.0  0.1723
  C  C77  1  0.420540  0.686080  0.881900  1.0  -0.1788
  C  C78  1  0.234220  0.470040  0.571500  1.0  0.6463
  C  C79  1  0.174080  0.459560  0.650500  1.0  -0.0957
  C  C80  1  0.123650  0.531300  0.707200  1.0  -0.1077
  C  C81  1  0.124270  0.624940  0.696200  1.0  0.6893
  C  C82  1  0.175750  0.379100  0.668200  1.0  -0.1493
  C  C83  1  0.127470  0.370340  0.742500  1.0  0.1063
  C  C84  1  0.080330  0.442260  0.800400  1.0  0.1567
  C  C85  1  0.076910  0.522020  0.781800  1.0  -0.1282
  C  C86  1  0.074360  0.336520  0.856200  1.0  0.2664
  C  C87  1  0.443040  0.710480  0.590700  1.0  0.1663
  C  C88  1  0.458780  0.813160  0.615600  1.0  -0.1772
  C  C89  1  0.541810  0.869620  0.576000  1.0  0.0381
  C  C90  1  0.604480  0.817960  0.513200  1.0  -0.1875
  C  C91  1  0.583480  0.716760  0.494100  1.0  0.1508
  C  C92  1  0.567860  0.979120  0.597000  1.0  0.3453
  C  C93  1  0.654680  0.126960  0.595100  1.0  0.279
  C  C94  1  0.735010  0.214620  0.575700  1.0  0.0344
  C  C95  1  0.812800  0.197800  0.510700  1.0  -0.1574
  C  C96  1  0.885300  0.279000  0.491400  1.0  0.1612
  C  C97  1  0.811070  0.390940  0.595300  1.0  0.1723
  C  C98  1  0.734460  0.313920  0.618100  1.0  -0.1796
  C  C99  1  0.235820  0.470040  0.071500  1.0  0.6461
  C  C100  1  0.285480  0.459560  0.150500  1.0  -0.0954
  C  C101  1  0.407650  0.531300  0.207200  1.0  -0.1081
  C  C102  1  0.500670  0.624940  0.196200  1.0  0.6893
  C  C103  1  0.203350  0.379100  0.168200  1.0  -0.1485
  C  C104  1  0.242870  0.370340  0.242500  1.0  0.106
  C  C105  1  0.361930  0.442260  0.300400  1.0  0.1571
  C  C106  1  0.445110  0.522020  0.281800  1.0  -0.1282
  C  C107  1  0.262160  0.336520  0.356200  1.0  0.267
  C  C108  1  0.267440  0.710480  0.090700  1.0  0.1659
  C  C109  1  0.354380  0.813160  0.115600  1.0  -0.1774
  C  C110  1  0.327810  0.869620  0.076000  1.0  0.0376
  C  C111  1  0.213480  0.817960  0.013200  1.0  -0.1859
  C  C112  1  0.133280  0.716760  0.994100  1.0  0.1507
  C  C113  1  0.411260  0.979120  0.097000  1.0  0.3453
  C  C114  1  0.472280  0.126960  0.095100  1.0  0.2793
  C  C115  1  0.479610  0.214620  0.075700  1.0  0.0345
  C  C116  1  0.385000  0.197800  0.010700  1.0  -0.1565
  C  C117  1  0.393700  0.279000  0.991400  1.0  0.1602
  C  C118  1  0.579870  0.390940  0.095300  1.0  0.1721
  C  C119  1  0.579460  0.313920  0.118100  1.0  -0.1798
  C  C120  1  0.765780  0.529960  0.428500  1.0  0.6461
  C  C121  1  0.825920  0.540440  0.349500  1.0  -0.0954
  C  C122  1  0.876350  0.468700  0.292800  1.0  -0.1081
  C  C123  1  0.875730  0.375060  0.303800  1.0  0.6908
  C  C124  1  0.824250  0.620900  0.331800  1.0  -0.1467
  C  C125  1  0.872530  0.629660  0.257500  1.0  0.105
  C  C126  1  0.919670  0.557740  0.199600  1.0  0.157
  C  C127  1  0.923090  0.477980  0.218200  1.0  -0.1278
  C  C128  1  0.925640  0.663480  0.143800  1.0  0.2677
  C  C129  1  0.556960  0.289520  0.409300  1.0  0.1652
  C  C130  1  0.541220  0.186840  0.384400  1.0  -0.1782
  C  C131  1  0.458190  0.130380  0.424000  1.0  0.0364
  C  C132  1  0.395520  0.182040  0.486800  1.0  -0.1847
  C  C133  1  0.416520  0.283240  0.505900  1.0  0.151
  C  C134  1  0.432140  0.020880  0.403000  1.0  0.3453
  C  C135  1  0.345320  0.873040  0.404900  1.0  0.2802
  C  C136  1  0.264990  0.785380  0.424300  1.0  0.0351
  C  C137  1  0.187200  0.802200  0.489300  1.0  -0.1557
  C  C138  1  0.114700  0.721000  0.508600  1.0  0.1611
  C  C139  1  0.188930  0.609060  0.404700  1.0  0.1719
  C  C140  1  0.265540  0.686080  0.381900  1.0  -0.1786
  N  N141  1  0.842770  0.339340  0.968600  1.0  -0.3318
  N  N142  1  0.626830  0.966860  0.938600  1.0  -0.4907
  N  N143  1  0.471140  0.965480  0.850800  1.0  -0.3473
  N  N144  1  0.434970  0.871140  0.852700  1.0  -0.0483
  N  N145  1  0.510980  0.625160  0.967300  1.0  -0.3238
  N  N146  1  0.817220  0.697240  0.720400  1.0  -0.2869
  N  N147  1  0.628580  0.581160  0.627300  1.0  -0.4126
  N  N148  1  0.503430  0.660660  0.531400  1.0  -0.3317
  N  N149  1  0.659970  0.033140  0.561400  1.0  -0.4905
  N  N150  1  0.505660  0.034520  0.649200  1.0  -0.3458
  N  N151  1  0.563830  0.128860  0.647300  1.0  -0.0469
  N  N152  1  0.885820  0.374840  0.532700  1.0  -0.3273
  N  N153  1  0.119980  0.302760  0.779600  1.0  -0.297
  N  N154  1  0.047420  0.418840  0.872700  1.0  -0.4122
  N  N155  1  0.157230  0.660660  0.031400  1.0  -0.3325
  N  N156  1  0.373170  0.033140  0.061400  1.0  -0.4854
  N  N157  1  0.528860  0.034520  0.149200  1.0  -0.3462
  N  N158  1  0.565030  0.128860  0.147300  1.0  -0.0516
  N  N159  1  0.489020  0.374840  0.032700  1.0  -0.3248
  N  N160  1  0.182780  0.302760  0.279600  1.0  -0.2953
  N  N161  1  0.371420  0.418840  0.372700  1.0  -0.4128
  N  N162  1  0.496570  0.339340  0.468600  1.0  -0.332
  N  N163  1  0.340030  0.966860  0.438600  1.0  -0.4838
  N  N164  1  0.494340  0.965480  0.350800  1.0  -0.3476
  N  N165  1  0.436170  0.871140  0.352700  1.0  -0.0525
  N  N166  1  0.114180  0.625160  0.467300  1.0  -0.3259
  N  N167  1  0.880020  0.697240  0.220400  1.0  -0.2875
  N  N168  1  0.952580  0.581160  0.127300  1.0  -0.4133
  O  O169  1  0.878780  0.534560  0.932700  1.0  -0.5505
  O  O170  1  0.691460  0.518120  0.984100  1.0  -0.578
  O  O171  1  0.437510  0.387620  0.867500  1.0  -0.5928
  O  O172  1  0.480670  0.285940  0.743100  1.0  -0.6234
  O  O173  1  0.344220  0.465440  0.567300  1.0  -0.5506
  O  O174  1  0.173340  0.481880  0.515900  1.0  -0.5776
  O  O175  1  0.049890  0.612380  0.632500  1.0  -0.5915
  O  O176  1  0.194730  0.714060  0.756900  1.0  -0.6227
  O  O177  1  0.121220  0.465440  0.067300  1.0  -0.5516
  O  O178  1  0.308540  0.481880  0.015900  1.0  -0.5771
  O  O179  1  0.562490  0.612380  0.132500  1.0  -0.5927
  O  O180  1  0.519330  0.714060  0.256900  1.0  -0.6234
  O  O181  1  0.655780  0.534560  0.432700  1.0  -0.5519
  O  O182  1  0.826660  0.518120  0.484100  1.0  -0.5784
  O  O183  1  0.950110  0.387620  0.367500  1.0  -0.5953
  O  O184  1  0.805270  0.285940  0.243100  1.0  -0.624
