# generated using pymatgen
data_Na2Cd5H48C84(NO6)4
_symmetry_space_group_name_H-M   'P 1'
_cell_length_a   25.45000000
_cell_length_b   11.92800000
_cell_length_c   25.83500000
_cell_angle_alpha   90.00000000
_cell_angle_beta   116.77700000
_cell_angle_gamma   90.00000000
_symmetry_Int_Tables_number   1
_chemical_formula_structural   Na2Cd5H48C84(NO6)4
_chemical_formula_sum   'Na4 Cd10 H96 C168 N8 O48'
_cell_volume   7001.67399076
_cell_formula_units_Z   2
loop_
 _symmetry_equiv_pos_site_id
 _symmetry_equiv_pos_as_xyz
  1  'x, y, z'
loop_
 _atom_site_type_symbol
 _atom_site_label
 _atom_site_symmetry_multiplicity
 _atom_site_fract_x
 _atom_site_fract_y
 _atom_site_fract_z
 _atom_site_occupancy
 _atom_site_charge
  Na  Na1  1  0.979390  0.512500  0.926960  1.0  0.9643
  Na  Na2  1  0.020610  0.512500  0.573040  1.0  0.9639
  Na  Na3  1  0.020610  0.487500  0.073040  1.0  0.9642
  Na  Na4  1  0.979390  0.487500  0.426960  1.0  0.9647
  Cd  Cd5  1  0.477500  0.175350  0.090910  1.0  1.0637
  Cd  Cd6  1  0.070130  0.747280  0.510950  1.0  1.0612
  Cd  Cd7  1  0.522500  0.175350  0.409090  1.0  1.0626
  Cd  Cd8  1  0.929870  0.747280  0.989050  1.0  1.0613
  Cd  Cd9  1  0.522500  0.824650  0.909090  1.0  1.062
  Cd  Cd10  1  0.929870  0.252720  0.489050  1.0  1.0608
  Cd  Cd11  1  0.477500  0.824650  0.590910  1.0  1.0642
  Cd  Cd12  1  0.070130  0.252720  0.010950  1.0  1.0615
  Cd  Cd13  1  0.500000  0.234100  0.250000  1.0  0.9444
  Cd  Cd14  1  0.500000  0.765900  0.750000  1.0  0.9448
  H  H15  1  0.382700  0.927700  0.927600  1.0  0.1082
  H  H16  1  0.313000  0.799900  0.867500  1.0  0.1145
  H  H17  1  0.237700  0.796300  0.972300  1.0  0.1156
  H  H18  1  0.305500  0.920100  0.033500  1.0  0.1136
  H  H19  1  0.181800  0.562400  0.797600  1.0  0.1067
  H  H20  1  0.135600  0.567700  0.700500  1.0  0.1134
  H  H21  1  0.167800  0.895600  0.707300  1.0  0.1041
  H  H22  1  0.208700  0.889500  0.805400  1.0  0.1239
  H  H23  1  0.070000  0.546000  0.881400  1.0  0.1249
  H  H24  1  0.110200  0.685800  0.850600  1.0  0.1218
  H  H25  1  0.272000  0.566500  0.952000  1.0  0.1164
  H  H26  1  0.231300  0.441200  0.992400  1.0  0.1141
  H  H27  1  0.448400  0.496400  0.224100  1.0  0.0955
  H  H28  1  0.394000  0.644300  0.228000  1.0  0.1221
  H  H29  1  0.298400  0.633500  0.057600  1.0  0.0809
  H  H30  1  0.351600  0.481200  0.052400  1.0  0.1184
  H  H31  1  0.392800  0.849200  0.156700  1.0  0.1057
  H  H32  1  0.447900  0.987100  0.218800  1.0  0.119
  H  H33  1  0.340100  0.976300  0.292400  1.0  0.1053
  H  H34  1  0.285300  0.839600  0.228100  1.0  0.1195
  H  H35  1  0.226400  0.905700  0.109300  1.0  0.137
  H  H36  1  0.126600  0.892500  0.058900  1.0  0.086
  H  H37  1  0.132800  0.562700  0.062000  1.0  0.0917
  H  H38  1  0.234900  0.566900  0.114700  1.0  0.1332
  H  H39  1  0.617300  0.927700  0.572400  1.0  0.1072
  H  H40  1  0.687000  0.799900  0.632500  1.0  0.1154
  H  H41  1  0.762300  0.796300  0.527700  1.0  0.1156
  H  H42  1  0.694500  0.920100  0.466500  1.0  0.1133
  H  H43  1  0.818200  0.562400  0.702400  1.0  0.107
  H  H44  1  0.864400  0.567700  0.799500  1.0  0.1135
  H  H45  1  0.832200  0.895600  0.792700  1.0  0.1035
  H  H46  1  0.791300  0.889500  0.694600  1.0  0.1239
  H  H47  1  0.930000  0.546000  0.618600  1.0  0.1241
  H  H48  1  0.889800  0.685800  0.649400  1.0  0.1217
  H  H49  1  0.728000  0.566500  0.548000  1.0  0.1176
  H  H50  1  0.768700  0.441200  0.507600  1.0  0.1135
  H  H51  1  0.551600  0.496400  0.275900  1.0  0.0947
  H  H52  1  0.606000  0.644300  0.272000  1.0  0.1216
  H  H53  1  0.701600  0.633500  0.442400  1.0  0.0813
  H  H54  1  0.648400  0.481200  0.447600  1.0  0.1187
  H  H55  1  0.607200  0.849200  0.343300  1.0  0.1048
  H  H56  1  0.552100  0.987100  0.281200  1.0  0.1187
  H  H57  1  0.659900  0.976300  0.207600  1.0  0.1054
  H  H58  1  0.714700  0.839600  0.271900  1.0  0.119
  H  H59  1  0.773600  0.905700  0.390700  1.0  0.137
  H  H60  1  0.873400  0.892500  0.441100  1.0  0.0855
  H  H61  1  0.867200  0.562700  0.438000  1.0  0.092
  H  H62  1  0.765100  0.566900  0.385300  1.0  0.1329
  H  H63  1  0.617300  0.072300  0.072400  1.0  0.1075
  H  H64  1  0.687000  0.200100  0.132500  1.0  0.1151
  H  H65  1  0.762300  0.203700  0.027700  1.0  0.1158
  H  H66  1  0.694500  0.079900  0.966500  1.0  0.1128
  H  H67  1  0.818200  0.437600  0.202400  1.0  0.1072
  H  H68  1  0.864400  0.432300  0.299500  1.0  0.1134
  H  H69  1  0.832200  0.104400  0.292700  1.0  0.1032
  H  H70  1  0.791300  0.110500  0.194600  1.0  0.1239
  H  H71  1  0.930000  0.454000  0.118600  1.0  0.1238
  H  H72  1  0.889800  0.314200  0.149400  1.0  0.1215
  H  H73  1  0.728000  0.433500  0.048000  1.0  0.1178
  H  H74  1  0.768700  0.558800  0.007600  1.0  0.1147
  H  H75  1  0.551600  0.503600  0.775900  1.0  0.0949
  H  H76  1  0.606000  0.355700  0.772000  1.0  0.1218
  H  H77  1  0.701600  0.366500  0.942400  1.0  0.0813
  H  H78  1  0.648400  0.518800  0.947600  1.0  0.1182
  H  H79  1  0.607200  0.150800  0.843300  1.0  0.1048
  H  H80  1  0.552100  0.012900  0.781200  1.0  0.119
  H  H81  1  0.659900  0.023700  0.707600  1.0  0.1053
  H  H82  1  0.714700  0.160400  0.771900  1.0  0.1191
  H  H83  1  0.773600  0.094300  0.890700  1.0  0.1374
  H  H84  1  0.873400  0.107500  0.941100  1.0  0.0857
  H  H85  1  0.867200  0.437300  0.938000  1.0  0.0921
  H  H86  1  0.765100  0.433100  0.885300  1.0  0.133
  H  H87  1  0.382700  0.072300  0.427600  1.0  0.1079
  H  H88  1  0.313000  0.200100  0.367500  1.0  0.1149
  H  H89  1  0.237700  0.203700  0.472300  1.0  0.1155
  H  H90  1  0.305500  0.079900  0.533500  1.0  0.1133
  H  H91  1  0.181800  0.437600  0.297600  1.0  0.1064
  H  H92  1  0.135600  0.432300  0.200500  1.0  0.1139
  H  H93  1  0.167800  0.104400  0.207300  1.0  0.1035
  H  H94  1  0.208700  0.110500  0.305400  1.0  0.1242
  H  H95  1  0.070000  0.454000  0.381400  1.0  0.1251
  H  H96  1  0.110200  0.314200  0.350600  1.0  0.121
  H  H97  1  0.272000  0.433500  0.452000  1.0  0.1168
  H  H98  1  0.231300  0.558800  0.492400  1.0  0.1143
  H  H99  1  0.448400  0.503600  0.724100  1.0  0.0953
  H  H100  1  0.394000  0.355700  0.728000  1.0  0.1223
  H  H101  1  0.298400  0.366500  0.557600  1.0  0.081
  H  H102  1  0.351600  0.518800  0.552400  1.0  0.1184
  H  H103  1  0.392800  0.150800  0.656700  1.0  0.1055
  H  H104  1  0.447900  0.012900  0.718800  1.0  0.1189
  H  H105  1  0.340100  0.023700  0.792400  1.0  0.1053
  H  H106  1  0.285300  0.160400  0.728100  1.0  0.1192
  H  H107  1  0.226400  0.094300  0.609300  1.0  0.1371
  H  H108  1  0.126600  0.107500  0.558900  1.0  0.0855
  H  H109  1  0.132800  0.437300  0.562000  1.0  0.0917
  H  H110  1  0.234900  0.433100  0.614700  1.0  0.1332
  C  C111  1  0.398100  0.017400  0.028500  1.0  0.6607
  C  C112  1  0.351800  0.935400  0.988200  1.0  -0.1146
  C  C113  1  0.353500  0.901100  0.936800  1.0  -0.0498
  C  C114  1  0.311000  0.827100  0.900300  1.0  -0.1617
  C  C115  1  0.266500  0.793900  0.912200  1.0  0.1745
  C  C116  1  0.266400  0.824900  0.962900  1.0  -0.1144
  C  C117  1  0.307400  0.896800  0.000000  1.0  -0.0445
  C  C118  1  0.199900  0.725500  0.811900  1.0  0.1739
  C  C119  1  0.178100  0.630700  0.778900  1.0  -0.1632
  C  C120  1  0.151700  0.633100  0.721300  1.0  -0.1053
  C  C121  1  0.147900  0.733000  0.691500  1.0  -0.1062
  C  C122  1  0.170000  0.827100  0.725400  1.0  -0.0488
  C  C123  1  0.195000  0.823800  0.784200  1.0  -0.191
  C  C124  1  0.119500  0.737100  0.627500  1.0  0.6699
  C  C125  1  0.120000  0.401800  0.967400  1.0  0.7103
  C  C126  1  0.147400  0.484300  0.941900  1.0  -0.1004
  C  C127  1  0.110600  0.554000  0.897400  1.0  -0.0461
  C  C128  1  0.134600  0.633700  0.877500  1.0  -0.137
  C  C129  1  0.195600  0.639400  0.896700  1.0  0.1799
  C  C130  1  0.231500  0.565100  0.939200  1.0  -0.1956
  C  C131  1  0.207200  0.488900  0.962700  1.0  -0.0346
  C  C132  1  0.445100  0.381100  0.134600  1.0  0.7319
  C  C133  1  0.408600  0.475200  0.139100  1.0  -0.1227
  C  C134  1  0.418200  0.523600  0.189900  1.0  -0.0423
  C  C135  1  0.385000  0.610900  0.192500  1.0  -0.1664
  C  C136  1  0.337700  0.650800  0.142600  1.0  0.2422
  C  C137  1  0.328100  0.604400  0.091600  1.0  -0.1527
  C  C138  1  0.360900  0.514800  0.088000  1.0  -0.0795
  C  C139  1  0.333600  0.831300  0.186000  1.0  0.1927
  C  C140  1  0.382200  0.875300  0.184600  1.0  -0.1847
  C  C141  1  0.416100  0.956100  0.222400  1.0  -0.2073
  C  C142  1  0.402400  0.991200  0.266000  1.0  -0.0765
  C  C143  1  0.352000  0.949400  0.265600  1.0  -0.0522
  C  C144  1  0.318400  0.868400  0.226400  1.0  -0.1748
  C  C145  1  0.240400  0.735000  0.118500  1.0  0.1197
  C  C146  1  0.207900  0.836200  0.100800  1.0  -0.1879
  C  C147  1  0.148700  0.827000  0.071100  1.0  -0.0426
  C  C148  1  0.119600  0.727600  0.058100  1.0  -0.1607
  C  C149  1  0.152000  0.631300  0.073000  1.0  -0.0076
  C  C150  1  0.213300  0.633000  0.104100  1.0  -0.2498
  C  C151  1  0.052600  0.717600  0.027100  1.0  0.69
  C  C152  1  0.443700  0.065500  0.311600  1.0  0.6601
  C  C153  1  0.601900  0.017400  0.471500  1.0  0.6604
  C  C154  1  0.648200  0.935400  0.511800  1.0  -0.1148
  C  C155  1  0.646500  0.901100  0.563200  1.0  -0.048
  C  C156  1  0.689000  0.827100  0.599700  1.0  -0.1635
  C  C157  1  0.733500  0.793900  0.587800  1.0  0.1738
  C  C158  1  0.733600  0.824900  0.537100  1.0  -0.1145
  C  C159  1  0.692600  0.896800  0.500000  1.0  -0.0456
  C  C160  1  0.800100  0.725500  0.688100  1.0  0.1745
  C  C161  1  0.821900  0.630700  0.721100  1.0  -0.1647
  C  C162  1  0.848300  0.633100  0.778700  1.0  -0.1057
  C  C163  1  0.852100  0.733000  0.808500  1.0  -0.1089
  C  C164  1  0.830000  0.827100  0.774600  1.0  -0.0495
  C  C165  1  0.805000  0.823800  0.715800  1.0  -0.1906
  C  C166  1  0.880500  0.737100  0.872500  1.0  0.6696
  C  C167  1  0.880000  0.401800  0.532600  1.0  0.7106
  C  C168  1  0.852600  0.484300  0.558100  1.0  -0.099
  C  C169  1  0.889400  0.554000  0.602600  1.0  -0.047
  C  C170  1  0.865400  0.633700  0.622500  1.0  -0.1348
  C  C171  1  0.804400  0.639400  0.603300  1.0  0.1811
  C  C172  1  0.768500  0.565100  0.560800  1.0  -0.1945
  C  C173  1  0.792800  0.488900  0.537300  1.0  -0.0325
  C  C174  1  0.554900  0.381100  0.365400  1.0  0.732
  C  C175  1  0.591400  0.475200  0.360900  1.0  -0.1216
  C  C176  1  0.581800  0.523600  0.310100  1.0  -0.0417
  C  C177  1  0.615000  0.610900  0.307500  1.0  -0.1652
  C  C178  1  0.662300  0.650800  0.357400  1.0  0.2412
  C  C179  1  0.671900  0.604400  0.408400  1.0  -0.1551
  C  C180  1  0.639100  0.514800  0.412000  1.0  -0.0785
  C  C181  1  0.666400  0.831300  0.314000  1.0  0.1919
  C  C182  1  0.617800  0.875300  0.315400  1.0  -0.1821
  C  C183  1  0.583900  0.956100  0.277600  1.0  -0.2082
  C  C184  1  0.597600  0.991200  0.234000  1.0  -0.0759
  C  C185  1  0.648000  0.949400  0.234400  1.0  -0.0528
  C  C186  1  0.681600  0.868400  0.273600  1.0  -0.1725
  C  C187  1  0.759600  0.735000  0.381500  1.0  0.1221
  C  C188  1  0.792100  0.836200  0.399200  1.0  -0.1875
  C  C189  1  0.851300  0.827000  0.428900  1.0  -0.0445
  C  C190  1  0.880400  0.727600  0.441900  1.0  -0.1595
  C  C191  1  0.848000  0.631300  0.427000  1.0  -0.0082
  C  C192  1  0.786700  0.633000  0.395900  1.0  -0.2478
  C  C193  1  0.947400  0.717600  0.472900  1.0  0.6899
  C  C194  1  0.556300  0.065500  0.188400  1.0  0.6599
  C  C195  1  0.601900  0.982600  0.971500  1.0  0.6614
  C  C196  1  0.648200  0.064600  0.011800  1.0  -0.1157
  C  C197  1  0.646500  0.098900  0.063200  1.0  -0.0472
  C  C198  1  0.689000  0.172900  0.099700  1.0  -0.1634
  C  C199  1  0.733500  0.206100  0.087800  1.0  0.1735
  C  C200  1  0.733600  0.175100  0.037100  1.0  -0.1139
  C  C201  1  0.692600  0.103200  0.000000  1.0  -0.047
  C  C202  1  0.800100  0.274500  0.188100  1.0  0.1745
  C  C203  1  0.821900  0.369300  0.221100  1.0  -0.1644
  C  C204  1  0.848300  0.366900  0.278700  1.0  -0.1061
  C  C205  1  0.852100  0.267000  0.308500  1.0  -0.1084
  C  C206  1  0.830000  0.172900  0.274600  1.0  -0.0484
  C  C207  1  0.805000  0.176200  0.215800  1.0  -0.1911
  C  C208  1  0.880500  0.262900  0.372500  1.0  0.6699
  C  C209  1  0.880000  0.598200  0.032600  1.0  0.7111
  C  C210  1  0.852600  0.515700  0.058100  1.0  -0.0998
  C  C211  1  0.889400  0.446000  0.102600  1.0  -0.0466
  C  C212  1  0.865400  0.366300  0.122500  1.0  -0.135
  C  C213  1  0.804400  0.360600  0.103300  1.0  0.1814
  C  C214  1  0.768500  0.434900  0.060800  1.0  -0.1965
  C  C215  1  0.792800  0.511100  0.037300  1.0  -0.0329
  C  C216  1  0.554900  0.618900  0.865400  1.0  0.7307
  C  C217  1  0.591400  0.524800  0.860900  1.0  -0.1206
  C  C218  1  0.581800  0.476400  0.810100  1.0  -0.0419
  C  C219  1  0.615000  0.389100  0.807500  1.0  -0.1655
  C  C220  1  0.662300  0.349200  0.857400  1.0  0.2413
  C  C221  1  0.671900  0.395600  0.908400  1.0  -0.154
  C  C222  1  0.639100  0.485200  0.912000  1.0  -0.0787
  C  C223  1  0.666400  0.168700  0.814000  1.0  0.1918
  C  C224  1  0.617800  0.124700  0.815400  1.0  -0.1821
  C  C225  1  0.583900  0.043900  0.777600  1.0  -0.2076
  C  C226  1  0.597600  0.008800  0.734000  1.0  -0.0769
  C  C227  1  0.648000  0.050600  0.734400  1.0  -0.0521
  C  C228  1  0.681600  0.131600  0.773600  1.0  -0.1723
  C  C229  1  0.759600  0.265000  0.881500  1.0  0.1222
  C  C230  1  0.792100  0.163800  0.899200  1.0  -0.1866
  C  C231  1  0.851300  0.173000  0.928900  1.0  -0.0444
  C  C232  1  0.880400  0.272400  0.941900  1.0  -0.1584
  C  C233  1  0.848000  0.368700  0.927000  1.0  -0.0077
  C  C234  1  0.786700  0.367000  0.895900  1.0  -0.2458
  C  C235  1  0.947400  0.282400  0.972900  1.0  0.6893
  C  C236  1  0.556300  0.934500  0.688400  1.0  0.6592
  C  C237  1  0.398100  0.982600  0.528500  1.0  0.6613
  C  C238  1  0.351800  0.064600  0.488200  1.0  -0.1145
  C  C239  1  0.353500  0.098900  0.436800  1.0  -0.0494
  C  C240  1  0.311000  0.172900  0.400300  1.0  -0.1618
  C  C241  1  0.266500  0.206100  0.412200  1.0  0.1741
  C  C242  1  0.266400  0.175100  0.462900  1.0  -0.1135
  C  C243  1  0.307400  0.103200  0.500000  1.0  -0.0462
  C  C244  1  0.199900  0.274500  0.311900  1.0  0.1739
  C  C245  1  0.178100  0.369300  0.278900  1.0  -0.1637
  C  C246  1  0.151700  0.366900  0.221300  1.0  -0.1065
  C  C247  1  0.147900  0.267000  0.191500  1.0  -0.1061
  C  C248  1  0.170000  0.172900  0.225400  1.0  -0.0475
  C  C249  1  0.195000  0.176200  0.284200  1.0  -0.1901
  C  C250  1  0.119500  0.262900  0.127500  1.0  0.67
  C  C251  1  0.120000  0.598200  0.467400  1.0  0.7114
  C  C252  1  0.147400  0.515700  0.441900  1.0  -0.1009
  C  C253  1  0.110600  0.446000  0.397400  1.0  -0.0472
  C  C254  1  0.134600  0.366300  0.377500  1.0  -0.1382
  C  C255  1  0.195600  0.360600  0.396700  1.0  0.1802
  C  C256  1  0.231500  0.434900  0.439200  1.0  -0.1953
  C  C257  1  0.207200  0.511100  0.462700  1.0  -0.0339
  C  C258  1  0.445100  0.618900  0.634600  1.0  0.7318
  C  C259  1  0.408600  0.524800  0.639100  1.0  -0.1214
  C  C260  1  0.418200  0.476400  0.689900  1.0  -0.0422
  C  C261  1  0.385000  0.389100  0.692500  1.0  -0.1666
  C  C262  1  0.337700  0.349200  0.642600  1.0  0.2422
  C  C263  1  0.328100  0.395600  0.591600  1.0  -0.152
  C  C264  1  0.360900  0.485200  0.588000  1.0  -0.0796
  C  C265  1  0.333600  0.168700  0.686000  1.0  0.1925
  C  C266  1  0.382200  0.124700  0.684600  1.0  -0.1845
  C  C267  1  0.416100  0.043900  0.722400  1.0  -0.2076
  C  C268  1  0.402400  0.008800  0.766000  1.0  -0.0762
  C  C269  1  0.352000  0.050600  0.765600  1.0  -0.0523
  C  C270  1  0.318400  0.131600  0.726400  1.0  -0.1752
  C  C271  1  0.240400  0.265000  0.618500  1.0  0.1202
  C  C272  1  0.207900  0.163800  0.600800  1.0  -0.1868
  C  C273  1  0.148700  0.173000  0.571100  1.0  -0.0421
  C  C274  1  0.119600  0.272400  0.558100  1.0  -0.1617
  C  C275  1  0.152000  0.368700  0.573000  1.0  -0.0064
  C  C276  1  0.213300  0.367000  0.604100  1.0  -0.2498
  C  C277  1  0.052600  0.282400  0.527100  1.0  0.6904
  C  C278  1  0.443700  0.934500  0.811600  1.0  0.6603
  N  N279  1  0.221800  0.719000  0.874900  1.0  -0.1697
  N  N280  1  0.304400  0.740600  0.146100  1.0  -0.1891
  N  N281  1  0.778200  0.719000  0.625100  1.0  -0.1699
  N  N282  1  0.695600  0.740600  0.353900  1.0  -0.1896
  N  N283  1  0.778200  0.281000  0.125100  1.0  -0.1697
  N  N284  1  0.695600  0.259400  0.853900  1.0  -0.1896
  N  N285  1  0.221800  0.281000  0.374900  1.0  -0.1696
  N  N286  1  0.304400  0.259400  0.646100  1.0  -0.1889
  O  O287  1  0.489500  0.104400  0.310300  1.0  -0.6681
  O  O288  1  0.432600  0.090200  0.353900  1.0  -0.61
  O  O289  1  0.438100  0.049200  0.015600  1.0  -0.6273
  O  O290  1  0.394500  0.056300  0.071800  1.0  -0.5767
  O  O291  1  0.427400  0.327800  0.088600  1.0  -0.573
  O  O292  1  0.492600  0.358100  0.180300  1.0  -0.6759
  O  O293  1  0.023100  0.809700  0.021600  1.0  -0.6022
  O  O294  1  0.028600  0.625000  0.009500  1.0  -0.716
  O  O295  1  0.152500  0.335700  0.005100  1.0  -0.6077
  O  O296  1  0.065300  0.399600  0.947700  1.0  -0.6923
  O  O297  1  0.120500  0.826300  0.602000  1.0  -0.5665
  O  O298  1  0.094000  0.651100  0.599400  1.0  -0.6693
  O  O299  1  0.510500  0.104400  0.189700  1.0  -0.6694
  O  O300  1  0.567400  0.090200  0.146100  1.0  -0.6079
  O  O301  1  0.561900  0.049200  0.484400  1.0  -0.6297
  O  O302  1  0.605500  0.056300  0.428200  1.0  -0.5749
  O  O303  1  0.572600  0.327800  0.411400  1.0  -0.5737
  O  O304  1  0.507400  0.358100  0.319700  1.0  -0.676
  O  O305  1  0.976900  0.809700  0.478400  1.0  -0.6009
  O  O306  1  0.971400  0.625000  0.490500  1.0  -0.7152
  O  O307  1  0.847500  0.335700  0.494900  1.0  -0.6058
  O  O308  1  0.934700  0.399600  0.552300  1.0  -0.6926
  O  O309  1  0.879500  0.826300  0.898000  1.0  -0.5659
  O  O310  1  0.906000  0.651100  0.900600  1.0  -0.6693
  O  O311  1  0.510500  0.895600  0.689700  1.0  -0.6707
  O  O312  1  0.567400  0.909800  0.646100  1.0  -0.6085
  O  O313  1  0.561900  0.950800  0.984400  1.0  -0.6293
  O  O314  1  0.605500  0.943700  0.928200  1.0  -0.5757
  O  O315  1  0.572600  0.672200  0.911400  1.0  -0.5723
  O  O316  1  0.507400  0.641900  0.819700  1.0  -0.6761
  O  O317  1  0.976900  0.190300  0.978400  1.0  -0.5973
  O  O318  1  0.971400  0.375000  0.990500  1.0  -0.716
  O  O319  1  0.847500  0.664300  0.994900  1.0  -0.6082
  O  O320  1  0.934700  0.600400  0.052300  1.0  -0.6939
  O  O321  1  0.879500  0.173700  0.398000  1.0  -0.5645
  O  O322  1  0.906000  0.348900  0.400600  1.0  -0.6693
  O  O323  1  0.489500  0.895600  0.810300  1.0  -0.6693
  O  O324  1  0.432600  0.909800  0.853900  1.0  -0.6093
  O  O325  1  0.438100  0.950800  0.515600  1.0  -0.6273
  O  O326  1  0.394500  0.943700  0.571800  1.0  -0.5763
  O  O327  1  0.427400  0.672200  0.588600  1.0  -0.5729
  O  O328  1  0.492600  0.641900  0.680300  1.0  -0.6758
  O  O329  1  0.023100  0.190300  0.521600  1.0  -0.5983
  O  O330  1  0.028600  0.375000  0.509500  1.0  -0.7168
  O  O331  1  0.152500  0.664300  0.505100  1.0  -0.6073
  O  O332  1  0.065300  0.600400  0.447700  1.0  -0.6924
  O  O333  1  0.120500  0.173700  0.102000  1.0  -0.5649
  O  O334  1  0.094000  0.348900  0.099400  1.0  -0.6695
