# generated using pymatgen
data_DyCuH8C14(NO4)2
_symmetry_space_group_name_H-M   'P 1'
_cell_length_a   9.17500000
_cell_length_b   9.49300000
_cell_length_c   21.51000000
_cell_angle_alpha   90.00000000
_cell_angle_beta   90.00000000
_cell_angle_gamma   116.48300000
_symmetry_Int_Tables_number   1
_chemical_formula_structural   DyCuH8C14(NO4)2
_chemical_formula_sum   'Dy4 Cu4 H32 C56 N8 O32'
_cell_volume   1676.89306966
_cell_formula_units_Z   4
loop_
 _symmetry_equiv_pos_site_id
 _symmetry_equiv_pos_as_xyz
  1  'x, y, z'
loop_
 _atom_site_type_symbol
 _atom_site_label
 _atom_site_symmetry_multiplicity
 _atom_site_fract_x
 _atom_site_fract_y
 _atom_site_fract_z
 _atom_site_occupancy
 _atom_site_charge
  Dy  Dy1  1  0.124840  0.357450  0.991730  1.0  2.2792
  Dy  Dy2  1  0.375160  0.642550  0.491730  1.0  2.2824
  Dy  Dy3  1  0.875160  0.642550  0.008270  1.0  2.2824
  Dy  Dy4  1  0.624840  0.357450  0.508270  1.0  2.2787
  Cu  Cu5  1  0.461580  0.308230  0.853610  1.0  0.3934
  Cu  Cu6  1  0.038420  0.691770  0.353610  1.0  0.3931
  Cu  Cu7  1  0.538420  0.691770  0.146390  1.0  0.393
  Cu  Cu8  1  0.961580  0.308230  0.646390  1.0  0.3935
  H  H9  1  0.707100  0.973200  0.069200  1.0  0.0781
  H  H10  1  0.445200  0.209000  0.070400  1.0  0.0966
  H  H11  1  0.004400  0.345000  0.777500  1.0  0.0828
  H  H12  1  0.854200  0.731700  0.730300  1.0  0.1296
  H  H13  1  0.892400  0.686800  0.833600  1.0  0.1126
  H  H14  1  0.244700  0.004900  0.124000  1.0  0.1314
  H  H15  1  0.294600  0.802400  0.158600  1.0  0.0711
  H  H16  1  0.875300  0.571700  0.654900  1.0  0.0799
  H  H17  1  0.792900  0.026800  0.569200  1.0  0.0778
  H  H18  1  0.054800  0.791000  0.570400  1.0  0.0966
  H  H19  1  0.495600  0.655000  0.277500  1.0  0.0834
  H  H20  1  0.645800  0.268300  0.230300  1.0  0.1289
  H  H21  1  0.607600  0.313200  0.333600  1.0  0.1125
  H  H22  1  0.255300  0.995100  0.624000  1.0  0.1292
  H  H23  1  0.205400  0.197600  0.658600  1.0  0.0699
  H  H24  1  0.624700  0.428300  0.154900  1.0  0.0798
  H  H25  1  0.292900  0.026800  0.930800  1.0  0.0777
  H  H26  1  0.554800  0.791000  0.929600  1.0  0.0965
  H  H27  1  0.995600  0.655000  0.222500  1.0  0.0831
  H  H28  1  0.145800  0.268300  0.269700  1.0  0.1287
  H  H29  1  0.107600  0.313200  0.166400  1.0  0.1124
  H  H30  1  0.755300  0.995100  0.876000  1.0  0.1298
  H  H31  1  0.705400  0.197600  0.841400  1.0  0.0697
  H  H32  1  0.124700  0.428300  0.345100  1.0  0.0796
  H  H33  1  0.207100  0.973200  0.430800  1.0  0.0782
  H  H34  1  0.945200  0.209000  0.429600  1.0  0.0966
  H  H35  1  0.504400  0.345000  0.722500  1.0  0.0831
  H  H36  1  0.354200  0.731700  0.769700  1.0  0.1294
  H  H37  1  0.392400  0.686800  0.666400  1.0  0.1127
  H  H38  1  0.744700  0.004900  0.376000  1.0  0.1329
  H  H39  1  0.794600  0.802400  0.341400  1.0  0.0704
  H  H40  1  0.375300  0.571700  0.845100  1.0  0.0794
  C  C41  1  0.011900  0.008100  0.035500  1.0  0.5476
  C  C42  1  0.732600  0.243200  0.028000  1.0  0.7732
  C  C43  1  0.986700  0.477500  0.881600  1.0  0.7527
  C  C44  1  0.597100  0.112000  0.064300  1.0  -0.2047
  C  C45  1  0.614500  0.981700  0.082000  1.0  0.1705
  C  C46  1  0.459600  0.121300  0.081300  1.0  0.0485
  C  C47  1  0.970800  0.421600  0.768100  1.0  0.1556
  C  C48  1  0.881400  0.651400  0.741100  1.0  -0.1905
  C  C49  1  0.906300  0.626300  0.802300  1.0  0.0612
  C  C50  1  0.342400  0.002400  0.114400  1.0  -0.1476
  C  C51  1  0.371000  0.879400  0.133300  1.0  0.1616
  C  C52  1  0.952200  0.509600  0.816600  1.0  -0.2188
  C  C53  1  0.897000  0.556400  0.695900  1.0  0.1742
  C  C54  1  0.502500  0.478100  0.966400  1.0  0.5593
  C  C55  1  0.488100  0.991900  0.535500  1.0  0.5479
  C  C56  1  0.767400  0.756800  0.528000  1.0  0.7721
  C  C57  1  0.513300  0.522500  0.381600  1.0  0.7613
  C  C58  1  0.902900  0.888000  0.564300  1.0  -0.1972
  C  C59  1  0.885500  0.018300  0.582000  1.0  0.1736
  C  C60  1  0.040400  0.878700  0.581300  1.0  0.0467
  C  C61  1  0.529200  0.578400  0.268100  1.0  0.1564
  C  C62  1  0.618600  0.348600  0.241100  1.0  -0.1886
  C  C63  1  0.593700  0.373700  0.302300  1.0  0.0593
  C  C64  1  0.157600  0.997600  0.614400  1.0  -0.1465
  C  C65  1  0.129000  0.120600  0.633300  1.0  0.1602
  C  C66  1  0.547800  0.490400  0.316600  1.0  -0.2189
  C  C67  1  0.603000  0.443600  0.195900  1.0  0.1746
  C  C68  1  0.997500  0.521900  0.466400  1.0  0.5598
  C  C69  1  0.988100  0.991900  0.964500  1.0  0.5477
  C  C70  1  0.267400  0.756800  0.972000  1.0  0.7734
  C  C71  1  0.013300  0.522500  0.118400  1.0  0.7569
  C  C72  1  0.402900  0.888000  0.935700  1.0  -0.197
  C  C73  1  0.385500  0.018300  0.918000  1.0  0.1726
  C  C74  1  0.540400  0.878700  0.918700  1.0  0.0464
  C  C75  1  0.029200  0.578400  0.231900  1.0  0.1539
  C  C76  1  0.118600  0.348600  0.258900  1.0  -0.1908
  C  C77  1  0.093700  0.373700  0.197700  1.0  0.057
  C  C78  1  0.657600  0.997600  0.885600  1.0  -0.1463
  C  C79  1  0.629000  0.120600  0.866700  1.0  0.1608
  C  C80  1  0.047800  0.490400  0.183400  1.0  -0.219
  C  C81  1  0.103000  0.443600  0.304100  1.0  0.1755
  C  C82  1  0.497500  0.521900  0.033600  1.0  0.5593
  C  C83  1  0.511900  0.008100  0.464500  1.0  0.5475
  C  C84  1  0.232600  0.243200  0.472000  1.0  0.774
  C  C85  1  0.486700  0.477500  0.618400  1.0  0.7463
  C  C86  1  0.097100  0.112000  0.435700  1.0  -0.2042
  C  C87  1  0.114500  0.981700  0.418000  1.0  0.1723
  C  C88  1  0.959600  0.121300  0.418700  1.0  0.0482
  C  C89  1  0.470800  0.421600  0.731900  1.0  0.1517
  C  C90  1  0.381400  0.651400  0.758900  1.0  -0.1917
  C  C91  1  0.406300  0.626300  0.697700  1.0  0.0594
  C  C92  1  0.842400  0.002400  0.385600  1.0  -0.1499
  C  C93  1  0.871000  0.879400  0.366700  1.0  0.162
  C  C94  1  0.452200  0.509600  0.683400  1.0  -0.2188
  C  C95  1  0.397000  0.556400  0.804100  1.0  0.1772
  C  C96  1  0.002500  0.478100  0.533600  1.0  0.5589
  N  N97  1  0.504300  0.865300  0.116900  1.0  -0.3124
  N  N98  1  0.942400  0.442100  0.708200  1.0  -0.3094
  N  N99  1  0.995700  0.134700  0.616900  1.0  -0.3145
  N  N100  1  0.557600  0.557900  0.208200  1.0  -0.3081
  N  N101  1  0.495700  0.134700  0.883100  1.0  -0.314
  N  N102  1  0.057600  0.557900  0.291800  1.0  -0.3095
  N  N103  1  0.004300  0.865300  0.383100  1.0  -0.3149
  N  N104  1  0.442400  0.442100  0.791800  1.0  -0.3089
  O  O105  1  0.839600  0.214800  0.003860  1.0  -0.7248
  O  O106  1  0.369700  0.382400  0.942120  1.0  -0.6427
  O  O107  1  0.089800  0.144000  0.056960  1.0  -0.6658
  O  O108  1  0.053700  0.390000  0.889440  1.0  -0.6764
  O  O109  1  0.945800  0.540300  0.924570  1.0  -0.7762
  O  O110  1  0.724500  0.371300  0.028100  1.0  -0.7373
  O  O111  1  0.948400  0.882700  0.065830  1.0  -0.6381
  O  O112  1  0.636200  0.539100  0.939020  1.0  -0.6168
  O  O113  1  0.660400  0.785200  0.503860  1.0  -0.726
  O  O114  1  0.130300  0.617600  0.442120  1.0  -0.6419
  O  O115  1  0.410200  0.856000  0.556960  1.0  -0.6648
  O  O116  1  0.446300  0.610000  0.389440  1.0  -0.6753
  O  O117  1  0.554200  0.459700  0.424570  1.0  -0.7772
  O  O118  1  0.775500  0.628700  0.528100  1.0  -0.7389
  O  O119  1  0.551600  0.117300  0.565830  1.0  -0.6382
  O  O120  1  0.863800  0.460900  0.439020  1.0  -0.6176
  O  O121  1  0.160400  0.785200  0.996140  1.0  -0.7252
  O  O122  1  0.630300  0.617600  0.057880  1.0  -0.6415
  O  O123  1  0.910200  0.856000  0.943040  1.0  -0.6649
  O  O124  1  0.946300  0.610000  0.110560  1.0  -0.6752
  O  O125  1  0.054200  0.459700  0.075430  1.0  -0.7779
  O  O126  1  0.275500  0.628700  0.971900  1.0  -0.7387
  O  O127  1  0.051600  0.117300  0.934170  1.0  -0.637
  O  O128  1  0.363800  0.460900  0.060980  1.0  -0.6167
  O  O129  1  0.339600  0.214800  0.496140  1.0  -0.7237
  O  O130  1  0.869700  0.382400  0.557880  1.0  -0.6416
  O  O131  1  0.589800  0.144000  0.443040  1.0  -0.6667
  O  O132  1  0.553700  0.390000  0.610560  1.0  -0.6764
  O  O133  1  0.445800  0.540300  0.575430  1.0  -0.7771
  O  O134  1  0.224500  0.371300  0.471900  1.0  -0.7372
  O  O135  1  0.448400  0.882700  0.434170  1.0  -0.6368
  O  O136  1  0.136200  0.539100  0.560980  1.0  -0.6167
