# generated using pymatgen
data_SmCuH8C14(NO4)2
_symmetry_space_group_name_H-M   'P 1'
_cell_length_a   9.23330000
_cell_length_b   9.55030000
_cell_length_c   21.58500000
_cell_angle_alpha   90.00000000
_cell_angle_beta   90.00000000
_cell_angle_gamma   116.00600000
_symmetry_Int_Tables_number   1
_chemical_formula_structural   SmCuH8C14(NO4)2
_chemical_formula_sum   'Sm4 Cu4 H32 C56 N8 O32'
_cell_volume   1710.66124247
_cell_formula_units_Z   4
loop_
 _symmetry_equiv_pos_site_id
 _symmetry_equiv_pos_as_xyz
  1  'x, y, z'
loop_
 _atom_site_type_symbol
 _atom_site_label
 _atom_site_symmetry_multiplicity
 _atom_site_fract_x
 _atom_site_fract_y
 _atom_site_fract_z
 _atom_site_occupancy
 _atom_site_charge
  Sm  Sm1  1  0.623410  0.859220  0.991440  1.0  2.288
  Sm  Sm2  1  0.876590  0.140780  0.491440  1.0  2.2876
  Sm  Sm3  1  0.376590  0.140780  0.008560  1.0  2.2882
  Sm  Sm4  1  0.123410  0.859220  0.508560  1.0  2.2885
  Cu  Cu5  1  0.959140  0.808840  0.854550  1.0  0.4034
  Cu  Cu6  1  0.540860  0.191160  0.354550  1.0  0.4042
  Cu  Cu7  1  0.040860  0.191160  0.145450  1.0  0.4033
  Cu  Cu8  1  0.459140  0.808840  0.645450  1.0  0.4025
  H  H9  1  0.608900  0.817300  0.166400  1.0  0.1177
  H  H10  1  0.060800  0.296900  0.930100  1.0  0.1016
  H  H11  1  0.255800  0.499300  0.874800  1.0  0.1316
  H  H12  1  0.792500  0.529200  0.929700  1.0  0.0833
  H  H13  1  0.647200  0.771900  0.269000  1.0  0.1291
  H  H14  1  0.206300  0.703200  0.843600  1.0  0.0669
  H  H15  1  0.496000  0.154200  0.223900  1.0  0.0786
  H  H16  1  0.625200  0.926500  0.344800  1.0  0.0806
  H  H17  1  0.891100  0.182700  0.666400  1.0  0.1177
  H  H18  1  0.439200  0.703100  0.430100  1.0  0.1016
  H  H19  1  0.244200  0.500700  0.374800  1.0  0.1353
  H  H20  1  0.707500  0.470800  0.429700  1.0  0.0832
  H  H21  1  0.852800  0.228100  0.769000  1.0  0.1291
  H  H22  1  0.293700  0.296800  0.343600  1.0  0.0676
  H  H23  1  0.004000  0.845800  0.723900  1.0  0.0787
  H  H24  1  0.874800  0.073500  0.844800  1.0  0.0808
  H  H25  1  0.391100  0.182700  0.833600  1.0  0.1171
  H  H26  1  0.939200  0.703100  0.069900  1.0  0.1017
  H  H27  1  0.744200  0.500700  0.125200  1.0  0.1332
  H  H28  1  0.207500  0.470800  0.070300  1.0  0.0836
  H  H29  1  0.352800  0.228100  0.731000  1.0  0.1294
  H  H30  1  0.793700  0.296800  0.156400  1.0  0.0679
  H  H31  1  0.504000  0.845800  0.776100  1.0  0.0785
  H  H32  1  0.374800  0.073500  0.655200  1.0  0.0813
  H  H33  1  0.108900  0.817300  0.333600  1.0  0.1175
  H  H34  1  0.560800  0.296900  0.569900  1.0  0.1019
  H  H35  1  0.755800  0.499300  0.625200  1.0  0.1311
  H  H36  1  0.292500  0.529200  0.570300  1.0  0.0832
  H  H37  1  0.147200  0.771900  0.231000  1.0  0.1296
  H  H38  1  0.706300  0.703200  0.656400  1.0  0.067
  H  H39  1  0.996000  0.154200  0.276100  1.0  0.0788
  H  H40  1  0.125200  0.926500  0.155200  1.0  0.081
  C  C41  1  0.546000  0.991500  0.184500  1.0  -0.2211
  C  C42  1  0.511400  0.027300  0.120500  1.0  0.7508
  C  C43  1  0.594100  0.876300  0.197900  1.0  0.0516
  C  C44  1  0.771900  0.259500  0.969400  1.0  0.7747
  C  C45  1  0.903800  0.390400  0.934900  1.0  -0.2181
  C  C46  1  0.044100  0.382600  0.918600  1.0  0.0516
  C  C47  1  0.159200  0.501800  0.885200  1.0  -0.1586
  C  C48  1  0.885000  0.521100  0.917300  1.0  0.1863
  C  C49  1  0.619300  0.851400  0.258700  1.0  -0.1874
  C  C50  1  0.129600  0.624700  0.867500  1.0  0.1608
  C  C51  1  0.529100  0.077500  0.233000  1.0  0.1571
  C  C52  1  0.603500  0.943000  0.304100  1.0  0.181
  C  C53  1  0.488800  0.492000  0.964500  1.0  0.5514
  C  C54  1  0.003500  0.977200  0.966300  1.0  0.5425
  C  C55  1  0.954000  0.008500  0.684500  1.0  -0.2204
  C  C56  1  0.988600  0.972700  0.620500  1.0  0.7501
  C  C57  1  0.905900  0.123700  0.697900  1.0  0.0536
  C  C58  1  0.728100  0.740500  0.469400  1.0  0.7743
  C  C59  1  0.596200  0.609600  0.434900  1.0  -0.219
  C  C60  1  0.455900  0.617400  0.418600  1.0  0.0529
  C  C61  1  0.340800  0.498200  0.385200  1.0  -0.1598
  C  C62  1  0.615000  0.478900  0.417300  1.0  0.1862
  C  C63  1  0.880700  0.148600  0.758700  1.0  -0.1876
  C  C64  1  0.370400  0.375300  0.367500  1.0  0.1606
  C  C65  1  0.970900  0.922500  0.733000  1.0  0.1581
  C  C66  1  0.896500  0.057000  0.804100  1.0  0.1807
  C  C67  1  0.011200  0.508000  0.464500  1.0  0.5511
  C  C68  1  0.496500  0.022800  0.466300  1.0  0.543
  C  C69  1  0.454000  0.008500  0.815500  1.0  -0.2205
  C  C70  1  0.488600  0.972700  0.879500  1.0  0.7535
  C  C71  1  0.405900  0.123700  0.802100  1.0  0.0547
  C  C72  1  0.228100  0.740500  0.030600  1.0  0.7749
  C  C73  1  0.096200  0.609600  0.065100  1.0  -0.2201
  C  C74  1  0.955900  0.617400  0.081400  1.0  0.0536
  C  C75  1  0.840800  0.498200  0.114800  1.0  -0.1591
  C  C76  1  0.115000  0.478900  0.082700  1.0  0.1875
  C  C77  1  0.380700  0.148600  0.741300  1.0  -0.1875
  C  C78  1  0.870400  0.375300  0.132500  1.0  0.1608
  C  C79  1  0.470900  0.922500  0.767000  1.0  0.158
  C  C80  1  0.396500  0.057000  0.695900  1.0  0.1799
  C  C81  1  0.511200  0.508000  0.035500  1.0  0.5511
  C  C82  1  0.996500  0.022800  0.033700  1.0  0.5438
  C  C83  1  0.046000  0.991500  0.315500  1.0  -0.2209
  C  C84  1  0.011400  0.027300  0.379500  1.0  0.7533
  C  C85  1  0.094100  0.876300  0.302100  1.0  0.0532
  C  C86  1  0.271900  0.259500  0.530600  1.0  0.7752
  C  C87  1  0.403800  0.390400  0.565100  1.0  -0.219
  C  C88  1  0.544100  0.382600  0.581400  1.0  0.0521
  C  C89  1  0.659200  0.501800  0.614800  1.0  -0.1587
  C  C90  1  0.385000  0.521100  0.582700  1.0  0.1872
  C  C91  1  0.119300  0.851400  0.241300  1.0  -0.1872
  C  C92  1  0.629600  0.624700  0.632500  1.0  0.1609
  C  C93  1  0.029100  0.077500  0.267000  1.0  0.1567
  C  C94  1  0.103500  0.943000  0.195900  1.0  0.18
  C  C95  1  0.988800  0.492000  0.535500  1.0  0.5515
  C  C96  1  0.503500  0.977200  0.533700  1.0  0.5434
  N  N97  1  0.995000  0.636900  0.883100  1.0  -0.3137
  N  N98  1  0.557700  0.056800  0.292500  1.0  -0.304
  N  N99  1  0.505000  0.363100  0.383100  1.0  -0.3148
  N  N100  1  0.942300  0.943200  0.792500  1.0  -0.304
  N  N101  1  0.005000  0.363100  0.116900  1.0  -0.3134
  N  N102  1  0.442300  0.943200  0.707500  1.0  -0.3045
  N  N103  1  0.495000  0.636900  0.616900  1.0  -0.3146
  N  N104  1  0.057700  0.056800  0.207500  1.0  -0.3028
  O  O105  1  0.873200  0.882200  0.942140  1.0  -0.6268
  O  O106  1  0.780000  0.132100  0.969620  1.0  -0.7328
  O  O107  1  0.550400  0.968300  0.075490  1.0  -0.7969
  O  O108  1  0.551200  0.615400  0.933720  1.0  -0.6403
  O  O109  1  0.664000  0.287300  0.994200  1.0  -0.736
  O  O110  1  0.443100  0.114500  0.114380  1.0  -0.6747
  O  O111  1  0.408900  0.357900  0.943140  1.0  -0.6692
  O  O112  1  0.136600  0.037700  0.939330  1.0  -0.614
  O  O113  1  0.626800  0.117800  0.442140  1.0  -0.6264
  O  O114  1  0.720000  0.867900  0.469620  1.0  -0.7315
  O  O115  1  0.949600  0.031700  0.575490  1.0  -0.7969
  O  O116  1  0.948800  0.384600  0.433720  1.0  -0.6401
  O  O117  1  0.836000  0.712700  0.494200  1.0  -0.7352
  O  O118  1  0.056900  0.885500  0.614380  1.0  -0.6748
  O  O119  1  0.091100  0.642100  0.443140  1.0  -0.6708
  O  O120  1  0.363400  0.962300  0.439330  1.0  -0.6143
  O  O121  1  0.126800  0.117800  0.057860  1.0  -0.6268
  O  O122  1  0.220000  0.867900  0.030380  1.0  -0.7316
  O  O123  1  0.449600  0.031700  0.924510  1.0  -0.7979
  O  O124  1  0.448800  0.384600  0.066280  1.0  -0.6413
  O  O125  1  0.336000  0.712700  0.005800  1.0  -0.7365
  O  O126  1  0.556900  0.885500  0.885620  1.0  -0.6746
  O  O127  1  0.591100  0.642100  0.056860  1.0  -0.6699
  O  O128  1  0.863400  0.962300  0.060670  1.0  -0.6129
  O  O129  1  0.373200  0.882200  0.557860  1.0  -0.6265
  O  O130  1  0.280000  0.132100  0.530380  1.0  -0.7329
  O  O131  1  0.050400  0.968300  0.424510  1.0  -0.7967
  O  O132  1  0.051200  0.615400  0.566280  1.0  -0.6416
  O  O133  1  0.164000  0.287300  0.505800  1.0  -0.7371
  O  O134  1  0.943100  0.114500  0.385620  1.0  -0.675
  O  O135  1  0.908900  0.357900  0.556860  1.0  -0.6692
  O  O136  1  0.636600  0.037700  0.560670  1.0  -0.6134
