# generated using pymatgen
data_CoH20(C13N5)2
_symmetry_space_group_name_H-M   'P 1'
_cell_length_a   10.12600000
_cell_length_b   15.98920000
_cell_length_c   15.98920000
_cell_angle_alpha   64.33210000
_cell_angle_beta   77.81310000
_cell_angle_gamma   102.18700000
_symmetry_Int_Tables_number   1
_chemical_formula_structural   CoH20(C13N5)2
_chemical_formula_sum   'Co3 H60 C78 N30'
_cell_volume   2142.01966866
_cell_formula_units_Z   3
loop_
 _symmetry_equiv_pos_site_id
 _symmetry_equiv_pos_as_xyz
  1  'x, y, z'
loop_
 _atom_site_type_symbol
 _atom_site_label
 _atom_site_symmetry_multiplicity
 _atom_site_fract_x
 _atom_site_fract_y
 _atom_site_fract_z
 _atom_site_occupancy
 _atom_site_charge
  Co  Co1  1  0.500000  0.000000  0.500000  1.0  0.7086
  Co  Co2  1  0.000000  0.500000  0.500000  1.0  0.7085
  Co  Co3  1  0.500000  0.500000  0.000000  1.0  0.7086
  H  H4  1  0.374700  0.862800  0.733800  1.0  0.0812
  H  H5  1  0.459800  0.808800  0.862800  1.0  0.1094
  H  H6  1  0.700000  0.880100  0.835100  1.0  0.1041
  H  H7  1  0.011400  0.226000  0.177500  1.0  0.1083
  H  H8  1  0.216900  0.337600  0.051500  1.0  0.0694
  H  H9  1  0.392800  0.370900  0.233000  1.0  0.0616
  H  H10  1  0.191100  0.258800  0.365700  1.0  0.1156
  H  H11  1  0.966600  0.060700  0.602300  1.0  0.1017
  H  H12  1  0.959100  0.962500  0.691300  1.0  0.1099
  H  H13  1  0.926900  0.046300  0.709100  1.0  0.1282
  H  H14  1  0.108500  0.733800  0.403400  1.0  0.0823
  H  H15  1  0.322600  0.862800  0.328400  1.0  0.1111
  H  H16  1  0.535100  0.835100  0.284800  1.0  0.1035
  H  H17  1  0.188900  0.177500  0.596500  1.0  0.1087
  H  H18  1  0.268400  0.051500  0.610900  1.0  0.0689
  H  H19  1  0.625800  0.233000  0.396100  1.0  0.0614
  H  H20  1  0.556800  0.365700  0.375500  1.0  0.1162
  H  H21  1  0.568900  0.602300  0.337000  1.0  0.1053
  H  H22  1  0.650400  0.691300  0.346200  1.0  0.1092
  H  H23  1  0.636000  0.709100  0.244600  1.0  0.1286
  H  H24  1  0.511900  0.403400  0.862800  1.0  0.0807
  H  H25  1  0.651000  0.328400  0.808800  1.0  0.1101
  H  H26  1  0.819900  0.284800  0.880100  1.0  0.1037
  H  H27  1  0.785400  0.596500  0.226000  1.0  0.1092
  H  H28  1  0.879300  0.610900  0.337600  1.0  0.0675
  H  H29  1  0.021900  0.396100  0.370900  1.0  0.0617
  H  H30  1  0.932300  0.375500  0.258800  1.0  0.1152
  H  H31  1  0.905900  0.337000  0.060700  1.0  0.1061
  H  H32  1  0.996600  0.346200  0.962500  1.0  0.1088
  H  H33  1  0.880600  0.244600  0.046300  1.0  0.1275
  H  H34  1  0.625300  0.137200  0.266200  1.0  0.0814
  H  H35  1  0.540200  0.191200  0.137200  1.0  0.1087
  H  H36  1  0.300000  0.119900  0.164900  1.0  0.1049
  H  H37  1  0.988600  0.774000  0.822500  1.0  0.1084
  H  H38  1  0.783100  0.662400  0.948500  1.0  0.0681
  H  H39  1  0.607200  0.629100  0.767000  1.0  0.0607
  H  H40  1  0.808900  0.741200  0.634300  1.0  0.116
  H  H41  1  0.033400  0.939300  0.397700  1.0  0.1021
  H  H42  1  0.040900  0.037500  0.308700  1.0  0.1096
  H  H43  1  0.073100  0.953700  0.290900  1.0  0.1278
  H  H44  1  0.891500  0.266200  0.596600  1.0  0.0824
  H  H45  1  0.677400  0.137200  0.671600  1.0  0.1108
  H  H46  1  0.464900  0.164900  0.715200  1.0  0.1036
  H  H47  1  0.811100  0.822500  0.403500  1.0  0.1087
  H  H48  1  0.731600  0.948500  0.389100  1.0  0.0687
  H  H49  1  0.374200  0.767000  0.603900  1.0  0.0607
  H  H50  1  0.443200  0.634300  0.624500  1.0  0.1156
  H  H51  1  0.431100  0.397700  0.663000  1.0  0.1052
  H  H52  1  0.349600  0.308700  0.653800  1.0  0.1092
  H  H53  1  0.364000  0.290900  0.755400  1.0  0.1283
  H  H54  1  0.488100  0.596600  0.137200  1.0  0.0805
  H  H55  1  0.349000  0.671600  0.191200  1.0  0.1098
  H  H56  1  0.180100  0.715200  0.119900  1.0  0.1035
  H  H57  1  0.214600  0.403500  0.774000  1.0  0.1089
  H  H58  1  0.120700  0.389100  0.662400  1.0  0.0671
  H  H59  1  0.978100  0.603900  0.629100  1.0  0.0617
  H  H60  1  0.067700  0.624500  0.741200  1.0  0.1154
  H  H61  1  0.094100  0.663000  0.939300  1.0  0.1067
  H  H62  1  0.003400  0.653800  0.037500  1.0  0.1094
  H  H63  1  0.119400  0.755400  0.953700  1.0  0.1267
  C  C64  1  0.472300  0.888700  0.722200  1.0  0.1842
  C  C65  1  0.521800  0.857300  0.799700  1.0  -0.108
  C  C66  1  0.666100  0.899300  0.782300  1.0  -0.1324
  C  C67  1  0.759700  0.968400  0.689400  1.0  0.0976
  C  C68  1  0.702300  0.995500  0.613300  1.0  0.1135
  C  C69  1  0.784100  0.065300  0.508200  1.0  0.2465
  C  C70  1  0.938200  0.163000  0.368900  1.0  0.3445
  C  C71  1  0.073900  0.231300  0.286900  1.0  -0.0285
  C  C72  1  0.087400  0.255600  0.190900  1.0  -0.2069
  C  C73  1  0.211100  0.322500  0.115600  1.0  0.1771
  C  C74  1  0.313900  0.342000  0.221500  1.0  0.1829
  C  C75  1  0.192800  0.274700  0.302100  1.0  -0.1567
  C  C76  1  0.917600  0.013700  0.671400  1.0  -0.3936
  C  C77  1  0.194500  0.722200  0.389100  1.0  0.178
  C  C78  1  0.321500  0.799700  0.343000  1.0  -0.1075
  C  C79  1  0.448400  0.782300  0.318400  1.0  -0.1329
  C  C80  1  0.449100  0.689400  0.342200  1.0  0.0948
  C  C81  1  0.315600  0.613300  0.391200  1.0  0.1127
  C  C82  1  0.292300  0.508200  0.426500  1.0  0.2464
  C  C83  1  0.307100  0.368900  0.468100  1.0  0.3443
  C  C84  1  0.360800  0.286900  0.481800  1.0  -0.0296
  C  C85  1  0.278300  0.190900  0.553500  1.0  -0.2075
  C  C86  1  0.326700  0.115600  0.561900  1.0  0.1748
  C  C87  1  0.535400  0.221500  0.436500  1.0  0.1819
  C  C88  1  0.494900  0.302100  0.423200  1.0  -0.1576
  C  C89  1  0.589000  0.671400  0.314900  1.0  -0.3932
  C  C90  1  0.583600  0.389100  0.888700  1.0  0.1801
  C  C91  1  0.664500  0.343000  0.857300  1.0  -0.1056
  C  C92  1  0.766800  0.318400  0.899300  1.0  -0.1357
  C  C93  1  0.791300  0.342200  0.968400  1.0  0.0943
  C  C94  1  0.706800  0.391200  0.995500  1.0  0.1128
  C  C95  1  0.718800  0.426500  0.065300  1.0  0.2468
  C  C96  1  0.775200  0.468100  0.163000  1.0  0.3438
  C  C97  1  0.842600  0.481800  0.231300  1.0  -0.0277
  C  C98  1  0.831800  0.553500  0.255600  1.0  -0.211
  C  C99  1  0.888600  0.561900  0.322500  1.0  0.1775
  C  C100  1  0.971900  0.436500  0.342000  1.0  0.1839
  C  C101  1  0.918100  0.423200  0.274700  1.0  -0.1565
  C  C102  1  0.903900  0.314900  0.013700  1.0  -0.3916
  C  C103  1  0.527700  0.111300  0.277800  1.0  0.1844
  C  C104  1  0.478200  0.142700  0.200300  1.0  -0.1087
  C  C105  1  0.333900  0.100700  0.217700  1.0  -0.1328
  C  C106  1  0.240300  0.031600  0.310600  1.0  0.099
  C  C107  1  0.297700  0.004500  0.386700  1.0  0.1135
  C  C108  1  0.215900  0.934700  0.491800  1.0  0.2472
  C  C109  1  0.061800  0.837000  0.631100  1.0  0.3444
  C  C110  1  0.926100  0.768700  0.713100  1.0  -0.0284
  C  C111  1  0.912600  0.744400  0.809100  1.0  -0.2079
  C  C112  1  0.788900  0.677500  0.884400  1.0  0.1751
  C  C113  1  0.686100  0.658000  0.778500  1.0  0.1832
  C  C114  1  0.807200  0.725300  0.697900  1.0  -0.1559
  C  C115  1  0.082400  0.986300  0.328600  1.0  -0.3926
  C  C116  1  0.805500  0.277800  0.610900  1.0  0.1802
  C  C117  1  0.678500  0.200300  0.657000  1.0  -0.1064
  C  C118  1  0.551600  0.217700  0.681600  1.0  -0.1327
  C  C119  1  0.550900  0.310600  0.657800  1.0  0.0948
  C  C120  1  0.684400  0.386700  0.608800  1.0  0.1136
  C  C121  1  0.707700  0.491800  0.573500  1.0  0.2461
  C  C122  1  0.692900  0.631100  0.531900  1.0  0.3445
  C  C123  1  0.639200  0.713100  0.518200  1.0  -0.0285
  C  C124  1  0.721700  0.809100  0.446500  1.0  -0.2099
  C  C125  1  0.673300  0.884400  0.438100  1.0  0.176
  C  C126  1  0.464600  0.778500  0.563500  1.0  0.1824
  C  C127  1  0.505100  0.697900  0.576800  1.0  -0.1583
  C  C128  1  0.411000  0.328600  0.685100  1.0  -0.3912
  C  C129  1  0.416400  0.610900  0.111300  1.0  0.18
  C  C130  1  0.335500  0.657000  0.142700  1.0  -0.106
  C  C131  1  0.233200  0.681600  0.100700  1.0  -0.1329
  C  C132  1  0.208700  0.657800  0.031600  1.0  0.0953
  C  C133  1  0.293200  0.608800  0.004500  1.0  0.1127
  C  C134  1  0.281200  0.573500  0.934700  1.0  0.246
  C  C135  1  0.224800  0.531900  0.837000  1.0  0.3446
  C  C136  1  0.157400  0.518200  0.768700  1.0  -0.0269
  C  C137  1  0.168200  0.446500  0.744400  1.0  -0.2123
  C  C138  1  0.111400  0.438100  0.677500  1.0  0.1775
  C  C139  1  0.028100  0.563500  0.658000  1.0  0.1834
  C  C140  1  0.081900  0.576800  0.725300  1.0  -0.1562
  C  C141  1  0.096100  0.685100  0.986300  1.0  -0.391
  N  N142  1  0.560200  0.955500  0.630600  1.0  -0.2984
  N  N143  1  0.715020  0.077540  0.442980  1.0  -0.1475
  N  N144  1  0.815790  0.140780  0.350910  1.0  -0.3924
  N  N145  1  0.926200  0.119200  0.465200  1.0  -0.4876
  N  N146  1  0.325600  0.368400  0.128800  1.0  -0.329
  N  N147  1  0.190800  0.630600  0.413900  1.0  -0.2999
  N  N148  1  0.158000  0.442980  0.479480  1.0  -0.1472
  N  N149  1  0.166700  0.350910  0.508310  1.0  -0.3938
  N  N150  1  0.391400  0.465200  0.415600  1.0  -0.4882
  N  N151  1  0.454400  0.128800  0.502800  1.0  -0.3288
  N  N152  1  0.604700  0.413900  0.955500  1.0  -0.3007
  N  N153  1  0.637480  0.479480  0.077540  1.0  -0.1487
  N  N154  1  0.675010  0.508310  0.140780  1.0  -0.3945
  N  N155  1  0.807000  0.415600  0.119200  1.0  -0.4868
  N  N156  1  0.957200  0.502800  0.368400  1.0  -0.3297
  N  N157  1  0.439800  0.044500  0.369400  1.0  -0.2972
  N  N158  1  0.284980  0.922460  0.557020  1.0  -0.1492
  N  N159  1  0.184210  0.859220  0.649090  1.0  -0.392
  N  N160  1  0.073800  0.880800  0.534800  1.0  -0.4919
  N  N161  1  0.674400  0.631600  0.871200  1.0  -0.3291
  N  N162  1  0.809200  0.369400  0.586100  1.0  -0.2975
  N  N163  1  0.842000  0.557020  0.520520  1.0  -0.1489
  N  N164  1  0.833300  0.649090  0.491690  1.0  -0.3936
  N  N165  1  0.608600  0.534800  0.584400  1.0  -0.4892
  N  N166  1  0.545600  0.871200  0.497200  1.0  -0.3286
  N  N167  1  0.395300  0.586100  0.044500  1.0  -0.3005
  N  N168  1  0.362520  0.520520  0.922460  1.0  -0.1483
  N  N169  1  0.324990  0.491690  0.859220  1.0  -0.3933
  N  N170  1  0.193000  0.584400  0.880800  1.0  -0.4889
  N  N171  1  0.042800  0.497200  0.631600  1.0  -0.331
