# generated using pymatgen
data_MnH16(C17N5)2
_symmetry_space_group_name_H-M   'P 1'
_cell_length_a   11.61600000
_cell_length_b   12.50300000
_cell_length_c   14.89100000
_cell_angle_alpha   90.00000000
_cell_angle_beta   90.00000000
_cell_angle_gamma   90.00000000
_symmetry_Int_Tables_number   1
_chemical_formula_structural   MnH16(C17N5)2
_chemical_formula_sum   'Mn2 H32 C68 N20'
_cell_volume   2162.69212157
_cell_formula_units_Z   2
loop_
 _symmetry_equiv_pos_site_id
 _symmetry_equiv_pos_as_xyz
  1  'x, y, z'
loop_
 _atom_site_type_symbol
 _atom_site_label
 _atom_site_symmetry_multiplicity
 _atom_site_fract_x
 _atom_site_fract_y
 _atom_site_fract_z
 _atom_site_occupancy
 _atom_site_charge
  Mn  Mn1  1  0.500000  0.500000  0.250000  1.0  0.5823
  Mn  Mn2  1  0.500000  0.500000  0.750000  1.0  0.5823
  H  H3  1  0.300600  0.782600  0.364100  1.0  0.1062
  H  H4  1  0.163500  0.918000  0.364800  1.0  0.1058
  H  H5  1  0.286000  0.651900  0.218700  1.0  0.0843
  H  H6  1  0.086700  0.657100  0.219200  1.0  0.1261
  H  H7  1  0.699400  0.217400  0.364100  1.0  0.1061
  H  H8  1  0.836500  0.082000  0.364800  1.0  0.1059
  H  H9  1  0.714000  0.348100  0.218700  1.0  0.0841
  H  H10  1  0.913300  0.342900  0.219200  1.0  0.1263
  H  H11  1  0.699400  0.782600  0.135900  1.0  0.1063
  H  H12  1  0.836500  0.918000  0.135200  1.0  0.1053
  H  H13  1  0.714000  0.651900  0.281300  1.0  0.0845
  H  H14  1  0.913300  0.657100  0.280800  1.0  0.1273
  H  H15  1  0.300600  0.217400  0.135900  1.0  0.1061
  H  H16  1  0.163500  0.082000  0.135200  1.0  0.1055
  H  H17  1  0.286000  0.348100  0.281300  1.0  0.0843
  H  H18  1  0.086700  0.342900  0.280800  1.0  0.1274
  H  H19  1  0.699400  0.217400  0.635900  1.0  0.1061
  H  H20  1  0.836500  0.082000  0.635200  1.0  0.1056
  H  H21  1  0.714000  0.348100  0.781300  1.0  0.0844
  H  H22  1  0.913300  0.342900  0.780800  1.0  0.1262
  H  H23  1  0.300600  0.782600  0.635900  1.0  0.1061
  H  H24  1  0.163500  0.918000  0.635200  1.0  0.1053
  H  H25  1  0.286000  0.651900  0.781300  1.0  0.0843
  H  H26  1  0.086700  0.657100  0.780800  1.0  0.1263
  H  H27  1  0.300600  0.217400  0.864100  1.0  0.106
  H  H28  1  0.163500  0.082000  0.864800  1.0  0.1059
  H  H29  1  0.286000  0.348100  0.718700  1.0  0.0841
  H  H30  1  0.086700  0.342900  0.719200  1.0  0.1272
  H  H31  1  0.699400  0.782600  0.864100  1.0  0.1064
  H  H32  1  0.836500  0.918000  0.864800  1.0  0.1057
  H  H33  1  0.714000  0.651900  0.718700  1.0  0.0845
  H  H34  1  0.913300  0.657100  0.719200  1.0  0.1274
  C  C35  1  0.463200  0.658300  0.420200  1.0  0.4093
  C  C36  1  0.275700  0.812000  0.419600  1.0  -0.1403
  C  C37  1  0.194200  0.892600  0.420000  1.0  -0.091
  C  C38  1  0.077100  0.092000  0.420300  1.0  0.3071
  C  C39  1  0.244900  0.588200  0.232200  1.0  0.1477
  C  C40  1  0.125700  0.592000  0.231900  1.0  -0.1937
  C  C41  1  0.536800  0.341700  0.420200  1.0  0.4104
  C  C42  1  0.724300  0.188000  0.419600  1.0  -0.1428
  C  C43  1  0.805800  0.107400  0.420000  1.0  -0.0916
  C  C44  1  0.922900  0.908000  0.420300  1.0  0.3077
  C  C45  1  0.755100  0.411800  0.232200  1.0  0.1476
  C  C46  1  0.874300  0.408000  0.231900  1.0  -0.1929
  C  C47  1  0.536800  0.658300  0.079800  1.0  0.4104
  C  C48  1  0.724300  0.812000  0.080400  1.0  -0.148
  C  C49  1  0.805800  0.892600  0.080000  1.0  -0.0907
  C  C50  1  0.922900  0.092000  0.079700  1.0  0.3068
  C  C51  1  0.755100  0.588200  0.267800  1.0  0.1468
  C  C52  1  0.874300  0.592000  0.268100  1.0  -0.1942
  C  C53  1  0.463200  0.341700  0.079800  1.0  0.4103
  C  C54  1  0.275700  0.188000  0.080400  1.0  -0.1476
  C  C55  1  0.194200  0.107400  0.080000  1.0  -0.0902
  C  C56  1  0.077100  0.908000  0.079700  1.0  0.3075
  C  C57  1  0.244900  0.411800  0.267800  1.0  0.1484
  C  C58  1  0.125700  0.408000  0.268100  1.0  -0.1934
  C  C59  1  0.536800  0.341700  0.579800  1.0  0.4099
  C  C60  1  0.724300  0.188000  0.580400  1.0  -0.1485
  C  C61  1  0.805800  0.107400  0.580000  1.0  -0.0907
  C  C62  1  0.922900  0.908000  0.579700  1.0  0.3079
  C  C63  1  0.755100  0.411800  0.767800  1.0  0.148
  C  C64  1  0.874300  0.408000  0.768100  1.0  -0.1931
  C  C65  1  0.463200  0.658300  0.579800  1.0  0.4093
  C  C66  1  0.275700  0.812000  0.580400  1.0  -0.1466
  C  C67  1  0.194200  0.892600  0.580000  1.0  -0.0895
  C  C68  1  0.077100  0.092000  0.579700  1.0  0.3069
  C  C69  1  0.244900  0.588200  0.767800  1.0  0.1471
  C  C70  1  0.125700  0.592000  0.768100  1.0  -0.1944
  C  C71  1  0.463200  0.341700  0.920200  1.0  0.4094
  C  C72  1  0.275700  0.188000  0.919600  1.0  -0.1415
  C  C73  1  0.194200  0.107400  0.920000  1.0  -0.091
  C  C74  1  0.077100  0.908000  0.920300  1.0  0.3068
  C  C75  1  0.244900  0.411800  0.732200  1.0  0.1479
  C  C76  1  0.125700  0.408000  0.731900  1.0  -0.1932
  C  C77  1  0.536800  0.658300  0.920200  1.0  0.4096
  C  C78  1  0.724300  0.812000  0.919600  1.0  -0.1406
  C  C79  1  0.805800  0.892600  0.920000  1.0  -0.0914
  C  C80  1  0.922900  0.092000  0.920300  1.0  0.3073
  C  C81  1  0.755100  0.588200  0.732200  1.0  0.1475
  C  C82  1  0.874300  0.592000  0.731900  1.0  -0.1936
  C  C83  1  0.064200  0.500000  0.250000  1.0  0.0955
  C  C84  1  0.935800  0.500000  0.250000  1.0  0.0962
  C  C85  1  0.935800  0.500000  0.750000  1.0  0.0962
  C  C86  1  0.064200  0.500000  0.750000  1.0  0.0955
  C  C87  1  0.417300  0.697900  0.500000  1.0  -0.394
  C  C88  1  0.323200  0.773600  0.500000  1.0  0.1655
  C  C89  1  0.156500  0.936200  0.500000  1.0  -0.0472
  C  C90  1  0.063800  0.027200  0.500000  1.0  -0.0019
  C  C91  1  0.582700  0.302100  0.500000  1.0  -0.3929
  C  C92  1  0.676800  0.226400  0.500000  1.0  0.166
  C  C93  1  0.843500  0.063800  0.500000  1.0  -0.0476
  C  C94  1  0.936200  0.972800  0.500000  1.0  -0.001
  C  C95  1  0.582700  0.697900  0.000000  1.0  -0.3933
  C  C96  1  0.676800  0.773600  0.000000  1.0  0.166
  C  C97  1  0.843500  0.936200  0.000000  1.0  -0.0467
  C  C98  1  0.936200  0.027200  0.000000  1.0  -0.0013
  C  C99  1  0.417300  0.302100  0.000000  1.0  -0.3936
  C  C100  1  0.323200  0.226400  0.000000  1.0  0.1655
  C  C101  1  0.156500  0.063800  0.000000  1.0  -0.0476
  C  C102  1  0.063800  0.972800  0.000000  1.0  -0.0012
  N  N103  1  0.501400  0.625300  0.354200  1.0  -0.4404
  N  N104  1  0.094100  0.139600  0.357300  1.0  -0.3444
  N  N105  1  0.498600  0.374700  0.354200  1.0  -0.44
  N  N106  1  0.905900  0.860400  0.357300  1.0  -0.3447
  N  N107  1  0.498600  0.625300  0.145800  1.0  -0.4415
  N  N108  1  0.905900  0.139600  0.142700  1.0  -0.3448
  N  N109  1  0.501400  0.374700  0.145800  1.0  -0.441
  N  N110  1  0.094100  0.860400  0.142700  1.0  -0.3443
  N  N111  1  0.498600  0.374700  0.645800  1.0  -0.4408
  N  N112  1  0.905900  0.860400  0.642700  1.0  -0.344
  N  N113  1  0.501400  0.625300  0.645800  1.0  -0.4416
  N  N114  1  0.094100  0.139600  0.642700  1.0  -0.3448
  N  N115  1  0.501400  0.374700  0.854200  1.0  -0.4403
  N  N116  1  0.094100  0.860400  0.857300  1.0  -0.3449
  N  N117  1  0.498600  0.625300  0.854200  1.0  -0.4401
  N  N118  1  0.905900  0.139600  0.857300  1.0  -0.3443
  N  N119  1  0.304500  0.500000  0.250000  1.0  -0.2564
  N  N120  1  0.695500  0.500000  0.250000  1.0  -0.2589
  N  N121  1  0.695500  0.500000  0.750000  1.0  -0.2589
  N  N122  1  0.304500  0.500000  0.750000  1.0  -0.2564
