# generated using pymatgen
data_Al2H5C5O8
_symmetry_space_group_name_H-M   'P 1'
_cell_length_a   6.99410000
_cell_length_b   7.48900000
_cell_length_c   11.14610000
_cell_angle_alpha   107.82200000
_cell_angle_beta   106.36400000
_cell_angle_gamma   95.46640000
_symmetry_Int_Tables_number   1
_chemical_formula_structural   Al2H5C5O8
_chemical_formula_sum   'Al4 H10 C10 O16'
_cell_volume   522.65591658
_cell_formula_units_Z   2
loop_
 _symmetry_equiv_pos_site_id
 _symmetry_equiv_pos_as_xyz
  1  'x, y, z'
loop_
 _atom_site_type_symbol
 _atom_site_label
 _atom_site_symmetry_multiplicity
 _atom_site_fract_x
 _atom_site_fract_y
 _atom_site_fract_z
 _atom_site_occupancy
 _atom_site_charge
  Al  Al1  1  0.295180  0.295180  0.590360  1.0  1.5843
  Al  Al2  1  0.704820  0.704820  0.409640  1.0  1.5837
  Al  Al3  1  0.000000  0.500000  0.500000  1.0  1.5924
  Al  Al4  1  0.500000  0.000000  0.500000  1.0  1.5924
  H  H5  1  0.994000  0.310000  0.648000  1.0  0.403
  H  H6  1  0.142000  0.973000  0.478000  1.0  0.3454
  H  H7  1  0.654000  0.338000  0.648000  1.0  0.3998
  H  H8  1  0.336000  0.505000  0.478000  1.0  0.3437
  H  H9  1  0.006000  0.690000  0.352000  1.0  0.4028
  H  H10  1  0.858000  0.027000  0.522000  1.0  0.3459
  H  H11  1  0.346000  0.662000  0.352000  1.0  0.4013
  H  H12  1  0.664000  0.495000  0.522000  1.0  0.3435
  H  H13  1  0.551900  0.312100  0.000000  1.0  0.1068
  H  H14  1  0.448100  0.687900  0.000000  1.0  0.106
  C  C15  1  0.426800  0.069500  0.751400  1.0  0.6805
  C  C16  1  0.455800  0.033900  0.880400  1.0  -0.0777
  C  C17  1  0.324600  0.681900  0.751400  1.0  0.6814
  C  C18  1  0.424600  0.846500  0.880400  1.0  -0.0758
  C  C19  1  0.573200  0.930500  0.248600  1.0  0.6815
  C  C20  1  0.544200  0.966100  0.119600  1.0  -0.0787
  C  C21  1  0.675400  0.318100  0.248600  1.0  0.6827
  C  C22  1  0.575400  0.153500  0.119600  1.0  -0.0778
  C  C23  1  0.530700  0.184900  0.000000  1.0  -0.0146
  C  C24  1  0.469300  0.815100  0.000000  1.0  -0.0153
  O  O25  1  0.027700  0.316200  0.583600  1.0  -0.9168
  O  O26  1  0.235500  0.042500  0.467000  1.0  -0.9056
  O  O27  1  0.327900  0.199000  0.735600  1.0  -0.5766
  O  O28  1  0.503400  0.970200  0.669400  1.0  -0.5871
  O  O29  1  0.555900  0.267400  0.583600  1.0  -0.9144
  O  O30  1  0.231500  0.424500  0.467000  1.0  -0.9044
  O  O31  1  0.407700  0.536600  0.735600  1.0  -0.576
  O  O32  1  0.166000  0.699200  0.669400  1.0  -0.588
  O  O33  1  0.972300  0.683800  0.416400  1.0  -0.916
  O  O34  1  0.764500  0.957500  0.533000  1.0  -0.9039
  O  O35  1  0.672100  0.801000  0.264400  1.0  -0.5778
  O  O36  1  0.496600  0.029800  0.330600  1.0  -0.5872
  O  O37  1  0.444100  0.732600  0.416400  1.0  -0.9142
  O  O38  1  0.768500  0.575500  0.533000  1.0  -0.9055
  O  O39  1  0.592300  0.463400  0.264400  1.0  -0.5756
  O  O40  1  0.834000  0.300800  0.330600  1.0  -0.588
