# generated using pymatgen
data_CuH12C18NO4
_symmetry_space_group_name_H-M   'P 1'
_cell_length_a   11.78200000
_cell_length_b   13.00540000
_cell_length_c   13.00540000
_cell_angle_alpha   97.82830000
_cell_angle_beta   105.47300000
_cell_angle_gamma   105.47300000
_symmetry_Int_Tables_number   1
_chemical_formula_structural   CuH12C18NO4
_chemical_formula_sum   'Cu4 H48 C72 N4 O16'
_cell_volume   1804.25168635
_cell_formula_units_Z   4
loop_
 _symmetry_equiv_pos_site_id
 _symmetry_equiv_pos_as_xyz
  1  'x, y, z'
loop_
 _atom_site_type_symbol
 _atom_site_label
 _atom_site_symmetry_multiplicity
 _atom_site_fract_x
 _atom_site_fract_y
 _atom_site_fract_z
 _atom_site_occupancy
 _atom_site_charge
  Cu  Cu1  1  0.125880  0.231210  0.677590  1.0  0.8137
  Cu  Cu2  1  0.374120  0.322410  0.768790  1.0  0.8135
  Cu  Cu3  1  0.874120  0.768790  0.322410  1.0  0.813
  Cu  Cu4  1  0.625880  0.677590  0.231210  1.0  0.8125
  H  H5  1  0.121000  0.194100  0.339900  1.0  0.1045
  H  H6  1  0.474700  0.383500  0.482900  1.0  0.1048
  H  H7  1  0.496700  0.404700  0.318300  1.0  0.1108
  H  H8  1  0.029600  0.152700  0.136900  1.0  0.1149
  H  H9  1  0.047800  0.176200  0.971400  1.0  0.1118
  H  H10  1  0.405900  0.360200  0.113400  1.0  0.1116
  H  H11  1  0.918800  0.009600  0.590200  1.0  0.0785
  H  H12  1  0.892700  0.301000  0.614600  1.0  0.0686
  H  H13  1  0.706500  0.933300  0.531300  1.0  0.1161
  H  H14  1  0.680200  0.233300  0.547100  1.0  0.1193
  H  H15  1  0.540300  0.021100  0.617700  1.0  0.1095
  H  H16  1  0.507200  0.107900  0.551100  1.0  0.0984
  H  H17  1  0.379000  0.660100  0.805900  1.0  0.1058
  H  H18  1  0.025300  0.517100  0.616500  1.0  0.1044
  H  H19  1  0.003300  0.681700  0.595300  1.0  0.1117
  H  H20  1  0.470400  0.863100  0.847300  1.0  0.1152
  H  H21  1  0.452200  0.028600  0.823800  1.0  0.1119
  H  H22  1  0.094100  0.886600  0.639800  1.0  0.1123
  H  H23  1  0.581200  0.409800  0.990400  1.0  0.0793
  H  H24  1  0.607300  0.385400  0.699000  1.0  0.072
  H  H25  1  0.793500  0.468700  0.066700  1.0  0.1156
  H  H26  1  0.819800  0.452900  0.766700  1.0  0.1184
  H  H27  1  0.959700  0.382300  0.978900  1.0  0.1095
  H  H28  1  0.992800  0.448900  0.892100  1.0  0.0976
  H  H29  1  0.879000  0.805900  0.660100  1.0  0.1052
  H  H30  1  0.525300  0.616500  0.517100  1.0  0.1048
  H  H31  1  0.503300  0.595300  0.681700  1.0  0.111
  H  H32  1  0.970400  0.847300  0.863100  1.0  0.1159
  H  H33  1  0.952200  0.823800  0.028600  1.0  0.1127
  H  H34  1  0.594100  0.639800  0.886600  1.0  0.1112
  H  H35  1  0.081200  0.990400  0.409800  1.0  0.0784
  H  H36  1  0.107300  0.699000  0.385400  1.0  0.0687
  H  H37  1  0.293500  0.066700  0.468700  1.0  0.1156
  H  H38  1  0.319800  0.766700  0.452900  1.0  0.1191
  H  H39  1  0.459700  0.978900  0.382300  1.0  0.1095
  H  H40  1  0.492800  0.892100  0.448900  1.0  0.0985
  H  H41  1  0.621000  0.339900  0.194100  1.0  0.1057
  H  H42  1  0.974700  0.482900  0.383500  1.0  0.1047
  H  H43  1  0.996700  0.318300  0.404700  1.0  0.1118
  H  H44  1  0.529600  0.136900  0.152700  1.0  0.1155
  H  H45  1  0.547800  0.971400  0.176200  1.0  0.1119
  H  H46  1  0.905900  0.113400  0.360200  1.0  0.1111
  H  H47  1  0.418800  0.590200  0.009600  1.0  0.0789
  H  H48  1  0.392700  0.614600  0.301000  1.0  0.071
  H  H49  1  0.206500  0.531300  0.933300  1.0  0.1166
  H  H50  1  0.180200  0.547100  0.233300  1.0  0.1178
  H  H51  1  0.040300  0.617700  0.021100  1.0  0.1082
  H  H52  1  0.007200  0.551100  0.107900  1.0  0.0979
  C  C53  1  0.278700  0.278670  0.537530  1.0  0.6494
  C  C54  1  0.293800  0.287900  0.427900  1.0  -0.1271
  C  C55  1  0.195700  0.236300  0.334500  1.0  -0.0788
  C  C56  1  0.407600  0.350000  0.419600  1.0  -0.0473
  C  C57  1  0.206100  0.246300  0.231100  1.0  0.0425
  C  C58  1  0.421300  0.361700  0.321500  1.0  -0.1241
  C  C59  1  0.321000  0.309000  0.223000  1.0  0.036
  C  C60  1  0.104800  0.195400  0.133000  1.0  -0.1282
  C  C61  1  0.116000  0.208200  0.034200  1.0  -0.0564
  C  C62  1  0.330800  0.319300  0.118900  1.0  -0.0755
  C  C63  1  0.231000  0.269900  0.025500  1.0  -0.1202
  C  C64  1  0.241500  0.281300  0.915500  1.0  0.6487
  C  C65  1  0.869900  0.055400  0.585600  1.0  0.1816
  C  C66  1  0.854800  0.225700  0.598700  1.0  0.1854
  C  C67  1  0.742600  0.009000  0.548800  1.0  -0.2188
  C  C68  1  0.726200  0.185400  0.559000  1.0  -0.2298
  C  C69  1  0.668300  0.077600  0.538000  1.0  0.1528
  C  C70  1  0.539100  0.046460  0.550660  1.0  -0.1977
  C  C71  1  0.221300  0.462470  0.721330  1.0  0.6485
  C  C72  1  0.206200  0.572100  0.712100  1.0  -0.1267
  C  C73  1  0.304300  0.665500  0.763700  1.0  -0.0808
  C  C74  1  0.092400  0.580400  0.650000  1.0  -0.0463
  C  C75  1  0.293900  0.768900  0.753700  1.0  0.0411
  C  C76  1  0.078700  0.678500  0.638300  1.0  -0.1255
  C  C77  1  0.179000  0.777000  0.691000  1.0  0.036
  C  C78  1  0.395200  0.867000  0.804600  1.0  -0.1318
  C  C79  1  0.384000  0.965800  0.791800  1.0  -0.0583
  C  C80  1  0.169200  0.881100  0.680700  1.0  -0.081
  C  C81  1  0.269000  0.974500  0.730100  1.0  -0.1202
  C  C82  1  0.258500  0.084500  0.718700  1.0  0.6464
  C  C83  1  0.630100  0.414400  0.944600  1.0  0.1796
  C  C84  1  0.645200  0.401300  0.774300  1.0  0.1854
  C  C85  1  0.757400  0.451200  0.991000  1.0  -0.2231
  C  C86  1  0.773800  0.441000  0.814600  1.0  -0.2285
  C  C87  1  0.831700  0.462000  0.922400  1.0  0.1512
  C  C88  1  0.960900  0.449340  0.953540  1.0  -0.1971
  C  C89  1  0.721300  0.721330  0.462470  1.0  0.6485
  C  C90  1  0.706200  0.712100  0.572100  1.0  -0.1261
  C  C91  1  0.804300  0.763700  0.665500  1.0  -0.0777
  C  C92  1  0.592400  0.650000  0.580400  1.0  -0.0469
  C  C93  1  0.793900  0.753700  0.768900  1.0  0.0427
  C  C94  1  0.578700  0.638300  0.678500  1.0  -0.1244
  C  C95  1  0.679000  0.691000  0.777000  1.0  0.0369
  C  C96  1  0.895200  0.804600  0.867000  1.0  -0.1282
  C  C97  1  0.884000  0.791800  0.965800  1.0  -0.0569
  C  C98  1  0.669200  0.680700  0.881100  1.0  -0.0757
  C  C99  1  0.769000  0.730100  0.974500  1.0  -0.1203
  C  C100  1  0.758500  0.718700  0.084500  1.0  0.6486
  C  C101  1  0.130100  0.944600  0.414400  1.0  0.1802
  C  C102  1  0.145200  0.774300  0.401300  1.0  0.1853
  C  C103  1  0.257400  0.991000  0.451200  1.0  -0.2189
  C  C104  1  0.273800  0.814600  0.441000  1.0  -0.2292
  C  C105  1  0.331700  0.922400  0.462000  1.0  0.1529
  C  C106  1  0.460900  0.953540  0.449340  1.0  -0.197
  C  C107  1  0.778700  0.537530  0.278670  1.0  0.6493
  C  C108  1  0.793800  0.427900  0.287900  1.0  -0.1269
  C  C109  1  0.695700  0.334500  0.236300  1.0  -0.0817
  C  C110  1  0.907600  0.419600  0.350000  1.0  -0.0469
  C  C111  1  0.706100  0.231100  0.246300  1.0  0.0409
  C  C112  1  0.921300  0.321500  0.361700  1.0  -0.1264
  C  C113  1  0.821000  0.223000  0.309000  1.0  0.0354
  C  C114  1  0.604800  0.133000  0.195400  1.0  -0.1304
  C  C115  1  0.616000  0.034200  0.208200  1.0  -0.0574
  C  C116  1  0.830800  0.118900  0.319300  1.0  -0.0804
  C  C117  1  0.731000  0.025500  0.269900  1.0  -0.1211
  C  C118  1  0.741500  0.915500  0.281300  1.0  0.6463
  C  C119  1  0.369900  0.585600  0.055400  1.0  0.1801
  C  C120  1  0.354800  0.598700  0.225700  1.0  0.1848
  C  C121  1  0.242600  0.548800  0.009000  1.0  -0.2238
  C  C122  1  0.226200  0.559000  0.185400  1.0  -0.2291
  C  C123  1  0.168300  0.538000  0.077600  1.0  0.1489
  C  C124  1  0.039100  0.550660  0.046460  1.0  -0.1976
  N  N125  1  0.925900  0.163450  0.614950  1.0  -0.3397
  N  N126  1  0.574100  0.385050  0.836550  1.0  -0.3405
  N  N127  1  0.074100  0.836550  0.385050  1.0  -0.3419
  N  N128  1  0.425900  0.614950  0.163450  1.0  -0.3391
  O  O129  1  0.170900  0.234650  0.540330  1.0  -0.5481
  O  O130  1  0.376400  0.316990  0.619390  1.0  -0.5465
  O  O131  1  0.142200  0.249230  0.836570  1.0  -0.5644
  O  O132  1  0.350100  0.321450  0.910370  1.0  -0.5443
  O  O133  1  0.329100  0.459670  0.765350  1.0  -0.5475
  O  O134  1  0.123600  0.380610  0.683010  1.0  -0.5462
  O  O135  1  0.357800  0.163430  0.750770  1.0  -0.5642
  O  O136  1  0.149900  0.089630  0.678550  1.0  -0.5459
  O  O137  1  0.829100  0.765350  0.459670  1.0  -0.5479
  O  O138  1  0.623600  0.683010  0.380610  1.0  -0.5472
  O  O139  1  0.857800  0.750770  0.163430  1.0  -0.564
  O  O140  1  0.649900  0.678550  0.089630  1.0  -0.5449
  O  O141  1  0.670900  0.540330  0.234650  1.0  -0.5489
  O  O142  1  0.876400  0.619390  0.316990  1.0  -0.5467
  O  O143  1  0.642200  0.836570  0.249230  1.0  -0.5643
  O  O144  1  0.850100  0.910370  0.321450  1.0  -0.5439
