# generated using pymatgen
data_CdH20C38(NO2)4
_symmetry_space_group_name_H-M   'P 1'
_cell_length_a   11.77970000
_cell_length_b   29.18250000
_cell_length_c   14.22850000
_cell_angle_alpha   90.00000000
_cell_angle_beta   100.67900000
_cell_angle_gamma   90.00000000
_symmetry_Int_Tables_number   1
_chemical_formula_structural   CdH20C38(NO2)4
_chemical_formula_sum   'Cd4 H80 C152 N16 O32'
_cell_volume   4806.49289720
_cell_formula_units_Z   4
loop_
 _symmetry_equiv_pos_site_id
 _symmetry_equiv_pos_as_xyz
  1  'x, y, z'
loop_
 _atom_site_type_symbol
 _atom_site_label
 _atom_site_symmetry_multiplicity
 _atom_site_fract_x
 _atom_site_fract_y
 _atom_site_fract_z
 _atom_site_occupancy
 _atom_site_charge
  Cd  Cd1  1  0.400480  0.043770  0.914260  1.0  0.9776
  Cd  Cd2  1  0.099520  0.543770  0.585740  1.0  0.9769
  Cd  Cd3  1  0.599520  0.956240  0.085740  1.0  0.9767
  Cd  Cd4  1  0.900480  0.456240  0.414260  1.0  0.9773
  H  H5  1  0.419200  0.206000  0.890400  1.0  0.121
  H  H6  1  0.180000  0.157300  0.683200  1.0  0.1039
  H  H7  1  0.368400  0.278900  0.835900  1.0  0.1465
  H  H8  1  0.144000  0.228600  0.621800  1.0  0.1235
  H  H9  1  0.359600  0.340000  0.774400  1.0  0.1414
  H  H10  1  0.089100  0.296800  0.586000  1.0  0.119
  H  H11  1  0.321700  0.413900  0.719800  1.0  0.0862
  H  H12  1  0.043200  0.371900  0.543400  1.0  0.1063
  H  H13  1  0.139700  0.040800  0.942500  1.0  0.084
  H  H14  1  0.408100  0.064000  0.138800  1.0  0.0855
  H  H15  1  0.018400  0.044000  0.051500  1.0  0.1536
  H  H16  1  0.298300  0.066800  0.255400  1.0  0.1439
  H  H17  1  0.883200  0.948200  0.296900  1.0  0.1113
  H  H18  1  0.056100  0.151000  0.431700  1.0  0.1247
  H  H19  1  0.780600  0.944200  0.420100  1.0  0.1123
  H  H20  1  0.939000  0.148900  0.547000  1.0  0.1108
  H  H21  1  0.538000  0.018800  0.589500  1.0  0.1294
  H  H22  1  0.791400  0.063500  0.791700  1.0  0.1401
  H  H23  1  0.421500  0.016400  0.700300  1.0  0.0801
  H  H24  1  0.664500  0.064500  0.895300  1.0  0.087
  H  H25  1  0.080800  0.706000  0.609600  1.0  0.1209
  H  H26  1  0.320000  0.657300  0.816800  1.0  0.1039
  H  H27  1  0.131600  0.778900  0.664100  1.0  0.1467
  H  H28  1  0.356000  0.728600  0.878200  1.0  0.1246
  H  H29  1  0.140400  0.840000  0.725600  1.0  0.1415
  H  H30  1  0.410900  0.796800  0.914000  1.0  0.1184
  H  H31  1  0.178300  0.913900  0.780200  1.0  0.0865
  H  H32  1  0.456800  0.871900  0.956600  1.0  0.1071
  H  H33  1  0.360300  0.540800  0.557500  1.0  0.0838
  H  H34  1  0.091900  0.564000  0.361200  1.0  0.0843
  H  H35  1  0.481600  0.544000  0.448500  1.0  0.1528
  H  H36  1  0.201700  0.566800  0.244600  1.0  0.1442
  H  H37  1  0.616800  0.448200  0.203100  1.0  0.1115
  H  H38  1  0.443900  0.651000  0.068300  1.0  0.1246
  H  H39  1  0.719400  0.444200  0.079900  1.0  0.1119
  H  H40  1  0.561000  0.648900  0.953000  1.0  0.1112
  H  H41  1  0.962000  0.518800  0.910500  1.0  0.1288
  H  H42  1  0.708600  0.563500  0.708300  1.0  0.1409
  H  H43  1  0.078500  0.516400  0.799700  1.0  0.0804
  H  H44  1  0.835500  0.564500  0.604700  1.0  0.0879
  H  H45  1  0.580800  0.794000  0.109600  1.0  0.121
  H  H46  1  0.820000  0.842700  0.316800  1.0  0.1034
  H  H47  1  0.631600  0.721100  0.164100  1.0  0.1467
  H  H48  1  0.856000  0.771400  0.378200  1.0  0.1243
  H  H49  1  0.640400  0.660000  0.225600  1.0  0.1416
  H  H50  1  0.910900  0.703200  0.414000  1.0  0.1177
  H  H51  1  0.678300  0.586100  0.280200  1.0  0.0868
  H  H52  1  0.956800  0.628100  0.456600  1.0  0.1067
  H  H53  1  0.860300  0.959200  0.057500  1.0  0.0841
  H  H54  1  0.591900  0.936000  0.861200  1.0  0.0842
  H  H55  1  0.981600  0.956000  0.948500  1.0  0.1528
  H  H56  1  0.701700  0.933200  0.744600  1.0  0.1441
  H  H57  1  0.116800  0.051800  0.703100  1.0  0.1111
  H  H58  1  0.943900  0.849000  0.568300  1.0  0.1239
  H  H59  1  0.219400  0.055800  0.579900  1.0  0.1117
  H  H60  1  0.061000  0.851100  0.453000  1.0  0.1112
  H  H61  1  0.462000  0.981200  0.410500  1.0  0.1293
  H  H62  1  0.208600  0.936500  0.208300  1.0  0.1407
  H  H63  1  0.578500  0.983600  0.299700  1.0  0.0799
  H  H64  1  0.335500  0.935500  0.104700  1.0  0.088
  H  H65  1  0.919200  0.294000  0.390400  1.0  0.1216
  H  H66  1  0.680000  0.342700  0.183200  1.0  0.1039
  H  H67  1  0.868400  0.221100  0.335900  1.0  0.1474
  H  H68  1  0.644000  0.271400  0.121800  1.0  0.1237
  H  H69  1  0.859600  0.160000  0.274400  1.0  0.1411
  H  H70  1  0.589100  0.203200  0.086000  1.0  0.1191
  H  H71  1  0.821700  0.086100  0.219800  1.0  0.0865
  H  H72  1  0.543200  0.128100  0.043400  1.0  0.1064
  H  H73  1  0.639700  0.459200  0.442500  1.0  0.0843
  H  H74  1  0.908100  0.436000  0.638800  1.0  0.0853
  H  H75  1  0.518400  0.456000  0.551500  1.0  0.1533
  H  H76  1  0.798300  0.433200  0.755400  1.0  0.1442
  H  H77  1  0.383200  0.551800  0.796900  1.0  0.1107
  H  H78  1  0.556100  0.349000  0.931700  1.0  0.1244
  H  H79  1  0.280600  0.555800  0.920100  1.0  0.1118
  H  H80  1  0.439000  0.351100  0.047000  1.0  0.1109
  H  H81  1  0.038000  0.481200  0.089500  1.0  0.1296
  H  H82  1  0.291400  0.436500  0.291700  1.0  0.1402
  H  H83  1  0.921500  0.483600  0.200300  1.0  0.0795
  H  H84  1  0.164500  0.435500  0.395300  1.0  0.0871
  C  C85  1  0.333400  0.125900  0.831700  1.0  0.716
  C  C86  1  0.305400  0.173100  0.792000  1.0  -0.0863
  C  C87  1  0.361700  0.210100  0.836700  1.0  -0.0786
  C  C88  1  0.222500  0.181700  0.713300  1.0  -0.0231
  C  C89  1  0.333200  0.253800  0.801900  1.0  -0.1327
  C  C90  1  0.199400  0.224700  0.677000  1.0  -0.1203
  C  C91  1  0.254800  0.261500  0.719200  1.0  0.05
  C  C92  1  0.231100  0.309600  0.685300  1.0  -0.0162
  C  C93  1  0.296900  0.345500  0.725500  1.0  -0.1305
  C  C94  1  0.135800  0.320300  0.615600  1.0  -0.1163
  C  C95  1  0.271600  0.390500  0.694500  1.0  -0.0701
  C  C96  1  0.108800  0.365700  0.589100  1.0  -0.0509
  C  C97  1  0.176600  0.401200  0.628900  1.0  -0.1152
  C  C98  1  0.148300  0.450000  0.606700  1.0  0.6983
  C  C99  1  0.171200  0.045800  0.006600  1.0  0.1948
  C  C100  1  0.328800  0.059200  0.121900  1.0  0.1939
  C  C101  1  0.097700  0.047400  0.071200  1.0  -0.267
  C  C102  1  0.264300  0.061100  0.192200  1.0  -0.2787
  C  C103  1  0.145500  0.054300  0.165700  1.0  0.1796
  C  C104  1  0.077100  0.092400  0.297800  1.0  0.4283
  C  C105  1  0.014300  0.012700  0.248000  1.0  0.4589
  C  C106  1  0.947200  0.011300  0.326300  1.0  -0.1119
  C  C107  1  0.012500  0.089300  0.378400  1.0  -0.0394
  C  C108  1  0.949300  0.049100  0.388100  1.0  0.0072
  C  C109  1  0.884300  0.972900  0.338400  1.0  -0.039
  C  C110  1  0.011500  0.125200  0.437600  1.0  -0.083
  C  C111  1  0.822300  0.970600  0.412400  1.0  0.0049
  C  C112  1  0.942500  0.123400  0.508500  1.0  -0.0151
  C  C113  1  0.821500  0.006500  0.474100  1.0  -0.0537
  C  C114  1  0.881300  0.085600  0.522000  1.0  -0.0407
  C  C115  1  0.884100  0.047400  0.461200  1.0  0.0357
  C  C116  1  0.759500  0.003300  0.555400  1.0  0.461
  C  C117  1  0.807000  0.084900  0.594600  1.0  0.4916
  C  C118  1  0.677400  0.041700  0.678000  1.0  0.2136
  C  C119  1  0.566600  0.027700  0.652200  1.0  -0.233
  C  C120  1  0.715100  0.054500  0.770900  1.0  -0.2441
  C  C121  1  0.497000  0.026700  0.719200  1.0  0.1923
  C  C122  1  0.639000  0.054100  0.833100  1.0  0.1869
  C  C123  1  0.166600  0.625900  0.668300  1.0  0.7162
  C  C124  1  0.194600  0.673100  0.708000  1.0  -0.0864
  C  C125  1  0.138300  0.710100  0.663300  1.0  -0.078
  C  C126  1  0.277500  0.681700  0.786700  1.0  -0.0258
  C  C127  1  0.166800  0.753800  0.698100  1.0  -0.1316
  C  C128  1  0.300600  0.724700  0.823000  1.0  -0.1214
  C  C129  1  0.245200  0.761500  0.780800  1.0  0.0501
  C  C130  1  0.268900  0.809600  0.814700  1.0  -0.0168
  C  C131  1  0.203100  0.845500  0.774500  1.0  -0.1301
  C  C132  1  0.364200  0.820300  0.884400  1.0  -0.1164
  C  C133  1  0.228400  0.890500  0.805500  1.0  -0.0683
  C  C134  1  0.391200  0.865700  0.910900  1.0  -0.0514
  C  C135  1  0.323400  0.901200  0.871100  1.0  -0.1167
  C  C136  1  0.351700  0.950000  0.893300  1.0  0.6983
  C  C137  1  0.328800  0.545800  0.493400  1.0  0.1935
  C  C138  1  0.171200  0.559200  0.378100  1.0  0.1925
  C  C139  1  0.402300  0.547400  0.428800  1.0  -0.2656
  C  C140  1  0.235700  0.561100  0.307800  1.0  -0.2804
  C  C141  1  0.354500  0.554300  0.334300  1.0  0.1791
  C  C142  1  0.422900  0.592400  0.202200  1.0  0.4264
  C  C143  1  0.485700  0.512700  0.252000  1.0  0.4585
  C  C144  1  0.552800  0.511300  0.173700  1.0  -0.1119
  C  C145  1  0.487500  0.589300  0.121600  1.0  -0.0387
  C  C146  1  0.550700  0.549100  0.111900  1.0  0.0079
  C  C147  1  0.615700  0.472900  0.161600  1.0  -0.039
  C  C148  1  0.488500  0.625200  0.062400  1.0  -0.0831
  C  C149  1  0.677700  0.470600  0.087600  1.0  0.0031
  C  C150  1  0.557500  0.623400  0.991500  1.0  -0.017
  C  C151  1  0.678500  0.506500  0.025900  1.0  -0.0519
  C  C152  1  0.618700  0.585600  0.978000  1.0  -0.0437
  C  C153  1  0.615900  0.547400  0.038800  1.0  0.0363
  C  C154  1  0.740500  0.503300  0.944600  1.0  0.462
  C  C155  1  0.693000  0.584900  0.905400  1.0  0.4897
  C  C156  1  0.822600  0.541700  0.822000  1.0  0.2139
  C  C157  1  0.933400  0.527700  0.847800  1.0  -0.2334
  C  C158  1  0.784900  0.554500  0.729100  1.0  -0.2456
  C  C159  1  0.003000  0.526700  0.780800  1.0  0.1926
  C  C160  1  0.861000  0.554100  0.666900  1.0  0.1864
  C  C161  1  0.666667  0.874100  0.168300  1.0  0.7141
  C  C162  1  0.694600  0.826900  0.208000  1.0  -0.0866
  C  C163  1  0.638300  0.789900  0.163300  1.0  -0.0779
  C  C164  1  0.777500  0.818300  0.286700  1.0  -0.0257
  C  C165  1  0.666800  0.746200  0.198100  1.0  -0.132
  C  C166  1  0.800600  0.775300  0.323000  1.0  -0.1213
  C  C167  1  0.745200  0.738500  0.280800  1.0  0.0503
  C  C168  1  0.768900  0.690400  0.314700  1.0  -0.0157
  C  C169  1  0.703100  0.654500  0.274500  1.0  -0.1305
  C  C170  1  0.864200  0.679700  0.384400  1.0  -0.1162
  C  C171  1  0.728400  0.609500  0.305500  1.0  -0.0693
  C  C172  1  0.891200  0.634300  0.410900  1.0  -0.0512
  C  C173  1  0.823400  0.598800  0.371100  1.0  -0.1176
  C  C174  1  0.851700  0.550000  0.393300  1.0  0.6982
  C  C175  1  0.828800  0.954200  0.993400  1.0  0.1937
  C  C176  1  0.671200  0.940800  0.878100  1.0  0.1929
  C  C177  1  0.902300  0.952600  0.928800  1.0  -0.2648
  C  C178  1  0.735700  0.938900  0.807800  1.0  -0.2808
  C  C179  1  0.854500  0.945700  0.834300  1.0  0.18
  C  C180  1  0.922900  0.907600  0.702200  1.0  0.4274
  C  C181  1  0.985700  0.987300  0.752000  1.0  0.4574
  C  C182  1  0.052800  0.988700  0.673700  1.0  -0.1122
  C  C183  1  0.987500  0.910700  0.621600  1.0  -0.0394
  C  C184  1  0.050700  0.950900  0.611900  1.0  0.0082
  C  C185  1  0.115700  0.027100  0.661600  1.0  -0.0381
  C  C186  1  0.988500  0.874800  0.562400  1.0  -0.0832
  C  C187  1  0.177700  0.029400  0.587600  1.0  0.0029
  C  C188  1  0.057500  0.876600  0.491500  1.0  -0.0175
  C  C189  1  0.178500  0.993500  0.525900  1.0  -0.0516
  C  C190  1  0.118700  0.914400  0.478000  1.0  -0.0432
  C  C191  1  0.115900  0.952600  0.538800  1.0  0.0362
  C  C192  1  0.240500  0.996700  0.444600  1.0  0.4615
  C  C193  1  0.193000  0.915100  0.405400  1.0  0.4917
  C  C194  1  0.322600  0.958300  0.322000  1.0  0.2136
  C  C195  1  0.433400  0.972300  0.347800  1.0  -0.2325
  C  C196  1  0.284900  0.945500  0.229100  1.0  -0.2453
  C  C197  1  0.503000  0.973300  0.280800  1.0  0.1927
  C  C198  1  0.361000  0.945900  0.166900  1.0  0.1862
  C  C199  1  0.833400  0.374100  0.331700  1.0  0.715
  C  C200  1  0.805400  0.326900  0.292000  1.0  -0.0871
  C  C201  1  0.861700  0.289900  0.336700  1.0  -0.0786
  C  C202  1  0.722500  0.318300  0.213300  1.0  -0.0234
  C  C203  1  0.833200  0.246200  0.301900  1.0  -0.1333
  C  C204  1  0.699400  0.275300  0.177000  1.0  -0.1205
  C  C205  1  0.754800  0.238500  0.219200  1.0  0.0504
  C  C206  1  0.731100  0.190400  0.185300  1.0  -0.0153
  C  C207  1  0.796900  0.154500  0.225500  1.0  -0.1303
  C  C208  1  0.635800  0.179700  0.115600  1.0  -0.1159
  C  C209  1  0.771600  0.109500  0.194500  1.0  -0.0702
  C  C210  1  0.608800  0.134300  0.089100  1.0  -0.0516
  C  C211  1  0.676600  0.098800  0.128900  1.0  -0.1163
  C  C212  1  0.648300  0.050000  0.106700  1.0  0.6983
  C  C213  1  0.671200  0.454200  0.506600  1.0  0.1944
  C  C214  1  0.828800  0.440800  0.621900  1.0  0.1934
  C  C215  1  0.597700  0.452600  0.571200  1.0  -0.2674
  C  C216  1  0.764300  0.438900  0.692200  1.0  -0.2793
  C  C217  1  0.645500  0.445700  0.665700  1.0  0.1801
  C  C218  1  0.577100  0.407600  0.797800  1.0  0.4274
  C  C219  1  0.514300  0.487300  0.748000  1.0  0.4585
  C  C220  1  0.447200  0.488700  0.826300  1.0  -0.1117
  C  C221  1  0.512500  0.410700  0.878400  1.0  -0.0394
  C  C222  1  0.449300  0.450900  0.888100  1.0  0.0074
  C  C223  1  0.384300  0.527100  0.838400  1.0  -0.0387
  C  C224  1  0.511500  0.374800  0.937600  1.0  -0.0836
  C  C225  1  0.322300  0.529400  0.912400  1.0  0.0056
  C  C226  1  0.442500  0.376600  0.008500  1.0  -0.0162
  C  C227  1  0.321500  0.493500  0.974100  1.0  -0.0534
  C  C228  1  0.381300  0.414400  0.022000  1.0  -0.0408
  C  C229  1  0.384100  0.452600  0.961200  1.0  0.0356
  C  C230  1  0.259500  0.496700  0.055400  1.0  0.4604
  C  C231  1  0.307000  0.415100  0.094600  1.0  0.492
  C  C232  1  0.177400  0.458300  0.178000  1.0  0.2127
  C  C233  1  0.066600  0.472300  0.152200  1.0  -0.2327
  C  C234  1  0.215100  0.445500  0.270900  1.0  -0.2462
  C  C235  1  0.997000  0.473300  0.219200  1.0  0.1922
  C  C236  1  0.139000  0.445900  0.333100  1.0  0.1875
  N  N237  1  0.284700  0.051060  0.030900  1.0  -0.3267
  N  N238  1  0.075000  0.053340  0.238800  1.0  -0.2066
  N  N239  1  0.753100  0.042980  0.610000  1.0  -0.2102
  N  N240  1  0.530100  0.039600  0.808600  1.0  -0.3266
  N  N241  1  0.215300  0.551060  0.469100  1.0  -0.3256
  N  N242  1  0.425000  0.553340  0.261200  1.0  -0.2054
  N  N243  1  0.746900  0.542980  0.890000  1.0  -0.212
  N  N244  1  0.969900  0.539600  0.691400  1.0  -0.3256
  N  N245  1  0.715300  0.948940  0.969100  1.0  -0.326
  N  N246  1  0.925000  0.946660  0.761200  1.0  -0.2067
  N  N247  1  0.246900  0.957020  0.390000  1.0  -0.2124
  N  N248  1  0.469900  0.960400  0.191400  1.0  -0.3254
  N  N249  1  0.784700  0.448940  0.530900  1.0  -0.3273
  N  N250  1  0.575000  0.446660  0.738800  1.0  -0.2077
  N  N251  1  0.253100  0.457020  0.110000  1.0  -0.2105
  N  N252  1  0.030100  0.460400  0.308600  1.0  -0.327
  O  O253  1  0.278700  0.092500  0.794100  1.0  -0.6715
  O  O254  1  0.413000  0.122850  0.903600  1.0  -0.6063
  O  O255  1  0.061800  0.459490  0.542400  1.0  -0.696
  O  O256  1  0.209100  0.480540  0.650900  1.0  -0.5886
  O  O257  1  0.018600  0.981090  0.196300  1.0  -0.4694
  O  O258  1  0.128700  0.126100  0.282400  1.0  -0.4313
  O  O259  1  0.792100  0.117830  0.640300  1.0  -0.4353
  O  O260  1  0.717600  0.967730  0.576200  1.0  -0.4817
  O  O261  1  0.221300  0.592500  0.705900  1.0  -0.672
  O  O262  1  0.087000  0.622850  0.596400  1.0  -0.6055
  O  O263  1  0.438200  0.959490  0.957600  1.0  -0.6965
  O  O264  1  0.290900  0.980540  0.849100  1.0  -0.5892
  O  O265  1  0.481400  0.481090  0.303700  1.0  -0.4678
  O  O266  1  0.371300  0.626100  0.217600  1.0  -0.4311
  O  O267  1  0.707900  0.617830  0.859700  1.0  -0.4352
  O  O268  1  0.782400  0.467730  0.923800  1.0  -0.4821
  O  O269  1  0.721300  0.907500  0.205900  1.0  -0.6613
  O  O270  1  0.587000  0.877150  0.096400  1.0  -0.6065
  O  O271  1  0.938200  0.540510  0.457600  1.0  -0.6965
  O  O272  1  0.790900  0.519460  0.349100  1.0  -0.5893
  O  O273  1  0.981400  0.018910  0.803700  1.0  -0.4678
  O  O274  1  0.871300  0.873900  0.717600  1.0  -0.4321
  O  O275  1  0.207900  0.882170  0.359700  1.0  -0.4352
  O  O276  1  0.282400  0.032270  0.423800  1.0  -0.4818
  O  O277  1  0.778700  0.407500  0.294100  1.0  -0.6651
  O  O278  1  0.913000  0.377150  0.403600  1.0  -0.6058
  O  O279  1  0.561800  0.040510  0.042400  1.0  -0.6965
  O  O280  1  0.709100  0.019460  0.150900  1.0  -0.589
  O  O281  1  0.518600  0.518910  0.696300  1.0  -0.4688
  O  O282  1  0.628700  0.373900  0.782400  1.0  -0.4323
  O  O283  1  0.292100  0.382170  0.140300  1.0  -0.4342
  O  O284  1  0.217600  0.532270  0.076200  1.0  -0.4811
