# generated using pymatgen
data_CeH6(C2O)6
_symmetry_space_group_name_H-M   'P 1'
_cell_length_a   9.28500000
_cell_length_b   10.36980000
_cell_length_c   11.73500000
_cell_angle_alpha   96.80900000
_cell_angle_beta   93.26200000
_cell_angle_gamma   111.42700000
_symmetry_Int_Tables_number   1
_chemical_formula_structural   CeH6(C2O)6
_chemical_formula_sum   'Ce2 H12 C24 O12'
_cell_volume   1038.21965165
_cell_formula_units_Z   2
loop_
 _symmetry_equiv_pos_site_id
 _symmetry_equiv_pos_as_xyz
  1  'x, y, z'
loop_
 _atom_site_type_symbol
 _atom_site_label
 _atom_site_symmetry_multiplicity
 _atom_site_fract_x
 _atom_site_fract_y
 _atom_site_fract_z
 _atom_site_occupancy
 _atom_site_charge
  Ce  Ce1  1  0.029120  0.549660  0.181680  1.0  2.2143
  Ce  Ce2  1  0.970880  0.450340  0.818320  1.0  2.2167
  H  H3  1  0.867000  0.886900  0.822000  1.0  0.1057
  H  H4  1  0.064500  0.874700  0.131800  1.0  0.1014
  H  H5  1  0.486200  0.774500  0.505300  1.0  0.1097
  H  H6  1  0.326700  0.040800  0.373900  1.0  0.1073
  H  H7  1  0.561800  0.152700  0.171100  1.0  0.1093
  H  H8  1  0.607200  0.076000  0.835900  1.0  0.0869
  H  H9  1  0.133000  0.113100  0.178000  1.0  0.1061
  H  H10  1  0.935500  0.125300  0.868200  1.0  0.1008
  H  H11  1  0.513800  0.225500  0.494700  1.0  0.1099
  H  H12  1  0.673300  0.959200  0.626100  1.0  0.1077
  H  H13  1  0.438200  0.847300  0.828900  1.0  0.1093
  H  H14  1  0.392800  0.924000  0.164100  1.0  0.0866
  C  C15  1  0.923000  0.703400  0.935800  1.0  0.6988
  C  C16  1  0.958300  0.855000  0.971800  1.0  -0.1464
  C  C17  1  0.920600  0.932300  0.893700  1.0  -0.0509
  C  C18  1  0.038400  0.924600  0.078700  1.0  -0.0505
  C  C19  1  0.261200  0.768000  0.351600  1.0  0.6979
  C  C20  1  0.386400  0.889100  0.428300  1.0  -0.1467
  C  C21  1  0.491300  0.865400  0.503200  1.0  -0.0597
  C  C22  1  0.396000  0.023900  0.424800  1.0  -0.0318
  C  C23  1  0.716100  0.285300  0.007500  1.0  0.732
  C  C24  1  0.602900  0.139000  0.003800  1.0  -0.1383
  C  C25  1  0.537200  0.091500  0.101900  1.0  -0.0481
  C  C26  1  0.564400  0.046000  0.902400  1.0  -0.0227
  C  C27  1  0.077000  0.296600  0.064200  1.0  0.6984
  C  C28  1  0.041700  0.145000  0.028200  1.0  -0.1451
  C  C29  1  0.079400  0.067700  0.106300  1.0  -0.0511
  C  C30  1  0.961600  0.075400  0.921300  1.0  -0.0453
  C  C31  1  0.738800  0.232000  0.648400  1.0  0.6998
  C  C32  1  0.613600  0.110900  0.571700  1.0  -0.147
  C  C33  1  0.508700  0.134600  0.496800  1.0  -0.0596
  C  C34  1  0.604000  0.976100  0.575200  1.0  -0.0309
  C  C35  1  0.283900  0.714700  0.992500  1.0  0.7314
  C  C36  1  0.397100  0.861000  0.996200  1.0  -0.1389
  C  C37  1  0.462800  0.908500  0.898100  1.0  -0.049
  C  C38  1  0.435600  0.954000  0.097600  1.0  -0.0253
  O  O39  1  0.951000  0.632600  0.009400  1.0  -0.8361
  O  O40  1  0.872800  0.649100  0.833300  1.0  -0.6983
  O  O41  1  0.153900  0.791700  0.299100  1.0  -0.6588
  O  O42  1  0.270000  0.649700  0.339700  1.0  -0.6567
  O  O43  1  0.778600  0.352900  0.106600  1.0  -0.7147
  O  O44  1  0.740400  0.330900  0.913000  1.0  -0.7057
  O  O45  1  0.049000  0.367400  0.990600  1.0  -0.8338
  O  O46  1  0.127200  0.350900  0.166700  1.0  -0.7005
  O  O47  1  0.846100  0.208300  0.700900  1.0  -0.6593
  O  O48  1  0.730000  0.350300  0.660300  1.0  -0.6586
  O  O49  1  0.221400  0.647100  0.893400  1.0  -0.7124
  O  O50  1  0.259600  0.669100  0.087000  1.0  -0.7076
