# generated using pymatgen
data_FeH16(C12N5)2
_symmetry_space_group_name_H-M   'P 1'
_cell_length_a   16.13900000
_cell_length_b   18.09920000
_cell_length_c   18.09920000
_cell_angle_alpha   68.43970000
_cell_angle_beta   72.70860000
_cell_angle_gamma   107.29100000
_symmetry_Int_Tables_number   1
_chemical_formula_structural   FeH16(C12N5)2
_chemical_formula_sum   'Fe6 H96 C144 N60'
_cell_volume   4174.04967535
_cell_formula_units_Z   6
loop_
 _symmetry_equiv_pos_site_id
 _symmetry_equiv_pos_as_xyz
  1  'x, y, z'
loop_
 _atom_site_type_symbol
 _atom_site_label
 _atom_site_symmetry_multiplicity
 _atom_site_fract_x
 _atom_site_fract_y
 _atom_site_fract_z
 _atom_site_occupancy
 _atom_site_charge
  Fe  Fe1  1  0.500000  0.000000  0.500000  1.0  0.4302
  Fe  Fe2  1  0.000000  0.500000  0.500000  1.0  0.4302
  Fe  Fe3  1  0.500000  0.500000  0.000000  1.0  0.4302
  Fe  Fe4  1  0.500000  0.500000  0.500000  1.0  0.4302
  Fe  Fe5  1  0.000000  0.000000  0.500000  1.0  0.4302
  Fe  Fe6  1  0.000000  0.500000  0.000000  1.0  0.4302
  H  H7  1  0.290700  0.943200  0.792100  1.0  0.102
  H  H8  1  0.255200  0.061800  0.747200  1.0  0.1134
  H  H9  1  0.314900  0.155500  0.595800  1.0  0.1036
  H  H10  1  0.407900  0.129300  0.495800  1.0  0.0695
  H  H11  1  0.664400  0.315700  0.086700  1.0  0.0945
  H  H12  1  0.640400  0.422400  0.996300  1.0  0.0601
  H  H13  1  0.429200  0.384200  0.196600  1.0  0.065
  H  H14  1  0.449300  0.275700  0.292400  1.0  0.1021
  H  H15  1  0.082800  0.792100  0.264700  1.0  0.1012
  H  H16  1  0.002400  0.747200  0.191000  1.0  0.1142
  H  H17  1  0.910700  0.595800  0.248700  1.0  0.1038
  H  H18  1  0.903700  0.495800  0.374900  1.0  0.07
  H  H19  1  0.751100  0.086700  0.597600  1.0  0.093
  H  H20  1  0.636700  0.996300  0.581300  1.0  0.0611
  H  H21  1  0.625800  0.196600  0.419200  1.0  0.0646
  H  H22  1  0.741700  0.292400  0.431900  1.0  0.1022
  H  H23  1  0.347500  0.264700  0.943200  1.0  0.1031
  H  H24  1  0.193400  0.191000  0.061800  1.0  0.1142
  H  H25  1  0.159400  0.248700  0.155500  1.0  0.1034
  H  H26  1  0.278600  0.374900  0.129300  1.0  0.0697
  H  H27  1  0.348700  0.597600  0.315700  1.0  0.0933
  H  H28  1  0.218000  0.581300  0.422400  1.0  0.0611
  H  H29  1  0.045000  0.419200  0.384200  1.0  0.0653
  H  H30  1  0.173600  0.431900  0.275700  1.0  0.1017
  H  H31  1  0.709300  0.056800  0.207900  1.0  0.1023
  H  H32  1  0.744800  0.938200  0.252800  1.0  0.1134
  H  H33  1  0.685100  0.844500  0.404200  1.0  0.1038
  H  H34  1  0.592100  0.870700  0.504200  1.0  0.0703
  H  H35  1  0.335600  0.684300  0.913300  1.0  0.0945
  H  H36  1  0.359600  0.577600  0.003700  1.0  0.0598
  H  H37  1  0.570800  0.615800  0.803400  1.0  0.0653
  H  H38  1  0.550700  0.724300  0.707600  1.0  0.1023
  H  H39  1  0.917200  0.207900  0.735300  1.0  0.1015
  H  H40  1  0.997600  0.252800  0.809000  1.0  0.1146
  H  H41  1  0.089300  0.404200  0.751300  1.0  0.1033
  H  H42  1  0.096300  0.504200  0.625100  1.0  0.07
  H  H43  1  0.248900  0.913300  0.402400  1.0  0.0928
  H  H44  1  0.363300  0.003700  0.418700  1.0  0.0609
  H  H45  1  0.374200  0.803400  0.580800  1.0  0.0645
  H  H46  1  0.258300  0.707600  0.568100  1.0  0.1013
  H  H47  1  0.652500  0.735300  0.056800  1.0  0.1028
  H  H48  1  0.806600  0.809000  0.938200  1.0  0.1148
  H  H49  1  0.840600  0.751300  0.844500  1.0  0.1033
  H  H50  1  0.721400  0.625100  0.870700  1.0  0.0693
  H  H51  1  0.651300  0.402400  0.684300  1.0  0.0936
  H  H52  1  0.782000  0.418700  0.577600  1.0  0.0614
  H  H53  1  0.955000  0.580800  0.615800  1.0  0.0651
  H  H54  1  0.826400  0.568100  0.724300  1.0  0.1008
  H  H55  1  0.417200  0.264700  0.792100  1.0  0.1033
  H  H56  1  0.497600  0.191000  0.747200  1.0  0.1166
  H  H57  1  0.589300  0.248700  0.595800  1.0  0.1035
  H  H58  1  0.596300  0.374900  0.495800  1.0  0.0692
  H  H59  1  0.748900  0.597600  0.086700  1.0  0.094
  H  H60  1  0.863300  0.581300  0.996300  1.0  0.0613
  H  H61  1  0.874200  0.419200  0.196600  1.0  0.0655
  H  H62  1  0.758300  0.431900  0.292400  1.0  0.1011
  H  H63  1  0.152500  0.943200  0.264700  1.0  0.1027
  H  H64  1  0.306600  0.061800  0.191000  1.0  0.1141
  H  H65  1  0.340600  0.155500  0.248700  1.0  0.104
  H  H66  1  0.221400  0.129300  0.374900  1.0  0.0701
  H  H67  1  0.151300  0.315700  0.597600  1.0  0.095
  H  H68  1  0.282000  0.422400  0.581300  1.0  0.0597
  H  H69  1  0.455000  0.384200  0.419200  1.0  0.0652
  H  H70  1  0.326400  0.275700  0.431900  1.0  0.1025
  H  H71  1  0.209300  0.792100  0.943200  1.0  0.101
  H  H72  1  0.244800  0.747200  0.061800  1.0  0.1142
  H  H73  1  0.185100  0.595800  0.155500  1.0  0.1031
  H  H74  1  0.092100  0.495800  0.129300  1.0  0.0702
  H  H75  1  0.835600  0.086700  0.315700  1.0  0.0925
  H  H76  1  0.859600  0.996300  0.422400  1.0  0.0608
  H  H77  1  0.070800  0.196600  0.384200  1.0  0.0644
  H  H78  1  0.050700  0.292400  0.275700  1.0  0.1014
  H  H79  1  0.582800  0.735300  0.207900  1.0  0.1032
  H  H80  1  0.502400  0.809000  0.252800  1.0  0.1159
  H  H81  1  0.410700  0.751300  0.404200  1.0  0.1034
  H  H82  1  0.403700  0.625100  0.504200  1.0  0.0696
  H  H83  1  0.251100  0.402400  0.913300  1.0  0.0933
  H  H84  1  0.136700  0.418700  0.003700  1.0  0.0613
  H  H85  1  0.125800  0.580800  0.803400  1.0  0.0656
  H  H86  1  0.241700  0.568100  0.707600  1.0  0.1016
  H  H87  1  0.847500  0.056800  0.735300  1.0  0.1024
  H  H88  1  0.693400  0.938200  0.809000  1.0  0.1153
  H  H89  1  0.659400  0.844500  0.751300  1.0  0.1036
  H  H90  1  0.778600  0.870700  0.625100  1.0  0.0697
  H  H91  1  0.848700  0.684300  0.402400  1.0  0.0944
  H  H92  1  0.718000  0.577600  0.418700  1.0  0.0601
  H  H93  1  0.545000  0.615800  0.580800  1.0  0.0649
  H  H94  1  0.673600  0.724300  0.568100  1.0  0.1018
  H  H95  1  0.790700  0.207900  0.056800  1.0  0.1013
  H  H96  1  0.755200  0.252800  0.938200  1.0  0.1142
  H  H97  1  0.814900  0.404200  0.844500  1.0  0.1036
  H  H98  1  0.907900  0.504200  0.870700  1.0  0.0703
  H  H99  1  0.164400  0.913300  0.684300  1.0  0.0928
  H  H100  1  0.140400  0.003700  0.577600  1.0  0.0607
  H  H101  1  0.929200  0.803400  0.615800  1.0  0.0645
  H  H102  1  0.949300  0.707600  0.724300  1.0  0.1017
  C  C103  1  0.593600  0.096500  0.311200  1.0  0.2404
  C  C104  1  0.439200  0.798600  0.739000  1.0  0.3407
  C  C105  1  0.625600  0.028900  0.329400  1.0  0.1635
  C  C106  1  0.316000  0.982800  0.731500  1.0  -0.1259
  C  C107  1  0.293600  0.052500  0.705200  1.0  -0.1175
  C  C108  1  0.329100  0.107800  0.615900  1.0  -0.1386
  C  C109  1  0.385700  0.092400  0.556400  1.0  0.1737
  C  C110  1  0.444500  0.720900  0.799600  1.0  0.069
  C  C111  1  0.386400  0.672900  0.888400  1.0  -0.1845
  C  C112  1  0.400900  0.607900  0.942500  1.0  0.1589
  C  C113  1  0.477800  0.370200  0.172700  1.0  0.1592
  C  C114  1  0.488700  0.303600  0.231200  1.0  -0.1699
  C  C115  1  0.904800  0.311200  0.592300  1.0  0.2381
  C  C116  1  0.178200  0.739000  0.462400  1.0  0.3396
  C  C117  1  0.955000  0.329400  0.641700  1.0  0.1629
  C  C118  1  0.047500  0.731500  0.285700  1.0  -0.1209
  C  C119  1  0.998800  0.705200  0.242300  1.0  -0.1186
  C  C120  1  0.945000  0.615900  0.276300  1.0  -0.1373
  C  C121  1  0.942100  0.556400  0.351200  1.0  0.1705
  C  C122  1  0.244100  0.799600  0.479500  1.0  0.068
  C  C123  1  0.274800  0.888400  0.438700  1.0  -0.1835
  C  C124  1  0.343400  0.942500  0.449600  1.0  0.1629
  C  C125  1  0.650500  0.172700  0.457100  1.0  0.1622
  C  C126  1  0.719900  0.231200  0.465200  1.0  -0.1721
  C  C127  1  0.497100  0.592300  0.096500  1.0  0.2396
  C  C128  1  0.640600  0.462400  0.798600  1.0  0.3415
  C  C129  1  0.596700  0.641700  0.028900  1.0  0.1608
  C  C130  1  0.333200  0.285700  0.982800  1.0  -0.1277
  C  C131  1  0.241100  0.242300  0.052500  1.0  -0.1215
  C  C132  1  0.221300  0.276300  0.107800  1.0  -0.1388
  C  C133  1  0.293300  0.351200  0.092400  1.0  0.1715
  C  C134  1  0.723600  0.479500  0.720900  1.0  0.0688
  C  C135  1  0.713500  0.438700  0.672900  1.0  -0.1843
  C  C136  1  0.793000  0.449600  0.607900  1.0  0.161
  C  C137  1  0.107600  0.457100  0.370200  1.0  0.1602
  C  C138  1  0.185100  0.465200  0.303600  1.0  -0.171
  C  C139  1  0.406400  0.903500  0.688800  1.0  0.2399
  C  C140  1  0.560800  0.201400  0.261000  1.0  0.3406
  C  C141  1  0.374400  0.971100  0.670600  1.0  0.1607
  C  C142  1  0.684000  0.017200  0.268500  1.0  -0.1243
  C  C143  1  0.706400  0.947500  0.294800  1.0  -0.1158
  C  C144  1  0.670900  0.892200  0.384100  1.0  -0.1395
  C  C145  1  0.614300  0.907600  0.443600  1.0  0.1741
  C  C146  1  0.555500  0.279100  0.200400  1.0  0.069
  C  C147  1  0.613600  0.327100  0.111600  1.0  -0.1851
  C  C148  1  0.599100  0.392100  0.057500  1.0  0.1592
  C  C149  1  0.522200  0.629800  0.827300  1.0  0.1597
  C  C150  1  0.511300  0.696400  0.768800  1.0  -0.1704
  C  C151  1  0.095200  0.688800  0.407700  1.0  0.2398
  C  C152  1  0.821800  0.261000  0.537600  1.0  0.3389
  C  C153  1  0.045000  0.670600  0.358300  1.0  0.1603
  C  C154  1  0.952500  0.268500  0.714300  1.0  -0.1238
  C  C155  1  0.001200  0.294800  0.757700  1.0  -0.1141
  C  C156  1  0.055000  0.384100  0.723700  1.0  -0.1373
  C  C157  1  0.057900  0.443600  0.648800  1.0  0.1716
  C  C158  1  0.755900  0.200400  0.520500  1.0  0.0687
  C  C159  1  0.725200  0.111600  0.561300  1.0  -0.1841
  C  C160  1  0.656600  0.057500  0.550400  1.0  0.1627
  C  C161  1  0.349500  0.827300  0.542900  1.0  0.162
  C  C162  1  0.280100  0.768800  0.534800  1.0  -0.1725
  C  C163  1  0.502900  0.407700  0.903500  1.0  0.2392
  C  C164  1  0.359400  0.537600  0.201400  1.0  0.3416
  C  C165  1  0.403300  0.358300  0.971100  1.0  0.1589
  C  C166  1  0.666800  0.714300  0.017200  1.0  -0.1277
  C  C167  1  0.758900  0.757700  0.947500  1.0  -0.1143
  C  C168  1  0.778700  0.723700  0.892200  1.0  -0.1385
  C  C169  1  0.706700  0.648800  0.907600  1.0  0.171
  C  C170  1  0.276400  0.520500  0.279100  1.0  0.0682
  C  C171  1  0.286500  0.561300  0.327100  1.0  -0.185
  C  C172  1  0.207000  0.550400  0.392100  1.0  0.1615
  C  C173  1  0.892400  0.542900  0.629800  1.0  0.1599
  C  C174  1  0.814900  0.534800  0.696400  1.0  -0.1728
  C  C175  1  0.595200  0.592300  0.311200  1.0  0.241
  C  C176  1  0.321800  0.462400  0.739000  1.0  0.3413
  C  C177  1  0.545000  0.641700  0.329400  1.0  0.1606
  C  C178  1  0.452500  0.285700  0.731500  1.0  -0.1255
  C  C179  1  0.501200  0.242300  0.705200  1.0  -0.122
  C  C180  1  0.555000  0.276300  0.615900  1.0  -0.1381
  C  C181  1  0.557900  0.351200  0.556400  1.0  0.17
  C  C182  1  0.255900  0.479500  0.799600  1.0  0.0684
  C  C183  1  0.225200  0.438700  0.888400  1.0  -0.1849
  C  C184  1  0.156600  0.449600  0.942500  1.0  0.1616
  C  C185  1  0.849500  0.457100  0.172700  1.0  0.1604
  C  C186  1  0.780100  0.465200  0.231200  1.0  -0.1701
  C  C187  1  0.002900  0.096500  0.592300  1.0  0.2409
  C  C188  1  0.859400  0.798600  0.462400  1.0  0.3403
  C  C189  1  0.903300  0.028900  0.641700  1.0  0.1625
  C  C190  1  0.166800  0.982800  0.285700  1.0  -0.1247
  C  C191  1  0.258900  0.052500  0.242300  1.0  -0.1203
  C  C192  1  0.278700  0.107800  0.276300  1.0  -0.139
  C  C193  1  0.206700  0.092400  0.351200  1.0  0.1725
  C  C194  1  0.776400  0.720900  0.479500  1.0  0.07
  C  C195  1  0.786500  0.672900  0.438700  1.0  -0.184
  C  C196  1  0.707000  0.607900  0.449600  1.0  0.1588
  C  C197  1  0.392400  0.370200  0.457100  1.0  0.1595
  C  C198  1  0.314900  0.303600  0.465200  1.0  -0.1693
  C  C199  1  0.906400  0.311200  0.096500  1.0  0.2396
  C  C200  1  0.060800  0.739000  0.798600  1.0  0.3397
  C  C201  1  0.874400  0.329400  0.028900  1.0  0.1621
  C  C202  1  0.184000  0.731500  0.982800  1.0  -0.1224
  C  C203  1  0.206400  0.705200  0.052500  1.0  -0.1168
  C  C204  1  0.170900  0.615900  0.107800  1.0  -0.1379
  C  C205  1  0.114300  0.556400  0.092400  1.0  0.1708
  C  C206  1  0.055500  0.799600  0.720900  1.0  0.0694
  C  C207  1  0.113600  0.888400  0.672900  1.0  -0.1841
  C  C208  1  0.099100  0.942500  0.607900  1.0  0.1635
  C  C209  1  0.022200  0.172700  0.370200  1.0  0.1622
  C  C210  1  0.011300  0.231200  0.303600  1.0  -0.1719
  C  C211  1  0.404800  0.407700  0.688800  1.0  0.2395
  C  C212  1  0.678200  0.537600  0.261000  1.0  0.3417
  C  C213  1  0.455000  0.358300  0.670600  1.0  0.1589
  C  C214  1  0.547500  0.714300  0.268500  1.0  -0.1282
  C  C215  1  0.498800  0.757700  0.294800  1.0  -0.1142
  C  C216  1  0.445000  0.723700  0.384100  1.0  -0.14
  C  C217  1  0.442100  0.648800  0.443600  1.0  0.1723
  C  C218  1  0.744100  0.520500  0.200400  1.0  0.0688
  C  C219  1  0.774800  0.561300  0.111600  1.0  -0.1845
  C  C220  1  0.843400  0.550400  0.057500  1.0  0.1615
  C  C221  1  0.150500  0.542900  0.827300  1.0  0.1599
  C  C222  1  0.219900  0.534800  0.768800  1.0  -0.1726
  C  C223  1  0.997100  0.903500  0.407700  1.0  0.2402
  C  C224  1  0.140600  0.201400  0.537600  1.0  0.3406
  C  C225  1  0.096700  0.971100  0.358300  1.0  0.1612
  C  C226  1  0.833200  0.017200  0.714300  1.0  -0.1264
  C  C227  1  0.741100  0.947500  0.757700  1.0  -0.1128
  C  C228  1  0.721300  0.892200  0.723700  1.0  -0.1391
  C  C229  1  0.793300  0.907600  0.648800  1.0  0.1741
  C  C230  1  0.223600  0.279100  0.520500  1.0  0.0671
  C  C231  1  0.213500  0.327100  0.561300  1.0  -0.1849
  C  C232  1  0.293000  0.392100  0.550400  1.0  0.1594
  C  C233  1  0.607600  0.629800  0.542900  1.0  0.1596
  C  C234  1  0.685100  0.696400  0.534800  1.0  -0.1713
  C  C235  1  0.093600  0.688800  0.903500  1.0  0.2382
  C  C236  1  0.939200  0.261000  0.201400  1.0  0.3388
  C  C237  1  0.125600  0.670600  0.971100  1.0  0.161
  C  C238  1  0.816000  0.268500  0.017200  1.0  -0.1243
  C  C239  1  0.793600  0.294800  0.947500  1.0  -0.1154
  C  C240  1  0.829100  0.384100  0.892200  1.0  -0.1362
  C  C241  1  0.885700  0.443600  0.907600  1.0  0.1711
  C  C242  1  0.944500  0.200400  0.279100  1.0  0.0683
  C  C243  1  0.886400  0.111600  0.327100  1.0  -0.1841
  C  C244  1  0.900900  0.057500  0.392100  1.0  0.1623
  C  C245  1  0.977800  0.827300  0.629800  1.0  0.1614
  C  C246  1  0.988700  0.768800  0.696400  1.0  -0.1729
  N  N247  1  0.468630  0.905630  0.617040  1.0  -0.1373
  N  N248  1  0.488710  0.837130  0.651500  1.0  -0.3338
  N  N249  1  0.613570  0.163240  0.233430  1.0  -0.4947
  N  N250  1  0.589300  0.973850  0.418350  1.0  -0.2257
  N  N251  1  0.468200  0.584670  0.915370  1.0  -0.2986
  N  N252  1  0.085670  0.617040  0.477330  1.0  -0.1388
  N  N253  1  0.140210  0.651500  0.511370  1.0  -0.3323
  N  N254  1  0.847000  0.233430  0.603330  1.0  -0.4959
  N  N255  1  0.007650  0.418350  0.607800  1.0  -0.2255
  N  N256  1  0.383570  0.915370  0.499960  1.0  -0.2979
  N  N257  1  0.563000  0.477330  0.905630  1.0  -0.1405
  N  N258  1  0.651580  0.511370  0.837130  1.0  -0.3345
  N  N259  1  0.450330  0.603330  0.163240  1.0  -0.498
  N  N260  1  0.615450  0.607800  0.973850  1.0  -0.2253
  N  N261  1  0.883530  0.499960  0.584670  1.0  -0.2987
  N  N262  1  0.531370  0.094370  0.382960  1.0  -0.1385
  N  N263  1  0.511290  0.162870  0.348500  1.0  -0.3357
  N  N264  1  0.386430  0.836760  0.766570  1.0  -0.4976
  N  N265  1  0.410700  0.026150  0.581650  1.0  -0.2244
  N  N266  1  0.531800  0.415330  0.084630  1.0  -0.2982
  N  N267  1  0.914330  0.382960  0.522670  1.0  -0.138
  N  N268  1  0.859790  0.348500  0.488630  1.0  -0.3347
  N  N269  1  0.153000  0.766570  0.396670  1.0  -0.4975
  N  N270  1  0.992350  0.581650  0.392200  1.0  -0.2256
  N  N271  1  0.616430  0.084630  0.500040  1.0  -0.2985
  N  N272  1  0.437000  0.522670  0.094370  1.0  -0.1378
  N  N273  1  0.348420  0.488630  0.162870  1.0  -0.3323
  N  N274  1  0.549670  0.396670  0.836760  1.0  -0.4978
  N  N275  1  0.384550  0.392200  0.026150  1.0  -0.2254
  N  N276  1  0.116470  0.500040  0.415330  1.0  -0.3
  N  N277  1  0.414330  0.477330  0.617040  1.0  -0.1376
  N  N278  1  0.359790  0.511370  0.651500  1.0  -0.3346
  N  N279  1  0.653000  0.603330  0.233430  1.0  -0.4978
  N  N280  1  0.492350  0.607800  0.418350  1.0  -0.2253
  N  N281  1  0.116430  0.499960  0.915370  1.0  -0.2998
  N  N282  1  0.937000  0.905630  0.477330  1.0  -0.1387
  N  N283  1  0.848420  0.837130  0.511370  1.0  -0.3357
  N  N284  1  0.049670  0.163240  0.603330  1.0  -0.4975
  N  N285  1  0.884550  0.973850  0.607800  1.0  -0.2251
  N  N286  1  0.616470  0.584670  0.499960  1.0  -0.2986
  N  N287  1  0.031370  0.617040  0.905630  1.0  -0.1384
  N  N288  1  0.011290  0.651500  0.837130  1.0  -0.3359
  N  N289  1  0.886430  0.233430  0.163240  1.0  -0.4977
  N  N290  1  0.910700  0.418350  0.973850  1.0  -0.2265
  N  N291  1  0.031800  0.915370  0.584670  1.0  -0.2986
  N  N292  1  0.585670  0.522670  0.382960  1.0  -0.1405
  N  N293  1  0.640210  0.488630  0.348500  1.0  -0.3324
  N  N294  1  0.347000  0.396670  0.766570  1.0  -0.4974
  N  N295  1  0.507650  0.392200  0.581650  1.0  -0.2252
  N  N296  1  0.883570  0.500040  0.084630  1.0  -0.2987
  N  N297  1  0.063000  0.094370  0.522670  1.0  -0.1373
  N  N298  1  0.151580  0.162870  0.488630  1.0  -0.3337
  N  N299  1  0.950330  0.836760  0.396670  1.0  -0.4963
  N  N300  1  0.115450  0.026150  0.392200  1.0  -0.2247
  N  N301  1  0.383530  0.415330  0.500040  1.0  -0.2984
  N  N302  1  0.968630  0.382960  0.094370  1.0  -0.1381
  N  N303  1  0.988710  0.348500  0.162870  1.0  -0.3316
  N  N304  1  0.113570  0.766570  0.836760  1.0  -0.4976
  N  N305  1  0.089300  0.581650  0.026150  1.0  -0.2249
  N  N306  1  0.968200  0.084630  0.415330  1.0  -0.298
