# generated using pymatgen
data_FeH16(C12N5)2
_symmetry_space_group_name_H-M   'P 1'
_cell_length_a   9.08790000
_cell_length_b   16.33720000
_cell_length_c   16.33720000
_cell_angle_alpha   63.35720000
_cell_angle_beta   79.31410000
_cell_angle_gamma   100.68600000
_symmetry_Int_Tables_number   1
_chemical_formula_structural   FeH16(C12N5)2
_chemical_formula_sum   'Fe3 H48 C72 N30'
_cell_volume   2028.40279667
_cell_formula_units_Z   3
loop_
 _symmetry_equiv_pos_site_id
 _symmetry_equiv_pos_as_xyz
  1  'x, y, z'
loop_
 _atom_site_type_symbol
 _atom_site_label
 _atom_site_symmetry_multiplicity
 _atom_site_fract_x
 _atom_site_fract_y
 _atom_site_fract_z
 _atom_site_occupancy
 _atom_site_charge
  Fe  Fe1  1  0.500000  0.500000  0.500000  1.0  0.3597
  Fe  Fe2  1  0.000000  0.500000  0.000000  1.0  0.3597
  Fe  Fe3  1  0.000000  0.000000  0.500000  1.0  0.3597
  H  H4  1  0.601600  0.724800  0.405200  1.0  0.0935
  H  H5  1  0.834700  0.849100  0.314400  1.0  0.0889
  H  H6  1  0.062100  0.818100  0.266300  1.0  0.1009
  H  H7  1  0.060400  0.659900  0.321100  1.0  0.1124
  H  H8  1  0.695900  0.175800  0.603500  1.0  0.1049
  H  H9  1  0.770900  0.048600  0.611900  1.0  0.0683
  H  H10  1  0.142200  0.216400  0.390600  1.0  0.0648
  H  H11  1  0.078300  0.350200  0.379200  1.0  0.0934
  H  H12  1  0.006800  0.405200  0.870000  1.0  0.092
  H  H13  1  0.149100  0.314400  0.836500  1.0  0.0894
  H  H14  1  0.328400  0.266300  0.915600  1.0  0.1005
  H  H15  1  0.381500  0.321100  0.019000  1.0  0.1106
  H  H16  1  0.299400  0.603500  0.220700  1.0  0.1051
  H  H17  1  0.382800  0.611900  0.339500  1.0  0.067
  H  H18  1  0.532800  0.390600  0.393000  1.0  0.0653
  H  H19  1  0.457500  0.379200  0.270600  1.0  0.0921
  H  H20  1  0.876800  0.870000  0.724800  1.0  0.094
  H  H21  1  0.985600  0.836500  0.849100  1.0  0.0874
  H  H22  1  0.244000  0.915600  0.818100  1.0  0.1045
  H  H23  1  0.400500  0.019000  0.659900  1.0  0.1116
  H  H24  1  0.520100  0.220700  0.175800  1.0  0.1051
  H  H25  1  0.722300  0.339500  0.048600  1.0  0.0667
  H  H26  1  0.925800  0.393000  0.216400  1.0  0.0648
  H  H27  1  0.728100  0.270600  0.350200  1.0  0.0923
  H  H28  1  0.398400  0.275200  0.594800  1.0  0.0937
  H  H29  1  0.165300  0.150900  0.685600  1.0  0.088
  H  H30  1  0.937900  0.181900  0.733700  1.0  0.1016
  H  H31  1  0.939600  0.340100  0.678900  1.0  0.114
  H  H32  1  0.304100  0.824200  0.396500  1.0  0.1052
  H  H33  1  0.229100  0.951400  0.388100  1.0  0.0672
  H  H34  1  0.857800  0.783600  0.609400  1.0  0.0649
  H  H35  1  0.921700  0.649800  0.620800  1.0  0.0929
  H  H36  1  0.993200  0.594800  0.130000  1.0  0.0918
  H  H37  1  0.850900  0.685600  0.163500  1.0  0.088
  H  H38  1  0.671600  0.733700  0.084400  1.0  0.1008
  H  H39  1  0.618500  0.678900  0.981000  1.0  0.1106
  H  H40  1  0.700600  0.396500  0.779300  1.0  0.1057
  H  H41  1  0.617200  0.388100  0.660500  1.0  0.067
  H  H42  1  0.467200  0.609400  0.607000  1.0  0.0654
  H  H43  1  0.542500  0.620800  0.729400  1.0  0.0916
  H  H44  1  0.123200  0.130000  0.275200  1.0  0.0934
  H  H45  1  0.014400  0.163500  0.150900  1.0  0.0872
  H  H46  1  0.756000  0.084400  0.181900  1.0  0.1049
  H  H47  1  0.599500  0.981000  0.340100  1.0  0.1114
  H  H48  1  0.479900  0.779300  0.824200  1.0  0.1056
  H  H49  1  0.277700  0.660500  0.951400  1.0  0.0669
  H  H50  1  0.074200  0.607000  0.783600  1.0  0.0647
  H  H51  1  0.271900  0.729400  0.649800  1.0  0.093
  C  C52  1  0.693660  0.711320  0.387940  1.0  0.136
  C  C53  1  0.833600  0.786200  0.332800  1.0  -0.1173
  C  C54  1  0.969500  0.767700  0.305600  1.0  -0.1065
  C  C55  1  0.968400  0.674300  0.336400  1.0  -0.1032
  C  C56  1  0.825850  0.601640  0.391390  1.0  0.1384
  C  C57  1  0.807360  0.498950  0.431470  1.0  0.2578
  C  C58  1  0.824140  0.362520  0.476600  1.0  0.3195
  C  C59  1  0.877350  0.279150  0.488000  1.0  0.0303
  C  C60  1  0.787290  0.185960  0.558790  1.0  -0.1675
  C  C61  1  0.832240  0.110030  0.562810  1.0  0.1569
  C  C62  1  0.050220  0.208140  0.433580  1.0  0.1564
  C  C63  1  0.012120  0.289240  0.426180  1.0  -0.1209
  C  C64  1  0.081600  0.387940  0.900740  1.0  0.1394
  C  C65  1  0.166400  0.332800  0.881000  1.0  -0.1153
  C  C66  1  0.275100  0.305600  0.926700  1.0  -0.1068
  C  C67  1  0.304800  0.336400  0.989300  1.0  -0.1
  C  C68  1  0.217240  0.391390  0.006970  1.0  0.1384
  C  C69  1  0.238830  0.431470  0.069580  1.0  0.2585
  C  C70  1  0.300740  0.476600  0.160880  1.0  0.3187
  C  C71  1  0.365350  0.488000  0.232850  1.0  0.0354
  C  C72  1  0.346080  0.558790  0.255250  1.0  -0.1672
  C  C73  1  0.395050  0.562810  0.327160  1.0  0.1561
  C  C74  1  0.483800  0.433580  0.358280  1.0  0.1556
  C  C75  1  0.438300  0.426180  0.284580  1.0  -0.1221
  C  C76  1  0.982340  0.900740  0.711320  1.0  0.1409
  C  C77  1  0.047400  0.881000  0.786200  1.0  -0.1192
  C  C78  1  0.201800  0.926700  0.767700  1.0  -0.1045
  C  C79  1  0.294100  0.989300  0.674300  1.0  -0.1033
  C  C80  1  0.224210  0.006970  0.601640  1.0  0.1383
  C  C81  1  0.308410  0.069580  0.498950  1.0  0.2568
  C  C82  1  0.461620  0.160880  0.362520  1.0  0.319
  C  C83  1  0.598200  0.232850  0.279150  1.0  0.0322
  C  C84  1  0.601330  0.255250  0.185960  1.0  -0.1662
  C  C85  1  0.722210  0.327160  0.110030  1.0  0.1567
  C  C86  1  0.842080  0.358280  0.208140  1.0  0.1572
  C  C87  1  0.722880  0.284580  0.289240  1.0  -0.1185
  C  C88  1  0.306340  0.288680  0.612060  1.0  0.1364
  C  C89  1  0.166400  0.213800  0.667200  1.0  -0.1185
  C  C90  1  0.030500  0.232300  0.694400  1.0  -0.1094
  C  C91  1  0.031600  0.325700  0.663600  1.0  -0.1016
  C  C92  1  0.174150  0.398360  0.608610  1.0  0.1377
  C  C93  1  0.192640  0.501050  0.568530  1.0  0.2562
  C  C94  1  0.175860  0.637480  0.523400  1.0  0.3192
  C  C95  1  0.122650  0.720850  0.512000  1.0  0.0303
  C  C96  1  0.212710  0.814040  0.441210  1.0  -0.1666
  C  C97  1  0.167760  0.889970  0.437190  1.0  0.1558
  C  C98  1  0.949780  0.791860  0.566420  1.0  0.1568
  C  C99  1  0.987880  0.710760  0.573820  1.0  -0.1213
  C  C100  1  0.918400  0.612060  0.099260  1.0  0.1389
  C  C101  1  0.833600  0.667200  0.119000  1.0  -0.1144
  C  C102  1  0.724900  0.694400  0.073300  1.0  -0.1063
  C  C103  1  0.695200  0.663600  0.010700  1.0  -0.1003
  C  C104  1  0.782760  0.608610  0.993030  1.0  0.1389
  C  C105  1  0.761170  0.568530  0.930420  1.0  0.2564
  C  C106  1  0.699260  0.523400  0.839120  1.0  0.3194
  C  C107  1  0.634650  0.512000  0.767150  1.0  0.0328
  C  C108  1  0.653920  0.441210  0.744750  1.0  -0.1688
  C  C109  1  0.604950  0.437190  0.672840  1.0  0.1568
  C  C110  1  0.516200  0.566420  0.641720  1.0  0.1567
  C  C111  1  0.561700  0.573820  0.715420  1.0  -0.1208
  C  C112  1  0.017660  0.099260  0.288680  1.0  0.1389
  C  C113  1  0.952600  0.119000  0.213800  1.0  -0.1183
  C  C114  1  0.798200  0.073300  0.232300  1.0  -0.1073
  C  C115  1  0.705900  0.010700  0.325700  1.0  -0.1007
  C  C116  1  0.775790  0.993030  0.398360  1.0  0.1384
  C  C117  1  0.691590  0.930420  0.501050  1.0  0.2567
  C  C118  1  0.538380  0.839120  0.637480  1.0  0.3183
  C  C119  1  0.401800  0.767150  0.720850  1.0  0.0322
  C  C120  1  0.398670  0.744750  0.814040  1.0  -0.1679
  C  C121  1  0.277790  0.672840  0.889970  1.0  0.1569
  C  C122  1  0.157920  0.641720  0.791860  1.0  0.1572
  C  C123  1  0.277120  0.715420  0.710760  1.0  -0.1182
  N  N124  1  0.689330  0.618700  0.417210  1.0  -0.2468
  N  N125  1  0.665860  0.440030  0.489850  1.0  -0.082
  N  N126  1  0.674450  0.348630  0.521780  1.0  -0.4066
  N  N127  1  0.913500  0.455280  0.419480  1.0  -0.4845
  N  N128  1  0.960220  0.118530  0.499970  1.0  -0.2725
  N  N129  1  0.106540  0.417210  0.964090  1.0  -0.2465
  N  N130  1  0.155710  0.489850  0.070120  1.0  -0.0806
  N  N131  1  0.196230  0.521780  0.129590  1.0  -0.4076
  N  N132  1  0.332980  0.419480  0.125240  1.0  -0.484
  N  N133  1  0.460190  0.499970  0.381500  1.0  -0.2728
  N  N134  1  0.070630  0.964090  0.618700  1.0  -0.2459
  N  N135  1  0.225830  0.070120  0.440030  1.0  -0.0786
  N  N136  1  0.325820  0.129590  0.348630  1.0  -0.4072
  N  N137  1  0.458220  0.125240  0.455280  1.0  -0.4858
  N  N138  1  0.841690  0.381500  0.118530  1.0  -0.2716
  N  N139  1  0.310670  0.381300  0.582790  1.0  -0.2478
  N  N140  1  0.334140  0.559970  0.510150  1.0  -0.0802
  N  N141  1  0.325550  0.651370  0.478220  1.0  -0.4076
  N  N142  1  0.086500  0.544720  0.580520  1.0  -0.4821
  N  N143  1  0.039780  0.881470  0.500030  1.0  -0.2746
  N  N144  1  0.893460  0.582790  0.035910  1.0  -0.2462
  N  N145  1  0.844290  0.510150  0.929880  1.0  -0.0786
  N  N146  1  0.803770  0.478220  0.870410  1.0  -0.4061
  N  N147  1  0.667020  0.580520  0.874760  1.0  -0.4829
  N  N148  1  0.539810  0.500030  0.618500  1.0  -0.2727
  N  N149  1  0.929370  0.035910  0.381300  1.0  -0.2458
  N  N150  1  0.774170  0.929880  0.559970  1.0  -0.0769
  N  N151  1  0.674180  0.870410  0.651370  1.0  -0.4063
  N  N152  1  0.541780  0.874760  0.544720  1.0  -0.4856
  N  N153  1  0.158310  0.618500  0.881470  1.0  -0.2737
