# generated using pymatgen
data_FeH16(C12N5)2
_symmetry_space_group_name_H-M   'P 1'
_cell_length_a   8.93710000
_cell_length_b   16.21550000
_cell_length_c   16.21550000
_cell_angle_alpha   63.29650000
_cell_angle_beta   79.41380000
_cell_angle_gamma   100.58600000
_symmetry_Int_Tables_number   1
_chemical_formula_structural   FeH16(C12N5)2
_chemical_formula_sum   'Fe3 H48 C72 N30'
_cell_volume   1966.42547741
_cell_formula_units_Z   3
loop_
 _symmetry_equiv_pos_site_id
 _symmetry_equiv_pos_as_xyz
  1  'x, y, z'
loop_
 _atom_site_type_symbol
 _atom_site_label
 _atom_site_symmetry_multiplicity
 _atom_site_fract_x
 _atom_site_fract_y
 _atom_site_fract_z
 _atom_site_occupancy
 _atom_site_charge
  Fe  Fe1  1  0.500000  0.000000  0.500000  1.0  0.1027
  Fe  Fe2  1  0.000000  0.500000  0.500000  1.0  0.1027
  Fe  Fe3  1  0.500000  0.500000  0.000000  1.0  0.1027
  H  H4  1  0.098700  0.980500  0.336500  1.0  0.1232
  H  H5  1  0.257800  0.087900  0.175400  1.0  0.1084
  H  H6  1  0.526000  0.164500  0.145800  1.0  0.1056
  H  H7  1  0.629700  0.131300  0.274000  1.0  0.0787
  H  H8  1  0.763700  0.727400  0.648300  1.0  0.1167
  H  H9  1  0.570800  0.603100  0.782300  1.0  0.0799
  H  H10  1  0.770500  0.664600  0.952700  1.0  0.0819
  H  H11  1  0.975000  0.786400  0.823100  1.0  0.1168
  H  H12  1  0.435200  0.336500  0.683000  1.0  0.1249
  H  H13  1  0.433200  0.175400  0.736700  1.0  0.1074
  H  H14  1  0.671800  0.145800  0.689700  1.0  0.1072
  H  H15  1  0.903700  0.274000  0.594700  1.0  0.0794
  H  H16  1  0.412000  0.648300  0.624300  1.0  0.1171
  H  H17  1  0.353100  0.782300  0.614600  1.0  0.0804
  H  H18  1  0.723200  0.952700  0.382700  1.0  0.0825
  H  H19  1  0.798100  0.823100  0.390500  1.0  0.1168
  H  H20  1  0.118200  0.683000  0.980500  1.0  0.1226
  H  H21  1  0.169900  0.736700  0.087900  1.0  0.1087
  H  H22  1  0.361500  0.689700  0.164500  1.0  0.1054
  H  H23  1  0.498400  0.594700  0.131300  1.0  0.0774
  H  H24  1  0.036300  0.624300  0.727400  1.0  0.1163
  H  H25  1  0.967700  0.614600  0.603100  1.0  0.0808
  H  H26  1  0.105900  0.382700  0.664600  1.0  0.0822
  H  H27  1  0.188600  0.390500  0.786400  1.0  0.1172
  H  H28  1  0.901300  0.019500  0.663500  1.0  0.1231
  H  H29  1  0.742200  0.912100  0.824600  1.0  0.1086
  H  H30  1  0.474000  0.835500  0.854200  1.0  0.1053
  H  H31  1  0.370300  0.868700  0.726000  1.0  0.0784
  H  H32  1  0.236300  0.272600  0.351700  1.0  0.1162
  H  H33  1  0.429200  0.396900  0.217700  1.0  0.0807
  H  H34  1  0.229500  0.335400  0.047300  1.0  0.0823
  H  H35  1  0.025000  0.213600  0.176900  1.0  0.1161
  H  H36  1  0.564800  0.663500  0.317000  1.0  0.1241
  H  H37  1  0.566800  0.824600  0.263300  1.0  0.106
  H  H38  1  0.328200  0.854200  0.310300  1.0  0.1062
  H  H39  1  0.096300  0.726000  0.405300  1.0  0.0784
  H  H40  1  0.588000  0.351700  0.375700  1.0  0.1175
  H  H41  1  0.646900  0.217700  0.385400  1.0  0.0801
  H  H42  1  0.276800  0.047300  0.617300  1.0  0.083
  H  H43  1  0.201900  0.176900  0.609500  1.0  0.1166
  H  H44  1  0.881800  0.317000  0.019500  1.0  0.1227
  H  H45  1  0.830100  0.263300  0.912100  1.0  0.1076
  H  H46  1  0.638500  0.310300  0.835500  1.0  0.1056
  H  H47  1  0.501600  0.405300  0.868700  1.0  0.0771
  H  H48  1  0.963700  0.375700  0.272600  1.0  0.1165
  H  H49  1  0.032300  0.385400  0.396900  1.0  0.0812
  H  H50  1  0.894100  0.617300  0.335400  1.0  0.0829
  H  H51  1  0.811400  0.609500  0.213600  1.0  0.1172
  C  C52  1  0.189900  0.932700  0.497800  1.0  0.2283
  C  C53  1  0.033100  0.841600  0.636500  1.0  0.3414
  C  C54  1  0.274300  0.994600  0.396200  1.0  0.1351
  C  C55  1  0.208400  0.012000  0.322400  1.0  -0.1405
  C  C56  1  0.301600  0.075400  0.227400  1.0  -0.0399
  C  C57  1  0.459300  0.120000  0.210200  1.0  -0.1745
  C  C58  1  0.520600  0.099900  0.287000  1.0  0.1317
  C  C59  1  0.896800  0.770400  0.719200  1.0  0.0318
  C  C60  1  0.769900  0.714100  0.710600  1.0  -0.164
  C  C61  1  0.655000  0.640500  0.790900  1.0  0.1008
  C  C62  1  0.771600  0.675600  0.889900  1.0  0.1131
  C  C63  1  0.892800  0.749200  0.812900  1.0  -0.1857
  C  C64  1  0.687700  0.497800  0.569500  1.0  0.2286
  C  C65  1  0.669600  0.636500  0.521900  1.0  0.3416
  C  C66  1  0.670500  0.396200  0.609200  1.0  0.1346
  C  C67  1  0.530800  0.322400  0.665600  1.0  -0.1441
  C  C68  1  0.529000  0.227400  0.697200  1.0  -0.0443
  C  C69  1  0.669500  0.210200  0.669800  1.0  -0.1744
  C  C70  1  0.807600  0.287000  0.613100  1.0  0.1301
  C  C71  1  0.616000  0.719200  0.510400  1.0  0.0306
  C  C72  1  0.480500  0.710600  0.575300  1.0  -0.1655
  C  C73  1  0.445900  0.790900  0.568600  1.0  0.101
  C  C74  1  0.661500  0.889900  0.434500  1.0  0.1132
  C  C75  1  0.705700  0.812900  0.437900  1.0  -0.1864
  C  C76  1  0.257200  0.569500  0.932700  1.0  0.2296
  C  C77  1  0.191500  0.521900  0.841600  1.0  0.3418
  C  C78  1  0.279700  0.609200  0.994600  1.0  0.1353
  C  C79  1  0.196400  0.665600  0.012000  1.0  -0.1393
  C  C80  1  0.226200  0.697200  0.075400  1.0  -0.0455
  C  C81  1  0.339300  0.669800  0.120000  1.0  -0.1744
  C  C82  1  0.420700  0.613100  0.099900  1.0  0.1363
  C  C83  1  0.126400  0.510400  0.770400  1.0  0.0326
  C  C84  1  0.055800  0.575300  0.714100  1.0  -0.1656
  C  C85  1  0.014500  0.568600  0.640500  1.0  0.1007
  C  C86  1  0.096000  0.434500  0.675600  1.0  0.1135
  C  C87  1  0.143600  0.437900  0.749200  1.0  -0.188
  C  C88  1  0.810100  0.067300  0.502200  1.0  0.2291
  C  C89  1  0.966900  0.158400  0.363500  1.0  0.3413
  C  C90  1  0.725700  0.005400  0.603800  1.0  0.1353
  C  C91  1  0.791600  0.988000  0.677600  1.0  -0.1425
  C  C92  1  0.698400  0.924600  0.772600  1.0  -0.0361
  C  C93  1  0.540700  0.880000  0.789800  1.0  -0.176
  C  C94  1  0.479400  0.900100  0.713000  1.0  0.1343
  C  C95  1  0.103200  0.229600  0.280800  1.0  0.0315
  C  C96  1  0.230100  0.285900  0.289400  1.0  -0.1643
  C  C97  1  0.345000  0.359500  0.209100  1.0  0.1012
  C  C98  1  0.228400  0.324400  0.110100  1.0  0.1137
  C  C99  1  0.107200  0.250800  0.187100  1.0  -0.184
  C  C100  1  0.312300  0.502200  0.430500  1.0  0.2298
  C  C101  1  0.330400  0.363500  0.478100  1.0  0.3414
  C  C102  1  0.329500  0.603800  0.390800  1.0  0.1352
  C  C103  1  0.469200  0.677600  0.334400  1.0  -0.1425
  C  C104  1  0.471000  0.772600  0.302800  1.0  -0.0433
  C  C105  1  0.330500  0.789800  0.330200  1.0  -0.1781
  C  C106  1  0.192400  0.713000  0.386900  1.0  0.134
  C  C107  1  0.384000  0.280800  0.489600  1.0  0.0284
  C  C108  1  0.519500  0.289400  0.424700  1.0  -0.165
  C  C109  1  0.554100  0.209100  0.431400  1.0  0.1005
  C  C110  1  0.338500  0.110100  0.565500  1.0  0.1142
  C  C111  1  0.294300  0.187100  0.562100  1.0  -0.1861
  C  C112  1  0.742800  0.430500  0.067300  1.0  0.2305
  C  C113  1  0.808500  0.478100  0.158400  1.0  0.3411
  C  C114  1  0.720300  0.390800  0.005400  1.0  0.1365
  C  C115  1  0.803600  0.334400  0.988000  1.0  -0.1407
  C  C116  1  0.773800  0.302800  0.924600  1.0  -0.0429
  C  C117  1  0.660700  0.330200  0.880000  1.0  -0.1723
  C  C118  1  0.579300  0.386900  0.900100  1.0  0.1355
  C  C119  1  0.873600  0.489600  0.229600  1.0  0.0339
  C  C120  1  0.944200  0.424700  0.285900  1.0  -0.1669
  C  C121  1  0.985500  0.431400  0.359500  1.0  0.1009
  C  C122  1  0.904000  0.565500  0.324400  1.0  0.1137
  C  C123  1  0.856400  0.562100  0.250800  1.0  -0.1863
  N  N124  1  0.273100  0.932800  0.558500  1.0  -0.0286
  N  N125  1  0.169700  0.873600  0.649900  1.0  -0.3867
  N  N126  1  0.036900  0.876500  0.543600  1.0  -0.5004
  N  N127  1  0.431600  0.037200  0.380300  1.0  -0.1584
  N  N128  1  0.652600  0.617100  0.882400  1.0  -0.1653
  N  N129  1  0.831600  0.558500  0.508700  1.0  -0.0288
  N  N130  1  0.819600  0.649900  0.476500  1.0  -0.3894
  N  N131  1  0.580500  0.543600  0.579900  1.0  -0.4976
  N  N132  1  0.811900  0.380300  0.582500  1.0  -0.1589
  N  N133  1  0.535000  0.882400  0.500500  1.0  -0.1659
  N  N134  1  0.340300  0.508700  0.932800  1.0  -0.0284
  N  N135  1  0.296100  0.476500  0.873600  1.0  -0.3875
  N  N136  1  0.160400  0.579900  0.876500  1.0  -0.4982
  N  N137  1  0.394400  0.582500  0.037200  1.0  -0.1588
  N  N138  1  0.035500  0.500500  0.617100  1.0  -0.164
  N  N139  1  0.726900  0.067200  0.441500  1.0  -0.0301
  N  N140  1  0.830300  0.126400  0.350100  1.0  -0.387
  N  N141  1  0.963100  0.123500  0.456400  1.0  -0.4993
  N  N142  1  0.568400  0.962800  0.619700  1.0  -0.1583
  N  N143  1  0.347400  0.382900  0.117600  1.0  -0.1642
  N  N144  1  0.168400  0.441500  0.491300  1.0  -0.0295
  N  N145  1  0.180400  0.350100  0.523500  1.0  -0.3876
  N  N146  1  0.419500  0.456400  0.420100  1.0  -0.4988
  N  N147  1  0.188100  0.619700  0.417500  1.0  -0.1579
  N  N148  1  0.465000  0.117600  0.499500  1.0  -0.1662
  N  N149  1  0.659700  0.491300  0.067200  1.0  -0.0293
  N  N150  1  0.703900  0.523500  0.126400  1.0  -0.3877
  N  N151  1  0.839600  0.420100  0.123500  1.0  -0.4977
  N  N152  1  0.605600  0.417500  0.962800  1.0  -0.1575
  N  N153  1  0.964500  0.499500  0.382900  1.0  -0.1659
