# generated using pymatgen
data_FeH16(C12N5)2
_symmetry_space_group_name_H-M   'P 1'
_cell_length_a   12.39820000
_cell_length_b   18.89290000
_cell_length_c   18.89290000
_cell_angle_alpha   64.64500000
_cell_angle_beta   77.36460000
_cell_angle_gamma   102.63500000
_symmetry_Int_Tables_number   1
_chemical_formula_structural   FeH16(C12N5)2
_chemical_formula_sum   'Fe3 H48 C72 N30'
_cell_volume   3649.16245411
_cell_formula_units_Z   3
loop_
 _symmetry_equiv_pos_site_id
 _symmetry_equiv_pos_as_xyz
  1  'x, y, z'
loop_
 _atom_site_type_symbol
 _atom_site_label
 _atom_site_symmetry_multiplicity
 _atom_site_fract_x
 _atom_site_fract_y
 _atom_site_fract_z
 _atom_site_occupancy
 _atom_site_charge
  Fe  Fe1  1  0.000000  0.000000  0.500000  1.0  0.1979
  Fe  Fe2  1  0.500000  0.500000  0.500000  1.0  0.1979
  Fe  Fe3  1  0.000000  0.500000  0.000000  1.0  0.1979
  H  H4  1  0.321000  0.072400  0.250100  1.0  0.1198
  H  H5  1  0.403300  0.973600  0.311500  1.0  0.1091
  H  H6  1  0.319300  0.880800  0.454800  1.0  0.1229
  H  H7  1  0.161100  0.890500  0.532900  1.0  0.084
  H  H8  1  0.196900  0.295100  0.102900  1.0  0.1172
  H  H9  1  0.171000  0.408500  0.009000  1.0  0.0833
  H  H10  1  0.877800  0.365000  0.176400  1.0  0.0848
  H  H11  1  0.899200  0.251400  0.274300  1.0  0.1185
  H  H12  1  0.571100  0.250100  0.677500  1.0  0.1197
  H  H13  1  0.714800  0.311500  0.714900  1.0  0.1098
  H  H14  1  0.774100  0.454800  0.664400  1.0  0.1234
  H  H15  1  0.694000  0.532900  0.576600  1.0  0.0846
  H  H16  1  0.299800  0.102900  0.602000  1.0  0.1173
  H  H17  1  0.180000  0.009000  0.582500  1.0  0.0846
  H  H18  1  0.054200  0.176400  0.458600  1.0  0.083
  H  H19  1  0.173500  0.274300  0.474300  1.0  0.1184
  H  H20  1  0.248600  0.677500  0.072400  1.0  0.1161
  H  H21  1  0.429700  0.714900  0.973600  1.0  0.1111
  H  H22  1  0.438500  0.664400  0.880800  1.0  0.1226
  H  H23  1  0.270600  0.576600  0.890500  1.0  0.0856
  H  H24  1  0.901800  0.602000  0.295100  1.0  0.1201
  H  H25  1  0.762500  0.582500  0.408500  1.0  0.0827
  H  H26  1  0.512800  0.458600  0.365000  1.0  0.0838
  H  H27  1  0.647800  0.474300  0.251400  1.0  0.1189
  H  H28  1  0.679000  0.927600  0.749900  1.0  0.1208
  H  H29  1  0.596700  0.026400  0.688500  1.0  0.1089
  H  H30  1  0.680700  0.119200  0.545200  1.0  0.1241
  H  H31  1  0.838900  0.109500  0.467100  1.0  0.0841
  H  H32  1  0.803100  0.704900  0.897100  1.0  0.1177
  H  H33  1  0.829000  0.591500  0.991000  1.0  0.0828
  H  H34  1  0.122200  0.635000  0.823600  1.0  0.0833
  H  H35  1  0.100800  0.748600  0.725700  1.0  0.1186
  H  H36  1  0.428900  0.749900  0.322500  1.0  0.1202
  H  H37  1  0.285200  0.688500  0.285100  1.0  0.1096
  H  H38  1  0.225900  0.545200  0.335600  1.0  0.123
  H  H39  1  0.306000  0.467100  0.423400  1.0  0.0836
  H  H40  1  0.700200  0.897100  0.398000  1.0  0.117
  H  H41  1  0.820000  0.991000  0.417500  1.0  0.0841
  H  H42  1  0.945800  0.823600  0.541400  1.0  0.0833
  H  H43  1  0.826500  0.725700  0.525700  1.0  0.1186
  H  H44  1  0.751400  0.322500  0.927600  1.0  0.1162
  H  H45  1  0.570300  0.285100  0.026400  1.0  0.1096
  H  H46  1  0.561500  0.335600  0.119200  1.0  0.122
  H  H47  1  0.729400  0.423400  0.109500  1.0  0.0852
  H  H48  1  0.098200  0.398000  0.704900  1.0  0.1204
  H  H49  1  0.237500  0.417500  0.591500  1.0  0.0837
  H  H50  1  0.487200  0.541400  0.635000  1.0  0.083
  H  H51  1  0.352200  0.525700  0.748600  1.0  0.1178
  C  C52  1  0.130490  0.095110  0.328040  1.0  0.2513
  C  C53  1  0.067920  0.188330  0.264270  1.0  0.3533
  C  C54  1  0.191840  0.038050  0.357230  1.0  0.1444
  C  C55  1  0.288970  0.035000  0.307590  1.0  -0.1028
  C  C56  1  0.337810  0.976320  0.343890  1.0  -0.0875
  C  C57  1  0.288250  0.921370  0.429220  1.0  -0.1566
  C  C58  1  0.193060  0.927600  0.475320  1.0  0.1354
  C  C59  1  0.053630  0.260530  0.199940  1.0  -0.0997
  C  C60  1  0.131680  0.308680  0.119540  1.0  -0.1263
  C  C61  1  0.115300  0.376550  0.063150  1.0  0.1392
  C  C62  1  0.943360  0.351160  0.161480  1.0  0.1452
  C  C63  1  0.955670  0.283000  0.220490  1.0  -0.1384
  C  C64  1  0.458530  0.328040  0.576850  1.0  0.2496
  C  C65  1  0.332190  0.264270  0.547400  1.0  0.3538
  C  C66  1  0.549070  0.357230  0.604720  1.0  0.145
  C  C67  1  0.596560  0.307590  0.657410  1.0  -0.0979
  C  C68  1  0.681700  0.343890  0.679790  1.0  -0.0867
  C  C69  1  0.717470  0.429220  0.649410  1.0  -0.1567
  C  C70  1  0.668380  0.475320  0.597080  1.0  0.1369
  C  C71  1  0.253570  0.199940  0.539530  1.0  -0.0991
  C  C72  1  0.251220  0.119540  0.571780  1.0  -0.1294
  C  C73  1  0.178450  0.063150  0.560300  1.0  0.1396
  C  C74  1  0.104840  0.161480  0.487360  1.0  0.1466
  C  C75  1  0.176160  0.220490  0.496510  1.0  -0.14
  C  C76  1  0.035380  0.576850  0.095110  1.0  0.2514
  C  C77  1  0.879590  0.547400  0.188330  1.0  0.3542
  C  C78  1  0.153790  0.604720  0.038050  1.0  0.1466
  C  C79  1  0.253970  0.657410  0.035000  1.0  -0.1032
  C  C80  1  0.361490  0.679790  0.976320  1.0  -0.0871
  C  C81  1  0.366880  0.649410  0.921370  1.0  -0.1548
  C  C82  1  0.265460  0.597080  0.927600  1.0  0.1343
  C  C83  1  0.793100  0.539530  0.260530  1.0  -0.0994
  C  C84  1  0.823000  0.571780  0.308680  1.0  -0.1276
  C  C85  1  0.738750  0.560300  0.376550  1.0  0.1412
  C  C86  1  0.592200  0.487360  0.351160  1.0  0.1457
  C  C87  1  0.672670  0.496510  0.283000  1.0  -0.1406
  C  C88  1  0.869510  0.904890  0.671960  1.0  0.2516
  C  C89  1  0.932080  0.811670  0.735730  1.0  0.3544
  C  C90  1  0.808160  0.961950  0.642770  1.0  0.1442
  C  C91  1  0.711030  0.965000  0.692410  1.0  -0.1008
  C  C92  1  0.662190  0.023680  0.656110  1.0  -0.0906
  C  C93  1  0.711750  0.078630  0.570780  1.0  -0.1589
  C  C94  1  0.806940  0.072400  0.524680  1.0  0.1358
  C  C95  1  0.946370  0.739470  0.800060  1.0  -0.0994
  C  C96  1  0.868320  0.691320  0.880460  1.0  -0.1277
  C  C97  1  0.884700  0.623450  0.936850  1.0  0.1393
  C  C98  1  0.056640  0.648840  0.838520  1.0  0.145
  C  C99  1  0.044330  0.717000  0.779510  1.0  -0.1391
  C  C100  1  0.541470  0.671960  0.423150  1.0  0.25
  C  C101  1  0.667810  0.735730  0.452600  1.0  0.3543
  C  C102  1  0.450930  0.642770  0.395280  1.0  0.1445
  C  C103  1  0.403440  0.692410  0.342590  1.0  -0.095
  C  C104  1  0.318300  0.656110  0.320210  1.0  -0.0886
  C  C105  1  0.282530  0.570780  0.350590  1.0  -0.1581
  C  C106  1  0.331620  0.524680  0.402920  1.0  0.1373
  C  C107  1  0.746430  0.800060  0.460470  1.0  -0.0991
  C  C108  1  0.748780  0.880460  0.428220  1.0  -0.1314
  C  C109  1  0.821550  0.936850  0.439700  1.0  0.1387
  C  C110  1  0.895160  0.838520  0.512640  1.0  0.1479
  C  C111  1  0.823840  0.779510  0.503490  1.0  -0.1394
  C  C112  1  0.964620  0.423150  0.904890  1.0  0.2495
  C  C113  1  0.120410  0.452600  0.811670  1.0  0.3539
  C  C114  1  0.846210  0.395280  0.961950  1.0  0.1455
  C  C115  1  0.746030  0.342590  0.965000  1.0  -0.1026
  C  C116  1  0.638510  0.320210  0.023680  1.0  -0.0887
  C  C117  1  0.633120  0.350590  0.078630  1.0  -0.1579
  C  C118  1  0.734540  0.402920  0.072400  1.0  0.1344
  C  C119  1  0.206900  0.460470  0.739470  1.0  -0.0996
  C  C120  1  0.177000  0.428220  0.691320  1.0  -0.1273
  C  C121  1  0.261250  0.439700  0.623450  1.0  0.1401
  C  C122  1  0.407800  0.512640  0.648840  1.0  0.1441
  C  C123  1  0.327330  0.503490  0.717000  1.0  -0.1402
  N  N124  1  0.036360  0.087370  0.384890  1.0  -0.0844
  N  N125  1  0.993930  0.146990  0.344400  1.0  -0.3691
  N  N126  1  0.154450  0.158560  0.250010  1.0  -0.515
  N  N127  1  0.142220  0.985070  0.441830  1.0  -0.2119
  N  N128  1  0.022180  0.399770  0.081930  1.0  -0.217
  N  N129  1  0.421250  0.384890  0.527740  1.0  -0.0869
  N  N130  1  0.338330  0.344400  0.508610  1.0  -0.3705
  N  N131  1  0.404460  0.250010  0.591430  1.0  -0.5066
  N  N132  1  0.584050  0.441830  0.573100  1.0  -0.2124
  N  N133  1  0.104110  0.081930  0.518300  1.0  -0.2177
  N  N134  1  0.948990  0.527740  0.087370  1.0  -0.0865
  N  N135  1  0.846940  0.508610  0.146990  1.0  -0.37
  N  N136  1  0.995890  0.591430  0.158560  1.0  -0.512
  N  N137  1  0.157150  0.573100  0.985070  1.0  -0.2125
  N  N138  1  0.622410  0.518300  0.399770  1.0  -0.2145
  N  N139  1  0.963640  0.912630  0.615110  1.0  -0.0845
  N  N140  1  0.006070  0.853010  0.655600  1.0  -0.3672
  N  N141  1  0.845550  0.841440  0.749990  1.0  -0.5119
  N  N142  1  0.857780  0.014930  0.558170  1.0  -0.2122
  N  N143  1  0.977820  0.600230  0.918070  1.0  -0.2198
  N  N144  1  0.578750  0.615110  0.472260  1.0  -0.0871
  N  N145  1  0.661670  0.655600  0.491390  1.0  -0.3679
  N  N146  1  0.595540  0.749990  0.408570  1.0  -0.5084
  N  N147  1  0.415950  0.558170  0.426900  1.0  -0.2156
  N  N148  1  0.895890  0.918070  0.481700  1.0  -0.218
  N  N149  1  0.051010  0.472260  0.912630  1.0  -0.0856
  N  N150  1  0.153060  0.491390  0.853010  1.0  -0.3699
  N  N151  1  0.004110  0.408570  0.841440  1.0  -0.5139
  N  N152  1  0.842850  0.426900  0.014930  1.0  -0.215
  N  N153  1  0.377590  0.481700  0.600230  1.0  -0.2149
