# generated using pymatgen
data_FeH16(C12N5)2
_symmetry_space_group_name_H-M   'P 1'
_cell_length_a   16.14500000
_cell_length_b   17.97750000
_cell_length_c   17.97750000
_cell_angle_alpha   68.55680000
_cell_angle_beta   72.58110000
_cell_angle_gamma   107.41900000
_symmetry_Int_Tables_number   1
_chemical_formula_structural   FeH16(C12N5)2
_chemical_formula_sum   'Fe6 H96 C144 N60'
_cell_volume   4113.89039059
_cell_formula_units_Z   6
loop_
 _symmetry_equiv_pos_site_id
 _symmetry_equiv_pos_as_xyz
  1  'x, y, z'
loop_
 _atom_site_type_symbol
 _atom_site_label
 _atom_site_symmetry_multiplicity
 _atom_site_fract_x
 _atom_site_fract_y
 _atom_site_fract_z
 _atom_site_occupancy
 _atom_site_charge
  Fe  Fe1  1  0.000000  0.000000  0.500000  1.0  0.3279
  Fe  Fe2  1  0.500000  0.500000  0.500000  1.0  0.3279
  Fe  Fe3  1  0.000000  0.500000  0.000000  1.0  0.3279
  Fe  Fe4  1  0.000000  0.500000  0.500000  1.0  0.3279
  Fe  Fe5  1  0.500000  0.000000  0.500000  1.0  0.3279
  Fe  Fe6  1  0.500000  0.500000  0.000000  1.0  0.3279
  H  H7  1  0.848900  0.052700  0.742500  1.0  0.1266
  H  H8  1  0.693900  0.934800  0.814200  1.0  0.1116
  H  H9  1  0.660100  0.842100  0.751500  1.0  0.1082
  H  H10  1  0.780100  0.869400  0.624000  1.0  0.0673
  H  H11  1  0.327600  0.274000  0.434000  1.0  0.1204
  H  H12  1  0.456200  0.381600  0.422500  1.0  0.0725
  H  H13  1  0.282700  0.427300  0.578600  1.0  0.0693
  H  H14  1  0.151200  0.321500  0.593700  1.0  0.1125
  H  H15  1  0.591400  0.742500  0.204800  1.0  0.125
  H  H16  1  0.508100  0.814200  0.251000  1.0  0.111
  H  H17  1  0.411600  0.751500  0.406400  1.0  0.108
  H  H18  1  0.404100  0.624000  0.506600  1.0  0.0681
  H  H19  1  0.761600  0.434000  0.292000  1.0  0.1194
  H  H20  1  0.878700  0.422500  0.195900  1.0  0.0725
  H  H21  1  0.861300  0.578600  0.994100  1.0  0.0712
  H  H22  1  0.744900  0.593700  0.084800  1.0  0.1117
  H  H23  1  0.796200  0.204800  0.052700  1.0  0.1272
  H  H24  1  0.759100  0.251000  0.934800  1.0  0.1113
  H  H25  1  0.818000  0.406400  0.842100  1.0  0.1083
  H  H26  1  0.910700  0.506600  0.869400  1.0  0.0679
  H  H27  1  0.053600  0.292000  0.274000  1.0  0.1198
  H  H28  1  0.074600  0.195900  0.381600  1.0  0.0714
  H  H29  1  0.855400  0.994100  0.427300  1.0  0.07
  H  H30  1  0.829700  0.084800  0.321500  1.0  0.1108
  H  H31  1  0.151100  0.947300  0.257500  1.0  0.1268
  H  H32  1  0.306100  0.065200  0.185800  1.0  0.1112
  H  H33  1  0.339900  0.157900  0.248500  1.0  0.1081
  H  H34  1  0.219900  0.130600  0.376000  1.0  0.0671
  H  H35  1  0.672400  0.726000  0.566000  1.0  0.1203
  H  H36  1  0.543800  0.618400  0.577500  1.0  0.0719
  H  H37  1  0.717300  0.572700  0.421400  1.0  0.0692
  H  H38  1  0.848800  0.678500  0.406300  1.0  0.1123
  H  H39  1  0.408600  0.257500  0.795200  1.0  0.1265
  H  H40  1  0.491900  0.185800  0.749000  1.0  0.1113
  H  H41  1  0.588400  0.248500  0.593600  1.0  0.1079
  H  H42  1  0.595900  0.376000  0.493400  1.0  0.0673
  H  H43  1  0.238400  0.566000  0.708000  1.0  0.1196
  H  H44  1  0.121300  0.577500  0.804100  1.0  0.0725
  H  H45  1  0.138700  0.421400  0.005900  1.0  0.0709
  H  H46  1  0.255100  0.406300  0.915200  1.0  0.111
  H  H47  1  0.203800  0.795200  0.947300  1.0  0.1268
  H  H48  1  0.240900  0.749000  0.065200  1.0  0.1115
  H  H49  1  0.182000  0.593600  0.157900  1.0  0.1079
  H  H50  1  0.089300  0.493400  0.130600  1.0  0.0677
  H  H51  1  0.946400  0.708000  0.726000  1.0  0.1198
  H  H52  1  0.925400  0.804100  0.618400  1.0  0.0714
  H  H53  1  0.144600  0.005900  0.572700  1.0  0.07
  H  H54  1  0.170300  0.915200  0.678500  1.0  0.1103
  H  H55  1  0.908600  0.204800  0.742500  1.0  0.1266
  H  H56  1  0.991900  0.251000  0.814200  1.0  0.1115
  H  H57  1  0.088400  0.406400  0.751500  1.0  0.1083
  H  H58  1  0.095900  0.506600  0.624000  1.0  0.0673
  H  H59  1  0.738400  0.292000  0.434000  1.0  0.1203
  H  H60  1  0.621300  0.195900  0.422500  1.0  0.0716
  H  H61  1  0.638700  0.994100  0.578600  1.0  0.0702
  H  H62  1  0.755100  0.084800  0.593700  1.0  0.1107
  H  H63  1  0.703800  0.052700  0.204800  1.0  0.1261
  H  H64  1  0.740900  0.934800  0.251000  1.0  0.1113
  H  H65  1  0.682000  0.842100  0.406400  1.0  0.1077
  H  H66  1  0.589300  0.869400  0.506600  1.0  0.0682
  H  H67  1  0.446400  0.274000  0.292000  1.0  0.1204
  H  H68  1  0.425400  0.381600  0.195900  1.0  0.0718
  H  H69  1  0.644600  0.427300  0.994100  1.0  0.069
  H  H70  1  0.670300  0.321500  0.084800  1.0  0.1123
  H  H71  1  0.651100  0.742500  0.052700  1.0  0.1274
  H  H72  1  0.806100  0.814200  0.934800  1.0  0.1116
  H  H73  1  0.839900  0.751500  0.842100  1.0  0.1077
  H  H74  1  0.719900  0.624000  0.869400  1.0  0.0677
  H  H75  1  0.172400  0.434000  0.274000  1.0  0.1194
  H  H76  1  0.043800  0.422500  0.381600  1.0  0.0723
  H  H77  1  0.217300  0.578600  0.427300  1.0  0.0708
  H  H78  1  0.348800  0.593700  0.321500  1.0  0.1109
  H  H79  1  0.091400  0.795200  0.257500  1.0  0.1264
  H  H80  1  0.008100  0.749000  0.185800  1.0  0.112
  H  H81  1  0.911600  0.593600  0.248500  1.0  0.1084
  H  H82  1  0.904100  0.493400  0.376000  1.0  0.0669
  H  H83  1  0.261600  0.708000  0.566000  1.0  0.1196
  H  H84  1  0.378700  0.804100  0.577500  1.0  0.0719
  H  H85  1  0.361300  0.005900  0.421400  1.0  0.0702
  H  H86  1  0.244900  0.915200  0.406300  1.0  0.1109
  H  H87  1  0.296200  0.947300  0.795200  1.0  0.1265
  H  H88  1  0.259100  0.065200  0.749000  1.0  0.1113
  H  H89  1  0.318000  0.157900  0.593600  1.0  0.1081
  H  H90  1  0.410700  0.130600  0.493400  1.0  0.0673
  H  H91  1  0.553600  0.726000  0.708000  1.0  0.1203
  H  H92  1  0.574600  0.618400  0.804100  1.0  0.0725
  H  H93  1  0.355400  0.572700  0.005900  1.0  0.0692
  H  H94  1  0.329700  0.678500  0.915200  1.0  0.1123
  H  H95  1  0.348900  0.257500  0.947300  1.0  0.1277
  H  H96  1  0.193900  0.185800  0.065200  1.0  0.1103
  H  H97  1  0.160100  0.248500  0.157900  1.0  0.1083
  H  H98  1  0.280100  0.376000  0.130600  1.0  0.0677
  H  H99  1  0.827600  0.566000  0.726000  1.0  0.119
  H  H100  1  0.956200  0.577500  0.618400  1.0  0.0719
  H  H101  1  0.782700  0.421400  0.572700  1.0  0.0714
  H  H102  1  0.651200  0.406300  0.678500  1.0  0.1116
  C  C103  1  0.004000  0.095900  0.592800  1.0  0.2352
  C  C104  1  0.141200  0.202700  0.536100  1.0  0.3451
  C  C105  1  0.902800  0.025400  0.643200  1.0  0.1321
  C  C106  1  0.833100  0.014000  0.720300  1.0  -0.149
  C  C107  1  0.742100  0.945300  0.762000  1.0  -0.0277
  C  C108  1  0.722200  0.889800  0.724500  1.0  -0.1754
  C  C109  1  0.794700  0.906300  0.648300  1.0  0.1287
  C  C110  1  0.223300  0.279600  0.520900  1.0  0.0514
  C  C111  1  0.316200  0.303100  0.466400  1.0  -0.1798
  C  C112  1  0.393400  0.369000  0.459100  1.0  0.119
  C  C113  1  0.293200  0.395400  0.549100  1.0  0.1104
  C  C114  1  0.213300  0.330700  0.559700  1.0  -0.1678
  C  C115  1  0.596800  0.592800  0.311300  1.0  0.2333
  C  C116  1  0.677300  0.536100  0.261200  1.0  0.3466
  C  C117  1  0.546000  0.643200  0.331400  1.0  0.1297
  C  C118  1  0.553400  0.720300  0.265700  1.0  -0.1489
  C  C119  1  0.504100  0.762000  0.292700  1.0  -0.0275
  C  C120  1  0.446700  0.724500  0.385700  1.0  -0.1765
  C  C121  1  0.443000  0.648300  0.445400  1.0  0.1265
  C  C122  1  0.744200  0.520900  0.199500  1.0  0.0515
  C  C123  1  0.782600  0.466400  0.230500  1.0  -0.1793
  C  C124  1  0.852500  0.459100  0.171900  1.0  0.1203
  C  C125  1  0.842300  0.549100  0.055500  1.0  0.1125
  C  C126  1  0.773000  0.559700  0.109600  1.0  -0.1655
  C  C127  1  0.908100  0.311300  0.095900  1.0  0.2319
  C  C128  1  0.938500  0.261200  0.202700  1.0  0.3439
  C  C129  1  0.877400  0.331400  0.025400  1.0  0.1312
  C  C130  1  0.819100  0.265700  0.014000  1.0  -0.1458
  C  C131  1  0.796800  0.292700  0.945300  1.0  -0.0281
  C  C132  1  0.832400  0.385700  0.889800  1.0  -0.1737
  C  C133  1  0.888400  0.445400  0.906300  1.0  0.1273
  C  C134  1  0.943700  0.199500  0.279600  1.0  0.0521
  C  C135  1  0.013100  0.230500  0.303100  1.0  -0.1819
  C  C136  1  0.024400  0.171900  0.369000  1.0  0.1213
  C  C137  1  0.897800  0.055500  0.395400  1.0  0.1131
  C  C138  1  0.882600  0.109600  0.330700  1.0  -0.1668
  C  C139  1  0.996000  0.904100  0.407200  1.0  0.2346
  C  C140  1  0.858800  0.797300  0.463900  1.0  0.3447
  C  C141  1  0.097200  0.974600  0.356800  1.0  0.1321
  C  C142  1  0.166900  0.986000  0.279700  1.0  -0.1485
  C  C143  1  0.257900  0.054700  0.238000  1.0  -0.0292
  C  C144  1  0.277800  0.110200  0.275500  1.0  -0.1736
  C  C145  1  0.205300  0.093700  0.351700  1.0  0.1273
  C  C146  1  0.776700  0.720400  0.479100  1.0  0.0522
  C  C147  1  0.683800  0.696900  0.533600  1.0  -0.1798
  C  C148  1  0.606600  0.631000  0.540900  1.0  0.1185
  C  C149  1  0.706800  0.604600  0.450900  1.0  0.1113
  C  C150  1  0.786700  0.669300  0.440300  1.0  -0.1661
  C  C151  1  0.403200  0.407200  0.688700  1.0  0.2318
  C  C152  1  0.322700  0.463900  0.738800  1.0  0.3444
  C  C153  1  0.454000  0.356800  0.668600  1.0  0.1296
  C  C154  1  0.446600  0.279700  0.734300  1.0  -0.1503
  C  C155  1  0.495900  0.238000  0.707300  1.0  -0.0295
  C  C156  1  0.553300  0.275500  0.614300  1.0  -0.1743
  C  C157  1  0.557000  0.351700  0.554600  1.0  0.1268
  C  C158  1  0.255800  0.479100  0.800500  1.0  0.0529
  C  C159  1  0.217400  0.533600  0.769500  1.0  -0.1809
  C  C160  1  0.147500  0.540900  0.828100  1.0  0.1198
  C  C161  1  0.157700  0.450900  0.944500  1.0  0.1133
  C  C162  1  0.227000  0.440300  0.890400  1.0  -0.1661
  C  C163  1  0.091900  0.688700  0.904100  1.0  0.2307
  C  C164  1  0.061500  0.738800  0.797300  1.0  0.3442
  C  C165  1  0.122600  0.668600  0.974600  1.0  0.1324
  C  C166  1  0.180900  0.734300  0.986000  1.0  -0.1446
  C  C167  1  0.203200  0.707300  0.054700  1.0  -0.0259
  C  C168  1  0.167600  0.614300  0.110200  1.0  -0.1734
  C  C169  1  0.111600  0.554600  0.093700  1.0  0.1281
  C  C170  1  0.056300  0.800500  0.720400  1.0  0.052
  C  C171  1  0.986900  0.769500  0.696900  1.0  -0.1813
  C  C172  1  0.975600  0.828100  0.631000  1.0  0.1205
  C  C173  1  0.102200  0.944500  0.604600  1.0  0.1128
  C  C174  1  0.117400  0.890400  0.669300  1.0  -0.167
  C  C175  1  0.903200  0.311300  0.592800  1.0  0.2308
  C  C176  1  0.822700  0.261200  0.536100  1.0  0.3438
  C  C177  1  0.954000  0.331400  0.643200  1.0  0.1316
  C  C178  1  0.946600  0.265700  0.720300  1.0  -0.1459
  C  C179  1  0.995900  0.292700  0.762000  1.0  -0.0274
  C  C180  1  0.053300  0.385700  0.724500  1.0  -0.1732
  C  C181  1  0.057000  0.445400  0.648300  1.0  0.1275
  C  C182  1  0.755800  0.199500  0.520900  1.0  0.0518
  C  C183  1  0.717400  0.230500  0.466400  1.0  -0.1816
  C  C184  1  0.647500  0.171900  0.459100  1.0  0.1214
  C  C185  1  0.657700  0.055500  0.549100  1.0  0.1136
  C  C186  1  0.727000  0.109600  0.559700  1.0  -0.1667
  C  C187  1  0.591900  0.095900  0.311300  1.0  0.2344
  C  C188  1  0.561500  0.202700  0.261200  1.0  0.3448
  C  C189  1  0.622600  0.025400  0.331400  1.0  0.1327
  C  C190  1  0.680900  0.014000  0.265700  1.0  -0.1478
  C  C191  1  0.703200  0.945300  0.292700  1.0  -0.0298
  C  C192  1  0.667600  0.889800  0.385700  1.0  -0.1742
  C  C193  1  0.611600  0.906300  0.445400  1.0  0.1282
  C  C194  1  0.556300  0.279600  0.199500  1.0  0.0524
  C  C195  1  0.486900  0.303100  0.230500  1.0  -0.1796
  C  C196  1  0.475600  0.369000  0.171900  1.0  0.1182
  C  C197  1  0.602200  0.395400  0.055500  1.0  0.1112
  C  C198  1  0.617400  0.330700  0.109600  1.0  -0.1663
  C  C199  1  0.496000  0.592800  0.095900  1.0  0.2319
  C  C200  1  0.358800  0.536100  0.202700  1.0  0.3443
  C  C201  1  0.597200  0.643200  0.025400  1.0  0.1292
  C  C202  1  0.666900  0.720300  0.014000  1.0  -0.1507
  C  C203  1  0.757900  0.762000  0.945300  1.0  -0.0285
  C  C204  1  0.777800  0.724500  0.889800  1.0  -0.1744
  C  C205  1  0.705300  0.648300  0.906300  1.0  0.1267
  C  C206  1  0.276700  0.520900  0.279600  1.0  0.0526
  C  C207  1  0.183800  0.466400  0.303100  1.0  -0.1816
  C  C208  1  0.106600  0.459100  0.369000  1.0  0.1201
  C  C209  1  0.206800  0.549100  0.395400  1.0  0.1123
  C  C210  1  0.286700  0.559700  0.330700  1.0  -0.1664
  C  C211  1  0.096800  0.688700  0.407200  1.0  0.232
  C  C212  1  0.177300  0.738800  0.463900  1.0  0.3442
  C  C213  1  0.046000  0.668600  0.356800  1.0  0.1316
  C  C214  1  0.053400  0.734300  0.279700  1.0  -0.1437
  C  C215  1  0.004100  0.707300  0.238000  1.0  -0.0277
  C  C216  1  0.946700  0.614300  0.275500  1.0  -0.1743
  C  C217  1  0.943000  0.554600  0.351700  1.0  0.1276
  C  C218  1  0.244200  0.800500  0.479100  1.0  0.0518
  C  C219  1  0.282600  0.769500  0.533600  1.0  -0.182
  C  C220  1  0.352500  0.828100  0.540900  1.0  0.121
  C  C221  1  0.342300  0.944500  0.450900  1.0  0.1123
  C  C222  1  0.273000  0.890400  0.440300  1.0  -0.1667
  C  C223  1  0.408100  0.904100  0.688700  1.0  0.2351
  C  C224  1  0.438500  0.797300  0.738800  1.0  0.3452
  C  C225  1  0.377400  0.974600  0.668600  1.0  0.1322
  C  C226  1  0.319100  0.986000  0.734300  1.0  -0.1486
  C  C227  1  0.296800  0.054700  0.707300  1.0  -0.027
  C  C228  1  0.332400  0.110200  0.614300  1.0  -0.1749
  C  C229  1  0.388400  0.093700  0.554600  1.0  0.1285
  C  C230  1  0.443700  0.720400  0.800500  1.0  0.0519
  C  C231  1  0.513100  0.696900  0.769500  1.0  -0.1798
  C  C232  1  0.524400  0.631000  0.828100  1.0  0.1194
  C  C233  1  0.397800  0.604600  0.944500  1.0  0.1102
  C  C234  1  0.382600  0.669300  0.890400  1.0  -0.1682
  C  C235  1  0.504000  0.407200  0.904100  1.0  0.2318
  C  C236  1  0.641200  0.463900  0.797300  1.0  0.3463
  C  C237  1  0.402800  0.356800  0.974600  1.0  0.1303
  C  C238  1  0.333100  0.279700  0.986000  1.0  -0.15
  C  C239  1  0.242100  0.238000  0.054700  1.0  -0.0295
  C  C240  1  0.222200  0.275500  0.110200  1.0  -0.1758
  C  C241  1  0.294700  0.351700  0.093700  1.0  0.1265
  C  C242  1  0.723300  0.479100  0.720400  1.0  0.0516
  C  C243  1  0.816200  0.533600  0.696900  1.0  -0.1797
  C  C244  1  0.893400  0.540900  0.631000  1.0  0.1199
  C  C245  1  0.793200  0.450900  0.604600  1.0  0.1125
  C  C246  1  0.713300  0.440300  0.669300  1.0  -0.1655
  N  N247  1  0.062400  0.095000  0.522000  1.0  -0.0669
  N  N248  1  0.151100  0.163900  0.487100  1.0  -0.3884
  N  N249  1  0.050700  0.163100  0.603900  1.0  -0.5047
  N  N250  1  0.884900  0.972600  0.607500  1.0  -0.2111
  N  N251  1  0.385000  0.416300  0.500100  1.0  -0.1996
  N  N252  1  0.584400  0.522000  0.383000  1.0  -0.0691
  N  N253  1  0.638200  0.487100  0.349000  1.0  -0.3876
  N  N254  1  0.654600  0.603900  0.233000  1.0  -0.5064
  N  N255  1  0.492400  0.607500  0.419900  1.0  -0.2117
  N  N256  1  0.885100  0.500100  0.083600  1.0  -0.1998
  N  N257  1  0.967400  0.383000  0.095000  1.0  -0.0683
  N  N258  1  0.987200  0.349000  0.163900  1.0  -0.387
  N  N259  1  0.887600  0.233000  0.163100  1.0  -0.5067
  N  N260  1  0.912300  0.419900  0.972600  1.0  -0.212
  N  N261  1  0.968700  0.083600  0.416300  1.0  -0.1993
  N  N262  1  0.937600  0.905000  0.478000  1.0  -0.0688
  N  N263  1  0.848900  0.836100  0.512900  1.0  -0.3885
  N  N264  1  0.949300  0.836900  0.396100  1.0  -0.505
  N  N265  1  0.115100  0.027400  0.392500  1.0  -0.2106
  N  N266  1  0.615000  0.583700  0.499900  1.0  -0.2011
  N  N267  1  0.415600  0.478000  0.617000  1.0  -0.0679
  N  N268  1  0.361800  0.512900  0.651000  1.0  -0.3895
  N  N269  1  0.345400  0.396100  0.767000  1.0  -0.5073
  N  N270  1  0.507600  0.392500  0.580100  1.0  -0.2114
  N  N271  1  0.114900  0.499900  0.916400  1.0  -0.2012
  N  N272  1  0.032600  0.617000  0.905000  1.0  -0.068
  N  N273  1  0.012800  0.651000  0.836100  1.0  -0.3885
  N  N274  1  0.112400  0.767000  0.836900  1.0  -0.5061
  N  N275  1  0.087700  0.580100  0.027400  1.0  -0.2121
  N  N276  1  0.031300  0.916400  0.583700  1.0  -0.1996
  N  N277  1  0.915600  0.383000  0.522000  1.0  -0.0681
  N  N278  1  0.861800  0.349000  0.487100  1.0  -0.388
  N  N279  1  0.845400  0.233000  0.603900  1.0  -0.5055
  N  N280  1  0.007600  0.419900  0.607500  1.0  -0.2116
  N  N281  1  0.614900  0.083600  0.500100  1.0  -0.1997
  N  N282  1  0.532600  0.095000  0.383000  1.0  -0.0683
  N  N283  1  0.512800  0.163900  0.349000  1.0  -0.3898
  N  N284  1  0.612400  0.163100  0.233000  1.0  -0.5052
  N  N285  1  0.587700  0.972600  0.419900  1.0  -0.2108
  N  N286  1  0.531300  0.416300  0.083600  1.0  -0.2009
  N  N287  1  0.437600  0.522000  0.095000  1.0  -0.0682
  N  N288  1  0.348900  0.487100  0.163900  1.0  -0.3883
  N  N289  1  0.449300  0.603900  0.163100  1.0  -0.5055
  N  N290  1  0.615100  0.607500  0.972600  1.0  -0.2118
  N  N291  1  0.115000  0.500100  0.416300  1.0  -0.2007
  N  N292  1  0.084400  0.617000  0.478000  1.0  -0.0691
  N  N293  1  0.138200  0.651000  0.512900  1.0  -0.3869
  N  N294  1  0.154600  0.767000  0.396100  1.0  -0.5058
  N  N295  1  0.992400  0.580100  0.392500  1.0  -0.2121
  N  N296  1  0.385100  0.916400  0.499900  1.0  -0.1991
  N  N297  1  0.467400  0.905000  0.617000  1.0  -0.0666
  N  N298  1  0.487200  0.836100  0.651000  1.0  -0.387
  N  N299  1  0.387600  0.836900  0.767000  1.0  -0.5058
  N  N300  1  0.412300  0.027400  0.580100  1.0  -0.2109
  N  N301  1  0.468700  0.583700  0.916400  1.0  -0.1996
  N  N302  1  0.562400  0.478000  0.905000  1.0  -0.0693
  N  N303  1  0.651100  0.512900  0.836100  1.0  -0.3895
  N  N304  1  0.550700  0.396100  0.836900  1.0  -0.506
  N  N305  1  0.384900  0.392500  0.027400  1.0  -0.2115
  N  N306  1  0.885000  0.499900  0.583700  1.0  -0.1989
