# generated using pymatgen
data_FeH16(C12N5)2
_symmetry_space_group_name_H-M   'P 1'
_cell_length_a   11.89980000
_cell_length_b   18.97920000
_cell_length_c   18.97920000
_cell_angle_alpha   64.24780000
_cell_angle_beta   77.93640000
_cell_angle_gamma   102.06400000
_symmetry_Int_Tables_number   1
_chemical_formula_structural   FeH16(C12N5)2
_chemical_formula_sum   'Fe3 H48 C72 N30'
_cell_volume   3549.99868893
_cell_formula_units_Z   3
loop_
 _symmetry_equiv_pos_site_id
 _symmetry_equiv_pos_as_xyz
  1  'x, y, z'
loop_
 _atom_site_type_symbol
 _atom_site_label
 _atom_site_symmetry_multiplicity
 _atom_site_fract_x
 _atom_site_fract_y
 _atom_site_fract_z
 _atom_site_occupancy
 _atom_site_charge
  Fe  Fe1  1  0.500000  0.000000  0.500000  1.0  0.2265
  Fe  Fe2  1  0.000000  0.500000  0.500000  1.0  0.2265
  Fe  Fe3  1  0.500000  0.500000  0.000000  1.0  0.2265
  H  H4  1  0.238000  0.064100  0.684100  1.0  0.1268
  H  H5  1  0.050400  0.962500  0.722300  1.0  0.1088
  H  H6  1  0.046600  0.874700  0.664500  1.0  0.1227
  H  H7  1  0.221400  0.889300  0.573500  1.0  0.0711
  H  H8  1  0.854400  0.253300  0.472200  1.0  0.1214
  H  H9  1  0.993000  0.367700  0.456100  1.0  0.0842
  H  H10  1  0.730800  0.409000  0.583200  1.0  0.087
  H  H11  1  0.585200  0.294700  0.602100  1.0  0.123
  H  H12  1  0.922100  0.684100  0.251800  1.0  0.1263
  H  H13  1  0.772700  0.722300  0.315200  1.0  0.1088
  H  H14  1  0.711100  0.664500  0.460800  1.0  0.1202
  H  H15  1  0.794900  0.573500  0.537200  1.0  0.0757
  H  H16  1  0.326600  0.472200  0.274500  1.0  0.1219
  H  H17  1  0.449100  0.456100  0.176200  1.0  0.0858
  H  H18  1  0.314000  0.583200  0.007800  1.0  0.0877
  H  H19  1  0.187300  0.602100  0.103200  1.0  0.1234
  H  H20  1  0.173900  0.251800  0.064100  1.0  0.1278
  H  H21  1  0.087900  0.315200  0.962500  1.0  0.1088
  H  H22  1  0.171900  0.460800  0.874700  1.0  0.1218
  H  H23  1  0.332100  0.537200  0.889300  1.0  0.0749
  H  H24  1  0.601100  0.274500  0.253300  1.0  0.1221
  H  H25  1  0.625300  0.176200  0.367700  1.0  0.0842
  H  H26  1  0.321800  0.007800  0.409000  1.0  0.0872
  H  H27  1  0.290500  0.103200  0.294700  1.0  0.1217
  H  H28  1  0.762000  0.935900  0.315900  1.0  0.1272
  H  H29  1  0.949600  0.037500  0.277700  1.0  0.1093
  H  H30  1  0.953400  0.125300  0.335500  1.0  0.122
  H  H31  1  0.778600  0.110700  0.426500  1.0  0.0733
  H  H32  1  0.145600  0.746700  0.527800  1.0  0.1215
  H  H33  1  0.007000  0.632300  0.543900  1.0  0.0851
  H  H34  1  0.269200  0.591000  0.416800  1.0  0.087
  H  H35  1  0.414800  0.705300  0.397900  1.0  0.1223
  H  H36  1  0.077900  0.315900  0.748200  1.0  0.126
  H  H37  1  0.227300  0.277700  0.684800  1.0  0.1093
  H  H38  1  0.288900  0.335500  0.539200  1.0  0.1212
  H  H39  1  0.205100  0.426500  0.462800  1.0  0.0757
  H  H40  1  0.673400  0.527800  0.725500  1.0  0.1224
  H  H41  1  0.550900  0.543900  0.823800  1.0  0.0864
  H  H42  1  0.686000  0.416800  0.992200  1.0  0.0872
  H  H43  1  0.812700  0.397900  0.896800  1.0  0.1223
  H  H44  1  0.826100  0.748200  0.935900  1.0  0.1287
  H  H45  1  0.912100  0.684800  0.037500  1.0  0.1082
  H  H46  1  0.828100  0.539200  0.125300  1.0  0.1219
  H  H47  1  0.667900  0.462800  0.110700  1.0  0.0747
  H  H48  1  0.398900  0.725500  0.746700  1.0  0.1218
  H  H49  1  0.374700  0.823800  0.632300  1.0  0.0844
  H  H50  1  0.678200  0.992200  0.591000  1.0  0.088
  H  H51  1  0.709500  0.896800  0.705300  1.0  0.1216
  C  C52  1  0.457700  0.092900  0.578800  1.0  0.2494
  C  C53  1  0.616390  0.187840  0.548070  1.0  0.3396
  C  C54  1  0.335030  0.033080  0.607690  1.0  0.1282
  C  C55  1  0.232910  0.027520  0.662190  1.0  -0.1406
  C  C56  1  0.122710  0.968060  0.684630  1.0  -0.0467
  C  C57  1  0.121050  0.916360  0.650210  1.0  -0.1937
  C  C58  1  0.225500  0.925250  0.596250  1.0  0.1121
  C  C59  1  0.703910  0.259980  0.539150  1.0  0.0408
  C  C60  1  0.826880  0.284430  0.495590  1.0  -0.172
  C  C61  1  0.909170  0.352810  0.486000  1.0  0.1036
  C  C62  1  0.756060  0.376940  0.560260  1.0  0.1075
  C  C63  1  0.668580  0.308690  0.572050  1.0  -0.1653
  C  C64  1  0.036500  0.578800  0.328300  1.0  0.2499
  C  C65  1  0.164460  0.548070  0.264090  1.0  0.3396
  C  C66  1  0.942720  0.607690  0.359230  1.0  0.129
  C  C67  1  0.895100  0.662190  0.310290  1.0  -0.142
  C  C68  1  0.807340  0.684630  0.347310  1.0  -0.0461
  C  C69  1  0.771260  0.650210  0.433430  1.0  -0.1935
  C  C70  1  0.821750  0.596250  0.478500  1.0  0.113
  C  C71  1  0.243060  0.539150  0.200870  1.0  0.0412
  C  C72  1  0.322470  0.495590  0.219980  1.0  -0.1728
  C  C73  1  0.395170  0.486000  0.161190  1.0  0.1038
  C  C74  1  0.316320  0.560260  0.062800  1.0  0.1077
  C  C75  1  0.240630  0.572050  0.119260  1.0  -0.1636
  C  C76  1  0.364800  0.328300  0.092900  1.0  0.2456
  C  C77  1  0.428550  0.264090  0.187840  1.0  0.34
  C  C78  1  0.301950  0.359230  0.033080  1.0  0.1288
  C  C79  1  0.205390  0.310290  0.027520  1.0  -0.1431
  C  C80  1  0.154650  0.347310  0.968060  1.0  -0.0459
  C  C81  1  0.204690  0.433430  0.916360  1.0  -0.1935
  C  C82  1  0.300250  0.478500  0.925250  1.0  0.113
  C  C83  1  0.443930  0.200870  0.259980  1.0  0.0412
  C  C84  1  0.542450  0.219980  0.284430  1.0  -0.173
  C  C85  1  0.556360  0.161190  0.352810  1.0  0.1046
  C  C86  1  0.379120  0.062800  0.376940  1.0  0.106
  C  C87  1  0.359890  0.119260  0.308690  1.0  -0.1631
  C  C88  1  0.542300  0.907100  0.421200  1.0  0.2484
  C  C89  1  0.383610  0.812160  0.451930  1.0  0.3382
  C  C90  1  0.664970  0.966920  0.392310  1.0  0.1286
  C  C91  1  0.767090  0.972480  0.337810  1.0  -0.1401
  C  C92  1  0.877290  0.031940  0.315370  1.0  -0.0466
  C  C93  1  0.878950  0.083640  0.349790  1.0  -0.1936
  C  C94  1  0.774500  0.074750  0.403750  1.0  0.1134
  C  C95  1  0.296090  0.740020  0.460850  1.0  0.0419
  C  C96  1  0.173120  0.715570  0.504410  1.0  -0.1719
  C  C97  1  0.090830  0.647190  0.514000  1.0  0.1049
  C  C98  1  0.243940  0.623060  0.439740  1.0  0.1053
  C  C99  1  0.331420  0.691310  0.427950  1.0  -0.1622
  C  C100  1  0.963500  0.421200  0.671700  1.0  0.2479
  C  C101  1  0.835540  0.451930  0.735910  1.0  0.3413
  C  C102  1  0.057280  0.392310  0.640770  1.0  0.1296
  C  C103  1  0.104900  0.337810  0.689710  1.0  -0.146
  C  C104  1  0.192660  0.315370  0.652690  1.0  -0.0474
  C  C105  1  0.228740  0.349790  0.566570  1.0  -0.1927
  C  C106  1  0.178250  0.403750  0.521500  1.0  0.1125
  C  C107  1  0.756940  0.460850  0.799130  1.0  0.0409
  C  C108  1  0.677530  0.504410  0.780020  1.0  -0.1733
  C  C109  1  0.604830  0.514000  0.838810  1.0  0.1053
  C  C110  1  0.683680  0.439740  0.937200  1.0  0.106
  C  C111  1  0.759370  0.427950  0.880740  1.0  -0.1594
  C  C112  1  0.635200  0.671700  0.907100  1.0  0.2473
  C  C113  1  0.571450  0.735910  0.812160  1.0  0.3399
  C  C114  1  0.698050  0.640770  0.966920  1.0  0.1268
  C  C115  1  0.794610  0.689710  0.972480  1.0  -0.1394
  C  C116  1  0.845350  0.652690  0.031940  1.0  -0.0445
  C  C117  1  0.795310  0.566570  0.083640  1.0  -0.192
  C  C118  1  0.699750  0.521500  0.074750  1.0  0.1137
  C  C119  1  0.556070  0.799130  0.740020  1.0  0.04
  C  C120  1  0.457550  0.780020  0.715570  1.0  -0.1721
  C  C121  1  0.443640  0.838810  0.647190  1.0  0.1089
  C  C122  1  0.620880  0.937200  0.623060  1.0  0.1067
  C  C123  1  0.640110  0.880740  0.691310  1.0  -0.1611
  N  N124  1  0.547590  0.086290  0.529320  1.0  -0.0489
  N  N125  1  0.652390  0.148050  0.508280  1.0  -0.3827
  N  N126  1  0.495050  0.155380  0.593130  1.0  -0.529
  N  N127  1  0.334810  0.982530  0.573400  1.0  -0.1854
  N  N128  1  0.875980  0.400670  0.517630  1.0  -0.1794
  N  N129  1  0.076910  0.529320  0.384390  1.0  -0.0494
  N  N130  1  0.160670  0.508280  0.343670  1.0  -0.3845
  N  N131  1  0.088180  0.593130  0.251490  1.0  -0.5346
  N  N132  1  0.908210  0.573400  0.444070  1.0  -0.1886
  N  N133  1  0.393610  0.517630  0.081700  1.0  -0.1749
  N  N134  1  0.461300  0.384390  0.086290  1.0  -0.0528
  N  N135  1  0.504340  0.343670  0.148050  1.0  -0.3834
  N  N136  1  0.339670  0.251490  0.155380  1.0  -0.5275
  N  N137  1  0.352280  0.444070  0.982530  1.0  -0.188
  N  N138  1  0.475310  0.081700  0.400670  1.0  -0.1764
  N  N139  1  0.452410  0.913710  0.470680  1.0  -0.0489
  N  N140  1  0.347610  0.851950  0.491720  1.0  -0.3824
  N  N141  1  0.504950  0.844620  0.406870  1.0  -0.5323
  N  N142  1  0.665190  0.017470  0.426600  1.0  -0.1857
  N  N143  1  0.124020  0.599330  0.482370  1.0  -0.1771
  N  N144  1  0.923090  0.470680  0.615610  1.0  -0.0532
  N  N145  1  0.839330  0.491720  0.656330  1.0  -0.3835
  N  N146  1  0.911820  0.406870  0.748510  1.0  -0.53
  N  N147  1  0.091790  0.426600  0.555930  1.0  -0.1876
  N  N148  1  0.606390  0.482370  0.918300  1.0  -0.1743
  N  N149  1  0.538700  0.615610  0.913710  1.0  -0.0515
  N  N150  1  0.495660  0.656330  0.851950  1.0  -0.3849
  N  N151  1  0.660330  0.748510  0.844620  1.0  -0.526
  N  N152  1  0.647720  0.555930  0.017470  1.0  -0.1871
  N  N153  1  0.524690  0.918300  0.599330  1.0  -0.1755
