# generated using pymatgen
data_Pr2H11C14(NO6)2
_symmetry_space_group_name_H-M   'P 1'
_cell_length_a   13.97600000
_cell_length_b   13.97600000
_cell_length_c   17.53100000
_cell_angle_alpha   90.00000000
_cell_angle_beta   90.00000000
_cell_angle_gamma   90.00000000
_symmetry_Int_Tables_number   1
_chemical_formula_structural   Pr2H11C14(NO6)2
_chemical_formula_sum   'Pr8 H44 C56 N8 O48'
_cell_volume   3424.30526586
_cell_formula_units_Z   4
loop_
 _symmetry_equiv_pos_site_id
 _symmetry_equiv_pos_as_xyz
  1  'x, y, z'
loop_
 _atom_site_type_symbol
 _atom_site_label
 _atom_site_symmetry_multiplicity
 _atom_site_fract_x
 _atom_site_fract_y
 _atom_site_fract_z
 _atom_site_occupancy
 _atom_site_charge
  Pr  Pr1  1  0.285260  0.607510  0.249800  1.0  2.1927
  Pr  Pr2  1  0.785260  0.107510  0.749800  1.0  2.1927
  Pr  Pr3  1  0.714740  0.607510  0.750200  1.0  2.1898
  Pr  Pr4  1  0.214740  0.107510  0.250200  1.0  2.1898
  Pr  Pr5  1  0.500000  0.892650  0.500000  1.0  1.9636
  Pr  Pr6  1  0.000000  0.392650  0.000000  1.0  1.9636
  Pr  Pr7  1  0.000000  0.822250  0.500000  1.0  2.1503
  Pr  Pr8  1  0.500000  0.322250  0.000000  1.0  2.1503
  H  H9  1  0.651300  0.701100  0.338600  1.0  0.1179
  H  H10  1  0.735200  0.607900  0.249800  1.0  0.0957
  H  H11  1  0.651600  0.513000  0.164100  1.0  0.1136
  H  H12  1  0.406600  0.259000  0.411900  1.0  0.1059
  H  H13  1  0.093300  0.455300  0.412800  1.0  0.1158
  H  H14  1  0.309000  0.459000  0.369000  1.0  0.4631
  H  H15  1  0.145000  0.413000  0.227000  1.0  0.4448
  H  H16  1  0.352000  0.665000  0.137000  1.0  0.3644
  H  H17  1  0.885000  0.804000  0.373000  1.0  0.4458
  H  H18  1  0.315000  0.763000  0.134000  1.0  0.3766
  H  H19  1  0.151300  0.201100  0.838600  1.0  0.1179
  H  H20  1  0.235200  0.107900  0.749800  1.0  0.0957
  H  H21  1  0.151600  0.013000  0.664100  1.0  0.1136
  H  H22  1  0.906600  0.759000  0.911900  1.0  0.1059
  H  H23  1  0.593300  0.955300  0.912800  1.0  0.1158
  H  H24  1  0.809000  0.959000  0.869000  1.0  0.4631
  H  H25  1  0.645000  0.913000  0.727000  1.0  0.4448
  H  H26  1  0.852000  0.165000  0.637000  1.0  0.3644
  H  H27  1  0.385000  0.304000  0.873000  1.0  0.4458
  H  H28  1  0.815000  0.263000  0.634000  1.0  0.3766
  H  H29  1  0.348700  0.701100  0.661400  1.0  0.1174
  H  H30  1  0.264800  0.607900  0.750200  1.0  0.0958
  H  H31  1  0.348400  0.513000  0.835900  1.0  0.1136
  H  H32  1  0.593400  0.259000  0.588100  1.0  0.1055
  H  H33  1  0.906700  0.455300  0.587200  1.0  0.1158
  H  H34  1  0.691000  0.459000  0.631000  1.0  0.4612
  H  H35  1  0.855000  0.413000  0.773000  1.0  0.4467
  H  H36  1  0.648000  0.665000  0.863000  1.0  0.3636
  H  H37  1  0.115000  0.804000  0.627000  1.0  0.4477
  H  H38  1  0.685000  0.763000  0.866000  1.0  0.379
  H  H39  1  0.848700  0.201100  0.161400  1.0  0.1174
  H  H40  1  0.764800  0.107900  0.250200  1.0  0.0958
  H  H41  1  0.848400  0.013000  0.335900  1.0  0.1136
  H  H42  1  0.093400  0.759000  0.088100  1.0  0.1055
  H  H43  1  0.406700  0.955300  0.087200  1.0  0.1158
  H  H44  1  0.191000  0.959000  0.131000  1.0  0.4612
  H  H45  1  0.355000  0.913000  0.273000  1.0  0.4467
  H  H46  1  0.148000  0.165000  0.363000  1.0  0.3636
  H  H47  1  0.615000  0.304000  0.127000  1.0  0.4477
  H  H48  1  0.185000  0.263000  0.366000  1.0  0.379
  H  H49  1  0.500000  0.345300  0.500000  1.0  0.1059
  H  H50  1  0.000000  0.845300  0.000000  1.0  0.1059
  H  H51  1  0.000000  0.373300  0.500000  1.0  0.0929
  H  H52  1  0.500000  0.873300  0.000000  1.0  0.0929
  C  C53  1  0.459000  0.724600  0.350500  1.0  0.6518
  C  C54  1  0.520200  0.662300  0.298900  1.0  0.1247
  C  C55  1  0.619300  0.664000  0.302700  1.0  -0.1145
  C  C56  1  0.668600  0.607400  0.250300  1.0  -0.0847
  C  C57  1  0.619400  0.550900  0.199300  1.0  -0.1234
  C  C58  1  0.520800  0.552200  0.202100  1.0  0.1316
  C  C59  1  0.459700  0.489500  0.150600  1.0  0.6905
  C  C60  1  0.381600  0.066600  0.400500  1.0  0.6765
  C  C61  1  0.444500  0.127800  0.451700  1.0  0.1026
  C  C62  1  0.443700  0.227300  0.448000  1.0  -0.1006
  C  C63  1  0.056200  0.488000  0.448300  1.0  -0.1324
  C  C64  1  0.055300  0.587000  0.451100  1.0  0.0962
  C  C65  1  0.117400  0.649100  0.399800  1.0  0.6457
  C  C66  1  0.959000  0.224600  0.850500  1.0  0.6518
  C  C67  1  0.020200  0.162300  0.798900  1.0  0.1247
  C  C68  1  0.119300  0.164000  0.802700  1.0  -0.1145
  C  C69  1  0.168600  0.107400  0.750300  1.0  -0.0847
  C  C70  1  0.119400  0.050900  0.699300  1.0  -0.1234
  C  C71  1  0.020800  0.052200  0.702100  1.0  0.1316
  C  C72  1  0.959700  0.989500  0.650600  1.0  0.6905
  C  C73  1  0.881600  0.566600  0.900500  1.0  0.6765
  C  C74  1  0.944500  0.627800  0.951700  1.0  0.1026
  C  C75  1  0.943700  0.727300  0.948000  1.0  -0.1006
  C  C76  1  0.556200  0.988000  0.948300  1.0  -0.1324
  C  C77  1  0.555300  0.087000  0.951100  1.0  0.0962
  C  C78  1  0.617400  0.149100  0.899800  1.0  0.6457
  C  C79  1  0.541000  0.724600  0.649500  1.0  0.6531
  C  C80  1  0.479800  0.662300  0.701100  1.0  0.1255
  C  C81  1  0.380700  0.664000  0.697300  1.0  -0.1127
  C  C82  1  0.331400  0.607400  0.749700  1.0  -0.087
  C  C83  1  0.380600  0.550900  0.800700  1.0  -0.1229
  C  C84  1  0.479200  0.552200  0.797900  1.0  0.1319
  C  C85  1  0.540300  0.489500  0.849400  1.0  0.6915
  C  C86  1  0.618400  0.066600  0.599500  1.0  0.6775
  C  C87  1  0.555500  0.127800  0.548300  1.0  0.1024
  C  C88  1  0.556300  0.227300  0.552000  1.0  -0.1015
  C  C89  1  0.943800  0.488000  0.551700  1.0  -0.133
  C  C90  1  0.944700  0.587000  0.548900  1.0  0.0973
  C  C91  1  0.882600  0.649100  0.600200  1.0  0.6446
  C  C92  1  0.041000  0.224600  0.149500  1.0  0.6531
  C  C93  1  0.979800  0.162300  0.201100  1.0  0.1255
  C  C94  1  0.880700  0.164000  0.197300  1.0  -0.1127
  C  C95  1  0.831400  0.107400  0.249700  1.0  -0.087
  C  C96  1  0.880600  0.050900  0.300700  1.0  -0.1229
  C  C97  1  0.979200  0.052200  0.297900  1.0  0.1319
  C  C98  1  0.040300  0.989500  0.349400  1.0  0.6915
  C  C99  1  0.118400  0.566600  0.099500  1.0  0.6775
  C  C100  1  0.055500  0.627800  0.048300  1.0  0.1024
  C  C101  1  0.056300  0.727300  0.052000  1.0  -0.1015
  C  C102  1  0.443800  0.988000  0.051700  1.0  -0.133
  C  C103  1  0.444700  0.087000  0.048900  1.0  0.0973
  C  C104  1  0.382600  0.149100  0.100200  1.0  0.6446
  C  C105  1  0.500000  0.278800  0.500000  1.0  -0.1177
  C  C106  1  0.000000  0.778800  0.000000  1.0  -0.1177
  C  C107  1  0.000000  0.439800  0.500000  1.0  -0.1022
  C  C108  1  0.500000  0.939800  0.000000  1.0  -0.1022
  N  N109  1  0.471200  0.606700  0.250000  1.0  -0.4128
  N  N110  1  0.971200  0.106700  0.750000  1.0  -0.4128
  N  N111  1  0.528800  0.606700  0.750000  1.0  -0.4131
  N  N112  1  0.028800  0.106700  0.250000  1.0  -0.4131
  N  N113  1  0.500000  0.077800  0.500000  1.0  -0.4923
  N  N114  1  0.000000  0.577800  0.000000  1.0  -0.4923
  N  N115  1  0.000000  0.637400  0.500000  1.0  -0.4056
  N  N116  1  0.500000  0.137400  0.000000  1.0  -0.4056
  O  O117  1  0.368600  0.718100  0.341800  1.0  -0.6911
  O  O118  1  0.502400  0.777800  0.396000  1.0  -0.7774
  O  O119  1  0.370000  0.495900  0.158200  1.0  -0.6672
  O  O120  1  0.504100  0.435100  0.104800  1.0  -0.6614
  O  O121  1  0.351600  0.493500  0.350400  1.0  -0.7298
  O  O122  1  0.192000  0.444200  0.240900  1.0  -0.761
  O  O123  1  0.328100  0.111300  0.355000  1.0  -0.7211
  O  O124  1  0.352600  0.721500  0.150200  1.0  -0.811
  O  O125  1  0.170700  0.604500  0.354100  1.0  -0.7406
  O  O126  1  0.111100  0.738500  0.407500  1.0  -0.6842
  O  O127  1  0.885800  0.755700  0.400300  1.0  -0.7088
  O  O128  1  0.388800  0.977500  0.408000  1.0  -0.6254
  O  O129  1  0.868600  0.218100  0.841800  1.0  -0.6911
  O  O130  1  0.002400  0.277800  0.896000  1.0  -0.7774
  O  O131  1  0.870000  0.995900  0.658200  1.0  -0.6672
  O  O132  1  0.004100  0.935100  0.604800  1.0  -0.6614
  O  O133  1  0.851600  0.993500  0.850400  1.0  -0.7298
  O  O134  1  0.692000  0.944200  0.740900  1.0  -0.761
  O  O135  1  0.828100  0.611300  0.855000  1.0  -0.7211
  O  O136  1  0.852600  0.221500  0.650200  1.0  -0.811
  O  O137  1  0.670700  0.104500  0.854100  1.0  -0.7406
  O  O138  1  0.611100  0.238500  0.907500  1.0  -0.6842
  O  O139  1  0.385800  0.255700  0.900300  1.0  -0.7088
  O  O140  1  0.888800  0.477500  0.908000  1.0  -0.6254
  O  O141  1  0.631400  0.718100  0.658200  1.0  -0.6931
  O  O142  1  0.497600  0.777800  0.604000  1.0  -0.7776
  O  O143  1  0.630000  0.495900  0.841800  1.0  -0.6674
  O  O144  1  0.495900  0.435100  0.895200  1.0  -0.664
  O  O145  1  0.648400  0.493500  0.649600  1.0  -0.7316
  O  O146  1  0.808000  0.444200  0.759100  1.0  -0.7616
  O  O147  1  0.671900  0.111300  0.645000  1.0  -0.722
  O  O148  1  0.647400  0.721500  0.849800  1.0  -0.8148
  O  O149  1  0.829300  0.604500  0.645900  1.0  -0.7412
  O  O150  1  0.888900  0.738500  0.592500  1.0  -0.6847
  O  O151  1  0.114200  0.755700  0.599700  1.0  -0.709
  O  O152  1  0.611200  0.977500  0.592000  1.0  -0.6258
  O  O153  1  0.131400  0.218100  0.158200  1.0  -0.6931
  O  O154  1  0.997600  0.277800  0.104000  1.0  -0.7776
  O  O155  1  0.130000  0.995900  0.341800  1.0  -0.6674
  O  O156  1  0.995900  0.935100  0.395200  1.0  -0.664
  O  O157  1  0.148400  0.993500  0.149600  1.0  -0.7316
  O  O158  1  0.308000  0.944200  0.259100  1.0  -0.7616
  O  O159  1  0.171900  0.611300  0.145000  1.0  -0.722
  O  O160  1  0.147400  0.221500  0.349800  1.0  -0.8148
  O  O161  1  0.329300  0.104500  0.145900  1.0  -0.7412
  O  O162  1  0.388900  0.238500  0.092500  1.0  -0.6847
  O  O163  1  0.614200  0.255700  0.099700  1.0  -0.709
  O  O164  1  0.111200  0.477500  0.092000  1.0  -0.6258
