# generated using pymatgen
data_NdH3C7NO4
_symmetry_space_group_name_H-M   'P 1'
_cell_length_a   13.93600000
_cell_length_b   13.93600000
_cell_length_c   17.46900000
_cell_angle_alpha   90.00000000
_cell_angle_beta   90.00000000
_cell_angle_gamma   90.00000000
_symmetry_Int_Tables_number   1
_chemical_formula_structural   NdH3C7NO4
_chemical_formula_sum   'Nd8 H24 C56 N8 O32'
_cell_volume   3392.69110502
_cell_formula_units_Z   8
loop_
 _symmetry_equiv_pos_site_id
 _symmetry_equiv_pos_as_xyz
  1  'x, y, z'
loop_
 _atom_site_type_symbol
 _atom_site_label
 _atom_site_symmetry_multiplicity
 _atom_site_fract_x
 _atom_site_fract_y
 _atom_site_fract_z
 _atom_site_occupancy
 _atom_site_charge
  Nd  Nd1  1  0.285470  0.676760  0.749810  1.0  2.1164
  Nd  Nd2  1  0.785470  0.176760  0.249810  1.0  2.1164
  Nd  Nd3  1  0.714530  0.676760  0.250190  1.0  2.116
  Nd  Nd4  1  0.214530  0.176760  0.750190  1.0  2.116
  Nd  Nd5  1  0.500000  0.962310  0.500000  1.0  2.1187
  Nd  Nd6  1  0.000000  0.462310  0.000000  1.0  2.1187
  Nd  Nd7  1  0.000000  0.891330  0.500000  1.0  2.117
  Nd  Nd8  1  0.500000  0.391330  0.000000  1.0  2.117
  H  H9  1  0.735600  0.677700  0.751100  1.0  0.0974
  H  H10  1  0.650200  0.582000  0.837100  1.0  0.0998
  H  H11  1  0.651700  0.770800  0.663900  1.0  0.1013
  H  H12  1  0.092100  0.828600  0.912400  1.0  0.1042
  H  H13  1  0.093600  0.524900  0.587600  1.0  0.1004
  H  H14  1  0.235600  0.177700  0.251100  1.0  0.0974
  H  H15  1  0.150200  0.082000  0.337100  1.0  0.0998
  H  H16  1  0.151700  0.270800  0.163900  1.0  0.1013
  H  H17  1  0.592100  0.328600  0.412400  1.0  0.1042
  H  H18  1  0.593600  0.024900  0.087600  1.0  0.1004
  H  H19  1  0.264400  0.677700  0.248900  1.0  0.0982
  H  H20  1  0.349800  0.582000  0.162900  1.0  0.0993
  H  H21  1  0.348300  0.770800  0.336100  1.0  0.101
  H  H22  1  0.907900  0.828600  0.087600  1.0  0.1043
  H  H23  1  0.906400  0.524900  0.412400  1.0  0.1
  H  H24  1  0.764400  0.177700  0.748900  1.0  0.0982
  H  H25  1  0.849800  0.082000  0.662900  1.0  0.0993
  H  H26  1  0.848300  0.270800  0.836100  1.0  0.101
  H  H27  1  0.407900  0.328600  0.587600  1.0  0.1043
  H  H28  1  0.406400  0.024900  0.912400  1.0  0.1
  H  H29  1  0.000000  0.440300  0.500000  1.0  0.0992
  H  H30  1  0.500000  0.940300  0.000000  1.0  0.0992
  H  H31  1  0.000000  0.911300  0.000000  1.0  0.0913
  H  H32  1  0.500000  0.411300  0.500000  1.0  0.0913
  C  C33  1  0.056000  0.657100  0.548400  1.0  0.0855
  C  C34  1  0.520300  0.732900  0.701400  1.0  0.0935
  C  C35  1  0.519400  0.621500  0.798800  1.0  0.0987
  C  C36  1  0.668900  0.677300  0.750700  1.0  -0.123
  C  C37  1  0.119000  0.718600  0.599600  1.0  0.6249
  C  C38  1  0.618200  0.620200  0.801700  1.0  -0.152
  C  C39  1  0.459500  0.795800  0.650200  1.0  0.6438
  C  C40  1  0.619100  0.733300  0.699400  1.0  -0.157
  C  C41  1  0.118200  0.634500  0.899900  1.0  0.628
  C  C42  1  0.055800  0.697100  0.951000  1.0  0.0868
  C  C43  1  0.055500  0.795800  0.948400  1.0  -0.1651
  C  C44  1  0.457800  0.558000  0.850400  1.0  0.6207
  C  C45  1  0.056400  0.557100  0.551700  1.0  -0.134
  C  C46  1  0.556000  0.157100  0.048400  1.0  0.0855
  C  C47  1  0.020300  0.232900  0.201400  1.0  0.0935
  C  C48  1  0.019400  0.121500  0.298800  1.0  0.0987
  C  C49  1  0.168900  0.177300  0.250700  1.0  -0.123
  C  C50  1  0.619000  0.218600  0.099600  1.0  0.6249
  C  C51  1  0.118200  0.120200  0.301700  1.0  -0.152
  C  C52  1  0.959500  0.295800  0.150200  1.0  0.6438
  C  C53  1  0.119100  0.233300  0.199400  1.0  -0.157
  C  C54  1  0.618200  0.134500  0.399900  1.0  0.628
  C  C55  1  0.555800  0.197100  0.451000  1.0  0.0868
  C  C56  1  0.555500  0.295800  0.448400  1.0  -0.1651
  C  C57  1  0.957800  0.058000  0.350400  1.0  0.6207
  C  C58  1  0.556400  0.057100  0.051700  1.0  -0.134
  C  C59  1  0.944000  0.657100  0.451600  1.0  0.0867
  C  C60  1  0.479700  0.732900  0.298600  1.0  0.0938
  C  C61  1  0.480600  0.621500  0.201200  1.0  0.1002
  C  C62  1  0.331100  0.677300  0.249300  1.0  -0.1247
  C  C63  1  0.881000  0.718600  0.400400  1.0  0.6232
  C  C64  1  0.381800  0.620200  0.198300  1.0  -0.151
  C  C65  1  0.540500  0.795800  0.349800  1.0  0.6426
  C  C66  1  0.380900  0.733300  0.300600  1.0  -0.1579
  C  C67  1  0.881800  0.634500  0.100100  1.0  0.6287
  C  C68  1  0.944200  0.697100  0.049000  1.0  0.0876
  C  C69  1  0.944500  0.795800  0.051600  1.0  -0.1645
  C  C70  1  0.542200  0.558000  0.149600  1.0  0.6183
  C  C71  1  0.943600  0.557100  0.448300  1.0  -0.1319
  C  C72  1  0.444000  0.157100  0.951600  1.0  0.0867
  C  C73  1  0.979700  0.232900  0.798600  1.0  0.0938
  C  C74  1  0.980600  0.121500  0.701200  1.0  0.1002
  C  C75  1  0.831100  0.177300  0.749300  1.0  -0.1247
  C  C76  1  0.381000  0.218600  0.900400  1.0  0.6232
  C  C77  1  0.881800  0.120200  0.698300  1.0  -0.151
  C  C78  1  0.040500  0.295800  0.849800  1.0  0.6426
  C  C79  1  0.880900  0.233300  0.800600  1.0  -0.1579
  C  C80  1  0.381800  0.134500  0.600100  1.0  0.6287
  C  C81  1  0.444200  0.197100  0.549000  1.0  0.0876
  C  C82  1  0.444500  0.295800  0.551600  1.0  -0.1645
  C  C83  1  0.042200  0.058000  0.649600  1.0  0.6183
  C  C84  1  0.443600  0.057100  0.948300  1.0  -0.1319
  C  C85  1  0.000000  0.507000  0.500000  1.0  -0.1349
  C  C86  1  0.500000  0.007000  0.000000  1.0  -0.1349
  C  C87  1  0.000000  0.844500  0.000000  1.0  -0.1345
  C  C88  1  0.500000  0.344500  0.500000  1.0  -0.1345
  N  N89  1  0.470600  0.677300  0.750300  1.0  -0.4828
  N  N90  1  0.970600  0.177300  0.250300  1.0  -0.4828
  N  N91  1  0.529400  0.677300  0.249700  1.0  -0.4827
  N  N92  1  0.029400  0.177300  0.749700  1.0  -0.4827
  N  N93  1  0.000000  0.706000  0.500000  1.0  -0.49
  N  N94  1  0.500000  0.206000  0.000000  1.0  -0.49
  N  N95  1  0.000000  0.646300  0.000000  1.0  -0.4559
  N  N96  1  0.500000  0.146300  0.500000  1.0  -0.4559
  O  O97  1  0.367300  0.564600  0.841800  1.0  -0.6964
  O  O98  1  0.172600  0.673700  0.645000  1.0  -0.7877
  O  O99  1  0.368300  0.788300  0.658400  1.0  -0.7156
  O  O100  1  0.503600  0.849900  0.605200  1.0  -0.7867
  O  O101  1  0.111800  0.544000  0.907800  1.0  -0.6599
  O  O102  1  0.502500  0.505600  0.896700  1.0  -0.7806
  O  O103  1  0.171400  0.680200  0.853600  1.0  -0.7747
  O  O104  1  0.112200  0.808700  0.591800  1.0  -0.6903
  O  O105  1  0.867300  0.064600  0.341800  1.0  -0.6964
  O  O106  1  0.672600  0.173700  0.145000  1.0  -0.7877
  O  O107  1  0.868300  0.288300  0.158400  1.0  -0.7156
  O  O108  1  0.003600  0.349900  0.105200  1.0  -0.7867
  O  O109  1  0.611800  0.044000  0.407800  1.0  -0.6599
  O  O110  1  0.002500  0.005600  0.396700  1.0  -0.7806
  O  O111  1  0.671400  0.180200  0.353600  1.0  -0.7747
  O  O112  1  0.612200  0.308700  0.091800  1.0  -0.6903
  O  O113  1  0.632700  0.564600  0.158200  1.0  -0.6981
  O  O114  1  0.827400  0.673700  0.355000  1.0  -0.7874
  O  O115  1  0.631700  0.788300  0.341600  1.0  -0.717
  O  O116  1  0.496400  0.849900  0.394800  1.0  -0.7859
  O  O117  1  0.888200  0.544000  0.092200  1.0  -0.6597
  O  O118  1  0.497500  0.505600  0.103300  1.0  -0.779
  O  O119  1  0.828600  0.680200  0.146400  1.0  -0.7753
  O  O120  1  0.887800  0.808700  0.408200  1.0  -0.6913
  O  O121  1  0.132700  0.064600  0.658200  1.0  -0.6981
  O  O122  1  0.327400  0.173700  0.855000  1.0  -0.7874
  O  O123  1  0.131700  0.288300  0.841600  1.0  -0.717
  O  O124  1  0.996400  0.349900  0.894800  1.0  -0.7859
  O  O125  1  0.388200  0.044000  0.592200  1.0  -0.6597
  O  O126  1  0.997500  0.005600  0.603300  1.0  -0.779
  O  O127  1  0.328600  0.180200  0.646400  1.0  -0.7753
  O  O128  1  0.387800  0.308700  0.908200  1.0  -0.6913
