# generated using pymatgen
data_La2H8C14N2O9
_symmetry_space_group_name_H-M   'P 1'
_cell_length_a   17.75500000
_cell_length_b   19.83800000
_cell_length_c   13.31100000
_cell_angle_alpha   90.00000000
_cell_angle_beta   131.83400000
_cell_angle_gamma   90.00000000
_symmetry_Int_Tables_number   1
_chemical_formula_structural   La2H8C14N2O9
_chemical_formula_sum   'La8 H32 C56 N8 O36'
_cell_volume   3493.27157611
_cell_formula_units_Z   4
loop_
 _symmetry_equiv_pos_site_id
 _symmetry_equiv_pos_as_xyz
  1  'x, y, z'
loop_
 _atom_site_type_symbol
 _atom_site_label
 _atom_site_symmetry_multiplicity
 _atom_site_fract_x
 _atom_site_fract_y
 _atom_site_fract_z
 _atom_site_occupancy
 _atom_site_charge
  La  La1  1  0.891950  0.266960  0.283940  1.0  2.0383
  La  La2  1  0.608050  0.516950  0.216150  1.0  2.1149
  La  La3  1  0.391950  0.766960  0.283940  1.0  2.0383
  La  La4  1  0.108050  0.016950  0.216150  1.0  2.1149
  La  La5  1  0.891950  0.733040  0.783940  1.0  2.0387
  La  La6  1  0.608050  0.483050  0.716150  1.0  2.1149
  La  La7  1  0.391950  0.233040  0.783940  1.0  2.0387
  La  La8  1  0.108050  0.983050  0.716150  1.0  2.1149
  H  H9  1  0.557800  0.386100  0.180300  1.0  0.4334
  H  H10  1  0.610300  0.350000  0.146900  1.0  0.4456
  H  H11  1  0.383900  0.747500  0.940400  1.0  0.0854
  H  H12  1  0.380900  0.742500  0.762500  1.0  0.0733
  H  H13  1  0.463800  0.654400  0.755100  1.0  0.0846
  H  H14  1  0.943200  0.497600  0.558600  1.0  0.0837
  H  H15  1  0.117800  0.494000  0.735100  1.0  0.0814
  H  H16  1  0.208800  0.404300  0.745300  1.0  0.0833
  H  H17  1  0.057800  0.886100  0.180300  1.0  0.4334
  H  H18  1  0.110300  0.850000  0.146900  1.0  0.4456
  H  H19  1  0.883900  0.247500  0.940400  1.0  0.0854
  H  H20  1  0.880900  0.242500  0.762500  1.0  0.0733
  H  H21  1  0.963800  0.154400  0.755100  1.0  0.0846
  H  H22  1  0.443200  0.997600  0.558600  1.0  0.0837
  H  H23  1  0.617800  0.994000  0.735100  1.0  0.0814
  H  H24  1  0.708800  0.904300  0.745300  1.0  0.0833
  H  H25  1  0.557800  0.613900  0.680300  1.0  0.4335
  H  H26  1  0.610300  0.650000  0.646900  1.0  0.4447
  H  H27  1  0.383900  0.252500  0.440400  1.0  0.0853
  H  H28  1  0.380900  0.257500  0.262500  1.0  0.0733
  H  H29  1  0.463800  0.345600  0.255100  1.0  0.0848
  H  H30  1  0.943200  0.502400  0.058600  1.0  0.0836
  H  H31  1  0.117800  0.506000  0.235100  1.0  0.0811
  H  H32  1  0.208800  0.595700  0.245300  1.0  0.0833
  H  H33  1  0.057800  0.113900  0.680300  1.0  0.4335
  H  H34  1  0.110300  0.150000  0.646900  1.0  0.4447
  H  H35  1  0.883900  0.752500  0.440400  1.0  0.0853
  H  H36  1  0.880900  0.757500  0.262500  1.0  0.0733
  H  H37  1  0.963800  0.845600  0.255100  1.0  0.0848
  H  H38  1  0.443200  0.002400  0.058600  1.0  0.0836
  H  H39  1  0.617800  0.006000  0.235100  1.0  0.0811
  H  H40  1  0.708800  0.095700  0.245300  1.0  0.0833
  C  C41  1  0.479400  0.663800  0.156500  1.0  0.6241
  C  C42  1  0.469500  0.663000  0.034700  1.0  0.0755
  C  C43  1  0.416700  0.713000  0.935400  1.0  -0.1523
  C  C44  1  0.414500  0.709600  0.829400  1.0  -0.1197
  C  C45  1  0.462800  0.656900  0.823900  1.0  -0.1392
  C  C46  1  0.509600  0.607800  0.923500  1.0  0.0881
  C  C47  1  0.559600  0.546800  0.921600  1.0  0.6387
  C  C48  1  0.823200  0.414000  0.343700  1.0  0.6224
  C  C49  1  0.934800  0.412900  0.465600  1.0  0.09
  C  C50  1  0.981200  0.463100  0.563900  1.0  -0.159
  C  C51  1  0.084700  0.460600  0.669400  1.0  -0.1352
  C  C52  1  0.139000  0.407000  0.675800  1.0  -0.1506
  C  C53  1  0.086300  0.357900  0.576000  1.0  0.0705
  C  C54  1  0.137800  0.296800  0.578000  1.0  0.6274
  C  C55  1  0.979400  0.163800  0.156500  1.0  0.6241
  C  C56  1  0.969500  0.163000  0.034700  1.0  0.0755
  C  C57  1  0.916700  0.213000  0.935400  1.0  -0.1523
  C  C58  1  0.914500  0.209600  0.829400  1.0  -0.1197
  C  C59  1  0.962800  0.156900  0.823900  1.0  -0.1392
  C  C60  1  0.009600  0.107800  0.923500  1.0  0.0881
  C  C61  1  0.059600  0.046800  0.921600  1.0  0.6387
  C  C62  1  0.323200  0.914000  0.343700  1.0  0.6224
  C  C63  1  0.434800  0.912900  0.465600  1.0  0.09
  C  C64  1  0.481200  0.963100  0.563900  1.0  -0.159
  C  C65  1  0.584700  0.960600  0.669400  1.0  -0.1352
  C  C66  1  0.639000  0.907000  0.675800  1.0  -0.1506
  C  C67  1  0.586300  0.857900  0.576000  1.0  0.0705
  C  C68  1  0.637800  0.796800  0.578000  1.0  0.6274
  C  C69  1  0.479400  0.336200  0.656500  1.0  0.6245
  C  C70  1  0.469500  0.337000  0.534700  1.0  0.0751
  C  C71  1  0.416700  0.287000  0.435400  1.0  -0.1518
  C  C72  1  0.414500  0.290400  0.329400  1.0  -0.1211
  C  C73  1  0.462800  0.343100  0.323900  1.0  -0.1386
  C  C74  1  0.509600  0.392200  0.423500  1.0  0.0876
  C  C75  1  0.559600  0.453200  0.421600  1.0  0.6375
  C  C76  1  0.823200  0.586000  0.843700  1.0  0.6225
  C  C77  1  0.934800  0.587100  0.965600  1.0  0.0896
  C  C78  1  0.981200  0.536900  0.063900  1.0  -0.1581
  C  C79  1  0.084700  0.539400  0.169400  1.0  -0.1363
  C  C80  1  0.139000  0.593000  0.175800  1.0  -0.1501
  C  C81  1  0.086300  0.642100  0.076000  1.0  0.0697
  C  C82  1  0.137800  0.703200  0.078000  1.0  0.6276
  C  C83  1  0.979400  0.836200  0.656500  1.0  0.6245
  C  C84  1  0.969500  0.837000  0.534700  1.0  0.0751
  C  C85  1  0.916700  0.787000  0.435400  1.0  -0.1518
  C  C86  1  0.914500  0.790400  0.329400  1.0  -0.1211
  C  C87  1  0.962800  0.843100  0.323900  1.0  -0.1386
  C  C88  1  0.009600  0.892200  0.423500  1.0  0.0876
  C  C89  1  0.059600  0.953200  0.421600  1.0  0.6375
  C  C90  1  0.323200  0.086000  0.843700  1.0  0.6225
  C  C91  1  0.434800  0.087100  0.965600  1.0  0.0896
  C  C92  1  0.481200  0.036900  0.063900  1.0  -0.1581
  C  C93  1  0.584700  0.039400  0.169400  1.0  -0.1363
  C  C94  1  0.639000  0.093000  0.175800  1.0  -0.1501
  C  C95  1  0.586300  0.142100  0.076000  1.0  0.0697
  C  C96  1  0.637800  0.203200  0.078000  1.0  0.6276
  N  N97  1  0.514200  0.611200  0.027800  1.0  -0.5328
  N  N98  1  0.985600  0.361100  0.471300  1.0  -0.5444
  N  N99  1  0.014200  0.111200  0.027800  1.0  -0.5328
  N  N100  1  0.485600  0.861100  0.471300  1.0  -0.5444
  N  N101  1  0.514200  0.388800  0.527800  1.0  -0.5336
  N  N102  1  0.985600  0.638900  0.971300  1.0  -0.5454
  N  N103  1  0.014200  0.888800  0.527800  1.0  -0.5336
  N  N104  1  0.485600  0.138900  0.971300  1.0  -0.5454
  O  O105  1  0.584000  0.388800  0.144300  1.0  -0.8201
  O  O106  1  0.438800  0.712500  0.165300  1.0  -0.7201
  O  O107  1  0.527600  0.616200  0.240000  1.0  -0.7101
  O  O108  1  0.556200  0.542500  0.825000  1.0  -0.6849
  O  O109  1  0.600400  0.505350  0.017400  1.0  -0.6911
  O  O110  1  0.788500  0.366600  0.260300  1.0  -0.6379
  O  O111  1  0.772800  0.462400  0.334500  1.0  -0.7311
  O  O112  1  0.083700  0.255100  0.482800  1.0  -0.7058
  O  O113  1  0.231600  0.292100  0.675100  1.0  -0.724
  O  O114  1  0.084000  0.888800  0.144300  1.0  -0.8201
  O  O115  1  0.938800  0.212500  0.165300  1.0  -0.7203
  O  O116  1  0.027600  0.116200  0.240000  1.0  -0.7101
  O  O117  1  0.056200  0.042500  0.825000  1.0  -0.6849
  O  O118  1  0.100400  0.005350  0.017400  1.0  -0.6911
  O  O119  1  0.288500  0.866600  0.260300  1.0  -0.6379
  O  O120  1  0.272800  0.962400  0.334500  1.0  -0.7311
  O  O121  1  0.583700  0.755100  0.482800  1.0  -0.7058
  O  O122  1  0.731600  0.792100  0.675100  1.0  -0.724
  O  O123  1  0.584000  0.611200  0.644300  1.0  -0.8194
  O  O124  1  0.438800  0.287500  0.665300  1.0  -0.7206
  O  O125  1  0.527600  0.383800  0.740000  1.0  -0.71
  O  O126  1  0.556200  0.457500  0.325000  1.0  -0.6837
  O  O127  1  0.600400  0.494650  0.517400  1.0  -0.691
  O  O128  1  0.788500  0.633400  0.760300  1.0  -0.6378
  O  O129  1  0.772800  0.537600  0.834500  1.0  -0.7317
  O  O130  1  0.083700  0.744900  0.982800  1.0  -0.7059
  O  O131  1  0.231600  0.707900  0.175100  1.0  -0.7245
  O  O132  1  0.084000  0.111200  0.644300  1.0  -0.8194
  O  O133  1  0.938800  0.787500  0.665300  1.0  -0.7208
  O  O134  1  0.027600  0.883800  0.740000  1.0  -0.71
  O  O135  1  0.056200  0.957500  0.325000  1.0  -0.6837
  O  O136  1  0.100400  0.994650  0.517400  1.0  -0.691
  O  O137  1  0.288500  0.133400  0.760300  1.0  -0.6378
  O  O138  1  0.272800  0.037600  0.834500  1.0  -0.7317
  O  O139  1  0.583700  0.244900  0.982800  1.0  -0.7059
  O  O140  1  0.731600  0.207900  0.175100  1.0  -0.7245
