# generated using pymatgen
data_CeH3C7NO4
_symmetry_space_group_name_H-M   'P 1'
_cell_length_a   17.62900000
_cell_length_b   19.79700000
_cell_length_c   13.25660000
_cell_angle_alpha   90.00000000
_cell_angle_beta   131.70000000
_cell_angle_gamma   90.00000000
_symmetry_Int_Tables_number   1
_chemical_formula_structural   CeH3C7NO4
_chemical_formula_sum   'Ce8 H24 C56 N8 O32'
_cell_volume   3454.37441674
_cell_formula_units_Z   8
loop_
 _symmetry_equiv_pos_site_id
 _symmetry_equiv_pos_as_xyz
  1  'x, y, z'
loop_
 _atom_site_type_symbol
 _atom_site_label
 _atom_site_symmetry_multiplicity
 _atom_site_fract_x
 _atom_site_fract_y
 _atom_site_fract_z
 _atom_site_occupancy
 _atom_site_charge
  Ce  Ce1  1  0.392370  0.017380  0.284680  1.0  2.0584
  Ce  Ce2  1  0.107520  0.767380  0.215200  1.0  2.0585
  Ce  Ce3  1  0.892370  0.517380  0.284680  1.0  2.0584
  Ce  Ce4  1  0.607520  0.267380  0.215200  1.0  2.0585
  Ce  Ce5  1  0.392370  0.982620  0.784680  1.0  2.058
  Ce  Ce6  1  0.107520  0.232620  0.715200  1.0  2.0581
  Ce  Ce7  1  0.892370  0.482620  0.784680  1.0  2.058
  Ce  Ce8  1  0.607520  0.732620  0.715200  1.0  2.0581
  H  H9  1  0.616400  0.247100  0.559000  1.0  0.099
  H  H10  1  0.617900  0.243200  0.736000  1.0  0.0936
  H  H11  1  0.535500  0.153900  0.744900  1.0  0.1
  H  H12  1  0.057400  0.997700  0.941200  1.0  0.1036
  H  H13  1  0.882300  0.992700  0.763800  1.0  0.0969
  H  H14  1  0.790900  0.904300  0.755300  1.0  0.0999
  H  H15  1  0.116400  0.747100  0.559000  1.0  0.099
  H  H16  1  0.117900  0.743200  0.736000  1.0  0.0936
  H  H17  1  0.035500  0.653900  0.744900  1.0  0.1
  H  H18  1  0.557400  0.497700  0.941200  1.0  0.1036
  H  H19  1  0.382300  0.492700  0.763800  1.0  0.0969
  H  H20  1  0.290900  0.404300  0.755300  1.0  0.0999
  H  H21  1  0.616400  0.752900  0.059000  1.0  0.099
  H  H22  1  0.617900  0.756800  0.236000  1.0  0.0934
  H  H23  1  0.535500  0.846100  0.244900  1.0  0.1
  H  H24  1  0.057400  0.002300  0.441200  1.0  0.1032
  H  H25  1  0.882300  0.007300  0.263800  1.0  0.0968
  H  H26  1  0.790900  0.095700  0.255300  1.0  0.1
  H  H27  1  0.116400  0.252900  0.059000  1.0  0.099
  H  H28  1  0.117900  0.256800  0.236000  1.0  0.0934
  H  H29  1  0.035500  0.346100  0.244900  1.0  0.1
  H  H30  1  0.557400  0.502300  0.441200  1.0  0.1032
  H  H31  1  0.382300  0.507300  0.263800  1.0  0.0968
  H  H32  1  0.290900  0.595700  0.255300  1.0  0.1
  C  C33  1  0.530600  0.162790  0.464900  1.0  0.1002
  C  C34  1  0.583100  0.212660  0.563800  1.0  -0.1421
  C  C35  1  0.584800  0.209900  0.669700  1.0  -0.1161
  C  C36  1  0.536200  0.156610  0.675500  1.0  -0.139
  C  C37  1  0.489100  0.107820  0.575700  1.0  0.0746
  C  C38  1  0.519900  0.163910  0.341800  1.0  0.6543
  C  C39  1  0.439300  0.046460  0.577300  1.0  0.6447
  C  C40  1  0.066100  0.912370  0.035200  1.0  0.0963
  C  C41  1  0.019400  0.962900  0.936100  1.0  -0.144
  C  C42  1  0.915500  0.959600  0.830500  1.0  -0.1193
  C  C43  1  0.861100  0.906790  0.824500  1.0  -0.1484
  C  C44  1  0.913700  0.857760  0.923900  1.0  0.0984
  C  C45  1  0.178500  0.913540  0.157800  1.0  0.651
  C  C46  1  0.862400  0.796080  0.922800  1.0  0.6352
  C  C47  1  0.030600  0.662790  0.464900  1.0  0.1002
  C  C48  1  0.083100  0.712660  0.563800  1.0  -0.1421
  C  C49  1  0.084800  0.709900  0.669700  1.0  -0.1161
  C  C50  1  0.036200  0.656610  0.675500  1.0  -0.139
  C  C51  1  0.989100  0.607820  0.575700  1.0  0.0746
  C  C52  1  0.019900  0.663910  0.341800  1.0  0.6543
  C  C53  1  0.939300  0.546460  0.577300  1.0  0.6447
  C  C54  1  0.566100  0.412370  0.035200  1.0  0.0963
  C  C55  1  0.519400  0.462900  0.936100  1.0  -0.144
  C  C56  1  0.415500  0.459600  0.830500  1.0  -0.1193
  C  C57  1  0.361100  0.406790  0.824500  1.0  -0.1484
  C  C58  1  0.413700  0.357760  0.923900  1.0  0.0984
  C  C59  1  0.678500  0.413540  0.157800  1.0  0.651
  C  C60  1  0.362400  0.296080  0.922800  1.0  0.6352
  C  C61  1  0.530600  0.837210  0.964900  1.0  0.1002
  C  C62  1  0.583100  0.787340  0.063800  1.0  -0.1425
  C  C63  1  0.584800  0.790100  0.169700  1.0  -0.1165
  C  C64  1  0.536200  0.843390  0.175500  1.0  -0.1388
  C  C65  1  0.489100  0.892180  0.075700  1.0  0.0733
  C  C66  1  0.519900  0.836090  0.841800  1.0  0.6542
  C  C67  1  0.439300  0.953540  0.077300  1.0  0.6431
  C  C68  1  0.066100  0.087630  0.535200  1.0  0.0967
  C  C69  1  0.019400  0.037100  0.436100  1.0  -0.1442
  C  C70  1  0.915500  0.040400  0.330500  1.0  -0.119
  C  C71  1  0.861100  0.093210  0.324500  1.0  -0.1482
  C  C72  1  0.913700  0.142240  0.423900  1.0  0.0972
  C  C73  1  0.178500  0.086460  0.657800  1.0  0.6514
  C  C74  1  0.862400  0.203920  0.422800  1.0  0.6327
  C  C75  1  0.030600  0.337210  0.964900  1.0  0.1002
  C  C76  1  0.083100  0.287340  0.063800  1.0  -0.1425
  C  C77  1  0.084800  0.290100  0.169700  1.0  -0.1165
  C  C78  1  0.036200  0.343390  0.175500  1.0  -0.1388
  C  C79  1  0.989100  0.392180  0.075700  1.0  0.0733
  C  C80  1  0.019900  0.336090  0.841800  1.0  0.6542
  C  C81  1  0.939300  0.453540  0.077300  1.0  0.6431
  C  C82  1  0.566100  0.587630  0.535200  1.0  0.0967
  C  C83  1  0.519400  0.537100  0.436100  1.0  -0.1442
  C  C84  1  0.415500  0.540400  0.330500  1.0  -0.119
  C  C85  1  0.361100  0.593210  0.324500  1.0  -0.1482
  C  C86  1  0.413700  0.642240  0.423900  1.0  0.0972
  C  C87  1  0.678500  0.586460  0.657800  1.0  0.6514
  C  C88  1  0.362400  0.703920  0.422800  1.0  0.6327
  N  N89  1  0.485300  0.111310  0.471200  1.0  -0.5126
  N  N90  1  0.013900  0.860690  0.028200  1.0  -0.5111
  N  N91  1  0.985300  0.611310  0.471200  1.0  -0.5126
  N  N92  1  0.513900  0.360690  0.028200  1.0  -0.5111
  N  N93  1  0.485300  0.888690  0.971200  1.0  -0.5143
  N  N94  1  0.013900  0.139310  0.528200  1.0  -0.5124
  N  N95  1  0.985300  0.388690  0.971200  1.0  -0.5143
  N  N96  1  0.513900  0.639310  0.528200  1.0  -0.5124
  O  O97  1  0.471840  0.115770  0.259300  1.0  -0.7008
  O  O98  1  0.560700  0.212540  0.332400  1.0  -0.7919
  O  O99  1  0.397900  0.004640  0.480800  1.0  -0.7202
  O  O100  1  0.442700  0.041400  0.674500  1.0  -0.6953
  O  O101  1  0.212910  0.865430  0.241000  1.0  -0.7189
  O  O102  1  0.228500  0.962300  0.167400  1.0  -0.7871
  O  O103  1  0.917120  0.754880  0.018700  1.0  -0.6988
  O  O104  1  0.767890  0.791460  0.825100  1.0  -0.7145
  O  O105  1  0.971840  0.615770  0.259300  1.0  -0.7008
  O  O106  1  0.060700  0.712540  0.332400  1.0  -0.7918
  O  O107  1  0.897900  0.504640  0.480800  1.0  -0.7202
  O  O108  1  0.942700  0.541400  0.674500  1.0  -0.6953
  O  O109  1  0.712910  0.365430  0.241000  1.0  -0.7189
  O  O110  1  0.728500  0.462300  0.167400  1.0  -0.7871
  O  O111  1  0.417120  0.254880  0.018700  1.0  -0.6988
  O  O112  1  0.267890  0.291460  0.825100  1.0  -0.7145
  O  O113  1  0.471840  0.884230  0.759300  1.0  -0.7007
  O  O114  1  0.560700  0.787460  0.832400  1.0  -0.7915
  O  O115  1  0.397900  0.995360  0.980800  1.0  -0.7204
  O  O116  1  0.442700  0.958600  0.174500  1.0  -0.6947
  O  O117  1  0.212910  0.134570  0.741000  1.0  -0.7194
  O  O118  1  0.228500  0.037700  0.667400  1.0  -0.7871
  O  O119  1  0.917120  0.245120  0.518700  1.0  -0.698
  O  O120  1  0.767890  0.208540  0.325100  1.0  -0.7136
  O  O121  1  0.971840  0.384230  0.759300  1.0  -0.7007
  O  O122  1  0.060700  0.287460  0.832400  1.0  -0.7914
  O  O123  1  0.897900  0.495360  0.980800  1.0  -0.7204
  O  O124  1  0.942700  0.458600  0.174500  1.0  -0.6947
  O  O125  1  0.712910  0.634570  0.741000  1.0  -0.7194
  O  O126  1  0.728500  0.537700  0.667400  1.0  -0.7871
  O  O127  1  0.417120  0.745120  0.518700  1.0  -0.698
  O  O128  1  0.267890  0.708540  0.325100  1.0  -0.7136
