# generated using pymatgen
data_AgH8C9N4
_symmetry_space_group_name_H-M   'P 1'
_cell_length_a   22.77100000
_cell_length_b   21.31190000
_cell_length_c   19.01000000
_cell_angle_alpha   90.00000000
_cell_angle_beta   118.49900000
_cell_angle_gamma   90.00000000
_symmetry_Int_Tables_number   1
_chemical_formula_structural   AgH8C9N4
_chemical_formula_sum   'Ag24 H192 C216 N96'
_cell_volume   8107.53832657
_cell_formula_units_Z   24
loop_
 _symmetry_equiv_pos_site_id
 _symmetry_equiv_pos_as_xyz
  1  'x, y, z'
loop_
 _atom_site_type_symbol
 _atom_site_label
 _atom_site_symmetry_multiplicity
 _atom_site_fract_x
 _atom_site_fract_y
 _atom_site_fract_z
 _atom_site_occupancy
 _atom_site_charge
  Ag  Ag1  1  0.227220  0.378080  0.193420  1.0  0.5123
  Ag  Ag2  1  0.274200  0.371300  0.301200  1.0  0.4781
  Ag  Ag3  1  0.772780  0.378080  0.306580  1.0  0.5125
  Ag  Ag4  1  0.725800  0.371300  0.198800  1.0  0.4804
  Ag  Ag5  1  0.272780  0.121920  0.806580  1.0  0.5125
  Ag  Ag6  1  0.225800  0.128700  0.698800  1.0  0.4807
  Ag  Ag7  1  0.727220  0.121920  0.693420  1.0  0.5121
  Ag  Ag8  1  0.774200  0.128700  0.801200  1.0  0.4782
  Ag  Ag9  1  0.000000  0.379600  0.750000  1.0  0.4271
  Ag  Ag10  1  0.500000  0.120400  0.250000  1.0  0.4268
  Ag  Ag11  1  0.500000  0.634360  0.250000  1.0  0.4587
  Ag  Ag12  1  0.000000  0.865640  0.750000  1.0  0.4589
  Ag  Ag13  1  0.727220  0.878080  0.193420  1.0  0.5123
  Ag  Ag14  1  0.774200  0.871300  0.301200  1.0  0.4781
  Ag  Ag15  1  0.272780  0.878080  0.306580  1.0  0.5125
  Ag  Ag16  1  0.225800  0.871300  0.198800  1.0  0.4804
  Ag  Ag17  1  0.772780  0.621920  0.806580  1.0  0.5125
  Ag  Ag18  1  0.725800  0.628700  0.698800  1.0  0.4807
  Ag  Ag19  1  0.227220  0.621920  0.693420  1.0  0.5121
  Ag  Ag20  1  0.274200  0.628700  0.801200  1.0  0.4782
  Ag  Ag21  1  0.500000  0.879600  0.750000  1.0  0.4271
  Ag  Ag22  1  0.000000  0.620400  0.250000  1.0  0.4268
  Ag  Ag23  1  0.000000  0.134360  0.250000  1.0  0.4587
  Ag  Ag24  1  0.500000  0.365640  0.750000  1.0  0.4589
  H  H25  1  0.317200  0.490900  0.316300  1.0  0.0346
  H  H26  1  0.135500  0.467900  0.038800  1.0  0.047
  H  H27  1  0.173400  0.289300  0.033000  1.0  0.0517
  H  H28  1  0.061100  0.466000  0.903600  1.0  0.0641
  H  H29  1  0.186100  0.190800  0.889800  1.0  0.0545
  H  H30  1  0.038300  0.257600  0.850900  1.0  0.1105
  H  H31  1  0.104700  0.227700  0.921100  1.0  0.0949
  H  H32  1  0.185700  0.238600  0.689400  1.0  0.0503
  H  H33  1  0.143500  0.375900  0.366700  1.0  0.088
  H  H34  1  0.210900  0.376300  0.360100  1.0  0.1721
  H  H35  1  0.445400  0.716000  0.095500  1.0  0.0695
  H  H36  1  0.364800  0.717700  0.962000  1.0  0.0464
  H  H37  1  0.097300  0.305200  0.659400  1.0  0.0476
  H  H38  1  0.398400  0.478400  0.085300  1.0  0.0979
  H  H39  1  0.463600  0.509700  0.155800  1.0  0.1107
  H  H40  1  0.088700  0.176300  0.158400  1.0  0.0605
  H  H41  1  0.404500  0.560000  0.342900  1.0  0.0496
  H  H42  1  0.171000  0.239700  0.161000  1.0  0.0442
  H  H43  1  0.317900  0.439900  0.118500  1.0  0.0593
  H  H44  1  0.068200  0.290200  0.307700  1.0  0.0545
  H  H45  1  0.067100  0.461500  0.307100  1.0  0.0532
  H  H46  1  0.176100  0.520000  0.171800  1.0  0.057
  H  H47  1  0.323700  0.541300  0.971600  1.0  0.0569
  H  H48  1  0.088900  0.579200  0.165800  1.0  0.0557
  H  H49  1  0.682800  0.490900  0.183700  1.0  0.034
  H  H50  1  0.864500  0.467900  0.461200  1.0  0.0468
  H  H51  1  0.826600  0.289300  0.467000  1.0  0.0516
  H  H52  1  0.938900  0.466000  0.596400  1.0  0.0643
  H  H53  1  0.813900  0.190800  0.610200  1.0  0.0541
  H  H54  1  0.961700  0.257600  0.649100  1.0  0.1102
  H  H55  1  0.895300  0.227700  0.578900  1.0  0.0945
  H  H56  1  0.814300  0.238600  0.810600  1.0  0.0532
  H  H57  1  0.856500  0.375900  0.133300  1.0  0.0889
  H  H58  1  0.789100  0.376300  0.139900  1.0  0.1709
  H  H59  1  0.554600  0.716000  0.404500  1.0  0.07
  H  H60  1  0.635200  0.717700  0.538000  1.0  0.0469
  H  H61  1  0.902700  0.305200  0.840600  1.0  0.0471
  H  H62  1  0.601600  0.478400  0.414700  1.0  0.0987
  H  H63  1  0.536400  0.509700  0.344200  1.0  0.1123
  H  H64  1  0.911300  0.176300  0.341600  1.0  0.0609
  H  H65  1  0.595500  0.560000  0.157100  1.0  0.0495
  H  H66  1  0.829000  0.239700  0.339000  1.0  0.0445
  H  H67  1  0.682100  0.439900  0.381500  1.0  0.0595
  H  H68  1  0.931800  0.290200  0.192300  1.0  0.055
  H  H69  1  0.932900  0.461500  0.192900  1.0  0.0551
  H  H70  1  0.823900  0.520000  0.328200  1.0  0.0569
  H  H71  1  0.676300  0.541300  0.528400  1.0  0.057
  H  H72  1  0.911100  0.579200  0.334200  1.0  0.0561
  H  H73  1  0.182800  0.009100  0.683700  1.0  0.0346
  H  H74  1  0.364500  0.032100  0.961200  1.0  0.0468
  H  H75  1  0.326600  0.210700  0.967000  1.0  0.0519
  H  H76  1  0.438900  0.034000  0.096400  1.0  0.0642
  H  H77  1  0.313900  0.309200  0.110200  1.0  0.0542
  H  H78  1  0.461700  0.242400  0.149100  1.0  0.1091
  H  H79  1  0.395300  0.272300  0.078900  1.0  0.0947
  H  H80  1  0.314300  0.261400  0.310600  1.0  0.0535
  H  H81  1  0.356500  0.124100  0.633300  1.0  0.089
  H  H82  1  0.289100  0.123700  0.639900  1.0  0.171
  H  H83  1  0.054600  0.784000  0.904500  1.0  0.0694
  H  H84  1  0.135200  0.782300  0.038000  1.0  0.0472
  H  H85  1  0.402700  0.194800  0.340600  1.0  0.0472
  H  H86  1  0.101600  0.021600  0.914700  1.0  0.0981
  H  H87  1  0.036400  0.990300  0.844200  1.0  0.1121
  H  H88  1  0.411300  0.323700  0.841600  1.0  0.0608
  H  H89  1  0.095500  0.940000  0.657100  1.0  0.0496
  H  H90  1  0.329000  0.260300  0.839000  1.0  0.0446
  H  H91  1  0.182100  0.060100  0.881500  1.0  0.0593
  H  H92  1  0.431800  0.209800  0.692300  1.0  0.0551
  H  H93  1  0.432900  0.038500  0.692900  1.0  0.0534
  H  H94  1  0.323900  0.980000  0.828200  1.0  0.0567
  H  H95  1  0.176300  0.958700  0.028400  1.0  0.057
  H  H96  1  0.411100  0.920800  0.834200  1.0  0.0561
  H  H97  1  0.817200  0.009100  0.816300  1.0  0.0348
  H  H98  1  0.635500  0.032100  0.538800  1.0  0.047
  H  H99  1  0.673400  0.210700  0.533000  1.0  0.0516
  H  H100  1  0.561100  0.034000  0.403600  1.0  0.0639
  H  H101  1  0.686100  0.309200  0.389800  1.0  0.0542
  H  H102  1  0.538300  0.242400  0.350900  1.0  0.1111
  H  H103  1  0.604700  0.272300  0.421100  1.0  0.0945
  H  H104  1  0.685700  0.261400  0.189400  1.0  0.0504
  H  H105  1  0.643500  0.124100  0.866700  1.0  0.088
  H  H106  1  0.710900  0.123700  0.860100  1.0  0.172
  H  H107  1  0.945400  0.784000  0.595500  1.0  0.069
  H  H108  1  0.864800  0.782300  0.462000  1.0  0.0468
  H  H109  1  0.597300  0.194800  0.159400  1.0  0.0473
  H  H110  1  0.898400  0.021600  0.585300  1.0  0.098
  H  H111  1  0.963600  0.990300  0.655800  1.0  0.1101
  H  H112  1  0.588700  0.323700  0.658400  1.0  0.0607
  H  H113  1  0.904500  0.940000  0.842900  1.0  0.0495
  H  H114  1  0.671000  0.260300  0.661000  1.0  0.0441
  H  H115  1  0.817900  0.060100  0.618500  1.0  0.0592
  H  H116  1  0.568200  0.209800  0.807700  1.0  0.0544
  H  H117  1  0.567100  0.038500  0.807100  1.0  0.0548
  H  H118  1  0.676100  0.980000  0.671800  1.0  0.057
  H  H119  1  0.823700  0.958700  0.471600  1.0  0.0573
  H  H120  1  0.588900  0.920800  0.665800  1.0  0.0558
  H  H121  1  0.817200  0.990900  0.316300  1.0  0.0346
  H  H122  1  0.635500  0.967900  0.038800  1.0  0.047
  H  H123  1  0.673400  0.789300  0.033000  1.0  0.0517
  H  H124  1  0.561100  0.966000  0.903600  1.0  0.0641
  H  H125  1  0.686100  0.690800  0.889800  1.0  0.0545
  H  H126  1  0.538300  0.757600  0.850900  1.0  0.1105
  H  H127  1  0.604700  0.727700  0.921100  1.0  0.0949
  H  H128  1  0.685700  0.738600  0.689400  1.0  0.0503
  H  H129  1  0.643500  0.875900  0.366700  1.0  0.088
  H  H130  1  0.710900  0.876300  0.360100  1.0  0.1721
  H  H131  1  0.945400  0.216000  0.095500  1.0  0.0695
  H  H132  1  0.864800  0.217700  0.962000  1.0  0.0464
  H  H133  1  0.597300  0.805200  0.659400  1.0  0.0476
  H  H134  1  0.898400  0.978400  0.085300  1.0  0.0979
  H  H135  1  0.963600  0.009700  0.155800  1.0  0.1107
  H  H136  1  0.588700  0.676300  0.158400  1.0  0.0605
  H  H137  1  0.904500  0.060000  0.342900  1.0  0.0492
  H  H138  1  0.671000  0.739700  0.161000  1.0  0.0442
  H  H139  1  0.817900  0.939900  0.118500  1.0  0.0593
  H  H140  1  0.568200  0.790200  0.307700  1.0  0.0545
  H  H141  1  0.567100  0.961500  0.307100  1.0  0.0531
  H  H142  1  0.676100  0.020000  0.171800  1.0  0.057
  H  H143  1  0.823700  0.041300  0.971600  1.0  0.055
  H  H144  1  0.588900  0.079200  0.165800  1.0  0.0557
  H  H145  1  0.182800  0.990900  0.183700  1.0  0.034
  H  H146  1  0.364500  0.967900  0.461200  1.0  0.0468
  H  H147  1  0.326600  0.789300  0.467000  1.0  0.0516
  H  H148  1  0.438900  0.966000  0.596400  1.0  0.0643
  H  H149  1  0.313900  0.690800  0.610200  1.0  0.0541
  H  H150  1  0.461700  0.757600  0.649100  1.0  0.1102
  H  H151  1  0.395300  0.727700  0.578900  1.0  0.0945
  H  H152  1  0.314300  0.738600  0.810600  1.0  0.0532
  H  H153  1  0.356500  0.875900  0.133300  1.0  0.0889
  H  H154  1  0.289100  0.876300  0.139900  1.0  0.1709
  H  H155  1  0.054600  0.216000  0.404500  1.0  0.07
  H  H156  1  0.135200  0.217700  0.538000  1.0  0.0469
  H  H157  1  0.402700  0.805200  0.840600  1.0  0.0471
  H  H158  1  0.101600  0.978400  0.414700  1.0  0.0987
  H  H159  1  0.036400  0.009700  0.344200  1.0  0.1123
  H  H160  1  0.411300  0.676300  0.341600  1.0  0.0609
  H  H161  1  0.095500  0.060000  0.157100  1.0  0.0491
  H  H162  1  0.329000  0.739700  0.339000  1.0  0.0445
  H  H163  1  0.182100  0.939900  0.381500  1.0  0.0595
  H  H164  1  0.431800  0.790200  0.192300  1.0  0.055
  H  H165  1  0.432900  0.961500  0.192900  1.0  0.0535
  H  H166  1  0.323900  0.020000  0.328200  1.0  0.0569
  H  H167  1  0.176300  0.041300  0.528400  1.0  0.0551
  H  H168  1  0.411100  0.079200  0.334200  1.0  0.0556
  H  H169  1  0.682800  0.509100  0.683700  1.0  0.0346
  H  H170  1  0.864500  0.532100  0.961200  1.0  0.0468
  H  H171  1  0.826600  0.710700  0.967000  1.0  0.0519
  H  H172  1  0.938900  0.534000  0.096400  1.0  0.0642
  H  H173  1  0.813900  0.809200  0.110200  1.0  0.0542
  H  H174  1  0.961700  0.742400  0.149100  1.0  0.1091
  H  H175  1  0.895300  0.772300  0.078900  1.0  0.0947
  H  H176  1  0.814300  0.761400  0.310600  1.0  0.0535
  H  H177  1  0.856500  0.624100  0.633300  1.0  0.089
  H  H178  1  0.789100  0.623700  0.639900  1.0  0.171
  H  H179  1  0.554600  0.284000  0.904500  1.0  0.0694
  H  H180  1  0.635200  0.282300  0.038000  1.0  0.0472
  H  H181  1  0.902700  0.694800  0.340600  1.0  0.0472
  H  H182  1  0.601600  0.521600  0.914700  1.0  0.0981
  H  H183  1  0.536400  0.490300  0.844200  1.0  0.1121
  H  H184  1  0.911300  0.823700  0.841600  1.0  0.0608
  H  H185  1  0.595500  0.440000  0.657100  1.0  0.0493
  H  H186  1  0.829000  0.760300  0.839000  1.0  0.0446
  H  H187  1  0.682100  0.560100  0.881500  1.0  0.0593
  H  H188  1  0.931800  0.709800  0.692300  1.0  0.0551
  H  H189  1  0.932900  0.538500  0.692900  1.0  0.0532
  H  H190  1  0.823900  0.480000  0.828200  1.0  0.0567
  H  H191  1  0.676300  0.458700  0.028400  1.0  0.0551
  H  H192  1  0.911100  0.420800  0.834200  1.0  0.0561
  H  H193  1  0.317200  0.509100  0.816300  1.0  0.0348
  H  H194  1  0.135500  0.532100  0.538800  1.0  0.047
  H  H195  1  0.173400  0.710700  0.533000  1.0  0.0516
  H  H196  1  0.061100  0.534000  0.403600  1.0  0.0639
  H  H197  1  0.186100  0.809200  0.389800  1.0  0.0542
  H  H198  1  0.038300  0.742400  0.350900  1.0  0.1111
  H  H199  1  0.104700  0.772300  0.421100  1.0  0.0945
  H  H200  1  0.185700  0.761400  0.189400  1.0  0.0504
  H  H201  1  0.143500  0.624100  0.866700  1.0  0.088
  H  H202  1  0.210900  0.623700  0.860100  1.0  0.172
  H  H203  1  0.445400  0.284000  0.595500  1.0  0.069
  H  H204  1  0.364800  0.282300  0.462000  1.0  0.0468
  H  H205  1  0.097300  0.694800  0.159400  1.0  0.0473
  H  H206  1  0.398400  0.521600  0.585300  1.0  0.098
  H  H207  1  0.463600  0.490300  0.655800  1.0  0.1101
  H  H208  1  0.088700  0.823700  0.658400  1.0  0.0607
  H  H209  1  0.404500  0.440000  0.842900  1.0  0.0491
  H  H210  1  0.171000  0.760300  0.661000  1.0  0.0441
  H  H211  1  0.317900  0.560100  0.618500  1.0  0.0592
  H  H212  1  0.068200  0.709800  0.807700  1.0  0.0544
  H  H213  1  0.067100  0.538500  0.807100  1.0  0.0531
  H  H214  1  0.176100  0.480000  0.671800  1.0  0.057
  H  H215  1  0.323700  0.458700  0.471600  1.0  0.0554
  H  H216  1  0.088900  0.420800  0.665800  1.0  0.0553
  C  C217  1  0.384600  0.507500  0.179200  1.0  0.2248
  C  C218  1  0.334500  0.493800  0.279800  1.0  0.0735
  C  C219  1  0.116200  0.255700  0.825100  1.0  0.1892
  C  C220  1  0.139000  0.318100  0.277900  1.0  0.2375
  C  C221  1  0.129000  0.429700  0.010300  1.0  0.089
  C  C222  1  0.150100  0.326500  0.007100  1.0  0.0831
  C  C223  1  0.083500  0.428500  0.929800  1.0  0.0968
  C  C224  1  0.168400  0.214500  0.841600  1.0  0.06
  C  C225  1  0.087400  0.262400  0.881800  1.0  -0.3859
  C  C226  1  0.167900  0.241700  0.725400  1.0  0.0869
  C  C227  1  0.102900  0.323400  0.926600  1.0  0.23
  C  C228  1  0.398800  0.574400  0.077000  1.0  0.2143
  C  C229  1  0.161500  0.376500  0.328500  1.0  -0.3983
  C  C230  1  0.139600  0.435900  0.280300  1.0  0.1967
  C  C231  1  0.420900  0.679000  0.071200  1.0  0.0906
  C  C232  1  0.372600  0.679400  0.990800  1.0  0.0989
  C  C233  1  0.115400  0.281900  0.707900  1.0  0.0974
  C  C234  1  0.414500  0.513800  0.123700  1.0  -0.385
  C  C235  1  0.101100  0.212900  0.190800  1.0  0.0883
  C  C236  1  0.386500  0.535800  0.295200  1.0  0.0862
  C  C237  1  0.150200  0.251200  0.192100  1.0  0.1123
  C  C238  1  0.334900  0.465100  0.165300  1.0  0.0516
  C  C239  1  0.089200  0.278800  0.276800  1.0  0.072
  C  C240  1  0.088800  0.473900  0.277300  1.0  0.0574
  C  C241  1  0.153600  0.506200  0.200100  1.0  0.0877
  C  C242  1  0.349400  0.577700  0.996000  1.0  0.1035
  C  C243  1  0.101500  0.541900  0.197000  1.0  0.095
  C  C244  1  0.615400  0.507500  0.320800  1.0  0.2248
  C  C245  1  0.665500  0.493800  0.220200  1.0  0.0741
  C  C246  1  0.883800  0.255700  0.674900  1.0  0.1891
  C  C247  1  0.861000  0.318100  0.222100  1.0  0.2372
  C  C248  1  0.871000  0.429700  0.489700  1.0  0.0895
  C  C249  1  0.849900  0.326500  0.492900  1.0  0.0838
  C  C250  1  0.916500  0.428500  0.570200  1.0  0.097
  C  C251  1  0.831600  0.214500  0.658400  1.0  0.0601
  C  C252  1  0.912600  0.262400  0.618200  1.0  -0.3856
  C  C253  1  0.832100  0.241700  0.774600  1.0  0.0856
  C  C254  1  0.897100  0.323400  0.573400  1.0  0.2295
  C  C255  1  0.601200  0.574400  0.423000  1.0  0.2152
  C  C256  1  0.838500  0.376500  0.171500  1.0  -0.3967
  C  C257  1  0.860400  0.435900  0.219700  1.0  0.1969
  C  C258  1  0.579100  0.679000  0.428800  1.0  0.0911
  C  C259  1  0.627400  0.679400  0.509200  1.0  0.0997
  C  C260  1  0.884600  0.281900  0.792100  1.0  0.0988
  C  C261  1  0.585500  0.513800  0.376300  1.0  -0.387
  C  C262  1  0.898900  0.212900  0.309200  1.0  0.0894
  C  C263  1  0.613500  0.535800  0.204800  1.0  0.0859
  C  C264  1  0.849800  0.251200  0.307900  1.0  0.1125
  C  C265  1  0.665100  0.465100  0.334700  1.0  0.0519
  C  C266  1  0.910800  0.278800  0.223200  1.0  0.0706
  C  C267  1  0.911200  0.473900  0.222700  1.0  0.0574
  C  C268  1  0.846400  0.506200  0.299900  1.0  0.0872
  C  C269  1  0.650600  0.577700  0.504000  1.0  0.1035
  C  C270  1  0.898500  0.541900  0.303000  1.0  0.0956
  C  C271  1  0.115400  0.992500  0.820800  1.0  0.224
  C  C272  1  0.165500  0.006200  0.720200  1.0  0.0748
  C  C273  1  0.383800  0.244300  0.174900  1.0  0.189
  C  C274  1  0.361000  0.181900  0.722100  1.0  0.2363
  C  C275  1  0.371000  0.070300  0.989700  1.0  0.0892
  C  C276  1  0.349900  0.173500  0.992900  1.0  0.0839
  C  C277  1  0.416500  0.071500  0.070200  1.0  0.0971
  C  C278  1  0.331600  0.285500  0.158400  1.0  0.06
  C  C279  1  0.412600  0.237600  0.118200  1.0  -0.3864
  C  C280  1  0.332100  0.258300  0.274600  1.0  0.0858
  C  C281  1  0.397100  0.176600  0.073400  1.0  0.2296
  C  C282  1  0.101200  0.925600  0.923000  1.0  0.2159
  C  C283  1  0.338500  0.123500  0.671500  1.0  -0.3972
  C  C284  1  0.360400  0.064100  0.719700  1.0  0.1971
  C  C285  1  0.079100  0.821000  0.928800  1.0  0.0908
  C  C286  1  0.127400  0.820600  0.009200  1.0  0.1004
  C  C287  1  0.384600  0.218100  0.292100  1.0  0.0995
  C  C288  1  0.085500  0.986200  0.876300  1.0  -0.3869
  C  C289  1  0.398900  0.287100  0.809200  1.0  0.0889
  C  C290  1  0.113500  0.964200  0.704800  1.0  0.0855
  C  C291  1  0.349800  0.248800  0.807900  1.0  0.1119
  C  C292  1  0.165100  0.034900  0.834700  1.0  0.0524
  C  C293  1  0.410800  0.221200  0.723200  1.0  0.0707
  C  C294  1  0.411200  0.026100  0.722700  1.0  0.0574
  C  C295  1  0.346400  0.993800  0.799900  1.0  0.0872
  C  C296  1  0.150600  0.922300  0.004000  1.0  0.1033
  C  C297  1  0.398500  0.958100  0.803000  1.0  0.0971
  C  C298  1  0.884600  0.992500  0.679200  1.0  0.224
  C  C299  1  0.834500  0.006200  0.779800  1.0  0.0742
  C  C300  1  0.616200  0.244300  0.325100  1.0  0.189
  C  C301  1  0.639000  0.181900  0.777900  1.0  0.2368
  C  C302  1  0.629000  0.070300  0.510300  1.0  0.0907
  C  C303  1  0.650100  0.173500  0.507100  1.0  0.0828
  C  C304  1  0.583500  0.071500  0.429800  1.0  0.0967
  C  C305  1  0.668400  0.285500  0.341600  1.0  0.06
  C  C306  1  0.587400  0.237600  0.381800  1.0  -0.3867
  C  C307  1  0.667900  0.258300  0.225400  1.0  0.0875
  C  C308  1  0.602900  0.176600  0.426600  1.0  0.2303
  C  C309  1  0.898800  0.925600  0.577000  1.0  0.2148
  C  C310  1  0.661500  0.123500  0.828500  1.0  -0.3987
  C  C311  1  0.639600  0.064100  0.780300  1.0  0.1972
  C  C312  1  0.920900  0.821000  0.571200  1.0  0.0915
  C  C313  1  0.872600  0.820600  0.490800  1.0  0.0987
  C  C314  1  0.615400  0.218100  0.207900  1.0  0.0974
  C  C315  1  0.914500  0.986200  0.623700  1.0  -0.3849
  C  C316  1  0.601100  0.287100  0.690800  1.0  0.0887
  C  C317  1  0.886500  0.964200  0.795200  1.0  0.0858
  C  C318  1  0.650200  0.248800  0.692100  1.0  0.1127
  C  C319  1  0.834900  0.034900  0.665300  1.0  0.0526
  C  C320  1  0.589200  0.221200  0.776800  1.0  0.0716
  C  C321  1  0.588800  0.026100  0.777300  1.0  0.0571
  C  C322  1  0.653600  0.993800  0.700100  1.0  0.0874
  C  C323  1  0.849400  0.922300  0.496000  1.0  0.1034
  C  C324  1  0.601500  0.958100  0.697000  1.0  0.0956
  C  C325  1  0.884600  0.007500  0.179200  1.0  0.2248
  C  C326  1  0.834500  0.993800  0.279800  1.0  0.0735
  C  C327  1  0.616200  0.755700  0.825100  1.0  0.1892
  C  C328  1  0.639000  0.818100  0.277900  1.0  0.2375
  C  C329  1  0.629000  0.929700  0.010300  1.0  0.089
  C  C330  1  0.650100  0.826500  0.007100  1.0  0.0831
  C  C331  1  0.583500  0.928500  0.929800  1.0  0.0968
  C  C332  1  0.668400  0.714500  0.841600  1.0  0.06
  C  C333  1  0.587400  0.762400  0.881800  1.0  -0.3859
  C  C334  1  0.667900  0.741700  0.725400  1.0  0.0869
  C  C335  1  0.602900  0.823400  0.926600  1.0  0.23
  C  C336  1  0.898800  0.074400  0.077000  1.0  0.2143
  C  C337  1  0.661500  0.876500  0.328500  1.0  -0.3983
  C  C338  1  0.639600  0.935900  0.280300  1.0  0.1967
  C  C339  1  0.920900  0.179000  0.071200  1.0  0.0906
  C  C340  1  0.872600  0.179400  0.990800  1.0  0.0989
  C  C341  1  0.615400  0.781900  0.707900  1.0  0.0961
  C  C342  1  0.914500  0.013800  0.123700  1.0  -0.385
  C  C343  1  0.601100  0.712900  0.190800  1.0  0.0883
  C  C344  1  0.886500  0.035800  0.295200  1.0  0.0862
  C  C345  1  0.650200  0.751200  0.192100  1.0  0.1123
  C  C346  1  0.834900  0.965100  0.165300  1.0  0.0516
  C  C347  1  0.589200  0.778800  0.276800  1.0  0.072
  C  C348  1  0.588800  0.973900  0.277300  1.0  0.0574
  C  C349  1  0.653600  0.006200  0.200100  1.0  0.0877
  C  C350  1  0.849400  0.077700  0.996000  1.0  0.1035
  C  C351  1  0.601500  0.041900  0.197000  1.0  0.095
  C  C352  1  0.115400  0.007500  0.320800  1.0  0.2248
  C  C353  1  0.165500  0.993800  0.220200  1.0  0.0741
  C  C354  1  0.383800  0.755700  0.674900  1.0  0.1891
  C  C355  1  0.361000  0.818100  0.222100  1.0  0.2372
  C  C356  1  0.371000  0.929700  0.489700  1.0  0.0895
  C  C357  1  0.349900  0.826500  0.492900  1.0  0.0838
  C  C358  1  0.416500  0.928500  0.570200  1.0  0.097
  C  C359  1  0.331600  0.714500  0.658400  1.0  0.0601
  C  C360  1  0.412600  0.762400  0.618200  1.0  -0.3856
  C  C361  1  0.332100  0.741700  0.774600  1.0  0.0856
  C  C362  1  0.397100  0.823400  0.573400  1.0  0.2295
  C  C363  1  0.101200  0.074400  0.423000  1.0  0.2152
  C  C364  1  0.338500  0.876500  0.171500  1.0  -0.3967
  C  C365  1  0.360400  0.935900  0.219700  1.0  0.1969
  C  C366  1  0.079100  0.179000  0.428800  1.0  0.0911
  C  C367  1  0.127400  0.179400  0.509200  1.0  0.0997
  C  C368  1  0.384600  0.781900  0.792100  1.0  0.0976
  C  C369  1  0.085500  0.013800  0.376300  1.0  -0.387
  C  C370  1  0.398900  0.712900  0.309200  1.0  0.0894
  C  C371  1  0.113500  0.035800  0.204800  1.0  0.0859
  C  C372  1  0.349800  0.751200  0.307900  1.0  0.1125
  C  C373  1  0.165100  0.965100  0.334700  1.0  0.0519
  C  C374  1  0.410800  0.778800  0.223200  1.0  0.0706
  C  C375  1  0.411200  0.973900  0.222700  1.0  0.0574
  C  C376  1  0.346400  0.006200  0.299900  1.0  0.0872
  C  C377  1  0.150600  0.077700  0.504000  1.0  0.1035
  C  C378  1  0.398500  0.041900  0.303000  1.0  0.0956
  C  C379  1  0.615400  0.492500  0.820800  1.0  0.224
  C  C380  1  0.665500  0.506200  0.720200  1.0  0.0748
  C  C381  1  0.883800  0.744300  0.174900  1.0  0.189
  C  C382  1  0.861000  0.681900  0.722100  1.0  0.2363
  C  C383  1  0.871000  0.570300  0.989700  1.0  0.0892
  C  C384  1  0.849900  0.673500  0.992900  1.0  0.0839
  C  C385  1  0.916500  0.571500  0.070200  1.0  0.0971
  C  C386  1  0.831600  0.785500  0.158400  1.0  0.06
  C  C387  1  0.912600  0.737600  0.118200  1.0  -0.3864
  C  C388  1  0.832100  0.758300  0.274600  1.0  0.0858
  C  C389  1  0.897100  0.676600  0.073400  1.0  0.2296
  C  C390  1  0.601200  0.425600  0.923000  1.0  0.2159
  C  C391  1  0.838500  0.623500  0.671500  1.0  -0.3972
  C  C392  1  0.860400  0.564100  0.719700  1.0  0.1971
  C  C393  1  0.579100  0.321000  0.928800  1.0  0.0908
  C  C394  1  0.627400  0.320600  0.009200  1.0  0.1004
  C  C395  1  0.884600  0.718100  0.292100  1.0  0.0983
  C  C396  1  0.585500  0.486200  0.876300  1.0  -0.3869
  C  C397  1  0.898900  0.787100  0.809200  1.0  0.0889
  C  C398  1  0.613500  0.464200  0.704800  1.0  0.0855
  C  C399  1  0.849800  0.748800  0.807900  1.0  0.1119
  C  C400  1  0.665100  0.534900  0.834700  1.0  0.0524
  C  C401  1  0.910800  0.721200  0.723200  1.0  0.0707
  C  C402  1  0.911200  0.526100  0.722700  1.0  0.0574
  C  C403  1  0.846400  0.493800  0.799900  1.0  0.0872
  C  C404  1  0.650600  0.422300  0.004000  1.0  0.1033
  C  C405  1  0.898500  0.458100  0.803000  1.0  0.0971
  C  C406  1  0.384600  0.492500  0.679200  1.0  0.224
  C  C407  1  0.334500  0.506200  0.779800  1.0  0.0742
  C  C408  1  0.116200  0.744300  0.325100  1.0  0.189
  C  C409  1  0.139000  0.681900  0.777900  1.0  0.2368
  C  C410  1  0.129000  0.570300  0.510300  1.0  0.0907
  C  C411  1  0.150100  0.673500  0.507100  1.0  0.0828
  C  C412  1  0.083500  0.571500  0.429800  1.0  0.0967
  C  C413  1  0.168400  0.785500  0.341600  1.0  0.06
  C  C414  1  0.087400  0.737600  0.381800  1.0  -0.3867
  C  C415  1  0.167900  0.758300  0.225400  1.0  0.0875
  C  C416  1  0.102900  0.676600  0.426600  1.0  0.2303
  C  C417  1  0.398800  0.425600  0.577000  1.0  0.2148
  C  C418  1  0.161500  0.623500  0.828500  1.0  -0.3987
  C  C419  1  0.139600  0.564100  0.780300  1.0  0.1972
  C  C420  1  0.420900  0.321000  0.571200  1.0  0.0915
  C  C421  1  0.372600  0.320600  0.490800  1.0  0.0987
  C  C422  1  0.115400  0.718100  0.207900  1.0  0.096
  C  C423  1  0.414500  0.486200  0.623700  1.0  -0.3849
  C  C424  1  0.101100  0.787100  0.690800  1.0  0.0887
  C  C425  1  0.386500  0.464200  0.795200  1.0  0.0858
  C  C426  1  0.150200  0.748800  0.692100  1.0  0.1127
  C  C427  1  0.334900  0.534900  0.665300  1.0  0.0526
  C  C428  1  0.089200  0.721200  0.776800  1.0  0.0716
  C  C429  1  0.088800  0.526100  0.777300  1.0  0.0571
  C  C430  1  0.153600  0.493800  0.700100  1.0  0.0874
  C  C431  1  0.349400  0.422300  0.496000  1.0  0.1034
  C  C432  1  0.101500  0.458100  0.697000  1.0  0.0956
  N  N433  1  0.070500  0.374900  0.888200  1.0  -0.3995
  N  N434  1  0.432500  0.626500  0.114100  1.0  -0.3925
  N  N435  1  0.164200  0.379400  0.049700  1.0  -0.3744
  N  N436  1  0.088800  0.289400  0.757200  1.0  -0.4848
  N  N437  1  0.194800  0.206500  0.792700  1.0  -0.3737
  N  N438  1  0.309400  0.458200  0.215400  1.0  -0.3696
  N  N439  1  0.411200  0.543000  0.245600  1.0  -0.4298
  N  N440  1  0.172700  0.453600  0.241400  1.0  -0.3714
  N  N441  1  0.169700  0.303600  0.234900  1.0  -0.3618
  N  N442  1  0.069200  0.525700  0.235600  1.0  -0.3883
  N  N443  1  0.070200  0.225800  0.233800  1.0  -0.3881
  N  N444  1  0.337200  0.629800  0.952100  1.0  -0.3934
  N  N445  1  0.929500  0.374900  0.611800  1.0  -0.4008
  N  N446  1  0.567500  0.626500  0.385900  1.0  -0.392
  N  N447  1  0.835800  0.379400  0.450300  1.0  -0.3719
  N  N448  1  0.911200  0.289400  0.742800  1.0  -0.4806
  N  N449  1  0.805200  0.206500  0.707300  1.0  -0.3734
  N  N450  1  0.690600  0.458200  0.284600  1.0  -0.3683
  N  N451  1  0.588800  0.543000  0.254400  1.0  -0.4293
  N  N452  1  0.827300  0.453600  0.258600  1.0  -0.3724
  N  N453  1  0.830300  0.303600  0.265100  1.0  -0.3608
  N  N454  1  0.930800  0.525700  0.264400  1.0  -0.3889
  N  N455  1  0.929800  0.225800  0.266200  1.0  -0.3879
  N  N456  1  0.662800  0.629800  0.547900  1.0  -0.3923
  N  N457  1  0.429500  0.125100  0.111800  1.0  -0.4005
  N  N458  1  0.067500  0.873500  0.885900  1.0  -0.3918
  N  N459  1  0.335800  0.120600  0.950300  1.0  -0.3721
  N  N460  1  0.411200  0.210600  0.242800  1.0  -0.482
  N  N461  1  0.305200  0.293500  0.207300  1.0  -0.3741
  N  N462  1  0.190600  0.041800  0.784600  1.0  -0.3688
  N  N463  1  0.088800  0.957000  0.754400  1.0  -0.4312
  N  N464  1  0.327300  0.046400  0.758600  1.0  -0.3716
  N  N465  1  0.330300  0.196400  0.765100  1.0  -0.3612
  N  N466  1  0.430800  0.974300  0.764400  1.0  -0.3887
  N  N467  1  0.429800  0.274200  0.766200  1.0  -0.388
  N  N468  1  0.162800  0.870200  0.047900  1.0  -0.3917
  N  N469  1  0.570500  0.125100  0.388200  1.0  -0.3993
  N  N470  1  0.932500  0.873500  0.614100  1.0  -0.3919
  N  N471  1  0.664200  0.120600  0.549700  1.0  -0.3744
  N  N472  1  0.588800  0.210600  0.257200  1.0  -0.4818
  N  N473  1  0.694800  0.293500  0.292700  1.0  -0.375
  N  N474  1  0.809400  0.041800  0.715400  1.0  -0.3694
  N  N475  1  0.911200  0.957000  0.745600  1.0  -0.4261
  N  N476  1  0.672700  0.046400  0.741400  1.0  -0.3707
  N  N477  1  0.669700  0.196400  0.734900  1.0  -0.3621
  N  N478  1  0.569200  0.974300  0.735600  1.0  -0.3882
  N  N479  1  0.570200  0.274200  0.733800  1.0  -0.3889
  N  N480  1  0.837200  0.870200  0.452100  1.0  -0.3932
  N  N481  1  0.570500  0.874900  0.888200  1.0  -0.3995
  N  N482  1  0.932500  0.126500  0.114100  1.0  -0.3925
  N  N483  1  0.664200  0.879400  0.049700  1.0  -0.3744
  N  N484  1  0.588800  0.789400  0.757200  1.0  -0.4848
  N  N485  1  0.694800  0.706500  0.792700  1.0  -0.3737
  N  N486  1  0.809400  0.958200  0.215400  1.0  -0.3696
  N  N487  1  0.911200  0.043000  0.245600  1.0  -0.4298
  N  N488  1  0.672700  0.953600  0.241400  1.0  -0.3714
  N  N489  1  0.669700  0.803600  0.234900  1.0  -0.3618
  N  N490  1  0.569200  0.025700  0.235600  1.0  -0.3883
  N  N491  1  0.570200  0.725800  0.233800  1.0  -0.3881
  N  N492  1  0.837200  0.129800  0.952100  1.0  -0.3934
  N  N493  1  0.429500  0.874900  0.611800  1.0  -0.4008
  N  N494  1  0.067500  0.126500  0.385900  1.0  -0.392
  N  N495  1  0.335800  0.879400  0.450300  1.0  -0.3719
  N  N496  1  0.411200  0.789400  0.742800  1.0  -0.4806
  N  N497  1  0.305200  0.706500  0.707300  1.0  -0.3734
  N  N498  1  0.190600  0.958200  0.284600  1.0  -0.3683
  N  N499  1  0.088800  0.043000  0.254400  1.0  -0.4293
  N  N500  1  0.327300  0.953600  0.258600  1.0  -0.3724
  N  N501  1  0.330300  0.803600  0.265100  1.0  -0.3608
  N  N502  1  0.430800  0.025700  0.264400  1.0  -0.3889
  N  N503  1  0.429800  0.725800  0.266200  1.0  -0.3879
  N  N504  1  0.162800  0.129800  0.547900  1.0  -0.3923
  N  N505  1  0.929500  0.625100  0.111800  1.0  -0.4005
  N  N506  1  0.567500  0.373500  0.885900  1.0  -0.3918
  N  N507  1  0.835800  0.620600  0.950300  1.0  -0.3721
  N  N508  1  0.911200  0.710600  0.242800  1.0  -0.482
  N  N509  1  0.805200  0.793500  0.207300  1.0  -0.3741
  N  N510  1  0.690600  0.541800  0.784600  1.0  -0.3688
  N  N511  1  0.588800  0.457000  0.754400  1.0  -0.4312
  N  N512  1  0.827300  0.546400  0.758600  1.0  -0.3716
  N  N513  1  0.830300  0.696400  0.765100  1.0  -0.3612
  N  N514  1  0.930800  0.474300  0.764400  1.0  -0.3887
  N  N515  1  0.929800  0.774200  0.766200  1.0  -0.388
  N  N516  1  0.662800  0.370200  0.047900  1.0  -0.3917
  N  N517  1  0.070500  0.625100  0.388200  1.0  -0.3993
  N  N518  1  0.432500  0.373500  0.614100  1.0  -0.3919
  N  N519  1  0.164200  0.620600  0.549700  1.0  -0.3744
  N  N520  1  0.088800  0.710600  0.257200  1.0  -0.4818
  N  N521  1  0.194800  0.793500  0.292700  1.0  -0.375
  N  N522  1  0.309400  0.541800  0.715400  1.0  -0.3694
  N  N523  1  0.411200  0.457000  0.745600  1.0  -0.4261
  N  N524  1  0.172700  0.546400  0.741400  1.0  -0.3707
  N  N525  1  0.169700  0.696400  0.734900  1.0  -0.3621
  N  N526  1  0.069200  0.474300  0.735600  1.0  -0.3882
  N  N527  1  0.070200  0.774200  0.733800  1.0  -0.3889
  N  N528  1  0.337200  0.370200  0.452100  1.0  -0.3932
