# generated using pymatgen
data_Hf3FeH28C48N4ClO12
_symmetry_space_group_name_H-M   'P 1'
_cell_length_a   42.76450000
_cell_length_b   42.76450000
_cell_length_c   16.75560000
_cell_angle_alpha   90.00000000
_cell_angle_beta   90.00000000
_cell_angle_gamma   120.00000000
_symmetry_Int_Tables_number   1
_chemical_formula_structural   Hf3FeH28C48N4ClO12
_chemical_formula_sum   'Hf18 Fe6 H168 C288 N24 Cl6 O72'
_cell_volume   26537.34148767
_cell_formula_units_Z   6
loop_
 _symmetry_equiv_pos_site_id
 _symmetry_equiv_pos_as_xyz
  1  'x, y, z'
loop_
 _atom_site_type_symbol
 _atom_site_label
 _atom_site_symmetry_multiplicity
 _atom_site_fract_x
 _atom_site_fract_y
 _atom_site_fract_z
 _atom_site_occupancy
 _atom_site_charge
  Hf  Hf1  1  0.466550  0.533450  0.500000  1.0  2.4946
  Hf  Hf2  1  0.466550  0.933100  0.500000  1.0  2.4991
  Hf  Hf3  1  0.066900  0.533450  0.500000  1.0  2.4924
  Hf  Hf4  1  0.533450  0.466550  0.500000  1.0  2.4933
  Hf  Hf5  1  0.533450  0.066900  0.500000  1.0  2.4961
  Hf  Hf6  1  0.933100  0.466550  0.500000  1.0  2.4959
  Hf  Hf7  1  0.459200  0.459200  0.603210  1.0  2.4219
  Hf  Hf8  1  0.540800  0.000000  0.603210  1.0  2.4228
  Hf  Hf9  1  0.000000  0.540800  0.603210  1.0  2.4206
  Hf  Hf10  1  0.540800  0.540800  0.603210  1.0  2.4214
  Hf  Hf11  1  0.459200  0.000000  0.603210  1.0  2.4209
  Hf  Hf12  1  0.000000  0.459200  0.603210  1.0  2.422
  Hf  Hf13  1  0.459200  0.459200  0.396790  1.0  2.4178
  Hf  Hf14  1  0.000000  0.540800  0.396790  1.0  2.4166
  Hf  Hf15  1  0.540800  0.000000  0.396790  1.0  2.4192
  Hf  Hf16  1  0.540800  0.540800  0.396790  1.0  2.4166
  Hf  Hf17  1  0.000000  0.459200  0.396790  1.0  2.4181
  Hf  Hf18  1  0.459200  0.000000  0.396790  1.0  2.4163
  Fe  Fe19  1  0.495740  0.747870  0.000000  1.0  0.8535
  Fe  Fe20  1  0.252130  0.747870  0.000000  1.0  0.8541
  Fe  Fe21  1  0.252130  0.504260  0.000000  1.0  0.8545
  Fe  Fe22  1  0.504260  0.252130  0.000000  1.0  0.8542
  Fe  Fe23  1  0.747870  0.252130  0.000000  1.0  0.8537
  Fe  Fe24  1  0.747870  0.495740  0.000000  1.0  0.8539
  H  H25  1  0.455800  0.610000  0.659700  1.0  0.0951
  H  H26  1  0.454800  0.652500  0.746200  1.0  0.1121
  H  H27  1  0.555300  0.679300  0.821400  1.0  0.1029
  H  H28  1  0.556200  0.638600  0.733300  1.0  0.1075
  H  H29  1  0.507600  0.725700  0.703300  1.0  0.108
  H  H30  1  0.523300  0.653200  0.939200  1.0  0.0461
  H  H31  1  0.480300  0.632000  0.939200  1.0  0.0661
  H  H32  1  0.390000  0.845800  0.659700  1.0  0.0947
  H  H33  1  0.347500  0.802300  0.746200  1.0  0.1097
  H  H34  1  0.320700  0.876000  0.821400  1.0  0.1024
  H  H35  1  0.361400  0.917600  0.733300  1.0  0.1067
  H  H36  1  0.274300  0.781900  0.703300  1.0  0.108
  H  H37  1  0.346800  0.870100  0.939200  1.0  0.0488
  H  H38  1  0.368000  0.848300  0.939200  1.0  0.0686
  H  H39  1  0.154200  0.544200  0.659700  1.0  0.0947
  H  H40  1  0.197700  0.545200  0.746200  1.0  0.1092
  H  H41  1  0.124000  0.444700  0.821400  1.0  0.1021
  H  H42  1  0.082400  0.443800  0.733300  1.0  0.1059
  H  H43  1  0.218100  0.492400  0.703300  1.0  0.1079
  H  H44  1  0.129900  0.476700  0.939200  1.0  0.0498
  H  H45  1  0.151700  0.519700  0.939200  1.0  0.0702
  H  H46  1  0.544200  0.390000  0.659700  1.0  0.095
  H  H47  1  0.545200  0.347500  0.746200  1.0  0.1107
  H  H48  1  0.444700  0.320700  0.821400  1.0  0.1031
  H  H49  1  0.443800  0.361400  0.733300  1.0  0.1077
  H  H50  1  0.492400  0.274300  0.703300  1.0  0.1084
  H  H51  1  0.476700  0.346800  0.939200  1.0  0.0495
  H  H52  1  0.519700  0.368000  0.939200  1.0  0.07
  H  H53  1  0.610000  0.154200  0.659700  1.0  0.0946
  H  H54  1  0.652500  0.197700  0.746200  1.0  0.1099
  H  H55  1  0.679300  0.124000  0.821400  1.0  0.1024
  H  H56  1  0.638600  0.082400  0.733300  1.0  0.1061
  H  H57  1  0.725700  0.218100  0.703300  1.0  0.1086
  H  H58  1  0.653200  0.129900  0.939200  1.0  0.0468
  H  H59  1  0.632000  0.151700  0.939200  1.0  0.0703
  H  H60  1  0.845800  0.455800  0.659700  1.0  0.0943
  H  H61  1  0.802300  0.454800  0.746200  1.0  0.1091
  H  H62  1  0.876000  0.555300  0.821400  1.0  0.1021
  H  H63  1  0.917600  0.556200  0.733300  1.0  0.1069
  H  H64  1  0.781900  0.507600  0.703300  1.0  0.1083
  H  H65  1  0.870100  0.523300  0.939200  1.0  0.0493
  H  H66  1  0.848300  0.480300  0.939200  1.0  0.0674
  H  H67  1  0.610000  0.455800  0.340300  1.0  0.0948
  H  H68  1  0.652500  0.454800  0.253800  1.0  0.1089
  H  H69  1  0.679300  0.555300  0.178600  1.0  0.1026
  H  H70  1  0.638600  0.556200  0.266700  1.0  0.1071
  H  H71  1  0.725700  0.507600  0.296700  1.0  0.1075
  H  H72  1  0.653200  0.523300  0.060800  1.0  0.0499
  H  H73  1  0.632000  0.480300  0.060800  1.0  0.067
  H  H74  1  0.845800  0.390000  0.340300  1.0  0.0951
  H  H75  1  0.802300  0.347500  0.253800  1.0  0.1124
  H  H76  1  0.876000  0.320700  0.178600  1.0  0.1031
  H  H77  1  0.917600  0.361400  0.266700  1.0  0.1076
  H  H78  1  0.781900  0.274300  0.296700  1.0  0.1077
  H  H79  1  0.870100  0.346800  0.060800  1.0  0.0458
  H  H80  1  0.848300  0.368000  0.060800  1.0  0.0701
  H  H81  1  0.544200  0.154200  0.340300  1.0  0.095
  H  H82  1  0.545200  0.197700  0.253800  1.0  0.1096
  H  H83  1  0.444700  0.124000  0.178600  1.0  0.103
  H  H84  1  0.443800  0.082400  0.266700  1.0  0.1058
  H  H85  1  0.492400  0.218100  0.296700  1.0  0.108
  H  H86  1  0.476700  0.129900  0.060800  1.0  0.0467
  H  H87  1  0.519700  0.151700  0.060800  1.0  0.0676
  H  H88  1  0.390000  0.544200  0.340300  1.0  0.0945
  H  H89  1  0.347500  0.545200  0.253800  1.0  0.1099
  H  H90  1  0.320700  0.444700  0.178600  1.0  0.1018
  H  H91  1  0.361400  0.443800  0.266700  1.0  0.1064
  H  H92  1  0.274300  0.492400  0.296700  1.0  0.1083
  H  H93  1  0.346800  0.476700  0.060800  1.0  0.0502
  H  H94  1  0.368000  0.519700  0.060800  1.0  0.0697
  H  H95  1  0.154200  0.610000  0.340300  1.0  0.0954
  H  H96  1  0.197700  0.652500  0.253800  1.0  0.1107
  H  H97  1  0.124000  0.679300  0.178600  1.0  0.1033
  H  H98  1  0.082400  0.638600  0.266700  1.0  0.1076
  H  H99  1  0.218100  0.725700  0.296700  1.0  0.108
  H  H100  1  0.129900  0.653200  0.060800  1.0  0.049
  H  H101  1  0.151700  0.632000  0.060800  1.0  0.0672
  H  H102  1  0.455800  0.845800  0.340300  1.0  0.0949
  H  H103  1  0.454800  0.802300  0.253800  1.0  0.1097
  H  H104  1  0.555300  0.876000  0.178600  1.0  0.1027
  H  H105  1  0.556200  0.917600  0.266700  1.0  0.1067
  H  H106  1  0.507600  0.781900  0.296700  1.0  0.108
  H  H107  1  0.523300  0.870100  0.060800  1.0  0.0473
  H  H108  1  0.480300  0.848300  0.060800  1.0  0.0704
  H  H109  1  0.544200  0.390000  0.340300  1.0  0.095
  H  H110  1  0.545200  0.347500  0.253800  1.0  0.1108
  H  H111  1  0.444700  0.320700  0.178600  1.0  0.1033
  H  H112  1  0.443800  0.361400  0.266700  1.0  0.1077
  H  H113  1  0.492400  0.274300  0.296700  1.0  0.1081
  H  H114  1  0.476700  0.346800  0.060800  1.0  0.047
  H  H115  1  0.519700  0.368000  0.060800  1.0  0.0698
  H  H116  1  0.610000  0.154200  0.340300  1.0  0.0946
  H  H117  1  0.652500  0.197700  0.253800  1.0  0.1101
  H  H118  1  0.679300  0.124000  0.178600  1.0  0.1028
  H  H119  1  0.638600  0.082400  0.266700  1.0  0.106
  H  H120  1  0.725700  0.218100  0.296700  1.0  0.1082
  H  H121  1  0.653200  0.129900  0.060800  1.0  0.045
  H  H122  1  0.632000  0.151700  0.060800  1.0  0.0702
  H  H123  1  0.845800  0.455800  0.340300  1.0  0.0947
  H  H124  1  0.802300  0.454800  0.253800  1.0  0.1091
  H  H125  1  0.876000  0.555300  0.178600  1.0  0.1025
  H  H126  1  0.917600  0.556200  0.266700  1.0  0.1069
  H  H127  1  0.781900  0.507600  0.296700  1.0  0.108
  H  H128  1  0.870100  0.523300  0.060800  1.0  0.0469
  H  H129  1  0.848300  0.480300  0.060800  1.0  0.0682
  H  H130  1  0.455800  0.610000  0.340300  1.0  0.0955
  H  H131  1  0.454800  0.652500  0.253800  1.0  0.1122
  H  H132  1  0.555300  0.679300  0.178600  1.0  0.1035
  H  H133  1  0.556200  0.638600  0.266700  1.0  0.1075
  H  H134  1  0.507600  0.725700  0.296700  1.0  0.1076
  H  H135  1  0.523300  0.653200  0.060800  1.0  0.0439
  H  H136  1  0.480300  0.632000  0.060800  1.0  0.067
  H  H137  1  0.390000  0.845800  0.340300  1.0  0.0953
  H  H138  1  0.347500  0.802300  0.253800  1.0  0.1096
  H  H139  1  0.320700  0.876000  0.178600  1.0  0.1029
  H  H140  1  0.361400  0.917600  0.266700  1.0  0.1067
  H  H141  1  0.274300  0.781900  0.296700  1.0  0.1078
  H  H142  1  0.346800  0.870100  0.060800  1.0  0.047
  H  H143  1  0.368000  0.848300  0.060800  1.0  0.0681
  H  H144  1  0.154200  0.544200  0.340300  1.0  0.0947
  H  H145  1  0.197700  0.545200  0.253800  1.0  0.1091
  H  H146  1  0.124000  0.444700  0.178600  1.0  0.102
  H  H147  1  0.082400  0.443800  0.266700  1.0  0.106
  H  H148  1  0.218100  0.492400  0.296700  1.0  0.1076
  H  H149  1  0.129900  0.476700  0.060800  1.0  0.0471
  H  H150  1  0.151700  0.519700  0.060800  1.0  0.0698
  H  H151  1  0.390000  0.544200  0.659700  1.0  0.0945
  H  H152  1  0.347500  0.545200  0.746200  1.0  0.1097
  H  H153  1  0.320700  0.444700  0.821400  1.0  0.1021
  H  H154  1  0.361400  0.443800  0.733300  1.0  0.1063
  H  H155  1  0.274300  0.492400  0.703300  1.0  0.1083
  H  H156  1  0.346800  0.476700  0.939200  1.0  0.0476
  H  H157  1  0.368000  0.519700  0.939200  1.0  0.07
  H  H158  1  0.154200  0.610000  0.659700  1.0  0.0952
  H  H159  1  0.197700  0.652500  0.746200  1.0  0.1107
  H  H160  1  0.124000  0.679300  0.821400  1.0  0.1029
  H  H161  1  0.082400  0.638600  0.733300  1.0  0.1076
  H  H162  1  0.218100  0.725700  0.703300  1.0  0.1081
  H  H163  1  0.129900  0.653200  0.939200  1.0  0.0466
  H  H164  1  0.151700  0.632000  0.939200  1.0  0.0661
  H  H165  1  0.455800  0.845800  0.659700  1.0  0.0945
  H  H166  1  0.454800  0.802300  0.746200  1.0  0.1094
  H  H167  1  0.555300  0.876000  0.821400  1.0  0.1021
  H  H168  1  0.556200  0.917600  0.733300  1.0  0.1067
  H  H169  1  0.507600  0.781900  0.703300  1.0  0.1083
  H  H170  1  0.523300  0.870100  0.939200  1.0  0.0457
  H  H171  1  0.480300  0.848300  0.939200  1.0  0.0707
  H  H172  1  0.610000  0.455800  0.659700  1.0  0.0945
  H  H173  1  0.652500  0.454800  0.746200  1.0  0.1092
  H  H174  1  0.679300  0.555300  0.821400  1.0  0.1021
  H  H175  1  0.638600  0.556200  0.733300  1.0  0.107
  H  H176  1  0.725700  0.507600  0.703300  1.0  0.1081
  H  H177  1  0.653200  0.523300  0.939200  1.0  0.0482
  H  H178  1  0.632000  0.480300  0.939200  1.0  0.0661
  H  H179  1  0.845800  0.390000  0.659700  1.0  0.0949
  H  H180  1  0.802300  0.347500  0.746200  1.0  0.1124
  H  H181  1  0.876000  0.320700  0.821400  1.0  0.1029
  H  H182  1  0.917600  0.361400  0.733300  1.0  0.1076
  H  H183  1  0.781900  0.274300  0.703300  1.0  0.1082
  H  H184  1  0.870100  0.346800  0.939200  1.0  0.0444
  H  H185  1  0.848300  0.368000  0.939200  1.0  0.0703
  H  H186  1  0.544200  0.154200  0.659700  1.0  0.0947
  H  H187  1  0.545200  0.197700  0.746200  1.0  0.1098
  H  H188  1  0.444700  0.124000  0.821400  1.0  0.1028
  H  H189  1  0.443800  0.082400  0.733300  1.0  0.1058
  H  H190  1  0.492400  0.218100  0.703300  1.0  0.1084
  H  H191  1  0.476700  0.129900  0.939200  1.0  0.0447
  H  H192  1  0.519700  0.151700  0.939200  1.0  0.0678
  C  C193  1  0.506400  0.594000  0.630400  1.0  0.7148
  C  C194  1  0.507000  0.622700  0.684800  1.0  -0.1325
  C  C195  1  0.476200  0.625000  0.690800  1.0  -0.0366
  C  C196  1  0.475300  0.649800  0.743400  1.0  -0.1036
  C  C197  1  0.505200  0.670600  0.791600  1.0  0.0583
  C  C198  1  0.535400  0.665900  0.787600  1.0  -0.1605
  C  C199  1  0.536100  0.642000  0.735300  1.0  -0.0321
  C  C200  1  0.503800  0.695700  0.856000  1.0  -0.0748
  C  C201  1  0.504200  0.727000  0.830300  1.0  0.2058
  C  C202  1  0.506400  0.738100  0.748400  1.0  -0.1694
  C  C203  1  0.501900  0.653400  0.959400  1.0  -0.1179
  C  C204  1  0.502200  0.684900  0.934100  1.0  0.1744
  C  C205  1  0.406000  0.912400  0.630400  1.0  0.7162
  C  C206  1  0.377300  0.884300  0.684800  1.0  -0.1327
  C  C207  1  0.375000  0.851200  0.690800  1.0  -0.037
  C  C208  1  0.350200  0.825500  0.743400  1.0  -0.1012
  C  C209  1  0.329400  0.834600  0.791600  1.0  0.0583
  C  C210  1  0.334100  0.869500  0.787600  1.0  -0.162
  C  C211  1  0.358000  0.894100  0.735300  1.0  -0.0371
  C  C212  1  0.304300  0.808100  0.856000  1.0  -0.0756
  C  C213  1  0.273000  0.777200  0.830300  1.0  0.2064
  C  C214  1  0.261900  0.768300  0.748400  1.0  -0.1697
  C  C215  1  0.346600  0.848500  0.959400  1.0  -0.1167
  C  C216  1  0.315100  0.817300  0.934100  1.0  0.1748
  C  C217  1  0.087600  0.493600  0.630400  1.0  0.7133
  C  C218  1  0.115700  0.493000  0.684800  1.0  -0.1326
  C  C219  1  0.148800  0.523800  0.690800  1.0  -0.0361
  C  C220  1  0.174500  0.524700  0.743400  1.0  -0.1008
  C  C221  1  0.165400  0.494800  0.791600  1.0  0.0589
  C  C222  1  0.130500  0.464600  0.787600  1.0  -0.1585
  C  C223  1  0.105900  0.463900  0.735300  1.0  -0.0369
  C  C224  1  0.191900  0.496200  0.856000  1.0  -0.0744
  C  C225  1  0.222800  0.495800  0.830300  1.0  0.2056
  C  C226  1  0.231700  0.493600  0.748400  1.0  -0.1684
  C  C227  1  0.151500  0.498100  0.959400  1.0  -0.1121
  C  C228  1  0.182700  0.497800  0.934100  1.0  0.1757
  C  C229  1  0.493600  0.406000  0.630400  1.0  0.7152
  C  C230  1  0.493000  0.377300  0.684800  1.0  -0.1331
  C  C231  1  0.523800  0.375000  0.690800  1.0  -0.0372
  C  C232  1  0.524700  0.350200  0.743400  1.0  -0.1022
  C  C233  1  0.494800  0.329400  0.791600  1.0  0.0581
  C  C234  1  0.464600  0.334100  0.787600  1.0  -0.1595
  C  C235  1  0.463900  0.358000  0.735300  1.0  -0.0342
  C  C236  1  0.496200  0.304300  0.856000  1.0  -0.0752
  C  C237  1  0.495800  0.273000  0.830300  1.0  0.2066
  C  C238  1  0.493600  0.261900  0.748400  1.0  -0.1694
  C  C239  1  0.498100  0.346600  0.959400  1.0  -0.115
  C  C240  1  0.497800  0.315100  0.934100  1.0  0.1747
  C  C241  1  0.594000  0.087600  0.630400  1.0  0.7166
  C  C242  1  0.622700  0.115700  0.684800  1.0  -0.1328
  C  C243  1  0.625000  0.148800  0.690800  1.0  -0.0372
  C  C244  1  0.649800  0.174500  0.743400  1.0  -0.1021
  C  C245  1  0.670600  0.165400  0.791600  1.0  0.0578
  C  C246  1  0.665900  0.130500  0.787600  1.0  -0.1604
  C  C247  1  0.642000  0.105900  0.735300  1.0  -0.037
  C  C248  1  0.695700  0.191900  0.856000  1.0  -0.0743
  C  C249  1  0.727000  0.222800  0.830300  1.0  0.2063
  C  C250  1  0.738100  0.231700  0.748400  1.0  -0.1692
  C  C251  1  0.653400  0.151500  0.959400  1.0  -0.1156
  C  C252  1  0.684900  0.182700  0.934100  1.0  0.1777
  C  C253  1  0.912400  0.506400  0.630400  1.0  0.7123
  C  C254  1  0.884300  0.507000  0.684800  1.0  -0.1322
  C  C255  1  0.851200  0.476200  0.690800  1.0  -0.0352
  C  C256  1  0.825500  0.475300  0.743400  1.0  -0.1018
  C  C257  1  0.834600  0.505200  0.791600  1.0  0.0589
  C  C258  1  0.869500  0.535400  0.787600  1.0  -0.1584
  C  C259  1  0.894100  0.536100  0.735300  1.0  -0.0379
  C  C260  1  0.808100  0.503800  0.856000  1.0  -0.0754
  C  C261  1  0.777200  0.504200  0.830300  1.0  0.2063
  C  C262  1  0.768300  0.506400  0.748400  1.0  -0.1677
  C  C263  1  0.848500  0.501900  0.959400  1.0  -0.1148
  C  C264  1  0.817300  0.502200  0.934100  1.0  0.1727
  C  C265  1  0.594000  0.506400  0.369600  1.0  0.7125
  C  C266  1  0.622700  0.507000  0.315200  1.0  -0.1337
  C  C267  1  0.625000  0.476200  0.309200  1.0  -0.0359
  C  C268  1  0.649800  0.475300  0.256600  1.0  -0.1011
  C  C269  1  0.670600  0.505200  0.208400  1.0  0.0588
  C  C270  1  0.665900  0.535400  0.212400  1.0  -0.1579
  C  C271  1  0.642000  0.536100  0.264700  1.0  -0.0381
  C  C272  1  0.695700  0.503800  0.144000  1.0  -0.0745
  C  C273  1  0.727000  0.504200  0.169700  1.0  0.2061
  C  C274  1  0.738100  0.506400  0.251600  1.0  -0.1701
  C  C275  1  0.653400  0.501900  0.040600  1.0  -0.113
  C  C276  1  0.684900  0.502200  0.065900  1.0  0.1758
  C  C277  1  0.912400  0.406000  0.369600  1.0  0.7147
  C  C278  1  0.884300  0.377300  0.315200  1.0  -0.1345
  C  C279  1  0.851200  0.375000  0.309200  1.0  -0.0373
  C  C280  1  0.825500  0.350200  0.256600  1.0  -0.1032
  C  C281  1  0.834600  0.329400  0.208400  1.0  0.058
  C  C282  1  0.869500  0.334100  0.212400  1.0  -0.1608
  C  C283  1  0.894100  0.358000  0.264700  1.0  -0.0316
  C  C284  1  0.808100  0.304300  0.144000  1.0  -0.0758
  C  C285  1  0.777200  0.273000  0.169700  1.0  0.2067
  C  C286  1  0.768300  0.261900  0.251600  1.0  -0.1697
  C  C287  1  0.848500  0.346600  0.040600  1.0  -0.1166
  C  C288  1  0.817300  0.315100  0.065900  1.0  0.1739
  C  C289  1  0.493600  0.087600  0.369600  1.0  0.7159
  C  C290  1  0.493000  0.115700  0.315200  1.0  -0.1346
  C  C291  1  0.523800  0.148800  0.309200  1.0  -0.0371
  C  C292  1  0.524700  0.174500  0.256600  1.0  -0.1014
  C  C293  1  0.494800  0.165400  0.208400  1.0  0.0584
  C  C294  1  0.464600  0.130500  0.212400  1.0  -0.1613
  C  C295  1  0.463900  0.105900  0.264700  1.0  -0.0359
  C  C296  1  0.496200  0.191900  0.144000  1.0  -0.0747
  C  C297  1  0.495800  0.222800  0.169700  1.0  0.206
  C  C298  1  0.493600  0.231700  0.251600  1.0  -0.1691
  C  C299  1  0.498100  0.151500  0.040600  1.0  -0.1168
  C  C300  1  0.497800  0.182700  0.065900  1.0  0.1769
  C  C301  1  0.406000  0.493600  0.369600  1.0  0.713
  C  C302  1  0.377300  0.493000  0.315200  1.0  -0.1345
  C  C303  1  0.375000  0.523800  0.309200  1.0  -0.0361
  C  C304  1  0.350200  0.524700  0.256600  1.0  -0.1027
  C  C305  1  0.329400  0.494800  0.208400  1.0  0.0591
  C  C306  1  0.334100  0.464600  0.212400  1.0  -0.1595
  C  C307  1  0.358000  0.463900  0.264700  1.0  -0.0377
  C  C308  1  0.304300  0.496200  0.144000  1.0  -0.0754
  C  C309  1  0.273000  0.495800  0.169700  1.0  0.2063
  C  C310  1  0.261900  0.493600  0.251600  1.0  -0.1677
  C  C311  1  0.346600  0.498100  0.040600  1.0  -0.114
  C  C312  1  0.315100  0.497800  0.065900  1.0  0.1727
  C  C313  1  0.087600  0.594000  0.369600  1.0  0.7149
  C  C314  1  0.115700  0.622700  0.315200  1.0  -0.1348
  C  C315  1  0.148800  0.625000  0.309200  1.0  -0.0371
  C  C316  1  0.174500  0.649800  0.256600  1.0  -0.102
  C  C317  1  0.165400  0.670600  0.208400  1.0  0.0586
  C  C318  1  0.130500  0.665900  0.212400  1.0  -0.1594
  C  C319  1  0.105900  0.642000  0.264700  1.0  -0.0334
  C  C320  1  0.191900  0.695700  0.144000  1.0  -0.0744
  C  C321  1  0.222800  0.727000  0.169700  1.0  0.2055
  C  C322  1  0.231700  0.738100  0.251600  1.0  -0.1703
  C  C323  1  0.151500  0.653400  0.040600  1.0  -0.1168
  C  C324  1  0.182700  0.684900  0.065900  1.0  0.1744
  C  C325  1  0.506400  0.912400  0.369600  1.0  0.7157
  C  C326  1  0.507000  0.884300  0.315200  1.0  -0.1342
  C  C327  1  0.476200  0.851200  0.309200  1.0  -0.0372
  C  C328  1  0.475300  0.825500  0.256600  1.0  -0.1025
  C  C329  1  0.505200  0.834600  0.208400  1.0  0.058
  C  C330  1  0.535400  0.869500  0.212400  1.0  -0.1614
  C  C331  1  0.536100  0.894100  0.264700  1.0  -0.0363
  C  C332  1  0.503800  0.808100  0.144000  1.0  -0.0753
  C  C333  1  0.504200  0.777200  0.169700  1.0  0.2071
  C  C334  1  0.506400  0.768300  0.251600  1.0  -0.1718
  C  C335  1  0.501900  0.848500  0.040600  1.0  -0.116
  C  C336  1  0.502200  0.817300  0.065900  1.0  0.1762
  C  C337  1  0.493600  0.406000  0.369600  1.0  0.715
  C  C338  1  0.493000  0.377300  0.315200  1.0  -0.1345
  C  C339  1  0.523800  0.375000  0.309200  1.0  -0.0373
  C  C340  1  0.524700  0.350200  0.256600  1.0  -0.1025
  C  C341  1  0.494800  0.329400  0.208400  1.0  0.0584
  C  C342  1  0.464600  0.334100  0.212400  1.0  -0.1596
  C  C343  1  0.463900  0.358000  0.264700  1.0  -0.0332
  C  C344  1  0.496200  0.304300  0.144000  1.0  -0.0753
  C  C345  1  0.495800  0.273000  0.169700  1.0  0.206
  C  C346  1  0.493600  0.261900  0.251600  1.0  -0.1709
  C  C347  1  0.498100  0.346600  0.040600  1.0  -0.1164
  C  C348  1  0.497800  0.315100  0.065900  1.0  0.1747
  C  C349  1  0.594000  0.087600  0.369600  1.0  0.7167
  C  C350  1  0.622700  0.115700  0.315200  1.0  -0.134
  C  C351  1  0.625000  0.148800  0.309200  1.0  -0.038
  C  C352  1  0.649800  0.174500  0.256600  1.0  -0.1028
  C  C353  1  0.670600  0.165400  0.208400  1.0  0.0577
  C  C354  1  0.665900  0.130500  0.212400  1.0  -0.161
  C  C355  1  0.642000  0.105900  0.264700  1.0  -0.0365
  C  C356  1  0.695700  0.191900  0.144000  1.0  -0.0743
  C  C357  1  0.727000  0.222800  0.169700  1.0  0.2062
  C  C358  1  0.738100  0.231700  0.251600  1.0  -0.1705
  C  C359  1  0.653400  0.151500  0.040600  1.0  -0.1155
  C  C360  1  0.684900  0.182700  0.065900  1.0  0.1776
  C  C361  1  0.912400  0.506400  0.369600  1.0  0.7121
  C  C362  1  0.884300  0.507000  0.315200  1.0  -0.1343
  C  C363  1  0.851200  0.476200  0.309200  1.0  -0.0355
  C  C364  1  0.825500  0.475300  0.256600  1.0  -0.1006
  C  C365  1  0.834600  0.505200  0.208400  1.0  0.0594
  C  C366  1  0.869500  0.535400  0.212400  1.0  -0.1582
  C  C367  1  0.894100  0.536100  0.264700  1.0  -0.0375
  C  C368  1  0.808100  0.503800  0.144000  1.0  -0.0755
  C  C369  1  0.777200  0.504200  0.169700  1.0  0.2062
  C  C370  1  0.768300  0.506400  0.251600  1.0  -0.1685
  C  C371  1  0.848500  0.501900  0.040600  1.0  -0.1139
  C  C372  1  0.817300  0.502200  0.065900  1.0  0.1728
  C  C373  1  0.506400  0.594000  0.369600  1.0  0.7149
  C  C374  1  0.507000  0.622700  0.315200  1.0  -0.1349
  C  C375  1  0.476200  0.625000  0.309200  1.0  -0.0369
  C  C376  1  0.475300  0.649800  0.256600  1.0  -0.103
  C  C377  1  0.505200  0.670600  0.208400  1.0  0.0583
  C  C378  1  0.535400  0.665900  0.212400  1.0  -0.1607
  C  C379  1  0.536100  0.642000  0.264700  1.0  -0.0316
  C  C380  1  0.503800  0.695700  0.144000  1.0  -0.0747
  C  C381  1  0.504200  0.727000  0.169700  1.0  0.2053
  C  C382  1  0.506400  0.738100  0.251600  1.0  -0.1698
  C  C383  1  0.501900  0.653400  0.040600  1.0  -0.1172
  C  C384  1  0.502200  0.684900  0.065900  1.0  0.1743
  C  C385  1  0.406000  0.912400  0.369600  1.0  0.7157
  C  C386  1  0.377300  0.884300  0.315200  1.0  -0.1346
  C  C387  1  0.375000  0.851200  0.309200  1.0  -0.0369
  C  C388  1  0.350200  0.825500  0.256600  1.0  -0.1001
  C  C389  1  0.329400  0.834600  0.208400  1.0  0.0586
  C  C390  1  0.334100  0.869500  0.212400  1.0  -0.1616
  C  C391  1  0.358000  0.894100  0.264700  1.0  -0.0366
  C  C392  1  0.304300  0.808100  0.144000  1.0  -0.0757
  C  C393  1  0.273000  0.777200  0.169700  1.0  0.2062
  C  C394  1  0.261900  0.768300  0.251600  1.0  -0.171
  C  C395  1  0.346600  0.848500  0.040600  1.0  -0.117
  C  C396  1  0.315100  0.817300  0.065900  1.0  0.1751
  C  C397  1  0.087600  0.493600  0.369600  1.0  0.7133
  C  C398  1  0.115700  0.493000  0.315200  1.0  -0.134
  C  C399  1  0.148800  0.523800  0.309200  1.0  -0.0361
  C  C400  1  0.174500  0.524700  0.256600  1.0  -0.1017
  C  C401  1  0.165400  0.494800  0.208400  1.0  0.0587
  C  C402  1  0.130500  0.464600  0.212400  1.0  -0.1586
  C  C403  1  0.105900  0.463900  0.264700  1.0  -0.0364
  C  C404  1  0.191900  0.496200  0.144000  1.0  -0.0745
  C  C405  1  0.222800  0.495800  0.169700  1.0  0.2055
  C  C406  1  0.231700  0.493600  0.251600  1.0  -0.1698
  C  C407  1  0.151500  0.498100  0.040600  1.0  -0.113
  C  C408  1  0.182700  0.497800  0.065900  1.0  0.1758
  C  C409  1  0.406000  0.493600  0.630400  1.0  0.7129
  C  C410  1  0.377300  0.493000  0.684800  1.0  -0.1326
  C  C411  1  0.375000  0.523800  0.690800  1.0  -0.0355
  C  C412  1  0.350200  0.524700  0.743400  1.0  -0.1016
  C  C413  1  0.329400  0.494800  0.791600  1.0  0.0587
  C  C414  1  0.334100  0.464600  0.787600  1.0  -0.1592
  C  C415  1  0.358000  0.463900  0.735300  1.0  -0.0381
  C  C416  1  0.304300  0.496200  0.856000  1.0  -0.0754
  C  C417  1  0.273000  0.495800  0.830300  1.0  0.2059
  C  C418  1  0.261900  0.493600  0.748400  1.0  -0.1674
  C  C419  1  0.346600  0.498100  0.959400  1.0  -0.1145
  C  C420  1  0.315100  0.497800  0.934100  1.0  0.1728
  C  C421  1  0.087600  0.594000  0.630400  1.0  0.7151
  C  C422  1  0.115700  0.622700  0.684800  1.0  -0.1338
  C  C423  1  0.148800  0.625000  0.690800  1.0  -0.0368
  C  C424  1  0.174500  0.649800  0.743400  1.0  -0.1019
  C  C425  1  0.165400  0.670600  0.791600  1.0  0.0584
  C  C426  1  0.130500  0.665900  0.787600  1.0  -0.1596
  C  C427  1  0.105900  0.642000  0.735300  1.0  -0.0342
  C  C428  1  0.191900  0.695700  0.856000  1.0  -0.0745
  C  C429  1  0.222800  0.727000  0.830300  1.0  0.2054
  C  C430  1  0.231700  0.738100  0.748400  1.0  -0.1695
  C  C431  1  0.151500  0.653400  0.959400  1.0  -0.1168
  C  C432  1  0.182700  0.684900  0.934100  1.0  0.1748
  C  C433  1  0.506400  0.912400  0.630400  1.0  0.7156
  C  C434  1  0.507000  0.884300  0.684800  1.0  -0.1319
  C  C435  1  0.476200  0.851200  0.690800  1.0  -0.0367
  C  C436  1  0.475300  0.825500  0.743400  1.0  -0.1027
  C  C437  1  0.505200  0.834600  0.791600  1.0  0.0579
  C  C438  1  0.535400  0.869500  0.787600  1.0  -0.161
  C  C439  1  0.536100  0.894100  0.735300  1.0  -0.0369
  C  C440  1  0.503800  0.808100  0.856000  1.0  -0.0751
  C  C441  1  0.504200  0.777200  0.830300  1.0  0.2065
  C  C442  1  0.506400  0.768300  0.748400  1.0  -0.1702
  C  C443  1  0.501900  0.848500  0.959400  1.0  -0.1149
  C  C444  1  0.502200  0.817300  0.934100  1.0  0.1759
  C  C445  1  0.594000  0.506400  0.630400  1.0  0.7127
  C  C446  1  0.622700  0.507000  0.684800  1.0  -0.132
  C  C447  1  0.625000  0.476200  0.690800  1.0  -0.0359
  C  C448  1  0.649800  0.475300  0.743400  1.0  -0.1025
  C  C449  1  0.670600  0.505200  0.791600  1.0  0.059
  C  C450  1  0.665900  0.535400  0.787600  1.0  -0.1581
  C  C451  1  0.642000  0.536100  0.735300  1.0  -0.0385
  C  C452  1  0.695700  0.503800  0.856000  1.0  -0.0744
  C  C453  1  0.727000  0.504200  0.830300  1.0  0.2055
  C  C454  1  0.738100  0.506400  0.748400  1.0  -0.1692
  C  C455  1  0.653400  0.501900  0.959400  1.0  -0.1125
  C  C456  1  0.684900  0.502200  0.934100  1.0  0.1757
  C  C457  1  0.912400  0.406000  0.630400  1.0  0.7146
  C  C458  1  0.884300  0.377300  0.684800  1.0  -0.1321
  C  C459  1  0.851200  0.375000  0.690800  1.0  -0.0371
  C  C460  1  0.825500  0.350200  0.743400  1.0  -0.1036
  C  C461  1  0.834600  0.329400  0.791600  1.0  0.0578
  C  C462  1  0.869500  0.334100  0.787600  1.0  -0.1603
  C  C463  1  0.894100  0.358000  0.735300  1.0  -0.0321
  C  C464  1  0.808100  0.304300  0.856000  1.0  -0.0757
  C  C465  1  0.777200  0.273000  0.830300  1.0  0.2064
  C  C466  1  0.768300  0.261900  0.748400  1.0  -0.1696
  C  C467  1  0.848500  0.346600  0.959400  1.0  -0.1161
  C  C468  1  0.817300  0.315100  0.934100  1.0  0.1739
  C  C469  1  0.493600  0.087600  0.630400  1.0  0.7162
  C  C470  1  0.493000  0.115700  0.684800  1.0  -0.1339
  C  C471  1  0.523800  0.148800  0.690800  1.0  -0.037
  C  C472  1  0.524700  0.174500  0.743400  1.0  -0.1009
  C  C473  1  0.494800  0.165400  0.791600  1.0  0.0584
  C  C474  1  0.464600  0.130500  0.787600  1.0  -0.1614
  C  C475  1  0.463900  0.105900  0.735300  1.0  -0.0368
  C  C476  1  0.496200  0.191900  0.856000  1.0  -0.0748
  C  C477  1  0.495800  0.222800  0.830300  1.0  0.2057
  C  C478  1  0.493600  0.231700  0.748400  1.0  -0.1691
  C  C479  1  0.498100  0.151500  0.959400  1.0  -0.1174
  C  C480  1  0.497800  0.182700  0.934100  1.0  0.177
  N  N481  1  0.501300  0.750650  0.879200  1.0  -0.4315
  N  N482  1  0.249350  0.750650  0.879200  1.0  -0.4316
  N  N483  1  0.249350  0.498700  0.879200  1.0  -0.4317
  N  N484  1  0.498700  0.249350  0.879200  1.0  -0.4315
  N  N485  1  0.750650  0.249350  0.879200  1.0  -0.4313
  N  N486  1  0.750650  0.501300  0.879200  1.0  -0.4315
  N  N487  1  0.750650  0.501300  0.120800  1.0  -0.4311
  N  N488  1  0.750650  0.249350  0.120800  1.0  -0.4308
  N  N489  1  0.498700  0.249350  0.120800  1.0  -0.4309
  N  N490  1  0.249350  0.498700  0.120800  1.0  -0.431
  N  N491  1  0.249350  0.750650  0.120800  1.0  -0.431
  N  N492  1  0.501300  0.750650  0.120800  1.0  -0.4309
  N  N493  1  0.502700  0.705100  0.000000  1.0  -0.4451
  N  N494  1  0.294900  0.797600  0.000000  1.0  -0.4472
  N  N495  1  0.202400  0.497300  0.000000  1.0  -0.4523
  N  N496  1  0.497300  0.294900  0.000000  1.0  -0.4448
  N  N497  1  0.705100  0.202400  0.000000  1.0  -0.4459
  N  N498  1  0.797600  0.502700  0.000000  1.0  -0.4495
  N  N499  1  0.705100  0.502700  0.000000  1.0  -0.4522
  N  N500  1  0.797600  0.294900  0.000000  1.0  -0.4458
  N  N501  1  0.497300  0.202400  0.000000  1.0  -0.4453
  N  N502  1  0.294900  0.497300  0.000000  1.0  -0.4494
  N  N503  1  0.202400  0.705100  0.000000  1.0  -0.445
  N  N504  1  0.502700  0.797600  0.000000  1.0  -0.4467
  Cl  Cl505  1  0.429900  0.714950  0.000000  1.0  -0.4656
  Cl  Cl506  1  0.285050  0.714950  0.000000  1.0  -0.4648
  Cl  Cl507  1  0.285050  0.570100  0.000000  1.0  -0.464
  Cl  Cl508  1  0.570100  0.285050  0.000000  1.0  -0.4656
  Cl  Cl509  1  0.714950  0.285050  0.000000  1.0  -0.4665
  Cl  Cl510  1  0.714950  0.429900  0.000000  1.0  -0.4638
  O  O511  1  0.481980  0.579010  0.580600  1.0  -0.6089
  O  O512  1  0.531150  0.585380  0.644600  1.0  -0.7085
  O  O513  1  0.420990  0.902970  0.580600  1.0  -0.6102
  O  O514  1  0.414620  0.945770  0.644600  1.0  -0.7125
  O  O515  1  0.097030  0.518020  0.580600  1.0  -0.6115
  O  O516  1  0.054230  0.468850  0.644600  1.0  -0.7067
  O  O517  1  0.518020  0.420990  0.580600  1.0  -0.6101
  O  O518  1  0.468850  0.414620  0.644600  1.0  -0.7079
  O  O519  1  0.579010  0.097030  0.580600  1.0  -0.6101
  O  O520  1  0.585380  0.054230  0.644600  1.0  -0.7109
  O  O521  1  0.902970  0.481980  0.580600  1.0  -0.6112
  O  O522  1  0.945770  0.531150  0.644600  1.0  -0.7065
  O  O523  1  0.579010  0.481980  0.419400  1.0  -0.6134
  O  O524  1  0.585380  0.531150  0.355400  1.0  -0.707
  O  O525  1  0.902970  0.420990  0.419400  1.0  -0.6104
  O  O526  1  0.945770  0.414620  0.355400  1.0  -0.7081
  O  O527  1  0.518020  0.097030  0.419400  1.0  -0.6127
  O  O528  1  0.468850  0.054230  0.355400  1.0  -0.7108
  O  O529  1  0.420990  0.518020  0.419400  1.0  -0.6124
  O  O530  1  0.414620  0.468850  0.355400  1.0  -0.7064
  O  O531  1  0.097030  0.579010  0.419400  1.0  -0.6122
  O  O532  1  0.054230  0.585380  0.355400  1.0  -0.7091
  O  O533  1  0.481980  0.902970  0.419400  1.0  -0.6116
  O  O534  1  0.531150  0.945770  0.355400  1.0  -0.7102
  O  O535  1  0.518020  0.420990  0.419400  1.0  -0.6112
  O  O536  1  0.468850  0.414620  0.355400  1.0  -0.708
  O  O537  1  0.579010  0.097030  0.419400  1.0  -0.6127
  O  O538  1  0.585380  0.054230  0.355400  1.0  -0.7103
  O  O539  1  0.902970  0.481980  0.419400  1.0  -0.6126
  O  O540  1  0.945770  0.531150  0.355400  1.0  -0.7069
  O  O541  1  0.481980  0.579010  0.419400  1.0  -0.6111
  O  O542  1  0.531150  0.585380  0.355400  1.0  -0.7079
  O  O543  1  0.420990  0.902970  0.419400  1.0  -0.6111
  O  O544  1  0.414620  0.945770  0.355400  1.0  -0.7121
  O  O545  1  0.097030  0.518020  0.419400  1.0  -0.613
  O  O546  1  0.054230  0.468850  0.355400  1.0  -0.7065
  O  O547  1  0.420990  0.518020  0.580600  1.0  -0.6112
  O  O548  1  0.414620  0.468850  0.644600  1.0  -0.7071
  O  O549  1  0.097030  0.579010  0.580600  1.0  -0.6098
  O  O550  1  0.054230  0.585380  0.644600  1.0  -0.7093
  O  O551  1  0.481980  0.902970  0.580600  1.0  -0.61
  O  O552  1  0.531150  0.945770  0.644600  1.0  -0.7109
  O  O553  1  0.579010  0.481980  0.580600  1.0  -0.6116
  O  O554  1  0.585380  0.531150  0.644600  1.0  -0.7065
  O  O555  1  0.902970  0.420990  0.580600  1.0  -0.6095
  O  O556  1  0.945770  0.414620  0.644600  1.0  -0.7083
  O  O557  1  0.518020  0.097030  0.580600  1.0  -0.6108
  O  O558  1  0.468850  0.054230  0.644600  1.0  -0.711
  O  O559  1  0.483990  0.516010  0.605600  1.0  -1.1832
  O  O560  1  0.483990  0.967980  0.605600  1.0  -1.1834
  O  O561  1  0.032020  0.516010  0.605600  1.0  -1.1839
  O  O562  1  0.516010  0.483990  0.605600  1.0  -1.1839
  O  O563  1  0.516010  0.032020  0.605600  1.0  -1.1836
  O  O564  1  0.967980  0.483990  0.605600  1.0  -1.1831
  O  O565  1  0.516010  0.483990  0.394400  1.0  -1.1858
  O  O566  1  0.967980  0.483990  0.394400  1.0  -1.1852
  O  O567  1  0.516010  0.032020  0.394400  1.0  -1.1849
  O  O568  1  0.483990  0.516010  0.394400  1.0  -1.1854
  O  O569  1  0.032020  0.516010  0.394400  1.0  -1.186
  O  O570  1  0.483990  0.967980  0.394400  1.0  -1.185
  O  O571  1  0.443900  0.476880  0.500000  1.0  -1.0872
  O  O572  1  0.523120  0.967020  0.500000  1.0  -1.088
  O  O573  1  0.032980  0.556100  0.500000  1.0  -1.0891
  O  O574  1  0.556100  0.523120  0.500000  1.0  -1.0896
  O  O575  1  0.476880  0.032980  0.500000  1.0  -1.0885
  O  O576  1  0.967020  0.443900  0.500000  1.0  -1.0866
  O  O577  1  0.476880  0.443900  0.500000  1.0  -1.0864
  O  O578  1  0.967020  0.523120  0.500000  1.0  -1.0897
  O  O579  1  0.556100  0.032980  0.500000  1.0  -1.0879
  O  O580  1  0.523120  0.556100  0.500000  1.0  -1.0894
  O  O581  1  0.032980  0.476880  0.500000  1.0  -1.0871
  O  O582  1  0.443900  0.967020  0.500000  1.0  -1.0883
