# generated using pymatgen
data_ZnH60C60(N7O6)2
_symmetry_space_group_name_H-M   'P 1'
_cell_length_a   14.07560000
_cell_length_b   14.07560000
_cell_length_c   14.07560000
_cell_angle_alpha   108.34700000
_cell_angle_beta   108.34700000
_cell_angle_gamma   108.34700000
_symmetry_Int_Tables_number   1
_chemical_formula_structural   ZnH60C60(N7O6)2
_chemical_formula_sum   'Zn1 H60 C60 N14 O12'
_cell_volume   2231.61983582
_cell_formula_units_Z   1
loop_
 _symmetry_equiv_pos_site_id
 _symmetry_equiv_pos_as_xyz
  1  'x, y, z'
loop_
 _atom_site_type_symbol
 _atom_site_label
 _atom_site_symmetry_multiplicity
 _atom_site_fract_x
 _atom_site_fract_y
 _atom_site_fract_z
 _atom_site_occupancy
 _atom_site_charge
  Zn  Zn1  1  0.000000  0.000000  0.000000  1.0  0.7876
  H  H2  1  0.268000  0.106400  0.200700  1.0  0.093
  H  H3  1  0.326700  0.054200  0.349900  1.0  0.125
  H  H4  1  0.995100  0.886400  0.172800  1.0  0.0968
  H  H5  1  0.201300  0.941100  0.433600  1.0  0.0972
  H  H6  1  0.072500  0.864400  0.349600  1.0  0.0813
  H  H7  1  0.166600  0.752900  0.361900  1.0  0.0633
  H  H8  1  0.243700  0.814500  0.318000  1.0  0.0566
  H  H9  1  0.216200  0.628100  0.268200  1.0  0.1121
  H  H10  1  0.210900  0.462500  0.159500  1.0  0.0945
  H  H11  1  0.921300  0.648700  0.024700  1.0  0.1025
  H  H12  1  0.200700  0.268000  0.106400  1.0  0.0942
  H  H13  1  0.349900  0.326700  0.054200  1.0  0.1256
  H  H14  1  0.172800  0.995100  0.886400  1.0  0.0976
  H  H15  1  0.433600  0.201300  0.941100  1.0  0.0957
  H  H16  1  0.349600  0.072500  0.864400  1.0  0.0832
  H  H17  1  0.361900  0.166600  0.752900  1.0  0.0592
  H  H18  1  0.318000  0.243700  0.814500  1.0  0.0577
  H  H19  1  0.268200  0.216200  0.628100  1.0  0.1125
  H  H20  1  0.159500  0.210900  0.462500  1.0  0.0952
  H  H21  1  0.024700  0.921300  0.648700  1.0  0.1027
  H  H22  1  0.106400  0.200700  0.268000  1.0  0.0921
  H  H23  1  0.054200  0.349900  0.326700  1.0  0.1283
  H  H24  1  0.886400  0.172800  0.995100  1.0  0.0973
  H  H25  1  0.941100  0.433600  0.201300  1.0  0.0952
  H  H26  1  0.864400  0.349600  0.072500  1.0  0.0827
  H  H27  1  0.752900  0.361900  0.166600  1.0  0.0596
  H  H28  1  0.814500  0.318000  0.243700  1.0  0.0592
  H  H29  1  0.628100  0.268200  0.216200  1.0  0.1135
  H  H30  1  0.462500  0.159500  0.210900  1.0  0.0956
  H  H31  1  0.648700  0.024700  0.921300  1.0  0.1018
  H  H32  1  0.732000  0.893600  0.799300  1.0  0.0936
  H  H33  1  0.673300  0.945800  0.650100  1.0  0.1241
  H  H34  1  0.004900  0.113600  0.827200  1.0  0.0971
  H  H35  1  0.798700  0.058900  0.566400  1.0  0.0983
  H  H36  1  0.927500  0.135600  0.650400  1.0  0.0814
  H  H37  1  0.833400  0.247100  0.638100  1.0  0.0641
  H  H38  1  0.756300  0.185500  0.682000  1.0  0.0578
  H  H39  1  0.783800  0.371900  0.731800  1.0  0.1116
  H  H40  1  0.789100  0.537500  0.840500  1.0  0.0956
  H  H41  1  0.078700  0.351300  0.975300  1.0  0.1023
  H  H42  1  0.799300  0.732000  0.893600  1.0  0.0935
  H  H43  1  0.650100  0.673300  0.945800  1.0  0.1269
  H  H44  1  0.827200  0.004900  0.113600  1.0  0.098
  H  H45  1  0.566400  0.798700  0.058900  1.0  0.096
  H  H46  1  0.650400  0.927500  0.135600  1.0  0.0846
  H  H47  1  0.638100  0.833400  0.247100  1.0  0.061
  H  H48  1  0.682000  0.756300  0.185500  1.0  0.055
  H  H49  1  0.731800  0.783800  0.371900  1.0  0.1114
  H  H50  1  0.840500  0.789100  0.537500  1.0  0.0951
  H  H51  1  0.975300  0.078700  0.351300  1.0  0.1035
  H  H52  1  0.893600  0.799300  0.732000  1.0  0.0911
  H  H53  1  0.945800  0.650100  0.673300  1.0  0.1285
  H  H54  1  0.113600  0.827200  0.004900  1.0  0.097
  H  H55  1  0.058900  0.566400  0.798700  1.0  0.0936
  H  H56  1  0.135600  0.650400  0.927500  1.0  0.0814
  H  H57  1  0.247100  0.638100  0.833400  1.0  0.0584
  H  H58  1  0.185500  0.682000  0.756300  1.0  0.0595
  H  H59  1  0.371900  0.731800  0.783800  1.0  0.1134
  H  H60  1  0.537500  0.840500  0.789100  1.0  0.0961
  H  H61  1  0.351300  0.975300  0.078700  1.0  0.1017
  C  C62  1  0.220020  0.055500  0.214080  1.0  0.0081
  C  C63  1  0.253150  0.027450  0.296600  1.0  -0.1682
  C  C64  1  0.070090  0.935380  0.198230  1.0  0.1373
  C  C65  1  0.147450  0.890150  0.355100  1.0  -0.0528
  C  C66  1  0.169800  0.790320  0.314980  1.0  0.1399
  C  C67  1  0.086690  0.618530  0.145980  1.0  0.2093
  C  C68  1  0.162460  0.584530  0.193010  1.0  -0.263
  C  C69  1  0.158370  0.484330  0.127500  1.0  -0.0813
  C  C70  1  0.001540  0.551450  0.032110  1.0  -0.0322
  C  C71  1  0.920810  0.582470  0.982520  1.0  -0.0885
  C  C72  1  0.214080  0.220020  0.055500  1.0  0.0048
  C  C73  1  0.296600  0.253150  0.027450  1.0  -0.1672
  C  C74  1  0.198230  0.070090  0.935380  1.0  0.1368
  C  C75  1  0.355100  0.147450  0.890150  1.0  -0.0404
  C  C76  1  0.314980  0.169800  0.790320  1.0  0.1361
  C  C77  1  0.145980  0.086690  0.618530  1.0  0.2079
  C  C78  1  0.193010  0.162460  0.584530  1.0  -0.2602
  C  C79  1  0.127500  0.158370  0.484330  1.0  -0.0784
  C  C80  1  0.032110  0.001540  0.551450  1.0  -0.0317
  C  C81  1  0.982520  0.920810  0.582470  1.0  -0.0913
  C  C82  1  0.055500  0.214080  0.220020  1.0  0.0068
  C  C83  1  0.027450  0.296600  0.253150  1.0  -0.1672
  C  C84  1  0.935380  0.198230  0.070090  1.0  0.138
  C  C85  1  0.890150  0.355100  0.147450  1.0  -0.0462
  C  C86  1  0.790320  0.314980  0.169800  1.0  0.1401
  C  C87  1  0.618530  0.145980  0.086690  1.0  0.2082
  C  C88  1  0.584530  0.193010  0.162460  1.0  -0.26
  C  C89  1  0.484330  0.127500  0.158370  1.0  -0.0799
  C  C90  1  0.551450  0.032110  0.001540  1.0  -0.0327
  C  C91  1  0.582470  0.982520  0.920810  1.0  -0.0864
  C  C92  1  0.779980  0.944500  0.785920  1.0  0.0074
  C  C93  1  0.746850  0.972550  0.703400  1.0  -0.1717
  C  C94  1  0.929910  0.064620  0.801770  1.0  0.1368
  C  C95  1  0.852550  0.109850  0.644900  1.0  -0.0514
  C  C96  1  0.830200  0.209680  0.685020  1.0  0.1407
  C  C97  1  0.913310  0.381470  0.854020  1.0  0.2065
  C  C98  1  0.837540  0.415470  0.806990  1.0  -0.2613
  C  C99  1  0.841630  0.515670  0.872500  1.0  -0.0809
  C  C100  1  0.998460  0.448550  0.967890  1.0  -0.0326
  C  C101  1  0.079190  0.417530  0.017480  1.0  -0.0873
  C  C102  1  0.785920  0.779980  0.944500  1.0  0.0055
  C  C103  1  0.703400  0.746850  0.972550  1.0  -0.1682
  C  C104  1  0.801770  0.929910  0.064620  1.0  0.1368
  C  C105  1  0.644900  0.852550  0.109850  1.0  -0.0402
  C  C106  1  0.685020  0.830200  0.209680  1.0  0.1381
  C  C107  1  0.854020  0.913310  0.381470  1.0  0.2061
  C  C108  1  0.806990  0.837540  0.415470  1.0  -0.2603
  C  C109  1  0.872500  0.841630  0.515670  1.0  -0.0777
  C  C110  1  0.967890  0.998460  0.448550  1.0  -0.0324
  C  C111  1  0.017480  0.079190  0.417530  1.0  -0.0923
  C  C112  1  0.944500  0.785920  0.779980  1.0  0.006
  C  C113  1  0.972550  0.703400  0.746850  1.0  -0.1701
  C  C114  1  0.064620  0.801770  0.929910  1.0  0.1373
  C  C115  1  0.109850  0.644900  0.852550  1.0  -0.0481
  C  C116  1  0.209680  0.685020  0.830200  1.0  0.1402
  C  C117  1  0.381470  0.854020  0.913310  1.0  0.206
  C  C118  1  0.415470  0.806990  0.837540  1.0  -0.2601
  C  C119  1  0.515670  0.872500  0.841630  1.0  -0.0809
  C  C120  1  0.448550  0.967890  0.998460  1.0  -0.0321
  C  C121  1  0.417530  0.017480  0.079190  1.0  -0.087
  N  N122  1  0.104100  0.997730  0.151610  1.0  -0.3806
  N  N123  1  0.156830  0.951210  0.286760  1.0  0.0478
  N  N124  1  0.151610  0.104100  0.997730  1.0  -0.3805
  N  N125  1  0.286760  0.156830  0.951210  1.0  0.0458
  N  N126  1  0.997730  0.151610  0.104100  1.0  -0.3799
  N  N127  1  0.951210  0.286760  0.156830  1.0  0.0455
  N  N128  1  0.895900  0.002270  0.848390  1.0  -0.3808
  N  N129  1  0.843170  0.048790  0.713240  1.0  0.048
  N  N130  1  0.848390  0.895900  0.002270  1.0  -0.3793
  N  N131  1  0.713240  0.843170  0.048790  1.0  0.047
  N  N132  1  0.002270  0.848390  0.895900  1.0  -0.3807
  N  N133  1  0.048790  0.713240  0.843170  1.0  0.0464
  N  N134  1  0.382300  0.382300  0.382300  1.0  0.8022
  N  N135  1  0.617700  0.617700  0.617700  1.0  0.8022
  O  O136  1  0.084450  0.716320  0.202050  1.0  -0.2894
  O  O137  1  0.202050  0.084450  0.716320  1.0  -0.2881
  O  O138  1  0.716320  0.202050  0.084450  1.0  -0.29
  O  O139  1  0.915550  0.283680  0.797950  1.0  -0.2901
  O  O140  1  0.797950  0.915550  0.283680  1.0  -0.2896
  O  O141  1  0.283680  0.797950  0.915550  1.0  -0.2916
  O  O142  1  0.443400  0.353100  0.344700  1.0  -0.5134
  O  O143  1  0.344700  0.443400  0.353100  1.0  -0.5127
  O  O144  1  0.353100  0.344700  0.443400  1.0  -0.5139
  O  O145  1  0.556600  0.646900  0.655300  1.0  -0.5131
  O  O146  1  0.655300  0.556600  0.646900  1.0  -0.5091
  O  O147  1  0.646900  0.655300  0.556600  1.0  -0.5112
