# generated using pymatgen
data_CoH17C27N9O4
_symmetry_space_group_name_H-M   'P 1'
_cell_length_a   19.42540000
_cell_length_b   21.87800000
_cell_length_c   15.57800000
_cell_angle_alpha   90.00000000
_cell_angle_beta   90.00000000
_cell_angle_gamma   90.00000000
_symmetry_Int_Tables_number   1
_chemical_formula_structural   CoH17C27N9O4
_chemical_formula_sum   'Co4 H68 C108 N36 O16'
_cell_volume   6620.47710289
_cell_formula_units_Z   4
loop_
 _symmetry_equiv_pos_site_id
 _symmetry_equiv_pos_as_xyz
  1  'x, y, z'
loop_
 _atom_site_type_symbol
 _atom_site_label
 _atom_site_symmetry_multiplicity
 _atom_site_fract_x
 _atom_site_fract_y
 _atom_site_fract_z
 _atom_site_occupancy
 _atom_site_charge
  Co  Co1  1  0.439960  0.500000  0.599420  1.0  0.8793
  Co  Co2  1  0.560040  0.500000  0.400580  1.0  0.8754
  Co  Co3  1  0.060040  0.500000  0.099420  1.0  0.8784
  Co  Co4  1  0.939960  0.500000  0.900580  1.0  0.8766
  H  H5  1  0.361000  0.608400  0.525400  1.0  0.0747
  H  H6  1  0.361700  0.818700  0.539500  1.0  0.2818
  H  H7  1  0.521100  0.610000  0.672000  1.0  0.0812
  H  H8  1  0.363800  0.715400  0.515400  1.0  0.1171
  H  H9  1  0.520900  0.712000  0.678300  1.0  0.1023
  H  H10  1  0.304400  0.911400  0.518900  1.0  0.1004
  H  H11  1  0.639000  0.608400  0.474600  1.0  0.0743
  H  H12  1  0.638300  0.818700  0.460500  1.0  0.2789
  H  H13  1  0.478900  0.610000  0.328000  1.0  0.0811
  H  H14  1  0.636200  0.715400  0.484600  1.0  0.1167
  H  H15  1  0.479100  0.712000  0.321700  1.0  0.1028
  H  H16  1  0.695600  0.911400  0.481100  1.0  0.0994
  H  H17  1  0.139000  0.391600  0.025400  1.0  0.0744
  H  H18  1  0.138300  0.181300  0.039500  1.0  0.2805
  H  H19  1  0.978900  0.390000  0.172000  1.0  0.0808
  H  H20  1  0.136200  0.284600  0.015400  1.0  0.1169
  H  H21  1  0.979100  0.288000  0.178300  1.0  0.1031
  H  H22  1  0.195600  0.088600  0.018900  1.0  0.1
  H  H23  1  0.861000  0.391600  0.974600  1.0  0.0746
  H  H24  1  0.861700  0.181300  0.960500  1.0  0.2812
  H  H25  1  0.021100  0.390000  0.828000  1.0  0.0809
  H  H26  1  0.863800  0.284600  0.984600  1.0  0.1171
  H  H27  1  0.020900  0.288000  0.821700  1.0  0.1026
  H  H28  1  0.804400  0.088600  0.981100  1.0  0.0997
  H  H29  1  0.639000  0.391600  0.474600  1.0  0.0744
  H  H30  1  0.638300  0.181300  0.460500  1.0  0.2795
  H  H31  1  0.478900  0.390000  0.328000  1.0  0.0806
  H  H32  1  0.636200  0.284600  0.484600  1.0  0.1169
  H  H33  1  0.479100  0.288000  0.321700  1.0  0.1025
  H  H34  1  0.695600  0.088600  0.481100  1.0  0.0994
  H  H35  1  0.361000  0.391600  0.525400  1.0  0.0745
  H  H36  1  0.361700  0.181300  0.539500  1.0  0.2822
  H  H37  1  0.521100  0.390000  0.672000  1.0  0.0812
  H  H38  1  0.363800  0.284600  0.515400  1.0  0.117
  H  H39  1  0.520900  0.288000  0.678300  1.0  0.1026
  H  H40  1  0.304400  0.088600  0.518900  1.0  0.1001
  H  H41  1  0.861000  0.608400  0.974600  1.0  0.0745
  H  H42  1  0.861700  0.818700  0.960500  1.0  0.2807
  H  H43  1  0.021100  0.610000  0.828000  1.0  0.0811
  H  H44  1  0.863800  0.715400  0.984600  1.0  0.1169
  H  H45  1  0.020900  0.712000  0.821700  1.0  0.103
  H  H46  1  0.804400  0.911400  0.981100  1.0  0.1002
  H  H47  1  0.139000  0.608400  0.025400  1.0  0.0746
  H  H48  1  0.138300  0.818700  0.039500  1.0  0.2799
  H  H49  1  0.978900  0.610000  0.172000  1.0  0.081
  H  H50  1  0.136200  0.715400  0.015400  1.0  0.1171
  H  H51  1  0.979100  0.712000  0.178300  1.0  0.1024
  H  H52  1  0.195600  0.911400  0.018900  1.0  0.0997
  H  H53  1  0.320900  0.500000  0.885500  1.0  0.0988
  H  H54  1  0.218100  0.500000  0.668500  1.0  0.0816
  H  H55  1  0.216700  0.500000  0.963200  1.0  0.1154
  H  H56  1  0.118400  0.500000  0.736600  1.0  0.1013
  H  H57  1  0.679100  0.500000  0.114500  1.0  0.0985
  H  H58  1  0.781900  0.500000  0.331500  1.0  0.0809
  H  H59  1  0.783300  0.500000  0.036800  1.0  0.1177
  H  H60  1  0.881600  0.500000  0.263400  1.0  0.101
  H  H61  1  0.179100  0.500000  0.385500  1.0  0.0986
  H  H62  1  0.281900  0.500000  0.168500  1.0  0.0819
  H  H63  1  0.283300  0.500000  0.463200  1.0  0.1163
  H  H64  1  0.381600  0.500000  0.236600  1.0  0.1013
  H  H65  1  0.820900  0.500000  0.614500  1.0  0.0987
  H  H66  1  0.718100  0.500000  0.831500  1.0  0.0805
  H  H67  1  0.716700  0.500000  0.536800  1.0  0.1171
  H  H68  1  0.618400  0.500000  0.763400  1.0  0.1011
  H  H69  1  0.465600  0.000000  0.601400  1.0  0.0402
  H  H70  1  0.534400  0.000000  0.398600  1.0  0.0409
  H  H71  1  0.034400  0.000000  0.101400  1.0  0.0405
  H  H72  1  0.965600  0.000000  0.898600  1.0  0.0402
  C  C73  1  0.443700  0.726600  0.596000  1.0  0.0032
  C  C74  1  0.446500  0.794200  0.599100  1.0  0.3781
  C  C75  1  0.394900  0.629900  0.554800  1.0  0.1593
  C  C76  1  0.487300  0.631300  0.641900  1.0  0.1697
  C  C77  1  0.395500  0.694900  0.549600  1.0  -0.1902
  C  C78  1  0.488700  0.692300  0.643800  1.0  -0.1503
  C  C79  1  0.424500  0.888300  0.568700  1.0  0.1553
  C  C80  1  0.395800  0.946800  0.559700  1.0  0.1912
  C  C81  1  0.328900  0.947800  0.523300  1.0  0.1442
  C  C82  1  0.556300  0.726600  0.404000  1.0  0.0036
  C  C83  1  0.553500  0.794200  0.400900  1.0  0.3728
  C  C84  1  0.605100  0.629900  0.445200  1.0  0.1616
  C  C85  1  0.512700  0.631300  0.358100  1.0  0.1694
  C  C86  1  0.604500  0.694900  0.450400  1.0  -0.1863
  C  C87  1  0.511300  0.692300  0.356200  1.0  -0.1521
  C  C88  1  0.575500  0.888300  0.431300  1.0  0.1564
  C  C89  1  0.604200  0.946800  0.440300  1.0  0.1917
  C  C90  1  0.671100  0.947800  0.476700  1.0  0.1407
  C  C91  1  0.056300  0.273400  0.096000  1.0  0.005
  C  C92  1  0.053500  0.205800  0.099100  1.0  0.3773
  C  C93  1  0.105100  0.370100  0.054800  1.0  0.1616
  C  C94  1  0.012700  0.368700  0.141900  1.0  0.1701
  C  C95  1  0.104500  0.305100  0.049600  1.0  -0.1884
  C  C96  1  0.011300  0.307700  0.143800  1.0  -0.1507
  C  C97  1  0.075500  0.111700  0.068700  1.0  0.1552
  C  C98  1  0.104200  0.053200  0.059700  1.0  0.1925
  C  C99  1  0.171100  0.052200  0.023300  1.0  0.1411
  C  C100  1  0.943700  0.273400  0.904000  1.0  0.0016
  C  C101  1  0.946500  0.205800  0.900900  1.0  0.3765
  C  C102  1  0.894900  0.370100  0.945200  1.0  0.1601
  C  C103  1  0.987300  0.368700  0.858100  1.0  0.1699
  C  C104  1  0.895500  0.305100  0.950400  1.0  -0.1904
  C  C105  1  0.988700  0.307700  0.856200  1.0  -0.1523
  C  C106  1  0.924500  0.111700  0.931300  1.0  0.1563
  C  C107  1  0.895800  0.053200  0.940300  1.0  0.1921
  C  C108  1  0.828900  0.052200  0.976700  1.0  0.1436
  C  C109  1  0.556300  0.273400  0.404000  1.0  0.0025
  C  C110  1  0.553500  0.205800  0.400900  1.0  0.374
  C  C111  1  0.605100  0.370100  0.445200  1.0  0.1621
  C  C112  1  0.512700  0.368700  0.358100  1.0  0.1702
  C  C113  1  0.604500  0.305100  0.450400  1.0  -0.1872
  C  C114  1  0.511300  0.307700  0.356200  1.0  -0.1515
  C  C115  1  0.575500  0.111700  0.431300  1.0  0.1559
  C  C116  1  0.604200  0.053200  0.440300  1.0  0.1923
  C  C117  1  0.671100  0.052200  0.476700  1.0  0.1409
  C  C118  1  0.443700  0.273400  0.596000  1.0  0.0039
  C  C119  1  0.446500  0.205800  0.599100  1.0  0.3776
  C  C120  1  0.394900  0.370100  0.554800  1.0  0.1601
  C  C121  1  0.487300  0.368700  0.641900  1.0  0.1706
  C  C122  1  0.395500  0.305100  0.549600  1.0  -0.1904
  C  C123  1  0.488700  0.307700  0.643800  1.0  -0.1505
  C  C124  1  0.424500  0.111700  0.568700  1.0  0.155
  C  C125  1  0.395800  0.053200  0.559700  1.0  0.1921
  C  C126  1  0.328900  0.052200  0.523300  1.0  0.1448
  C  C127  1  0.943700  0.726600  0.904000  1.0  0.0039
  C  C128  1  0.946500  0.794200  0.900900  1.0  0.3748
  C  C129  1  0.894900  0.629900  0.945200  1.0  0.1595
  C  C130  1  0.987300  0.631300  0.858100  1.0  0.169
  C  C131  1  0.895500  0.694900  0.950400  1.0  -0.1902
  C  C132  1  0.988700  0.692300  0.856200  1.0  -0.1525
  C  C133  1  0.924500  0.888300  0.931300  1.0  0.1566
  C  C134  1  0.895800  0.946800  0.940300  1.0  0.191
  C  C135  1  0.828900  0.947800  0.976700  1.0  0.1435
  C  C136  1  0.056300  0.726600  0.096000  1.0  0.0039
  C  C137  1  0.053500  0.794200  0.099100  1.0  0.3778
  C  C138  1  0.105100  0.629900  0.054800  1.0  0.1609
  C  C139  1  0.012700  0.631300  0.141900  1.0  0.1693
  C  C140  1  0.104500  0.694900  0.049600  1.0  -0.1873
  C  C141  1  0.011300  0.692300  0.143800  1.0  -0.151
  C  C142  1  0.075500  0.888300  0.068700  1.0  0.1559
  C  C143  1  0.104200  0.946800  0.059700  1.0  0.1919
  C  C144  1  0.171100  0.947800  0.023300  1.0  0.1413
  C  C145  1  0.087800  0.500000  0.898200  1.0  0.6756
  C  C146  1  0.279300  0.500000  0.855900  1.0  -0.065
  C  C147  1  0.280000  0.500000  0.765900  1.0  -0.1038
  C  C148  1  0.218900  0.500000  0.728200  1.0  -0.0466
  C  C149  1  0.216500  0.500000  0.903500  1.0  -0.1562
  C  C150  1  0.154900  0.500000  0.857500  1.0  -0.1326
  C  C151  1  0.158800  0.500000  0.768600  1.0  -0.1047
  C  C152  1  0.346200  0.500000  0.713400  1.0  0.4209
  C  C153  1  0.912200  0.500000  0.101800  1.0  0.6741
  C  C154  1  0.720700  0.500000  0.144100  1.0  -0.0671
  C  C155  1  0.720000  0.500000  0.234100  1.0  -0.1076
  C  C156  1  0.781100  0.500000  0.271800  1.0  -0.0467
  C  C157  1  0.783500  0.500000  0.096500  1.0  -0.1555
  C  C158  1  0.845100  0.500000  0.142500  1.0  -0.1315
  C  C159  1  0.841200  0.500000  0.231400  1.0  -0.1031
  C  C160  1  0.653800  0.500000  0.286600  1.0  0.4223
  C  C161  1  0.412200  0.500000  0.398200  1.0  0.6749
  C  C162  1  0.220700  0.500000  0.355900  1.0  -0.0667
  C  C163  1  0.220000  0.500000  0.265900  1.0  -0.1073
  C  C164  1  0.281100  0.500000  0.228200  1.0  -0.0472
  C  C165  1  0.283500  0.500000  0.403500  1.0  -0.1553
  C  C166  1  0.345100  0.500000  0.357500  1.0  -0.1313
  C  C167  1  0.341200  0.500000  0.268600  1.0  -0.1042
  C  C168  1  0.153800  0.500000  0.213400  1.0  0.4213
  C  C169  1  0.587800  0.500000  0.601800  1.0  0.6751
  C  C170  1  0.779300  0.500000  0.644100  1.0  -0.0664
  C  C171  1  0.780000  0.500000  0.734100  1.0  -0.1032
  C  C172  1  0.718900  0.500000  0.771800  1.0  -0.0473
  C  C173  1  0.716500  0.500000  0.596500  1.0  -0.1546
  C  C174  1  0.654900  0.500000  0.642500  1.0  -0.1322
  C  C175  1  0.658800  0.500000  0.731400  1.0  -0.1042
  C  C176  1  0.846200  0.500000  0.786600  1.0  0.4221
  C  C177  1  0.422400  0.000000  0.575600  1.0  -0.0393
  C  C178  1  0.577600  0.000000  0.424400  1.0  -0.0405
  C  C179  1  0.077600  0.000000  0.075600  1.0  -0.0401
  C  C180  1  0.922400  0.000000  0.924400  1.0  -0.0406
  N  N181  1  0.440430  0.599590  0.599470  1.0  -0.3282
  N  N182  1  0.399900  0.829940  0.562500  1.0  -0.2416
  N  N183  1  0.496300  0.826010  0.632000  1.0  -0.1526
  N  N184  1  0.485100  0.885300  0.627000  1.0  -0.3507
  N  N185  1  0.559570  0.599590  0.400530  1.0  -0.3269
  N  N186  1  0.600100  0.829940  0.437500  1.0  -0.2386
  N  N187  1  0.503700  0.826010  0.368000  1.0  -0.1533
  N  N188  1  0.514900  0.885300  0.373000  1.0  -0.3545
  N  N189  1  0.059570  0.400410  0.099470  1.0  -0.3261
  N  N190  1  0.100100  0.170060  0.062500  1.0  -0.2403
  N  N191  1  0.003700  0.173990  0.132000  1.0  -0.1529
  N  N192  1  0.014900  0.114700  0.127000  1.0  -0.3542
  N  N193  1  0.940430  0.400410  0.900530  1.0  -0.3256
  N  N194  1  0.899900  0.170060  0.937500  1.0  -0.2407
  N  N195  1  0.996300  0.173990  0.868000  1.0  -0.1546
  N  N196  1  0.985100  0.114700  0.873000  1.0  -0.3558
  N  N197  1  0.559570  0.400410  0.400530  1.0  -0.3254
  N  N198  1  0.600100  0.170060  0.437500  1.0  -0.239
  N  N199  1  0.503700  0.173990  0.368000  1.0  -0.1529
  N  N200  1  0.514900  0.114700  0.373000  1.0  -0.3557
  N  N201  1  0.440430  0.400410  0.599470  1.0  -0.3267
  N  N202  1  0.399900  0.170060  0.562500  1.0  -0.2417
  N  N203  1  0.496300  0.173990  0.632000  1.0  -0.152
  N  N204  1  0.485100  0.114700  0.627000  1.0  -0.3523
  N  N205  1  0.940430  0.599590  0.900530  1.0  -0.3272
  N  N206  1  0.899900  0.829940  0.937500  1.0  -0.2405
  N  N207  1  0.996300  0.826010  0.868000  1.0  -0.155
  N  N208  1  0.985100  0.885300  0.873000  1.0  -0.3546
  N  N209  1  0.059570  0.599590  0.099470  1.0  -0.3272
  N  N210  1  0.100100  0.829940  0.062500  1.0  -0.2403
  N  N211  1  0.003700  0.826010  0.132000  1.0  -0.1529
  N  N212  1  0.014900  0.885300  0.127000  1.0  -0.3524
  N  N213  1  0.299900  0.000000  0.494800  1.0  -0.3979
  N  N214  1  0.700100  0.000000  0.505200  1.0  -0.4035
  N  N215  1  0.200100  0.000000  0.994800  1.0  -0.4015
  N  N216  1  0.799900  0.000000  0.005200  1.0  -0.4001
  O  O217  1  0.036460  0.500000  0.847200  1.0  -0.571
  O  O218  1  0.084400  0.500000  0.979100  1.0  -0.6485
  O  O219  1  0.396900  0.500000  0.741000  1.0  -0.6022
  O  O220  1  0.331100  0.500000  0.623600  1.0  -0.6222
  O  O221  1  0.963540  0.500000  0.152800  1.0  -0.5716
  O  O222  1  0.915600  0.500000  0.020900  1.0  -0.6499
  O  O223  1  0.603100  0.500000  0.259000  1.0  -0.6014
  O  O224  1  0.668900  0.500000  0.376400  1.0  -0.6221
  O  O225  1  0.463540  0.500000  0.347200  1.0  -0.5721
  O  O226  1  0.415600  0.500000  0.479100  1.0  -0.6483
  O  O227  1  0.103100  0.500000  0.241000  1.0  -0.6021
  O  O228  1  0.168900  0.500000  0.123600  1.0  -0.6226
  O  O229  1  0.536460  0.500000  0.652800  1.0  -0.5704
  O  O230  1  0.584400  0.500000  0.520900  1.0  -0.6499
  O  O231  1  0.896900  0.500000  0.759000  1.0  -0.6016
  O  O232  1  0.831100  0.500000  0.876400  1.0  -0.6214
