# generated using pymatgen
data_Co3H32C58N2O13
_symmetry_space_group_name_H-M   'P 1'
_cell_length_a   15.60690000
_cell_length_b   26.43250000
_cell_length_c   16.62210000
_cell_angle_alpha   90.00000000
_cell_angle_beta   90.15500000
_cell_angle_gamma   90.00000000
_symmetry_Int_Tables_number   1
_chemical_formula_structural   Co3H32C58N2O13
_chemical_formula_sum   'Co12 H128 C232 N8 O52'
_cell_volume   6857.07958632
_cell_formula_units_Z   4
loop_
 _symmetry_equiv_pos_site_id
 _symmetry_equiv_pos_as_xyz
  1  'x, y, z'
loop_
 _atom_site_type_symbol
 _atom_site_label
 _atom_site_symmetry_multiplicity
 _atom_site_fract_x
 _atom_site_fract_y
 _atom_site_fract_z
 _atom_site_occupancy
 _atom_site_charge
  Co  Co1  1  0.415820  0.363290  0.749520  1.0  1.0497
  Co  Co2  1  0.545110  0.256550  0.751910  1.0  1.0715
  Co  Co3  1  0.138830  0.123290  0.250120  1.0  1.0721
  Co  Co4  1  0.084180  0.863290  0.750480  1.0  1.0505
  Co  Co5  1  0.954890  0.756550  0.748090  1.0  1.0698
  Co  Co6  1  0.361170  0.623290  0.249880  1.0  1.0761
  Co  Co7  1  0.584180  0.636710  0.250480  1.0  1.048
  Co  Co8  1  0.454890  0.743450  0.248090  1.0  1.0685
  Co  Co9  1  0.861170  0.876710  0.749880  1.0  1.0761
  Co  Co10  1  0.915820  0.136710  0.249520  1.0  1.0483
  Co  Co11  1  0.045110  0.243450  0.251910  1.0  1.07
  Co  Co12  1  0.638830  0.376710  0.750120  1.0  1.0723
  H  H13  1  0.821100  0.305600  0.310700  1.0  0.1172
  H  H14  1  0.726400  0.370100  0.295800  1.0  0.1069
  H  H15  1  0.643100  0.397900  0.403200  1.0  0.1137
  H  H16  1  0.646400  0.356700  0.524100  1.0  0.1179
  H  H17  1  0.761400  0.216000  0.692400  1.0  0.1149
  H  H18  1  0.844700  0.145900  0.703400  1.0  0.1016
  H  H19  1  0.927500  0.117400  0.595400  1.0  0.1178
  H  H20  1  0.930500  0.161800  0.478100  1.0  0.1054
  H  H21  1  0.078900  0.223100  0.474800  1.0  0.1114
  H  H22  1  0.018600  0.236000  0.598400  1.0  0.1106
  H  H23  1  0.104600  0.254700  0.711000  1.0  0.1223
  H  H24  1  0.249900  0.261300  0.698300  1.0  0.1125
  H  H25  1  0.509000  0.263100  0.524000  1.0  0.1104
  H  H26  1  0.568300  0.251700  0.401500  1.0  0.1078
  H  H27  1  0.485000  0.225200  0.291300  1.0  0.1161
  H  H28  1  0.342200  0.210300  0.306700  1.0  0.1131
  H  H29  1  0.157300  0.135100  0.593500  1.0  0.1188
  H  H30  1  0.101500  0.112800  0.471300  1.0  0.1132
  H  H31  1  0.934000  0.992200  0.305400  1.0  0.1213
  H  H32  1  0.861500  0.917500  0.294300  1.0  0.1102
  H  H33  1  0.072300  0.989600  0.192900  1.0  0.1111
  H  H34  1  0.106200  0.907700  0.211400  1.0  0.1085
  H  H35  1  0.097500  0.849000  0.105000  1.0  0.122
  H  H36  1  0.042800  0.873500  0.983200  1.0  0.1011
  H  H37  1  0.567600  0.166900  0.637000  1.0  0.0886
  H  H38  1  0.618000  0.085700  0.632600  1.0  0.1367
  H  H39  1  0.636000  0.088800  0.871400  1.0  0.1353
  H  H40  1  0.578700  0.169200  0.869300  1.0  0.0901
  H  H41  1  0.686500  0.017100  0.629900  1.0  0.1361
  H  H42  1  0.754000  0.940800  0.634300  1.0  0.0859
  H  H43  1  0.746800  0.938000  0.867200  1.0  0.0958
  H  H44  1  0.671300  0.012400  0.871100  1.0  0.1321
  H  H45  1  0.678900  0.805600  0.189300  1.0  0.1176
  H  H46  1  0.773600  0.870100  0.204200  1.0  0.1066
  H  H47  1  0.856900  0.897900  0.096800  1.0  0.1127
  H  H48  1  0.853600  0.856700  0.975900  1.0  0.1177
  H  H49  1  0.738600  0.716000  0.807600  1.0  0.1156
  H  H50  1  0.655300  0.645900  0.796600  1.0  0.1014
  H  H51  1  0.572500  0.617400  0.904600  1.0  0.1177
  H  H52  1  0.569500  0.661800  0.021900  1.0  0.1059
  H  H53  1  0.421100  0.723100  0.025200  1.0  0.1105
  H  H54  1  0.481400  0.736000  0.901600  1.0  0.1092
  H  H55  1  0.395400  0.754700  0.789000  1.0  0.1232
  H  H56  1  0.250100  0.761300  0.801700  1.0  0.1127
  H  H57  1  0.991000  0.763100  0.976000  1.0  0.1095
  H  H58  1  0.931700  0.751700  0.098500  1.0  0.1083
  H  H59  1  0.015000  0.725200  0.208700  1.0  0.1161
  H  H60  1  0.157800  0.710300  0.193300  1.0  0.1132
  H  H61  1  0.342700  0.635100  0.906500  1.0  0.1189
  H  H62  1  0.398500  0.612800  0.028700  1.0  0.1132
  H  H63  1  0.566000  0.492200  0.194600  1.0  0.1216
  H  H64  1  0.638500  0.417500  0.205700  1.0  0.1101
  H  H65  1  0.427700  0.489600  0.307100  1.0  0.1114
  H  H66  1  0.393800  0.407700  0.288600  1.0  0.1084
  H  H67  1  0.402500  0.349000  0.395000  1.0  0.1219
  H  H68  1  0.457200  0.373500  0.516800  1.0  0.1007
  H  H69  1  0.932400  0.666900  0.863000  1.0  0.0887
  H  H70  1  0.882000  0.585700  0.867400  1.0  0.1364
  H  H71  1  0.864000  0.588800  0.628600  1.0  0.1349
  H  H72  1  0.921300  0.669200  0.630700  1.0  0.0905
  H  H73  1  0.813500  0.517100  0.870100  1.0  0.1371
  H  H74  1  0.746000  0.440800  0.865700  1.0  0.0854
  H  H75  1  0.753200  0.438000  0.632800  1.0  0.0952
  H  H76  1  0.828700  0.512400  0.628900  1.0  0.1325
  H  H77  1  0.178900  0.694400  0.689300  1.0  0.1179
  H  H78  1  0.273600  0.629900  0.704200  1.0  0.1065
  H  H79  1  0.356900  0.602100  0.596800  1.0  0.1125
  H  H80  1  0.353600  0.643300  0.475900  1.0  0.1173
  H  H81  1  0.238600  0.784000  0.307600  1.0  0.1157
  H  H82  1  0.155300  0.854100  0.296600  1.0  0.102
  H  H83  1  0.072500  0.882600  0.404600  1.0  0.1178
  H  H84  1  0.069500  0.838200  0.521900  1.0  0.1059
  H  H85  1  0.921100  0.776900  0.525200  1.0  0.1113
  H  H86  1  0.981400  0.764000  0.401600  1.0  0.1098
  H  H87  1  0.895400  0.745300  0.289000  1.0  0.123
  H  H88  1  0.750100  0.738700  0.301700  1.0  0.1123
  H  H89  1  0.491000  0.736900  0.476000  1.0  0.1099
  H  H90  1  0.431700  0.748300  0.598500  1.0  0.1076
  H  H91  1  0.515000  0.774800  0.708700  1.0  0.1168
  H  H92  1  0.657800  0.789700  0.693300  1.0  0.1127
  H  H93  1  0.842700  0.864900  0.406500  1.0  0.1185
  H  H94  1  0.898500  0.887200  0.528700  1.0  0.1134
  H  H95  1  0.066000  0.007800  0.694600  1.0  0.1216
  H  H96  1  0.138500  0.082500  0.705700  1.0  0.1085
  H  H97  1  0.927700  0.010400  0.807100  1.0  0.1116
  H  H98  1  0.893800  0.092300  0.788600  1.0  0.1084
  H  H99  1  0.902500  0.151000  0.895000  1.0  0.1224
  H  H100  1  0.957200  0.126500  0.016800  1.0  0.1007
  H  H101  1  0.432400  0.833100  0.363000  1.0  0.0873
  H  H102  1  0.382000  0.914300  0.367400  1.0  0.1363
  H  H103  1  0.364000  0.911200  0.128600  1.0  0.1354
  H  H104  1  0.421300  0.830800  0.130700  1.0  0.09
  H  H105  1  0.313500  0.982900  0.370100  1.0  0.137
  H  H106  1  0.246000  0.059200  0.365700  1.0  0.0856
  H  H107  1  0.253200  0.062000  0.132800  1.0  0.0951
  H  H108  1  0.328700  0.987600  0.128900  1.0  0.1325
  H  H109  1  0.321100  0.194400  0.810700  1.0  0.1178
  H  H110  1  0.226400  0.129900  0.795800  1.0  0.1069
  H  H111  1  0.143100  0.102100  0.903200  1.0  0.1133
  H  H112  1  0.146400  0.143300  0.024100  1.0  0.1179
  H  H113  1  0.261400  0.284000  0.192400  1.0  0.1148
  H  H114  1  0.344700  0.354100  0.203400  1.0  0.1015
  H  H115  1  0.427500  0.382600  0.095400  1.0  0.1176
  H  H116  1  0.430500  0.338200  0.978100  1.0  0.1058
  H  H117  1  0.578900  0.276900  0.974800  1.0  0.1111
  H  H118  1  0.518600  0.264000  0.098400  1.0  0.1107
  H  H119  1  0.604600  0.245300  0.211000  1.0  0.1221
  H  H120  1  0.749900  0.238700  0.198300  1.0  0.1128
  H  H121  1  0.009000  0.236900  0.024000  1.0  0.11
  H  H122  1  0.068300  0.248300  0.901500  1.0  0.107
  H  H123  1  0.985000  0.274800  0.791300  1.0  0.1161
  H  H124  1  0.842200  0.289700  0.806700  1.0  0.1133
  H  H125  1  0.657300  0.364900  0.093500  1.0  0.1188
  H  H126  1  0.601500  0.387200  0.971300  1.0  0.1135
  H  H127  1  0.434000  0.507800  0.805400  1.0  0.1213
  H  H128  1  0.361500  0.582500  0.794300  1.0  0.1092
  H  H129  1  0.572300  0.510400  0.692900  1.0  0.1115
  H  H130  1  0.606200  0.592300  0.711400  1.0  0.1078
  H  H131  1  0.597500  0.651000  0.605000  1.0  0.122
  H  H132  1  0.542800  0.626500  0.483200  1.0  0.1009
  H  H133  1  0.067600  0.333100  0.137000  1.0  0.0877
  H  H134  1  0.118000  0.414300  0.132600  1.0  0.1366
  H  H135  1  0.136000  0.411200  0.371400  1.0  0.135
  H  H136  1  0.078700  0.330800  0.369300  1.0  0.0901
  H  H137  1  0.186500  0.482900  0.129900  1.0  0.136
  H  H138  1  0.254000  0.559200  0.134300  1.0  0.0857
  H  H139  1  0.246800  0.562000  0.367200  1.0  0.0958
  H  H140  1  0.171300  0.487600  0.371100  1.0  0.1322
  C  C141  1  0.683100  0.291900  0.635300  1.0  0.7036
  C  C142  1  0.895800  0.226600  0.366400  1.0  0.7194
  C  C143  1  0.843600  0.244500  0.436900  1.0  -0.0764
  C  C144  1  0.789800  0.287100  0.427500  1.0  0.0592
  C  C145  1  0.785400  0.314600  0.353800  1.0  -0.1076
  C  C146  1  0.730600  0.353400  0.345700  1.0  -0.0785
  C  C147  1  0.679200  0.369800  0.410000  1.0  -0.098
  C  C148  1  0.681300  0.345400  0.481700  1.0  -0.1036
  C  C149  1  0.736000  0.302900  0.493300  1.0  0.0482
  C  C150  1  0.738700  0.275900  0.565800  1.0  -0.0854
  C  C151  1  0.790900  0.233700  0.574700  1.0  0.0322
  C  C152  1  0.794300  0.205500  0.648200  1.0  -0.1163
  C  C153  1  0.843800  0.163900  0.654600  1.0  -0.0662
  C  C154  1  0.894400  0.146900  0.590000  1.0  -0.0894
  C  C155  1  0.895200  0.172900  0.520200  1.0  -0.109
  C  C156  1  0.843500  0.217100  0.508900  1.0  0.0211
  C  C157  1  0.396900  0.274100  0.637800  1.0  0.702
  C  C158  1  0.191300  0.205100  0.364000  1.0  0.699
  C  C159  1  0.244600  0.222500  0.435600  1.0  -0.0921
  C  C160  1  0.205800  0.233000  0.508100  1.0  -0.0127
  C  C161  1  0.114300  0.230400  0.519100  1.0  -0.1477
  C  C162  1  0.078400  0.238300  0.592600  1.0  -0.0824
  C  C163  1  0.130200  0.249900  0.660400  1.0  -0.0801
  C  C164  1  0.216300  0.254000  0.652700  1.0  -0.1176
  C  C165  1  0.257100  0.247500  0.576500  1.0  0.0076
  C  C166  1  0.344900  0.254100  0.566200  1.0  -0.1058
  C  C167  1  0.384100  0.245600  0.492900  1.0  0.0022
  C  C168  1  0.474200  0.253100  0.480600  1.0  -0.0916
  C  C169  1  0.509300  0.246000  0.408400  1.0  -0.0641
  C  C170  1  0.459300  0.230000  0.341800  1.0  -0.1054
  C  C171  1  0.374500  0.221500  0.351100  1.0  -0.0911
  C  C172  1  0.333100  0.228900  0.425500  1.0  0.0487
  C  C173  1  0.009400  0.068200  0.362900  1.0  0.7028
  C  C174  1  0.126600  0.104600  0.588200  1.0  -0.0841
  C  C175  1  0.093100  0.091400  0.515800  1.0  -0.1007
  C  C176  1  0.045800  0.046300  0.505900  1.0  -0.0027
  C  C177  1  0.006400  0.032500  0.434000  1.0  -0.1075
  C  C178  1  0.963500  0.986900  0.426200  1.0  -0.0222
  C  C179  1  0.927600  0.971500  0.350900  1.0  -0.1162
  C  C180  1  0.884400  0.927200  0.344400  1.0  -0.0777
  C  C181  1  0.016100  0.071180  0.132500  1.0  0.7178
  C  C182  1  0.975900  0.051500  0.989900  1.0  -0.0334
  C  C183  1  0.009000  0.035000  0.063400  1.0  -0.1134
  C  C184  1  0.032700  0.984600  0.076000  1.0  0.0465
  C  C185  1  0.065300  0.966800  0.150100  1.0  -0.0982
  C  C186  1  0.086500  0.918500  0.160700  1.0  -0.0902
  C  C187  1  0.080100  0.882600  0.097000  1.0  -0.138
  C  C188  1  0.048600  0.897500  0.024700  1.0  -0.0728
  C  C189  1  0.581700  0.150900  0.685800  1.0  0.186
  C  C190  1  0.612100  0.102100  0.682500  1.0  -0.2052
  C  C191  1  0.633600  0.077500  0.752000  1.0  0.0985
  C  C192  1  0.621700  0.103800  0.821900  1.0  -0.1685
  C  C193  1  0.588800  0.152600  0.820200  1.0  0.1659
  C  C194  1  0.673000  0.026000  0.750900  1.0  0.1042
  C  C195  1  0.698200  0.002000  0.679900  1.0  -0.1958
  C  C196  1  0.739700  0.956600  0.683100  1.0  0.1807
  C  C197  1  0.734600  0.954600  0.818500  1.0  0.194
  C  C198  1  0.690100  0.999600  0.821400  1.0  -0.2043
  C  C199  1  0.816900  0.791900  0.864700  1.0  0.7032
  C  C200  1  0.604200  0.726600  0.133600  1.0  0.7196
  C  C201  1  0.656400  0.744500  0.063100  1.0  -0.0768
  C  C202  1  0.710200  0.787100  0.072500  1.0  0.0589
  C  C203  1  0.714600  0.814600  0.146200  1.0  -0.1097
  C  C204  1  0.769400  0.853400  0.154300  1.0  -0.0789
  C  C205  1  0.820800  0.869800  0.090000  1.0  -0.0986
  C  C206  1  0.818700  0.845400  0.018300  1.0  -0.105
  C  C207  1  0.764000  0.802900  0.006700  1.0  0.0484
  C  C208  1  0.761300  0.775900  0.934200  1.0  -0.0848
  C  C209  1  0.709100  0.733700  0.925300  1.0  0.0321
  C  C210  1  0.705700  0.705500  0.851800  1.0  -0.1173
  C  C211  1  0.656200  0.663900  0.845400  1.0  -0.0674
  C  C212  1  0.605600  0.646900  0.910000  1.0  -0.0892
  C  C213  1  0.604800  0.672900  0.979800  1.0  -0.1085
  C  C214  1  0.656500  0.717100  0.991100  1.0  0.0205
  C  C215  1  0.103100  0.774100  0.862200  1.0  0.702
  C  C216  1  0.308700  0.705100  0.136000  1.0  0.699
  C  C217  1  0.255400  0.722500  0.064400  1.0  -0.0924
  C  C218  1  0.294200  0.733000  0.991900  1.0  -0.0126
  C  C219  1  0.385700  0.730400  0.980900  1.0  -0.1472
  C  C220  1  0.421600  0.738300  0.907400  1.0  -0.0803
  C  C221  1  0.369800  0.749900  0.839600  1.0  -0.0808
  C  C222  1  0.283700  0.754000  0.847300  1.0  -0.1149
  C  C223  1  0.242900  0.747500  0.923500  1.0  0.0079
  C  C224  1  0.155100  0.754100  0.933800  1.0  -0.1056
  C  C225  1  0.115900  0.745600  0.007100  1.0  0.0024
  C  C226  1  0.025800  0.753100  0.019400  1.0  -0.0919
  C  C227  1  0.990700  0.746000  0.091600  1.0  -0.0635
  C  C228  1  0.040700  0.730000  0.158200  1.0  -0.1045
  C  C229  1  0.125500  0.721500  0.148900  1.0  -0.0915
  C  C230  1  0.166900  0.728900  0.074500  1.0  0.0494
  C  C231  1  0.490600  0.568200  0.137100  1.0  0.7034
  C  C232  1  0.373400  0.604600  0.911800  1.0  -0.0847
  C  C233  1  0.406900  0.591400  0.984200  1.0  -0.0996
  C  C234  1  0.454200  0.546300  0.994100  1.0  -0.0024
  C  C235  1  0.493600  0.532500  0.066000  1.0  -0.108
  C  C236  1  0.536500  0.486900  0.073800  1.0  -0.0231
  C  C237  1  0.572400  0.471500  0.149100  1.0  -0.118
  C  C238  1  0.615600  0.427200  0.155600  1.0  -0.0772
  C  C239  1  0.483900  0.571180  0.367500  1.0  0.7183
  C  C240  1  0.524100  0.551500  0.510100  1.0  -0.0333
  C  C241  1  0.491000  0.535000  0.436600  1.0  -0.113
  C  C242  1  0.467300  0.484600  0.424000  1.0  0.0464
  C  C243  1  0.434700  0.466800  0.349900  1.0  -0.0983
  C  C244  1  0.413500  0.418500  0.339300  1.0  -0.0921
  C  C245  1  0.419900  0.382600  0.403000  1.0  -0.1383
  C  C246  1  0.451400  0.397500  0.475300  1.0  -0.0739
  C  C247  1  0.918300  0.650900  0.814200  1.0  0.1865
  C  C248  1  0.887900  0.602100  0.817500  1.0  -0.2058
  C  C249  1  0.866400  0.577500  0.748000  1.0  0.0981
  C  C250  1  0.878300  0.603800  0.678100  1.0  -0.1673
  C  C251  1  0.911200  0.652600  0.679800  1.0  0.1677
  C  C252  1  0.827000  0.526000  0.749100  1.0  0.1016
  C  C253  1  0.801800  0.502000  0.820100  1.0  -0.1956
  C  C254  1  0.760300  0.456600  0.816900  1.0  0.1832
  C  C255  1  0.765400  0.454600  0.681500  1.0  0.1941
  C  C256  1  0.809900  0.499600  0.678600  1.0  -0.2065
  C  C257  1  0.316900  0.708100  0.364700  1.0  0.7032
  C  C258  1  0.104200  0.773400  0.633600  1.0  0.7197
  C  C259  1  0.156400  0.755500  0.563100  1.0  -0.0767
  C  C260  1  0.210200  0.712900  0.572500  1.0  0.0587
  C  C261  1  0.214600  0.685400  0.646200  1.0  -0.1095
  C  C262  1  0.269400  0.646600  0.654300  1.0  -0.0794
  C  C263  1  0.320800  0.630200  0.590000  1.0  -0.0989
  C  C264  1  0.318700  0.654600  0.518300  1.0  -0.1058
  C  C265  1  0.264000  0.697100  0.506700  1.0  0.0482
  C  C266  1  0.261300  0.724100  0.434200  1.0  -0.0851
  C  C267  1  0.209100  0.766300  0.425300  1.0  0.0319
  C  C268  1  0.205700  0.794500  0.351800  1.0  -0.1165
  C  C269  1  0.156200  0.836100  0.345400  1.0  -0.0667
  C  C270  1  0.105600  0.853100  0.410000  1.0  -0.0891
  C  C271  1  0.104800  0.827100  0.479800  1.0  -0.1088
  C  C272  1  0.156500  0.782900  0.491100  1.0  0.0206
  C  C273  1  0.603100  0.725900  0.362200  1.0  0.7018
  C  C274  1  0.808700  0.794900  0.636000  1.0  0.6991
  C  C275  1  0.755400  0.777500  0.564400  1.0  -0.0926
  C  C276  1  0.794200  0.767000  0.491900  1.0  -0.0126
  C  C277  1  0.885700  0.769600  0.480900  1.0  -0.1494
  C  C278  1  0.921600  0.761700  0.407400  1.0  -0.0801
  C  C279  1  0.869800  0.750100  0.339600  1.0  -0.0811
  C  C280  1  0.783700  0.746000  0.347300  1.0  -0.1152
  C  C281  1  0.742900  0.752500  0.423500  1.0  0.0074
  C  C282  1  0.655100  0.745900  0.433800  1.0  -0.1056
  C  C283  1  0.615900  0.754400  0.507100  1.0  0.0031
  C  C284  1  0.525800  0.746900  0.519400  1.0  -0.0926
  C  C285  1  0.490700  0.754000  0.591600  1.0  -0.0633
  C  C286  1  0.540700  0.770000  0.658200  1.0  -0.105
  C  C287  1  0.625500  0.778500  0.648900  1.0  -0.0918
  C  C288  1  0.666900  0.771100  0.574500  1.0  0.0492
  C  C289  1  0.990600  0.931800  0.637100  1.0  0.7033
  C  C290  1  0.873400  0.895400  0.411800  1.0  -0.084
  C  C291  1  0.906900  0.908600  0.484200  1.0  -0.0997
  C  C292  1  0.954200  0.953700  0.494100  1.0  -0.0017
  C  C293  1  0.993600  0.967500  0.566000  1.0  -0.1079
  C  C294  1  0.036500  0.013100  0.573800  1.0  -0.0229
  C  C295  1  0.072400  0.028500  0.649100  1.0  -0.1179
  C  C296  1  0.115600  0.072800  0.655600  1.0  -0.0768
  C  C297  1  0.983900  0.928820  0.867500  1.0  0.7179
  C  C298  1  0.024100  0.948500  0.010100  1.0  -0.0334
  C  C299  1  0.991000  0.965000  0.936600  1.0  -0.1131
  C  C300  1  0.967300  0.015400  0.924000  1.0  0.0463
  C  C301  1  0.934700  0.033200  0.849900  1.0  -0.0969
  C  C302  1  0.913500  0.081500  0.839300  1.0  -0.0918
  C  C303  1  0.919900  0.117400  0.903000  1.0  -0.1377
  C  C304  1  0.951400  0.102500  0.975300  1.0  -0.0736
  C  C305  1  0.418300  0.849100  0.314200  1.0  0.1866
  C  C306  1  0.387900  0.897900  0.317500  1.0  -0.2064
  C  C307  1  0.366400  0.922500  0.248000  1.0  0.0977
  C  C308  1  0.378300  0.896200  0.178100  1.0  -0.1677
  C  C309  1  0.411200  0.847400  0.179800  1.0  0.167
  C  C310  1  0.327000  0.974000  0.249100  1.0  0.1017
  C  C311  1  0.301800  0.998000  0.320100  1.0  -0.196
  C  C312  1  0.260300  0.043400  0.316900  1.0  0.1832
  C  C313  1  0.265400  0.045400  0.181500  1.0  0.1949
  C  C314  1  0.309900  0.000400  0.178600  1.0  -0.2068
  C  C315  1  0.183100  0.208100  0.135300  1.0  0.7038
  C  C316  1  0.395800  0.273400  0.866400  1.0  0.7197
  C  C317  1  0.343600  0.255500  0.936900  1.0  -0.0764
  C  C318  1  0.289800  0.212900  0.927500  1.0  0.0589
  C  C319  1  0.285400  0.185400  0.853800  1.0  -0.1082
  C  C320  1  0.230600  0.146600  0.845700  1.0  -0.0793
  C  C321  1  0.179200  0.130200  0.910000  1.0  -0.0983
  C  C322  1  0.181300  0.154600  0.981700  1.0  -0.1036
  C  C323  1  0.236000  0.197100  0.993300  1.0  0.048
  C  C324  1  0.238700  0.224100  0.065800  1.0  -0.0856
  C  C325  1  0.290900  0.266300  0.074700  1.0  0.0321
  C  C326  1  0.294300  0.294500  0.148200  1.0  -0.1157
  C  C327  1  0.343800  0.336100  0.154600  1.0  -0.0664
  C  C328  1  0.394400  0.353100  0.090000  1.0  -0.0884
  C  C329  1  0.395200  0.327100  0.020200  1.0  -0.108
  C  C330  1  0.343500  0.282900  0.008900  1.0  0.0211
  C  C331  1  0.896900  0.225900  0.137800  1.0  0.7021
  C  C332  1  0.691300  0.294900  0.864000  1.0  0.6992
  C  C333  1  0.744600  0.277500  0.935600  1.0  -0.0923
  C  C334  1  0.705800  0.267000  0.008100  1.0  -0.0129
  C  C335  1  0.614300  0.269600  0.019100  1.0  -0.1489
  C  C336  1  0.578400  0.261700  0.092600  1.0  -0.082
  C  C337  1  0.630200  0.250100  0.160400  1.0  -0.0807
  C  C338  1  0.716300  0.246000  0.152700  1.0  -0.1175
  C  C339  1  0.757100  0.252500  0.076500  1.0  0.0073
  C  C340  1  0.844900  0.245900  0.066200  1.0  -0.1058
  C  C341  1  0.884100  0.254400  0.992900  1.0  0.0031
  C  C342  1  0.974200  0.246900  0.980600  1.0  -0.0918
  C  C343  1  0.009300  0.254000  0.908400  1.0  -0.0644
  C  C344  1  0.959300  0.270000  0.841800  1.0  -0.1063
  C  C345  1  0.874500  0.278500  0.851100  1.0  -0.0905
  C  C346  1  0.833100  0.271100  0.925500  1.0  0.0486
  C  C347  1  0.509400  0.431800  0.862900  1.0  0.7025
  C  C348  1  0.626600  0.395400  0.088200  1.0  -0.0848
  C  C349  1  0.593100  0.408600  0.015800  1.0  -0.1005
  C  C350  1  0.545800  0.453700  0.005900  1.0  -0.002
  C  C351  1  0.506400  0.467500  0.934000  1.0  -0.1072
  C  C352  1  0.463500  0.513100  0.926200  1.0  -0.0225
  C  C353  1  0.427600  0.528500  0.850900  1.0  -0.1161
  C  C354  1  0.384400  0.572800  0.844400  1.0  -0.0775
  C  C355  1  0.516100  0.428820  0.632500  1.0  0.7174
  C  C356  1  0.475900  0.448500  0.489900  1.0  -0.0334
  C  C357  1  0.509000  0.465000  0.563400  1.0  -0.1134
  C  C358  1  0.532700  0.515400  0.576000  1.0  0.0464
  C  C359  1  0.565300  0.533200  0.650100  1.0  -0.0969
  C  C360  1  0.586500  0.581500  0.660700  1.0  -0.0899
  C  C361  1  0.580100  0.617400  0.597000  1.0  -0.1362
  C  C362  1  0.548600  0.602500  0.524700  1.0  -0.0733
  C  C363  1  0.081700  0.349100  0.185800  1.0  0.186
  C  C364  1  0.112100  0.397900  0.182500  1.0  -0.2064
  C  C365  1  0.133600  0.422500  0.252000  1.0  0.0989
  C  C366  1  0.121700  0.396200  0.321900  1.0  -0.1686
  C  C367  1  0.088800  0.347400  0.320200  1.0  0.1655
  C  C368  1  0.173000  0.474000  0.250900  1.0  0.1043
  C  C369  1  0.198200  0.498000  0.179900  1.0  -0.1958
  C  C370  1  0.239700  0.543400  0.183100  1.0  0.1806
  C  C371  1  0.234600  0.545400  0.318500  1.0  0.1934
  C  C372  1  0.190100  0.500400  0.321400  1.0  -0.205
  N  N373  1  0.571000  0.176730  0.752600  1.0  -0.3229
  N  N374  1  0.761000  0.933460  0.751300  1.0  -0.3034
  N  N375  1  0.929000  0.676730  0.747400  1.0  -0.3215
  N  N376  1  0.739000  0.433460  0.748700  1.0  -0.3049
  N  N377  1  0.429000  0.823270  0.247400  1.0  -0.3206
  N  N378  1  0.239000  0.066540  0.248700  1.0  -0.3039
  N  N379  1  0.071000  0.323270  0.252600  1.0  -0.322
  N  N380  1  0.261000  0.566540  0.251300  1.0  -0.3052
  O  O381  1  0.619900  0.264280  0.649700  1.0  -0.5828
  O  O382  1  0.706400  0.330950  0.672600  1.0  -0.5952
  O  O383  1  0.865600  0.189290  0.329200  1.0  -0.6122
  O  O384  1  0.963600  0.249930  0.351400  1.0  -0.5853
  O  O385  1  0.442300  0.243110  0.674700  1.0  -0.5805
  O  O386  1  0.387100  0.319980  0.651300  1.0  -0.6079
  O  O387  1  0.150600  0.238790  0.328300  1.0  -0.5839
  O  O388  1  0.191700  0.158700  0.349900  1.0  -0.5723
  O  O389  1  0.078500  0.071190  0.324900  1.0  -0.5767
  O  O390  1  0.941100  0.091690  0.348100  1.0  -0.6004
  O  O391  1  0.948400  0.079940  0.170200  1.0  -0.6067
  O  O392  1  0.089000  0.088670  0.147500  1.0  -0.5798
  O  O393  1  0.533180  0.332130  0.756580  1.0  -0.7703
  O  O394  1  0.880100  0.764280  0.850300  1.0  -0.5827
  O  O395  1  0.793600  0.830950  0.827400  1.0  -0.5959
  O  O396  1  0.634400  0.689290  0.170800  1.0  -0.6114
  O  O397  1  0.536400  0.749930  0.148600  1.0  -0.585
  O  O398  1  0.057700  0.743110  0.825300  1.0  -0.5806
  O  O399  1  0.112900  0.819980  0.848700  1.0  -0.6068
  O  O400  1  0.349400  0.738790  0.171700  1.0  -0.5841
  O  O401  1  0.308300  0.658700  0.150100  1.0  -0.573
  O  O402  1  0.421500  0.571190  0.175100  1.0  -0.5761
  O  O403  1  0.558900  0.591690  0.151900  1.0  -0.6027
  O  O404  1  0.551600  0.579940  0.329800  1.0  -0.6077
  O  O405  1  0.411000  0.588670  0.352500  1.0  -0.5791
  O  O406  1  0.966820  0.832130  0.743420  1.0  -0.7714
  O  O407  1  0.380100  0.735720  0.350300  1.0  -0.5829
  O  O408  1  0.293600  0.669050  0.327400  1.0  -0.5956
  O  O409  1  0.134400  0.810710  0.670800  1.0  -0.611
  O  O410  1  0.036400  0.750070  0.648600  1.0  -0.5859
  O  O411  1  0.557700  0.756890  0.325300  1.0  -0.5803
  O  O412  1  0.612900  0.680020  0.348700  1.0  -0.6091
  O  O413  1  0.849400  0.761210  0.671700  1.0  -0.5843
  O  O414  1  0.808300  0.841300  0.650100  1.0  -0.5726
  O  O415  1  0.921500  0.928810  0.675100  1.0  -0.5765
  O  O416  1  0.058900  0.908310  0.651900  1.0  -0.6027
  O  O417  1  0.051600  0.920060  0.829800  1.0  -0.6075
  O  O418  1  0.911000  0.911330  0.852500  1.0  -0.5789
  O  O419  1  0.466820  0.667870  0.243420  1.0  -0.7716
  O  O420  1  0.119900  0.235720  0.149700  1.0  -0.5826
  O  O421  1  0.206400  0.169050  0.172600  1.0  -0.5948
  O  O422  1  0.365600  0.310710  0.829200  1.0  -0.613
  O  O423  1  0.463600  0.250070  0.851400  1.0  -0.5857
  O  O424  1  0.942300  0.256890  0.174700  1.0  -0.5808
  O  O425  1  0.887100  0.180020  0.151300  1.0  -0.6066
  O  O426  1  0.650600  0.261210  0.828300  1.0  -0.5847
  O  O427  1  0.691700  0.341300  0.849900  1.0  -0.572
  O  O428  1  0.578500  0.428810  0.824900  1.0  -0.5772
  O  O429  1  0.441100  0.408310  0.848100  1.0  -0.6007
  O  O430  1  0.448400  0.420060  0.670200  1.0  -0.6073
  O  O431  1  0.589000  0.411330  0.647500  1.0  -0.5796
  O  O432  1  0.033180  0.167870  0.256580  1.0  -0.7706
