# generated using pymatgen
data_ZnH3(CO2)3
_symmetry_space_group_name_H-M   'P 1'
_cell_length_a   7.29730000
_cell_length_b   7.94800000
_cell_length_c   13.82240000
_cell_angle_alpha   90.00000000
_cell_angle_beta   90.00000000
_cell_angle_gamma   90.00000000
_symmetry_Int_Tables_number   1
_chemical_formula_structural   ZnH3(CO2)3
_chemical_formula_sum   'Zn4 H12 C12 O24'
_cell_volume   801.68455378
_cell_formula_units_Z   4
loop_
 _symmetry_equiv_pos_site_id
 _symmetry_equiv_pos_as_xyz
  1  'x, y, z'
loop_
 _atom_site_type_symbol
 _atom_site_label
 _atom_site_symmetry_multiplicity
 _atom_site_fract_x
 _atom_site_fract_y
 _atom_site_fract_z
 _atom_site_occupancy
 _atom_site_charge
  Zn  Zn1  1  0.759240  0.719430  0.664530  1.0  1.0303
  Zn  Zn2  1  0.740760  0.280570  0.164530  1.0  1.0296
  Zn  Zn3  1  0.240760  0.219430  0.835470  1.0  1.0302
  Zn  Zn4  1  0.259240  0.780570  0.335470  1.0  1.03
  H  H5  1  0.492500  0.808900  0.508200  1.0  0.0804
  H  H6  1  0.520500  0.935000  0.795200  1.0  0.0829
  H  H7  1  0.992900  0.003700  0.727300  1.0  0.0822
  H  H8  1  0.007500  0.191100  0.008200  1.0  0.0813
  H  H9  1  0.979500  0.065000  0.295200  1.0  0.0826
  H  H10  1  0.507100  0.996300  0.227300  1.0  0.0822
  H  H11  1  0.507500  0.308900  0.991800  1.0  0.0802
  H  H12  1  0.479500  0.435000  0.704800  1.0  0.0827
  H  H13  1  0.007100  0.503700  0.772700  1.0  0.0806
  H  H14  1  0.992500  0.691100  0.491800  1.0  0.0815
  H  H15  1  0.020500  0.565000  0.204800  1.0  0.0828
  H  H16  1  0.492900  0.496300  0.272700  1.0  0.082
  C  C17  1  0.508660  0.692600  0.494740  1.0  0.7174
  C  C18  1  0.500970  0.984580  0.733520  1.0  0.7001
  C  C19  1  0.991690  0.942910  0.786450  1.0  0.7139
  C  C20  1  0.991340  0.307400  0.994740  1.0  0.7178
  C  C21  1  0.999030  0.015420  0.233520  1.0  0.7004
  C  C22  1  0.508310  0.057090  0.286450  1.0  0.7131
  C  C23  1  0.491340  0.192600  0.005260  1.0  0.7167
  C  C24  1  0.499030  0.484580  0.766480  1.0  0.7005
  C  C25  1  0.008310  0.442910  0.713550  1.0  0.716
  C  C26  1  0.008660  0.807400  0.505260  1.0  0.7173
  C  C27  1  0.000970  0.515420  0.266480  1.0  0.7002
  C  C28  1  0.491690  0.557090  0.213550  1.0  0.7157
  O  O29  1  0.586500  0.925400  0.662910  1.0  -0.5587
  O  O30  1  0.903750  0.806180  0.788540  1.0  -0.5793
  O  O31  1  0.608700  0.605020  0.772030  1.0  -0.5677
  O  O32  1  0.619230  0.610810  0.546860  1.0  -0.5726
  O  O33  1  0.919200  0.869820  0.573410  1.0  -0.5642
  O  O34  1  0.922870  0.504240  0.643730  1.0  -0.5634
  O  O35  1  0.913500  0.074600  0.162910  1.0  -0.5595
  O  O36  1  0.596250  0.193820  0.288540  1.0  -0.5796
  O  O37  1  0.891300  0.394980  0.272030  1.0  -0.5678
  O  O38  1  0.880770  0.389190  0.046860  1.0  -0.5726
  O  O39  1  0.580800  0.130180  0.073410  1.0  -0.5649
  O  O40  1  0.577130  0.495760  0.143730  1.0  -0.564
  O  O41  1  0.413500  0.425400  0.837090  1.0  -0.5599
  O  O42  1  0.096250  0.306180  0.711460  1.0  -0.5788
  O  O43  1  0.391300  0.105020  0.727970  1.0  -0.5678
  O  O44  1  0.380770  0.110810  0.953140  1.0  -0.5723
  O  O45  1  0.080800  0.369820  0.926590  1.0  -0.5642
  O  O46  1  0.077130  0.004240  0.856270  1.0  -0.5648
  O  O47  1  0.086500  0.574600  0.337090  1.0  -0.5599
  O  O48  1  0.403750  0.693820  0.211460  1.0  -0.5793
  O  O49  1  0.108700  0.894980  0.227970  1.0  -0.5679
  O  O50  1  0.119230  0.889190  0.453140  1.0  -0.5728
  O  O51  1  0.419200  0.630180  0.426590  1.0  -0.5639
  O  O52  1  0.422870  0.995760  0.356270  1.0  -0.5647
