# generated using pymatgen
data_CuH20(C7N)4
_symmetry_space_group_name_H-M   'P 1'
_cell_length_a   21.21110000
_cell_length_b   21.21110000
_cell_length_c   21.21110000
_cell_angle_alpha   90.00000000
_cell_angle_beta   90.00000000
_cell_angle_gamma   90.00000000
_symmetry_Int_Tables_number   1
_chemical_formula_structural   CuH20(C7N)4
_chemical_formula_sum   'Cu6 H120 C168 N24'
_cell_volume   9543.10218952
_cell_formula_units_Z   6
loop_
 _symmetry_equiv_pos_site_id
 _symmetry_equiv_pos_as_xyz
  1  'x, y, z'
loop_
 _atom_site_type_symbol
 _atom_site_label
 _atom_site_symmetry_multiplicity
 _atom_site_fract_x
 _atom_site_fract_y
 _atom_site_fract_z
 _atom_site_occupancy
 _atom_site_charge
  Cu  Cu1  1  0.500000  0.687790  0.000000  1.0  0.6699
  Cu  Cu2  1  0.500000  0.312210  0.000000  1.0  0.6672
  Cu  Cu3  1  0.000000  0.500000  0.687790  1.0  0.6728
  Cu  Cu4  1  0.000000  0.500000  0.312210  1.0  0.6728
  Cu  Cu5  1  0.687790  0.000000  0.500000  1.0  0.6728
  Cu  Cu6  1  0.312210  0.000000  0.500000  1.0  0.6715
  H  H7  1  0.565800  0.791300  0.060500  1.0  0.0778
  H  H8  1  0.637400  0.807300  0.143000  1.0  0.0937
  H  H9  1  0.652700  0.618300  0.166400  1.0  0.0997
  H  H10  1  0.581100  0.602300  0.084000  1.0  0.0843
  H  H11  1  0.748800  0.644600  0.204500  1.0  0.0858
  H  H12  1  0.434200  0.208700  0.060500  1.0  0.0772
  H  H13  1  0.362600  0.192700  0.143000  1.0  0.0939
  H  H14  1  0.347300  0.381700  0.166400  1.0  0.0997
  H  H15  1  0.418900  0.397700  0.084000  1.0  0.0845
  H  H16  1  0.251200  0.355400  0.204500  1.0  0.0869
  H  H17  1  0.434200  0.791300  0.939500  1.0  0.078
  H  H18  1  0.362600  0.807300  0.857000  1.0  0.094
  H  H19  1  0.347300  0.618300  0.833600  1.0  0.1
  H  H20  1  0.418900  0.602300  0.916000  1.0  0.0846
  H  H21  1  0.251200  0.644600  0.795500  1.0  0.0862
  H  H22  1  0.565800  0.208700  0.939500  1.0  0.0768
  H  H23  1  0.637400  0.192700  0.857000  1.0  0.0939
  H  H24  1  0.652700  0.381700  0.833600  1.0  0.1003
  H  H25  1  0.581100  0.397700  0.916000  1.0  0.0861
  H  H26  1  0.748800  0.355400  0.795500  1.0  0.0866
  H  H27  1  0.060500  0.565800  0.791300  1.0  0.0777
  H  H28  1  0.143000  0.637400  0.807300  1.0  0.0939
  H  H29  1  0.166400  0.652700  0.618300  1.0  0.1008
  H  H30  1  0.084000  0.581100  0.602300  1.0  0.0842
  H  H31  1  0.204500  0.748800  0.644600  1.0  0.0865
  H  H32  1  0.060500  0.434200  0.208700  1.0  0.0791
  H  H33  1  0.143000  0.362600  0.192700  1.0  0.0927
  H  H34  1  0.166400  0.347300  0.381700  1.0  0.1011
  H  H35  1  0.084000  0.418900  0.397700  1.0  0.0846
  H  H36  1  0.204500  0.251200  0.355400  1.0  0.0876
  H  H37  1  0.939500  0.434200  0.791300  1.0  0.0781
  H  H38  1  0.857000  0.362600  0.807300  1.0  0.0937
  H  H39  1  0.833600  0.347300  0.618300  1.0  0.101
  H  H40  1  0.916000  0.418900  0.602300  1.0  0.0843
  H  H41  1  0.795500  0.251200  0.644600  1.0  0.0863
  H  H42  1  0.939500  0.565800  0.208700  1.0  0.0792
  H  H43  1  0.857000  0.637400  0.192700  1.0  0.0933
  H  H44  1  0.833600  0.652700  0.381700  1.0  0.101
  H  H45  1  0.916000  0.581100  0.397700  1.0  0.0851
  H  H46  1  0.795500  0.748800  0.355400  1.0  0.087
  H  H47  1  0.791300  0.060500  0.565800  1.0  0.0768
  H  H48  1  0.807300  0.143000  0.637400  1.0  0.0938
  H  H49  1  0.618300  0.166400  0.652700  1.0  0.1004
  H  H50  1  0.602300  0.084000  0.581100  1.0  0.0857
  H  H51  1  0.644600  0.204500  0.748800  1.0  0.0864
  H  H52  1  0.208700  0.060500  0.434200  1.0  0.0761
  H  H53  1  0.192700  0.143000  0.362600  1.0  0.0943
  H  H54  1  0.381700  0.166400  0.347300  1.0  0.1009
  H  H55  1  0.397700  0.084000  0.418900  1.0  0.0852
  H  H56  1  0.355400  0.204500  0.251200  1.0  0.087
  H  H57  1  0.791300  0.939500  0.434200  1.0  0.0765
  H  H58  1  0.807300  0.857000  0.362600  1.0  0.0939
  H  H59  1  0.618300  0.833600  0.347300  1.0  0.1007
  H  H60  1  0.602300  0.916000  0.418900  1.0  0.0853
  H  H61  1  0.644600  0.795500  0.251200  1.0  0.0869
  H  H62  1  0.208700  0.939500  0.565800  1.0  0.0761
  H  H63  1  0.192700  0.857000  0.637400  1.0  0.0939
  H  H64  1  0.381700  0.833600  0.652700  1.0  0.1004
  H  H65  1  0.397700  0.916000  0.581100  1.0  0.0853
  H  H66  1  0.355400  0.795500  0.748800  1.0  0.0869
  H  H67  1  0.434200  0.208700  0.939500  1.0  0.0773
  H  H68  1  0.362600  0.192700  0.857000  1.0  0.0939
  H  H69  1  0.347300  0.381700  0.833600  1.0  0.1002
  H  H70  1  0.418900  0.397700  0.916000  1.0  0.085
  H  H71  1  0.251200  0.355400  0.795500  1.0  0.0864
  H  H72  1  0.565800  0.791300  0.939500  1.0  0.0779
  H  H73  1  0.637400  0.807300  0.857000  1.0  0.094
  H  H74  1  0.652700  0.618300  0.833600  1.0  0.1002
  H  H75  1  0.581100  0.602300  0.916000  1.0  0.0861
  H  H76  1  0.748800  0.644600  0.795500  1.0  0.0858
  H  H77  1  0.565800  0.208700  0.060500  1.0  0.0768
  H  H78  1  0.637400  0.192700  0.143000  1.0  0.094
  H  H79  1  0.652700  0.381700  0.166400  1.0  0.0998
  H  H80  1  0.581100  0.397700  0.084000  1.0  0.0846
  H  H81  1  0.748800  0.355400  0.204500  1.0  0.0866
  H  H82  1  0.434200  0.791300  0.060500  1.0  0.078
  H  H83  1  0.362600  0.807300  0.143000  1.0  0.0937
  H  H84  1  0.347300  0.618300  0.166400  1.0  0.0993
  H  H85  1  0.418900  0.602300  0.084000  1.0  0.0841
  H  H86  1  0.251200  0.644600  0.204500  1.0  0.086
  H  H87  1  0.939500  0.434200  0.208700  1.0  0.079
  H  H88  1  0.857000  0.362600  0.192700  1.0  0.0931
  H  H89  1  0.833600  0.347300  0.381700  1.0  0.1013
  H  H90  1  0.916000  0.418900  0.397700  1.0  0.0847
  H  H91  1  0.795500  0.251200  0.355400  1.0  0.0864
  H  H92  1  0.939500  0.565800  0.791300  1.0  0.0782
  H  H93  1  0.857000  0.637400  0.807300  1.0  0.0937
  H  H94  1  0.833600  0.652700  0.618300  1.0  0.1009
  H  H95  1  0.916000  0.581100  0.602300  1.0  0.0846
  H  H96  1  0.795500  0.748800  0.644600  1.0  0.0868
  H  H97  1  0.060500  0.565800  0.208700  1.0  0.0791
  H  H98  1  0.143000  0.637400  0.192700  1.0  0.0928
  H  H99  1  0.166400  0.652700  0.381700  1.0  0.1009
  H  H100  1  0.084000  0.581100  0.397700  1.0  0.0843
  H  H101  1  0.204500  0.748800  0.355400  1.0  0.0874
  H  H102  1  0.060500  0.434200  0.791300  1.0  0.077
  H  H103  1  0.143000  0.362600  0.807300  1.0  0.0942
  H  H104  1  0.166400  0.347300  0.618300  1.0  0.101
  H  H105  1  0.084000  0.418900  0.602300  1.0  0.0843
  H  H106  1  0.204500  0.251200  0.644600  1.0  0.0864
  H  H107  1  0.208700  0.939500  0.434200  1.0  0.0761
  H  H108  1  0.192700  0.857000  0.362600  1.0  0.0942
  H  H109  1  0.381700  0.833600  0.347300  1.0  0.1007
  H  H110  1  0.397700  0.916000  0.418900  1.0  0.085
  H  H111  1  0.355400  0.795500  0.251200  1.0  0.0871
  H  H112  1  0.791300  0.939500  0.565800  1.0  0.0766
  H  H113  1  0.807300  0.857000  0.637400  1.0  0.0934
  H  H114  1  0.618300  0.833600  0.652700  1.0  0.1005
  H  H115  1  0.602300  0.916000  0.581100  1.0  0.0863
  H  H116  1  0.644600  0.795500  0.748800  1.0  0.0868
  H  H117  1  0.208700  0.060500  0.565800  1.0  0.0761
  H  H118  1  0.192700  0.143000  0.637400  1.0  0.0941
  H  H119  1  0.381700  0.166400  0.652700  1.0  0.1005
  H  H120  1  0.397700  0.084000  0.581100  1.0  0.0855
  H  H121  1  0.355400  0.204500  0.748800  1.0  0.0868
  H  H122  1  0.791300  0.060500  0.434200  1.0  0.0764
  H  H123  1  0.807300  0.143000  0.362600  1.0  0.0938
  H  H124  1  0.618300  0.166400  0.347300  1.0  0.1007
  H  H125  1  0.602300  0.084000  0.418900  1.0  0.085
  H  H126  1  0.644600  0.204500  0.251200  1.0  0.0864
  C  C127  1  0.583500  0.756200  0.082000  1.0  0.1292
  C  C128  1  0.626000  0.765700  0.131000  1.0  -0.1813
  C  C129  1  0.651800  0.714300  0.162400  1.0  -0.0206
  C  C130  1  0.635100  0.653400  0.144900  1.0  -0.1644
  C  C131  1  0.592500  0.643900  0.095900  1.0  0.1224
  C  C132  1  0.693300  0.725000  0.216400  1.0  0.039
  C  C133  1  0.744100  0.681600  0.229300  1.0  -0.2209
  C  C134  1  0.416500  0.243800  0.082000  1.0  0.1349
  C  C135  1  0.374000  0.234300  0.131000  1.0  -0.1783
  C  C136  1  0.348200  0.285700  0.162400  1.0  -0.0212
  C  C137  1  0.364900  0.346600  0.144900  1.0  -0.1647
  C  C138  1  0.407500  0.356100  0.095900  1.0  0.1246
  C  C139  1  0.306700  0.275000  0.216400  1.0  0.0388
  C  C140  1  0.255900  0.318400  0.229300  1.0  -0.2216
  C  C141  1  0.416500  0.756200  0.918000  1.0  0.1274
  C  C142  1  0.374000  0.765700  0.869000  1.0  -0.1834
  C  C143  1  0.348200  0.714300  0.837600  1.0  -0.0215
  C  C144  1  0.364900  0.653400  0.855100  1.0  -0.1633
  C  C145  1  0.407500  0.643900  0.904100  1.0  0.1268
  C  C146  1  0.306700  0.725000  0.783600  1.0  0.038
  C  C147  1  0.255900  0.681600  0.770700  1.0  -0.2208
  C  C148  1  0.583500  0.243800  0.918000  1.0  0.1351
  C  C149  1  0.626000  0.234300  0.869000  1.0  -0.1818
  C  C150  1  0.651800  0.285700  0.837600  1.0  -0.0209
  C  C151  1  0.635100  0.346600  0.855100  1.0  -0.1633
  C  C152  1  0.592500  0.356100  0.904100  1.0  0.1236
  C  C153  1  0.693300  0.275000  0.783600  1.0  0.0384
  C  C154  1  0.744100  0.318400  0.770700  1.0  -0.2193
  C  C155  1  0.082000  0.583500  0.756200  1.0  0.1288
  C  C156  1  0.131000  0.626000  0.765700  1.0  -0.1811
  C  C157  1  0.162400  0.651800  0.714300  1.0  -0.021
  C  C158  1  0.144900  0.635100  0.653400  1.0  -0.1652
  C  C159  1  0.095900  0.592500  0.643900  1.0  0.1176
  C  C160  1  0.216400  0.693300  0.725000  1.0  0.0368
  C  C161  1  0.229300  0.744100  0.681600  1.0  -0.2235
  C  C162  1  0.082000  0.416500  0.243800  1.0  0.134
  C  C163  1  0.131000  0.374000  0.234300  1.0  -0.1802
  C  C164  1  0.162400  0.348200  0.285700  1.0  -0.0218
  C  C165  1  0.144900  0.364900  0.346600  1.0  -0.1647
  C  C166  1  0.095900  0.407500  0.356100  1.0  0.1185
  C  C167  1  0.216400  0.306700  0.275000  1.0  0.037
  C  C168  1  0.229300  0.255900  0.318400  1.0  -0.2215
  C  C169  1  0.918000  0.416500  0.756200  1.0  0.1284
  C  C170  1  0.869000  0.374000  0.765700  1.0  -0.1829
  C  C171  1  0.837600  0.348200  0.714300  1.0  -0.0214
  C  C172  1  0.855100  0.364900  0.653400  1.0  -0.1641
  C  C173  1  0.904100  0.407500  0.643900  1.0  0.1222
  C  C174  1  0.783600  0.306700  0.725000  1.0  0.0376
  C  C175  1  0.770700  0.255900  0.681600  1.0  -0.2228
  C  C176  1  0.918000  0.583500  0.243800  1.0  0.1344
  C  C177  1  0.869000  0.626000  0.234300  1.0  -0.1827
  C  C178  1  0.837600  0.651800  0.285700  1.0  -0.0217
  C  C179  1  0.855100  0.635100  0.346600  1.0  -0.1649
  C  C180  1  0.904100  0.592500  0.356100  1.0  0.1228
  C  C181  1  0.783600  0.693300  0.275000  1.0  0.0378
  C  C182  1  0.770700  0.744100  0.318400  1.0  -0.2209
  C  C183  1  0.756200  0.082000  0.583500  1.0  0.1334
  C  C184  1  0.765700  0.131000  0.626000  1.0  -0.1811
  C  C185  1  0.714300  0.162400  0.651800  1.0  -0.0215
  C  C186  1  0.653400  0.144900  0.635100  1.0  -0.1611
  C  C187  1  0.643900  0.095900  0.592500  1.0  0.1242
  C  C188  1  0.725000  0.216400  0.693300  1.0  0.0393
  C  C189  1  0.681600  0.229300  0.744100  1.0  -0.2239
  C  C190  1  0.243800  0.082000  0.416500  1.0  0.1384
  C  C191  1  0.234300  0.131000  0.374000  1.0  -0.1822
  C  C192  1  0.285700  0.162400  0.348200  1.0  -0.021
  C  C193  1  0.346600  0.144900  0.364900  1.0  -0.1614
  C  C194  1  0.356100  0.095900  0.407500  1.0  0.1239
  C  C195  1  0.275000  0.216400  0.306700  1.0  0.0394
  C  C196  1  0.318400  0.229300  0.255900  1.0  -0.2232
  C  C197  1  0.756200  0.918000  0.416500  1.0  0.132
  C  C198  1  0.765700  0.869000  0.374000  1.0  -0.1811
  C  C199  1  0.714300  0.837600  0.348200  1.0  -0.021
  C  C200  1  0.653400  0.855100  0.364900  1.0  -0.1606
  C  C201  1  0.643900  0.904100  0.407500  1.0  0.1254
  C  C202  1  0.725000  0.783600  0.306700  1.0  0.0386
  C  C203  1  0.681600  0.770700  0.255900  1.0  -0.2227
  C  C204  1  0.243800  0.918000  0.583500  1.0  0.1377
  C  C205  1  0.234300  0.869000  0.626000  1.0  -0.1828
  C  C206  1  0.285700  0.837600  0.651800  1.0  -0.0203
  C  C207  1  0.346600  0.855100  0.635100  1.0  -0.1618
  C  C208  1  0.356100  0.904100  0.592500  1.0  0.1251
  C  C209  1  0.275000  0.783600  0.693300  1.0  0.039
  C  C210  1  0.318400  0.770700  0.744100  1.0  -0.2238
  C  C211  1  0.416500  0.243800  0.918000  1.0  0.1349
  C  C212  1  0.374000  0.234300  0.869000  1.0  -0.178
  C  C213  1  0.348200  0.285700  0.837600  1.0  -0.0215
  C  C214  1  0.364900  0.346600  0.855100  1.0  -0.164
  C  C215  1  0.407500  0.356100  0.904100  1.0  0.1265
  C  C216  1  0.306700  0.275000  0.783600  1.0  0.0379
  C  C217  1  0.255900  0.318400  0.770700  1.0  -0.2211
  C  C218  1  0.583500  0.756200  0.918000  1.0  0.1288
  C  C219  1  0.626000  0.765700  0.869000  1.0  -0.1812
  C  C220  1  0.651800  0.714300  0.837600  1.0  -0.0209
  C  C221  1  0.635100  0.653400  0.855100  1.0  -0.1639
  C  C222  1  0.592500  0.643900  0.904100  1.0  0.1244
  C  C223  1  0.693300  0.725000  0.783600  1.0  0.0385
  C  C224  1  0.744100  0.681600  0.770700  1.0  -0.2191
  C  C225  1  0.583500  0.243800  0.082000  1.0  0.1351
  C  C226  1  0.626000  0.234300  0.131000  1.0  -0.1821
  C  C227  1  0.651800  0.285700  0.162400  1.0  -0.0206
  C  C228  1  0.635100  0.346600  0.144900  1.0  -0.1639
  C  C229  1  0.592500  0.356100  0.095900  1.0  0.1214
  C  C230  1  0.693300  0.275000  0.216400  1.0  0.0391
  C  C231  1  0.744100  0.318400  0.229300  1.0  -0.2196
  C  C232  1  0.416500  0.756200  0.082000  1.0  0.1281
  C  C233  1  0.374000  0.765700  0.131000  1.0  -0.1834
  C  C234  1  0.348200  0.714300  0.162400  1.0  -0.0212
  C  C235  1  0.364900  0.653400  0.144900  1.0  -0.1639
  C  C236  1  0.407500  0.643900  0.095900  1.0  0.1255
  C  C237  1  0.306700  0.725000  0.216400  1.0  0.0387
  C  C238  1  0.255900  0.681600  0.229300  1.0  -0.2229
  C  C239  1  0.918000  0.416500  0.243800  1.0  0.1342
  C  C240  1  0.869000  0.374000  0.234300  1.0  -0.1825
  C  C241  1  0.837600  0.348200  0.285700  1.0  -0.0215
  C  C242  1  0.855100  0.364900  0.346600  1.0  -0.1649
  C  C243  1  0.904100  0.407500  0.356100  1.0  0.1227
  C  C244  1  0.783600  0.306700  0.275000  1.0  0.0378
  C  C245  1  0.770700  0.255900  0.318400  1.0  -0.2205
  C  C246  1  0.918000  0.583500  0.756200  1.0  0.1287
  C  C247  1  0.869000  0.626000  0.765700  1.0  -0.1828
  C  C248  1  0.837600  0.651800  0.714300  1.0  -0.0216
  C  C249  1  0.855100  0.635100  0.653400  1.0  -0.1638
  C  C250  1  0.904100  0.592500  0.643900  1.0  0.1218
  C  C251  1  0.783600  0.693300  0.725000  1.0  0.0376
  C  C252  1  0.770700  0.744100  0.681600  1.0  -0.2228
  C  C253  1  0.082000  0.583500  0.243800  1.0  0.1342
  C  C254  1  0.131000  0.626000  0.234300  1.0  -0.1806
  C  C255  1  0.162400  0.651800  0.285700  1.0  -0.0221
  C  C256  1  0.144900  0.635100  0.346600  1.0  -0.1647
  C  C257  1  0.095900  0.592500  0.356100  1.0  0.1184
  C  C258  1  0.216400  0.693300  0.275000  1.0  0.037
  C  C259  1  0.229300  0.744100  0.318400  1.0  -0.2213
  C  C260  1  0.082000  0.416500  0.756200  1.0  0.1288
  C  C261  1  0.131000  0.374000  0.765700  1.0  -0.1812
  C  C262  1  0.162400  0.348200  0.714300  1.0  -0.0208
  C  C263  1  0.144900  0.364900  0.653400  1.0  -0.1654
  C  C264  1  0.095900  0.407500  0.643900  1.0  0.118
  C  C265  1  0.216400  0.306700  0.725000  1.0  0.0369
  C  C266  1  0.229300  0.255900  0.681600  1.0  -0.2234
  C  C267  1  0.243800  0.918000  0.416500  1.0  0.1381
  C  C268  1  0.234300  0.869000  0.374000  1.0  -0.1824
  C  C269  1  0.285700  0.837600  0.348200  1.0  -0.0207
  C  C270  1  0.346600  0.855100  0.364900  1.0  -0.1617
  C  C271  1  0.356100  0.904100  0.407500  1.0  0.1257
  C  C272  1  0.275000  0.783600  0.306700  1.0  0.0387
  C  C273  1  0.318400  0.770700  0.255900  1.0  -0.2228
  C  C274  1  0.756200  0.918000  0.583500  1.0  0.1317
  C  C275  1  0.765700  0.869000  0.626000  1.0  -0.181
  C  C276  1  0.714300  0.837600  0.651800  1.0  -0.0205
  C  C277  1  0.653400  0.855100  0.635100  1.0  -0.1611
  C  C278  1  0.643900  0.904100  0.592500  1.0  0.1261
  C  C279  1  0.725000  0.783600  0.693300  1.0  0.0389
  C  C280  1  0.681600  0.770700  0.744100  1.0  -0.2234
  C  C281  1  0.243800  0.082000  0.583500  1.0  0.138
  C  C282  1  0.234300  0.131000  0.626000  1.0  -0.1825
  C  C283  1  0.285700  0.162400  0.651800  1.0  -0.0206
  C  C284  1  0.346600  0.144900  0.635100  1.0  -0.1615
  C  C285  1  0.356100  0.095900  0.592500  1.0  0.1229
  C  C286  1  0.275000  0.216400  0.693300  1.0  0.0395
  C  C287  1  0.318400  0.229300  0.744100  1.0  -0.2242
  C  C288  1  0.756200  0.082000  0.416500  1.0  0.1338
  C  C289  1  0.765700  0.131000  0.374000  1.0  -0.1812
  C  C290  1  0.714300  0.162400  0.348200  1.0  -0.022
  C  C291  1  0.653400  0.144900  0.364900  1.0  -0.1603
  C  C292  1  0.643900  0.095900  0.407500  1.0  0.1239
  C  C293  1  0.725000  0.216400  0.306700  1.0  0.0392
  C  C294  1  0.681600  0.229300  0.255900  1.0  -0.2233
  N  N295  1  0.566700  0.695300  0.064500  1.0  -0.3175
  N  N296  1  0.433300  0.304700  0.064500  1.0  -0.3187
  N  N297  1  0.433300  0.695300  0.935500  1.0  -0.3179
  N  N298  1  0.566700  0.304700  0.935500  1.0  -0.3162
  N  N299  1  0.064500  0.566700  0.695300  1.0  -0.3172
  N  N300  1  0.064500  0.433300  0.304700  1.0  -0.3159
  N  N301  1  0.935500  0.433300  0.695300  1.0  -0.3161
  N  N302  1  0.935500  0.566700  0.304700  1.0  -0.3176
  N  N303  1  0.695300  0.064500  0.566700  1.0  -0.3174
  N  N304  1  0.304700  0.064500  0.433300  1.0  -0.318
  N  N305  1  0.695300  0.935500  0.433300  1.0  -0.3167
  N  N306  1  0.304700  0.935500  0.566700  1.0  -0.3167
  N  N307  1  0.433300  0.304700  0.935500  1.0  -0.3174
  N  N308  1  0.566700  0.695300  0.935500  1.0  -0.3166
  N  N309  1  0.566700  0.304700  0.064500  1.0  -0.3174
  N  N310  1  0.433300  0.695300  0.064500  1.0  -0.319
  N  N311  1  0.935500  0.433300  0.304700  1.0  -0.3164
  N  N312  1  0.935500  0.566700  0.695300  1.0  -0.3177
  N  N313  1  0.064500  0.566700  0.304700  1.0  -0.3169
  N  N314  1  0.064500  0.433300  0.695300  1.0  -0.3159
  N  N315  1  0.304700  0.935500  0.433300  1.0  -0.3173
  N  N316  1  0.695300  0.935500  0.566700  1.0  -0.3163
  N  N317  1  0.304700  0.064500  0.566700  1.0  -0.3175
  N  N318  1  0.695300  0.064500  0.433300  1.0  -0.3177
