# generated using pymatgen
data_Zn4H38C64N4O17
_symmetry_space_group_name_H-M   'P 1'
_cell_length_a   18.67000000
_cell_length_b   24.31000000
_cell_length_c   14.01000000
_cell_angle_alpha   89.25800000
_cell_angle_beta   135.71900000
_cell_angle_gamma   90.78900000
_symmetry_Int_Tables_number   1
_chemical_formula_structural   Zn4H38C64N4O17
_chemical_formula_sum   'Zn4 H38 C64 N4 O17'
_cell_volume   4439.03000889
_cell_formula_units_Z   1
loop_
 _symmetry_equiv_pos_site_id
 _symmetry_equiv_pos_as_xyz
  1  'x, y, z'
loop_
 _atom_site_type_symbol
 _atom_site_label
 _atom_site_symmetry_multiplicity
 _atom_site_fract_x
 _atom_site_fract_y
 _atom_site_fract_z
 _atom_site_occupancy
 _atom_site_charge
  Zn  Zn1  1  0.746900  0.572000  0.817100  1.0  1.0014
  Zn  Zn2  1  0.773100  0.576200  0.618700  1.0  0.9599
  Zn  Zn3  1  0.749000  0.117200  0.805800  1.0  0.9684
  Zn  Zn4  1  0.775300  0.121200  0.607500  1.0  0.991
  H  H5  1  0.742100  0.395600  0.852600  1.0  0.1227
  H  H6  1  0.778600  0.399800  0.573000  1.0  0.1189
  H  H7  1  0.931200  0.604400  0.617500  1.0  0.0941
  H  H8  1  0.925500  0.602600  0.430500  1.0  0.1075
  H  H9  1  0.605800  0.547900  0.141800  1.0  0.1038
  H  H10  1  0.619000  0.546200  0.334500  1.0  0.0986
  H  H11  1  0.603200  0.617900  0.828800  1.0  0.092
  H  H12  1  0.610800  0.620100  0.017300  1.0  0.0995
  H  H13  1  0.902200  0.527500  0.284300  1.0  0.097
  H  H14  1  0.886100  0.523200  0.088900  1.0  0.0983
  H  H15  1  0.779400  0.759200  0.592600  1.0  0.0999
  H  H16  1  0.734600  0.840900  0.880800  1.0  0.1082
  H  H17  1  0.738000  0.738000  0.862300  1.0  0.1115
  H  H18  1  0.743200  0.936300  0.821800  1.0  0.0945
  H  H19  1  0.785100  0.957300  0.549100  1.0  0.1017
  H  H20  1  0.788000  0.854600  0.533600  1.0  0.1027
  H  H21  1  0.108800  0.125900  0.909500  1.0  0.0883
  H  H22  1  0.227300  0.115800  0.368200  1.0  0.1097
  H  H23  1  0.038400  0.117100  0.149100  1.0  0.0886
  H  H24  1  0.409000  0.117000  0.489800  1.0  0.0933
  H  H25  1  0.479200  0.123900  0.247300  1.0  0.0847
  H  H26  1  0.290700  0.125900  0.031100  1.0  0.1082
  H  H27  1  0.106500  0.587000  0.922700  1.0  0.0935
  H  H28  1  0.225000  0.565400  0.380100  1.0  0.0903
  H  H29  1  0.036100  0.568400  0.161100  1.0  0.095
  H  H30  1  0.406700  0.568200  0.502000  1.0  0.228
  H  H31  1  0.476900  0.589400  0.261200  1.0  0.0797
  H  H32  1  0.288300  0.591400  0.045000  1.0  0.1008
  H  H33  1  0.742700  0.293500  0.850200  1.0  0.1174
  H  H34  1  0.779400  0.297700  0.570900  1.0  0.114
  H  H35  1  0.924800  0.080800  0.600900  1.0  0.096
  H  H36  1  0.918000  0.079000  0.413100  1.0  0.1034
  H  H37  1  0.615100  0.160100  0.135600  1.0  0.0954
  H  H38  1  0.630500  0.164800  0.330300  1.0  0.1034
  H  H39  1  0.596700  0.081500  0.812700  1.0  0.0945
  H  H40  1  0.602900  0.082900  0.000200  1.0  0.1031
  H  H41  1  0.911700  0.153200  0.277800  1.0  0.1045
  H  H42  1  0.897300  0.154800  0.083900  1.0  0.0931
  C  C43  1  0.750600  0.374900  0.788100  1.0  -0.0027
  C  C44  1  0.770400  0.377200  0.636600  1.0  -0.0618
  C  C45  1  0.947000  0.573100  0.910300  1.0  0.6882
  C  C46  1  0.572800  0.576200  0.527600  1.0  0.6509
  C  C47  1  0.760000  0.676900  0.720400  1.0  0.6681
  C  C48  1  0.760300  0.407400  0.713000  1.0  -0.1237
  C  C49  1  0.759900  0.471400  0.714800  1.0  0.6453
  C  C50  1  0.858200  0.591200  0.510100  1.0  0.1988
  C  C51  1  0.854900  0.590800  0.406500  1.0  -0.1569
  C  C52  1  0.764500  0.575600  0.273400  1.0  0.0574
  C  C53  1  0.680300  0.560200  0.248800  1.0  -0.1517
  C  C54  1  0.687600  0.560100  0.355400  1.0  0.1504
  C  C55  1  0.670100  0.597100  0.931500  1.0  0.1634
  C  C56  1  0.674700  0.598900  0.036100  1.0  -0.0492
  C  C57  1  0.758000  0.574500  0.163800  1.0  0.0355
  C  C58  1  0.833700  0.547800  0.181800  1.0  -0.1307
  C  C59  1  0.825000  0.545900  0.073900  1.0  0.2472
  C  C60  1  0.758900  0.740800  0.726800  1.0  -0.1439
  C  C61  1  0.769400  0.777700  0.657200  1.0  -0.0319
  C  C62  1  0.767600  0.836800  0.666800  1.0  -0.0821
  C  C63  1  0.755200  0.860300  0.746500  1.0  -0.0489
  C  C64  1  0.744800  0.824000  0.815100  1.0  -0.0401
  C  C65  1  0.746600  0.766100  0.805400  1.0  -0.0781
  C  C66  1  0.753400  0.919400  0.756100  1.0  -0.0039
  C  C67  1  0.763900  0.956300  0.686500  1.0  -0.142
  C  C68  1  0.776100  0.931000  0.607900  1.0  -0.0634
  C  C69  1  0.778000  0.873100  0.598200  1.0  -0.0681
  C  C70  1  0.135700  0.123600  0.012600  1.0  -0.0635
  C  C71  1  0.243000  0.122500  0.136200  1.0  -0.0251
  C  C72  1  0.277000  0.119900  0.264500  1.0  -0.0107
  C  C73  1  0.202600  0.118000  0.266500  1.0  -0.0363
  C  C74  1  0.097100  0.118900  0.144700  1.0  -0.0776
  C  C75  1  0.384300  0.119000  0.388100  1.0  -0.051
  C  C76  1  0.459400  0.120500  0.385900  1.0  -0.1301
  C  C77  1  0.422800  0.122800  0.255900  1.0  -0.077
  C  C78  1  0.317300  0.123900  0.134100  1.0  -0.0622
  C  C79  1  0.133400  0.582300  0.025600  1.0  -0.0735
  C  C80  1  0.240700  0.581100  0.149100  1.0  -0.0113
  C  C81  1  0.274700  0.574900  0.277100  1.0  0.0302
  C  C82  1  0.200400  0.570400  0.278800  1.0  -0.1114
  C  C83  1  0.094900  0.571900  0.157000  1.0  -0.1086
  C  C84  1  0.382000  0.573400  0.400600  1.0  -0.0491
  C  C85  1  0.457200  0.578100  0.398800  1.0  -0.0925
  C  C86  1  0.420500  0.584800  0.269400  1.0  -0.0722
  C  C87  1  0.315000  0.586100  0.147600  1.0  -0.0783
  C  C88  1  0.762600  0.016400  0.704600  1.0  0.6288
  C  C89  1  0.751000  0.316100  0.786800  1.0  -0.0577
  C  C90  1  0.770900  0.318400  0.635300  1.0  -0.0535
  C  C91  1  0.575000  0.119900  0.514700  1.0  0.6604
  C  C92  1  0.949300  0.117500  0.897600  1.0  0.6923
  C  C93  1  0.761200  0.285900  0.710400  1.0  -0.1318
  C  C94  1  0.761700  0.221900  0.708900  1.0  0.648
  C  C95  1  0.855500  0.099100  0.496000  1.0  0.215
  C  C96  1  0.851400  0.097500  0.391800  1.0  -0.0681
  C  C97  1  0.765100  0.118800  0.261400  1.0  0.0326
  C  C98  1  0.686100  0.142500  0.240300  1.0  -0.1291
  C  C99  1  0.694400  0.144400  0.347900  1.0  0.2595
  C  C100  1  0.667200  0.098000  0.917600  1.0  0.1917
  C  C101  1  0.670900  0.098300  0.021600  1.0  -0.1531
  C  C102  1  0.758500  0.117700  0.151800  1.0  0.0587
  C  C103  1  0.839600  0.137300  0.173100  1.0  -0.1546
  C  C104  1  0.831700  0.137500  0.066000  1.0  0.1179
  C  C105  1  0.058300  0.577700  0.027400  1.0  -0.0921
  C  C106  1  0.060500  0.121900  0.014700  1.0  -0.1013
  N  N107  1  0.744800  0.570900  0.952000  1.0  -0.1828
  N  N108  1  0.774900  0.576100  0.483000  1.0  -0.2418
  N  N109  1  0.747200  0.117400  0.941400  1.0  -0.2202
  N  N110  1  0.777400  0.122300  0.472400  1.0  -0.2451
  O  O111  1  0.885900  0.572000  0.923400  1.0  -0.6529
  O  O112  1  0.609800  0.573500  0.647300  1.0  -0.6196
  O  O113  1  0.749900  0.647500  0.787000  1.0  -0.6313
  O  O114  1  0.750000  0.497100  0.784800  1.0  -0.6256
  O  O115  1  0.634100  0.577400  0.514700  1.0  -0.6627
  O  O116  1  0.909900  0.574900  0.790300  1.0  -0.6038
  O  O117  1  0.769600  0.499800  0.646700  1.0  -0.6284
  O  O118  1  0.770700  0.652100  0.650000  1.0  -0.6169
  O  O119  1  0.772700  0.045700  0.637800  1.0  -0.633
  O  O120  1  0.751800  0.041200  0.774700  1.0  -0.6253
  O  O121  1  0.612100  0.118300  0.634700  1.0  -0.6054
  O  O122  1  0.887900  0.116300  0.910400  1.0  -0.6605
  O  O123  1  0.752100  0.193500  0.777100  1.0  -0.6193
  O  O124  1  0.912300  0.119900  0.777800  1.0  -0.6069
  O  O125  1  0.636200  0.120900  0.501600  1.0  -0.6488
  O  O126  1  0.771700  0.196200  0.639000  1.0  -0.6234
  O  O127  1  0.419900  0.541800  0.557700  1.0  -0.4921
