# generated using pymatgen
data_ZnH16C23(N3O2)2
_symmetry_space_group_name_H-M   'P 1'
_cell_length_a   19.76230000
_cell_length_b   21.37470000
_cell_length_c   8.36900000
_cell_angle_alpha   90.00000000
_cell_angle_beta   112.17100000
_cell_angle_gamma   90.00000000
_symmetry_Int_Tables_number   1
_chemical_formula_structural   ZnH16C23(N3O2)2
_chemical_formula_sum   'Zn4 H64 C92 N24 O16'
_cell_volume   3273.79145441
_cell_formula_units_Z   4
loop_
 _symmetry_equiv_pos_site_id
 _symmetry_equiv_pos_as_xyz
  1  'x, y, z'
loop_
 _atom_site_type_symbol
 _atom_site_label
 _atom_site_symmetry_multiplicity
 _atom_site_fract_x
 _atom_site_fract_y
 _atom_site_fract_z
 _atom_site_occupancy
 _atom_site_charge
  Zn  Zn1  1  0.258610  0.007320  0.407680  1.0  0.9402
  Zn  Zn2  1  0.758610  0.507320  0.407680  1.0  0.9402
  Zn  Zn3  1  0.741390  0.007320  0.592320  1.0  0.9396
  Zn  Zn4  1  0.241390  0.507320  0.592320  1.0  0.9396
  H  H5  1  0.448300  0.950700  0.877800  1.0  0.1016
  H  H6  1  0.446800  0.137500  0.881300  1.0  0.096
  H  H7  1  0.119100  0.024500  0.690900  1.0  0.0831
  H  H8  1  0.972300  0.025800  0.208600  1.0  0.1105
  H  H9  1  0.161100  0.913700  0.106600  1.0  0.0875
  H  H10  1  0.282400  0.775600  0.371800  1.0  0.11
  H  H11  1  0.325400  0.873000  0.521900  1.0  0.0944
  H  H12  1  0.074200  0.842900  0.963900  1.0  0.1225
  H  H13  1  0.987700  0.875500  0.685800  1.0  0.1127
  H  H14  1  0.866100  0.870700  0.473600  1.0  0.1055
  H  H15  1  0.928500  0.699100  0.630400  1.0  0.093
  H  H16  1  0.058300  0.680500  0.704000  1.0  0.1177
  H  H17  1  0.165000  0.632000  0.634400  1.0  0.1073
  H  H18  1  0.272200  0.511300  0.000300  1.0  0.0957
  H  H19  1  0.231600  0.597100  0.138300  1.0  0.126
  H  H20  1  0.238100  0.718900  0.120700  1.0  0.1245
  H  H21  1  0.948300  0.450700  0.877800  1.0  0.1016
  H  H22  1  0.946800  0.637500  0.881300  1.0  0.096
  H  H23  1  0.619100  0.524500  0.690900  1.0  0.0831
  H  H24  1  0.472300  0.525800  0.208600  1.0  0.1105
  H  H25  1  0.661100  0.413700  0.106600  1.0  0.0875
  H  H26  1  0.782400  0.275600  0.371800  1.0  0.11
  H  H27  1  0.825400  0.373000  0.521900  1.0  0.0944
  H  H28  1  0.574200  0.342900  0.963900  1.0  0.1225
  H  H29  1  0.487700  0.375500  0.685800  1.0  0.1127
  H  H30  1  0.366100  0.370700  0.473600  1.0  0.1055
  H  H31  1  0.428500  0.199100  0.630400  1.0  0.093
  H  H32  1  0.558300  0.180500  0.704000  1.0  0.1177
  H  H33  1  0.665000  0.132000  0.634400  1.0  0.1073
  H  H34  1  0.772200  0.011300  0.000300  1.0  0.0957
  H  H35  1  0.731600  0.097100  0.138300  1.0  0.126
  H  H36  1  0.738100  0.218900  0.120700  1.0  0.1245
  H  H37  1  0.551700  0.950700  0.122200  1.0  0.1018
  H  H38  1  0.553200  0.137500  0.118700  1.0  0.096
  H  H39  1  0.880900  0.024500  0.309100  1.0  0.0841
  H  H40  1  0.027700  0.025800  0.791400  1.0  0.1108
  H  H41  1  0.838900  0.913700  0.893400  1.0  0.0875
  H  H42  1  0.717600  0.775600  0.628200  1.0  0.1108
  H  H43  1  0.674600  0.873000  0.478100  1.0  0.0947
  H  H44  1  0.925800  0.842900  0.036100  1.0  0.1222
  H  H45  1  0.012300  0.875500  0.314200  1.0  0.1128
  H  H46  1  0.133900  0.870700  0.526400  1.0  0.1043
  H  H47  1  0.071500  0.699100  0.369600  1.0  0.0931
  H  H48  1  0.941700  0.680500  0.296000  1.0  0.1177
  H  H49  1  0.835000  0.632000  0.365600  1.0  0.1077
  H  H50  1  0.727800  0.511300  0.999700  1.0  0.0957
  H  H51  1  0.768400  0.597100  0.861700  1.0  0.1256
  H  H52  1  0.761900  0.718900  0.879300  1.0  0.1241
  H  H53  1  0.051700  0.450700  0.122200  1.0  0.1018
  H  H54  1  0.053200  0.637500  0.118700  1.0  0.096
  H  H55  1  0.380900  0.524500  0.309100  1.0  0.0841
  H  H56  1  0.527700  0.525800  0.791400  1.0  0.1108
  H  H57  1  0.338900  0.413700  0.893400  1.0  0.0875
  H  H58  1  0.217600  0.275600  0.628200  1.0  0.1108
  H  H59  1  0.174600  0.373000  0.478100  1.0  0.0947
  H  H60  1  0.425800  0.342900  0.036100  1.0  0.1222
  H  H61  1  0.512300  0.375500  0.314200  1.0  0.1128
  H  H62  1  0.633900  0.370700  0.526400  1.0  0.1043
  H  H63  1  0.571500  0.199100  0.369600  1.0  0.0931
  H  H64  1  0.441700  0.180500  0.296000  1.0  0.1177
  H  H65  1  0.335000  0.132000  0.365600  1.0  0.1077
  H  H66  1  0.227800  0.011300  0.999700  1.0  0.0957
  H  H67  1  0.268400  0.097100  0.861700  1.0  0.1256
  H  H68  1  0.261900  0.218900  0.879300  1.0  0.1241
  C  C69  1  0.369200  0.045100  0.690200  1.0  0.6846
  C  C70  1  0.437200  0.044600  0.852800  1.0  -0.1396
  C  C71  1  0.469200  0.988400  0.927500  1.0  -0.0598
  C  C72  1  0.468600  0.099700  0.928300  1.0  -0.0475
  C  C73  1  0.116900  0.021500  0.378800  1.0  0.7101
  C  C74  1  0.057800  0.024900  0.441700  1.0  -0.088
  C  C75  1  0.070900  0.024900  0.612400  1.0  -0.0726
  C  C76  1  0.983600  0.025300  0.327000  1.0  -0.0998
  C  C77  1  0.197000  0.891700  0.193400  1.0  0.1485
  C  C78  1  0.263000  0.815300  0.336900  1.0  -0.1724
  C  C79  1  0.286000  0.868800  0.417500  1.0  -0.0181
  C  C80  1  0.161200  0.786900  0.061700  1.0  0.1099
  C  C81  1  0.093500  0.804200  0.953100  1.0  -0.2093
  C  C82  1  0.052500  0.761000  0.820900  1.0  0.1183
  C  C83  1  0.960200  0.839400  0.647700  1.0  -0.115
  C  C84  1  0.893200  0.836500  0.532300  1.0  0.042
  C  C85  1  0.926900  0.742300  0.617400  1.0  0.1789
  C  C86  1  0.082900  0.706500  0.796800  1.0  -0.2325
  C  C87  1  0.152000  0.690900  0.914900  1.0  0.1561
  C  C88  1  0.186400  0.612300  0.740700  1.0  0.1148
  C  C89  1  0.245800  0.546200  0.944400  1.0  0.0041
  C  C90  1  0.222900  0.593200  0.021500  1.0  -0.1213
  C  C91  1  0.191600  0.730100  0.044800  1.0  -0.2157
  C  C92  1  0.869200  0.545100  0.690200  1.0  0.6846
  C  C93  1  0.937200  0.544600  0.852800  1.0  -0.1396
  C  C94  1  0.969200  0.488400  0.927500  1.0  -0.0598
  C  C95  1  0.968600  0.599700  0.928300  1.0  -0.0475
  C  C96  1  0.616900  0.521500  0.378800  1.0  0.7101
  C  C97  1  0.557800  0.524900  0.441700  1.0  -0.088
  C  C98  1  0.570900  0.524900  0.612400  1.0  -0.0726
  C  C99  1  0.483600  0.525300  0.327000  1.0  -0.0998
  C  C100  1  0.697000  0.391700  0.193400  1.0  0.1485
  C  C101  1  0.763000  0.315300  0.336900  1.0  -0.1724
  C  C102  1  0.786000  0.368800  0.417500  1.0  -0.0181
  C  C103  1  0.661200  0.286900  0.061700  1.0  0.1099
  C  C104  1  0.593500  0.304200  0.953100  1.0  -0.2093
  C  C105  1  0.552500  0.261000  0.820900  1.0  0.1183
  C  C106  1  0.460200  0.339400  0.647700  1.0  -0.115
  C  C107  1  0.393200  0.336500  0.532300  1.0  0.042
  C  C108  1  0.426900  0.242300  0.617400  1.0  0.1789
  C  C109  1  0.582900  0.206500  0.796800  1.0  -0.2325
  C  C110  1  0.652000  0.190900  0.914900  1.0  0.1561
  C  C111  1  0.686400  0.112300  0.740700  1.0  0.1148
  C  C112  1  0.745800  0.046200  0.944400  1.0  0.0041
  C  C113  1  0.722900  0.093200  0.021500  1.0  -0.1213
  C  C114  1  0.691600  0.230100  0.044800  1.0  -0.2157
  C  C115  1  0.630800  0.045100  0.309800  1.0  0.686
  C  C116  1  0.562800  0.044600  0.147200  1.0  -0.1401
  C  C117  1  0.530800  0.988400  0.072500  1.0  -0.0604
  C  C118  1  0.531400  0.099700  0.071700  1.0  -0.0475
  C  C119  1  0.883100  0.021500  0.621200  1.0  0.7092
  C  C120  1  0.942200  0.024900  0.558300  1.0  -0.0885
  C  C121  1  0.929100  0.024900  0.387600  1.0  -0.0725
  C  C122  1  0.016400  0.025300  0.673000  1.0  -0.0974
  C  C123  1  0.803000  0.891700  0.806600  1.0  0.1462
  C  C124  1  0.737000  0.815300  0.663100  1.0  -0.1728
  C  C125  1  0.714000  0.868800  0.582500  1.0  -0.0155
  C  C126  1  0.838800  0.786900  0.938300  1.0  0.1099
  C  C127  1  0.906500  0.804200  0.046900  1.0  -0.209
  C  C128  1  0.947500  0.761000  0.179100  1.0  0.1181
  C  C129  1  0.039800  0.839400  0.352300  1.0  -0.1162
  C  C130  1  0.106800  0.836500  0.467700  1.0  0.0436
  C  C131  1  0.073100  0.742300  0.382600  1.0  0.1791
  C  C132  1  0.917100  0.706500  0.203200  1.0  -0.2329
  C  C133  1  0.848000  0.690900  0.085100  1.0  0.1546
  C  C134  1  0.813600  0.612300  0.259300  1.0  0.1138
  C  C135  1  0.754200  0.546200  0.055600  1.0  0.0038
  C  C136  1  0.777100  0.593200  0.978500  1.0  -0.1221
  C  C137  1  0.808400  0.730100  0.955200  1.0  -0.2121
  C  C138  1  0.130800  0.545100  0.309800  1.0  0.686
  C  C139  1  0.062800  0.544600  0.147200  1.0  -0.1401
  C  C140  1  0.030800  0.488400  0.072500  1.0  -0.0604
  C  C141  1  0.031400  0.599700  0.071700  1.0  -0.0475
  C  C142  1  0.383100  0.521500  0.621200  1.0  0.7092
  C  C143  1  0.442200  0.524900  0.558300  1.0  -0.0885
  C  C144  1  0.429100  0.524900  0.387600  1.0  -0.0725
  C  C145  1  0.516400  0.525300  0.673000  1.0  -0.0974
  C  C146  1  0.303000  0.391700  0.806600  1.0  0.1462
  C  C147  1  0.237000  0.315300  0.663100  1.0  -0.1728
  C  C148  1  0.214000  0.368800  0.582500  1.0  -0.0155
  C  C149  1  0.338800  0.286900  0.938300  1.0  0.1099
  C  C150  1  0.406500  0.304200  0.046900  1.0  -0.209
  C  C151  1  0.447500  0.261000  0.179100  1.0  0.1181
  C  C152  1  0.539800  0.339400  0.352300  1.0  -0.1162
  C  C153  1  0.606800  0.336500  0.467700  1.0  0.0436
  C  C154  1  0.573100  0.242300  0.382600  1.0  0.1791
  C  C155  1  0.417100  0.206500  0.203200  1.0  -0.2329
  C  C156  1  0.348000  0.190900  0.085100  1.0  0.1546
  C  C157  1  0.313600  0.112300  0.259300  1.0  0.1138
  C  C158  1  0.254200  0.046200  0.055600  1.0  0.0038
  C  C159  1  0.277100  0.093200  0.978500  1.0  -0.1221
  C  C160  1  0.308400  0.230100  0.955200  1.0  -0.2121
  N  N161  1  0.243800  0.917500  0.325500  1.0  -0.387
  N  N162  1  0.204700  0.830500  0.191600  1.0  0.0362
  N  N163  1  0.868100  0.773500  0.510000  1.0  -0.4527
  N  N164  1  0.982200  0.779500  0.702100  1.0  0.0439
  N  N165  1  0.223900  0.558300  0.772300  1.0  -0.3343
  N  N166  1  0.185600  0.632600  0.895500  1.0  0.0506
  N  N167  1  0.743800  0.417500  0.325500  1.0  -0.387
  N  N168  1  0.704700  0.330500  0.191600  1.0  0.0362
  N  N169  1  0.368100  0.273500  0.510000  1.0  -0.4527
  N  N170  1  0.482200  0.279500  0.702100  1.0  0.0439
  N  N171  1  0.723900  0.058300  0.772300  1.0  -0.3343
  N  N172  1  0.685600  0.132600  0.895500  1.0  0.0506
  N  N173  1  0.756200  0.917500  0.674500  1.0  -0.3863
  N  N174  1  0.795300  0.830500  0.808400  1.0  0.0366
  N  N175  1  0.131900  0.773500  0.490000  1.0  -0.448
  N  N176  1  0.017800  0.779500  0.297900  1.0  0.0433
  N  N177  1  0.776100  0.558300  0.227700  1.0  -0.3344
  N  N178  1  0.814400  0.632600  0.104500  1.0  0.051
  N  N179  1  0.256200  0.417500  0.674500  1.0  -0.3863
  N  N180  1  0.295300  0.330500  0.808400  1.0  0.0366
  N  N181  1  0.631900  0.273500  0.490000  1.0  -0.448
  N  N182  1  0.517800  0.279500  0.297900  1.0  0.0433
  N  N183  1  0.276100  0.058300  0.227700  1.0  -0.3344
  N  N184  1  0.314400  0.132600  0.104500  1.0  0.051
  O  O185  1  0.344500  0.994100  0.620300  1.0  -0.5944
  O  O186  1  0.340600  0.095900  0.636400  1.0  -0.5811
  O  O187  1  0.181440  0.028900  0.488200  1.0  -0.5998
  O  O188  1  0.105250  0.010500  0.224000  1.0  -0.489
  O  O189  1  0.844500  0.494100  0.620300  1.0  -0.5944
  O  O190  1  0.840600  0.595900  0.636400  1.0  -0.5811
  O  O191  1  0.681440  0.528900  0.488200  1.0  -0.5998
  O  O192  1  0.605250  0.510500  0.224000  1.0  -0.489
  O  O193  1  0.655500  0.994100  0.379700  1.0  -0.5947
  O  O194  1  0.659400  0.095900  0.363600  1.0  -0.5802
  O  O195  1  0.818560  0.028900  0.511800  1.0  -0.5998
  O  O196  1  0.894750  0.010500  0.776000  1.0  -0.4895
  O  O197  1  0.155500  0.494100  0.379700  1.0  -0.5947
  O  O198  1  0.159400  0.595900  0.363600  1.0  -0.5802
  O  O199  1  0.318560  0.528900  0.511800  1.0  -0.5998
  O  O200  1  0.394750  0.510500  0.776000  1.0  -0.4895
