# generated using pymatgen
data_Ag2H15C16(NO2)3
_symmetry_space_group_name_H-M   'P 1'
_cell_length_a   16.54780000
_cell_length_b   16.54780000
_cell_length_c   12.43530000
_cell_angle_alpha   90.00000000
_cell_angle_beta   90.00000000
_cell_angle_gamma   120.00000000
_symmetry_Int_Tables_number   1
_chemical_formula_structural   Ag2H15C16(NO2)3
_chemical_formula_sum   'Ag12 H90 C96 N18 O36'
_cell_volume   2948.95011019
_cell_formula_units_Z   6
loop_
 _symmetry_equiv_pos_site_id
 _symmetry_equiv_pos_as_xyz
  1  'x, y, z'
loop_
 _atom_site_type_symbol
 _atom_site_label
 _atom_site_symmetry_multiplicity
 _atom_site_fract_x
 _atom_site_fract_y
 _atom_site_fract_z
 _atom_site_occupancy
 _atom_site_charge
  Ag  Ag1  1  0.652220  0.347780  0.416670  1.0  0.2724
  Ag  Ag2  1  0.396490  0.603510  0.416670  1.0  0.3587
  Ag  Ag3  1  0.652220  0.304440  0.750000  1.0  0.2748
  Ag  Ag4  1  0.396490  0.792980  0.750000  1.0  0.357
  Ag  Ag5  1  0.695560  0.347780  0.083330  1.0  0.2726
  Ag  Ag6  1  0.207020  0.603510  0.083330  1.0  0.3582
  Ag  Ag7  1  0.347780  0.652220  0.916670  1.0  0.2728
  Ag  Ag8  1  0.603510  0.396490  0.916670  1.0  0.3576
  Ag  Ag9  1  0.347780  0.695560  0.250000  1.0  0.2747
  Ag  Ag10  1  0.603510  0.207020  0.250000  1.0  0.3577
  Ag  Ag11  1  0.304440  0.652220  0.583330  1.0  0.2723
  Ag  Ag12  1  0.792980  0.396490  0.583330  1.0  0.3582
  H  H13  1  0.139700  0.350700  0.352500  1.0  0.1369
  H  H14  1  0.328700  0.387600  0.553800  1.0  0.1567
  H  H15  1  0.302300  0.319300  0.452500  1.0  0.1299
  H  H16  1  0.304500  0.416700  0.440800  1.0  0.1526
  H  H17  1  0.406300  0.246100  0.407800  1.0  0.1237
  H  H18  1  0.391300  0.271300  0.527700  1.0  0.1103
  H  H19  1  0.484300  0.269400  0.497400  1.0  0.1296
  H  H20  1  0.649300  0.789000  0.685830  1.0  0.1366
  H  H21  1  0.612400  0.941100  0.887130  1.0  0.1584
  H  H22  1  0.680700  0.983000  0.785830  1.0  0.1317
  H  H23  1  0.583300  0.887800  0.774130  1.0  0.1542
  H  H24  1  0.753900  0.160200  0.741130  1.0  0.1253
  H  H25  1  0.728700  0.120000  0.861030  1.0  0.1103
  H  H26  1  0.730600  0.214900  0.830730  1.0  0.131
  H  H27  1  0.211000  0.860300  0.019170  1.0  0.137
  H  H28  1  0.058900  0.671300  0.220470  1.0  0.1569
  H  H29  1  0.017000  0.697700  0.119170  1.0  0.1331
  H  H30  1  0.112200  0.695500  0.107470  1.0  0.1528
  H  H31  1  0.839800  0.593700  0.074470  1.0  0.1247
  H  H32  1  0.880000  0.608700  0.194370  1.0  0.1098
  H  H33  1  0.785100  0.515700  0.164070  1.0  0.1299
  H  H34  1  0.860300  0.649300  0.852500  1.0  0.1366
  H  H35  1  0.671300  0.612400  0.053800  1.0  0.157
  H  H36  1  0.697700  0.680700  0.952500  1.0  0.1337
  H  H37  1  0.695500  0.583300  0.940800  1.0  0.1532
  H  H38  1  0.593700  0.753900  0.907800  1.0  0.1244
  H  H39  1  0.608700  0.728700  0.027700  1.0  0.1092
  H  H40  1  0.515700  0.730600  0.997400  1.0  0.1279
  H  H41  1  0.350700  0.211000  0.185830  1.0  0.1365
  H  H42  1  0.387600  0.058900  0.387130  1.0  0.1589
  H  H43  1  0.319300  0.017000  0.285830  1.0  0.1322
  H  H44  1  0.416700  0.112200  0.274130  1.0  0.1543
  H  H45  1  0.246100  0.839800  0.241130  1.0  0.1255
  H  H46  1  0.271300  0.880000  0.361030  1.0  0.1105
  H  H47  1  0.269400  0.785100  0.330730  1.0  0.1311
  H  H48  1  0.789000  0.139700  0.519170  1.0  0.1367
  H  H49  1  0.941100  0.328700  0.720470  1.0  0.1567
  H  H50  1  0.983000  0.302300  0.619170  1.0  0.1337
  H  H51  1  0.887800  0.304500  0.607470  1.0  0.153
  H  H52  1  0.160200  0.406300  0.574470  1.0  0.1239
  H  H53  1  0.120000  0.391300  0.694370  1.0  0.1103
  H  H54  1  0.214900  0.484300  0.664070  1.0  0.13
  H  H55  1  0.350700  0.139700  0.980830  1.0  0.1368
  H  H56  1  0.387600  0.328700  0.779530  1.0  0.1573
  H  H57  1  0.319300  0.302300  0.880830  1.0  0.1327
  H  H58  1  0.416700  0.304500  0.892530  1.0  0.1531
  H  H59  1  0.246100  0.406300  0.925530  1.0  0.1254
  H  H60  1  0.271300  0.391300  0.805630  1.0  0.111
  H  H61  1  0.269400  0.484300  0.835930  1.0  0.1297
  H  H62  1  0.789000  0.649300  0.647500  1.0  0.1365
  H  H63  1  0.941100  0.612400  0.446200  1.0  0.1572
  H  H64  1  0.983000  0.680700  0.547500  1.0  0.1335
  H  H65  1  0.887800  0.583300  0.559200  1.0  0.1528
  H  H66  1  0.160200  0.753900  0.592200  1.0  0.1246
  H  H67  1  0.120000  0.728700  0.472300  1.0  0.1126
  H  H68  1  0.214900  0.730600  0.502600  1.0  0.1288
  H  H69  1  0.860300  0.211000  0.314170  1.0  0.136
  H  H70  1  0.671300  0.058900  0.112870  1.0  0.159
  H  H71  1  0.697700  0.017000  0.214170  1.0  0.1311
  H  H72  1  0.695500  0.112200  0.225870  1.0  0.1538
  H  H73  1  0.593700  0.839800  0.258870  1.0  0.1264
  H  H74  1  0.608700  0.880000  0.138970  1.0  0.1124
  H  H75  1  0.515700  0.785100  0.169270  1.0  0.13
  H  H76  1  0.649300  0.860300  0.480830  1.0  0.1366
  H  H77  1  0.612400  0.671300  0.279530  1.0  0.1573
  H  H78  1  0.680700  0.697700  0.380830  1.0  0.1335
  H  H79  1  0.583300  0.695500  0.392530  1.0  0.1523
  H  H80  1  0.753900  0.593700  0.425530  1.0  0.1253
  H  H81  1  0.728700  0.608700  0.305630  1.0  0.1125
  H  H82  1  0.730600  0.515700  0.335930  1.0  0.1295
  H  H83  1  0.211000  0.350700  0.147500  1.0  0.1363
  H  H84  1  0.058900  0.387600  0.946200  1.0  0.1577
  H  H85  1  0.017000  0.319300  0.047500  1.0  0.1321
  H  H86  1  0.112200  0.416700  0.059200  1.0  0.1525
  H  H87  1  0.839800  0.246100  0.092200  1.0  0.1254
  H  H88  1  0.880000  0.271300  0.972300  1.0  0.1107
  H  H89  1  0.785100  0.269400  0.002600  1.0  0.127
  H  H90  1  0.139700  0.789000  0.814170  1.0  0.1364
  H  H91  1  0.328700  0.941100  0.612870  1.0  0.1591
  H  H92  1  0.302300  0.983000  0.714170  1.0  0.1323
  H  H93  1  0.304500  0.887800  0.725870  1.0  0.1544
  H  H94  1  0.406300  0.160200  0.758870  1.0  0.126
  H  H95  1  0.391300  0.120000  0.638970  1.0  0.1123
  H  H96  1  0.484300  0.214900  0.669270  1.0  0.1312
  H  H97  1  0.000000  0.492400  0.333333  1.0  0.1262
  H  H98  1  0.507600  0.507600  0.666667  1.0  0.126
  H  H99  1  0.492400  0.000000  0.000000  1.0  0.1257
  H  H100  1  0.000000  0.507600  0.833330  1.0  0.126
  H  H101  1  0.492400  0.492400  0.166670  1.0  0.1261
  H  H102  1  0.507600  0.000000  0.500000  1.0  0.1258
  C  C103  1  0.083900  0.434600  0.341000  1.0  -0.0653
  C  C104  1  0.083200  0.351800  0.343700  1.0  -0.104
  C  C105  1  0.178800  0.523900  0.345100  1.0  0.7166
  C  C106  1  0.333800  0.384700  0.475500  1.0  -0.342
  C  C107  1  0.437500  0.284300  0.471100  1.0  -0.338
  C  C108  1  0.482000  0.380900  0.442700  1.0  0.2231
  C  C109  1  0.434200  0.431100  0.444500  1.0  0.28
  C  C110  1  0.565400  0.649300  0.674330  1.0  -0.0657
  C  C111  1  0.648200  0.731400  0.677030  1.0  -0.1056
  C  C112  1  0.476100  0.654900  0.678430  1.0  0.7142
  C  C113  1  0.615300  0.949100  0.808830  1.0  -0.3429
  C  C114  1  0.715700  0.153200  0.804430  1.0  -0.3397
  C  C115  1  0.619100  0.101100  0.776030  1.0  0.2255
  C  C116  1  0.568900  0.003100  0.777830  1.0  0.2789
  C  C117  1  0.350700  0.916100  0.007670  1.0  -0.0648
  C  C118  1  0.268600  0.916800  0.010370  1.0  -0.1054
  C  C119  1  0.345100  0.821200  0.011770  1.0  0.7193
  C  C120  1  0.050900  0.666200  0.142170  1.0  -0.3397
  C  C121  1  0.846800  0.562500  0.137770  1.0  -0.3391
  C  C122  1  0.898900  0.518000  0.109370  1.0  0.2241
  C  C123  1  0.996900  0.565800  0.111170  1.0  0.2793
  C  C124  1  0.916100  0.565400  0.841000  1.0  -0.0654
  C  C125  1  0.916800  0.648200  0.843700  1.0  -0.1047
  C  C126  1  0.821200  0.476100  0.845100  1.0  0.7164
  C  C127  1  0.666200  0.615300  0.975500  1.0  -0.3425
  C  C128  1  0.562500  0.715700  0.971100  1.0  -0.3376
  C  C129  1  0.518000  0.619100  0.942700  1.0  0.2222
  C  C130  1  0.565800  0.568900  0.944500  1.0  0.2792
  C  C131  1  0.434600  0.350700  0.174330  1.0  -0.0646
  C  C132  1  0.351800  0.268600  0.177030  1.0  -0.1051
  C  C133  1  0.523900  0.345100  0.178430  1.0  0.7152
  C  C134  1  0.384700  0.050900  0.308830  1.0  -0.3411
  C  C135  1  0.284300  0.846800  0.304430  1.0  -0.3395
  C  C136  1  0.380900  0.898900  0.276030  1.0  0.225
  C  C137  1  0.431100  0.996900  0.277830  1.0  0.2805
  C  C138  1  0.649300  0.083900  0.507670  1.0  -0.0652
  C  C139  1  0.731400  0.083200  0.510370  1.0  -0.105
  C  C140  1  0.654900  0.178800  0.511770  1.0  0.7195
  C  C141  1  0.949100  0.333800  0.642170  1.0  -0.3405
  C  C142  1  0.153200  0.437500  0.637770  1.0  -0.3392
  C  C143  1  0.101100  0.482000  0.609370  1.0  0.2243
  C  C144  1  0.003100  0.434200  0.611170  1.0  0.2782
  C  C145  1  0.434600  0.083900  0.992330  1.0  -0.0645
  C  C146  1  0.351800  0.083200  0.989630  1.0  -0.1049
  C  C147  1  0.523900  0.178800  0.988230  1.0  0.7195
  C  C148  1  0.384700  0.333800  0.857830  1.0  -0.34
  C  C149  1  0.284300  0.437500  0.862230  1.0  -0.3389
  C  C150  1  0.380900  0.482000  0.890630  1.0  0.2258
  C  C151  1  0.431100  0.434200  0.888830  1.0  0.2791
  C  C152  1  0.649300  0.565400  0.659000  1.0  -0.0656
  C  C153  1  0.731400  0.648200  0.656300  1.0  -0.1044
  C  C154  1  0.654900  0.476100  0.654900  1.0  0.7171
  C  C155  1  0.949100  0.615300  0.524500  1.0  -0.3424
  C  C156  1  0.153200  0.715700  0.528900  1.0  -0.3371
  C  C157  1  0.101100  0.619100  0.557300  1.0  0.2228
  C  C158  1  0.003100  0.568900  0.555500  1.0  0.2803
  C  C159  1  0.916100  0.350700  0.325670  1.0  -0.0663
  C  C160  1  0.916800  0.268600  0.322970  1.0  -0.1063
  C  C161  1  0.821200  0.345100  0.321570  1.0  0.7144
  C  C162  1  0.666200  0.050900  0.191170  1.0  -0.3432
  C  C163  1  0.562500  0.846800  0.195570  1.0  -0.3402
  C  C164  1  0.518000  0.898900  0.223970  1.0  0.2261
  C  C165  1  0.565800  0.996900  0.222170  1.0  0.2788
  C  C166  1  0.565400  0.916100  0.492330  1.0  -0.066
  C  C167  1  0.648200  0.916800  0.489630  1.0  -0.1048
  C  C168  1  0.476100  0.821200  0.488230  1.0  0.72
  C  C169  1  0.615300  0.666200  0.357830  1.0  -0.3405
  C  C170  1  0.715700  0.562500  0.362230  1.0  -0.3391
  C  C171  1  0.619100  0.518000  0.390630  1.0  0.2249
  C  C172  1  0.568900  0.565800  0.388830  1.0  0.2788
  C  C173  1  0.350700  0.434600  0.159000  1.0  -0.0647
  C  C174  1  0.268600  0.351800  0.156300  1.0  -0.104
  C  C175  1  0.345100  0.523900  0.154900  1.0  0.7169
  C  C176  1  0.050900  0.384700  0.024500  1.0  -0.3417
  C  C177  1  0.846800  0.284300  0.028900  1.0  -0.3382
  C  C178  1  0.898900  0.380900  0.057300  1.0  0.2238
  C  C179  1  0.996900  0.431100  0.055500  1.0  0.2792
  C  C180  1  0.083900  0.649300  0.825670  1.0  -0.0647
  C  C181  1  0.083200  0.731400  0.822970  1.0  -0.1041
  C  C182  1  0.178800  0.654900  0.821570  1.0  0.7154
  C  C183  1  0.333800  0.949100  0.691170  1.0  -0.3417
  C  C184  1  0.437500  0.153200  0.695570  1.0  -0.3388
  C  C185  1  0.482000  0.101100  0.723970  1.0  0.2262
  C  C186  1  0.434200  0.003100  0.722170  1.0  0.2807
  C  C187  1  0.000000  0.435000  0.333333  1.0  -0.0303
  C  C188  1  0.000000  0.270400  0.333333  1.0  0.0378
  C  C189  1  0.565000  0.565000  0.666667  1.0  -0.0303
  C  C190  1  0.729600  0.729600  0.666667  1.0  0.038
  C  C191  1  0.435000  0.000000  0.000000  1.0  -0.0305
  C  C192  1  0.270400  0.000000  0.000000  1.0  0.0353
  C  C193  1  0.000000  0.565000  0.833330  1.0  -0.0289
  C  C194  1  0.000000  0.729600  0.833330  1.0  0.0372
  C  C195  1  0.435000  0.435000  0.166670  1.0  -0.0292
  C  C196  1  0.270400  0.270400  0.166670  1.0  0.0362
  C  C197  1  0.565000  0.000000  0.500000  1.0  -0.0318
  C  C198  1  0.729600  0.000000  0.500000  1.0  0.0385
  N  N199  1  0.574000  0.426000  0.416670  1.0  -0.4206
  N  N200  1  0.478400  0.521600  0.416670  1.0  -0.3442
  N  N201  1  0.574000  0.148000  0.750000  1.0  -0.4197
  N  N202  1  0.478400  0.956800  0.750000  1.0  -0.342
  N  N203  1  0.852000  0.426000  0.083330  1.0  -0.4245
  N  N204  1  0.043200  0.521600  0.083330  1.0  -0.3432
  N  N205  1  0.426000  0.574000  0.916670  1.0  -0.4236
  N  N206  1  0.521600  0.478400  0.916670  1.0  -0.342
  N  N207  1  0.426000  0.852000  0.250000  1.0  -0.4227
  N  N208  1  0.521600  0.043200  0.250000  1.0  -0.3424
  N  N209  1  0.148000  0.574000  0.583330  1.0  -0.4206
  N  N210  1  0.956800  0.478400  0.583330  1.0  -0.3432
  N  N211  1  0.000000  0.182100  0.333333  1.0  0.5867
  N  N212  1  0.817900  0.817900  0.666667  1.0  0.5862
  N  N213  1  0.182100  0.000000  0.000000  1.0  0.5851
  N  N214  1  0.000000  0.817900  0.833330  1.0  0.5887
  N  N215  1  0.182100  0.182100  0.166670  1.0  0.586
  N  N216  1  0.817900  0.000000  0.500000  1.0  0.5843
  O  O217  1  0.188000  0.597100  0.305600  1.0  -0.6099
  O  O218  1  0.241800  0.513200  0.386200  1.0  -0.5824
  O  O219  1  0.069700  0.181700  0.366300  1.0  -0.4176
  O  O220  1  0.402900  0.590900  0.638930  1.0  -0.6093
  O  O221  1  0.486800  0.728600  0.719530  1.0  -0.5822
  O  O222  1  0.818300  0.888000  0.699630  1.0  -0.4168
  O  O223  1  0.409100  0.812000  0.972270  1.0  -0.6088
  O  O224  1  0.271400  0.758200  0.052870  1.0  -0.5827
  O  O225  1  0.112000  0.930300  0.032970  1.0  -0.4128
  O  O226  1  0.812000  0.402900  0.805600  1.0  -0.6101
  O  O227  1  0.758200  0.486800  0.886200  1.0  -0.5823
  O  O228  1  0.930300  0.818300  0.866300  1.0  -0.4213
  O  O229  1  0.597100  0.409100  0.138930  1.0  -0.6098
  O  O230  1  0.513200  0.271400  0.219530  1.0  -0.5825
  O  O231  1  0.181700  0.112000  0.199630  1.0  -0.4172
  O  O232  1  0.590900  0.188000  0.472270  1.0  -0.6078
  O  O233  1  0.728600  0.241800  0.552870  1.0  -0.5839
  O  O234  1  0.888000  0.069700  0.532970  1.0  -0.4208
  O  O235  1  0.597100  0.188000  0.027730  1.0  -0.6081
  O  O236  1  0.513200  0.241800  0.947130  1.0  -0.5825
  O  O237  1  0.181700  0.069700  0.967030  1.0  -0.414
  O  O238  1  0.590900  0.402900  0.694400  1.0  -0.6087
  O  O239  1  0.728600  0.486800  0.613800  1.0  -0.5817
  O  O240  1  0.888000  0.818300  0.633700  1.0  -0.4183
  O  O241  1  0.812000  0.409100  0.361070  1.0  -0.6095
  O  O242  1  0.758200  0.271400  0.280470  1.0  -0.5811
  O  O243  1  0.930300  0.112000  0.300370  1.0  -0.4155
  O  O244  1  0.402900  0.812000  0.527730  1.0  -0.607
  O  O245  1  0.486800  0.758200  0.447130  1.0  -0.5828
  O  O246  1  0.818300  0.930300  0.467030  1.0  -0.4193
  O  O247  1  0.409100  0.597100  0.194400  1.0  -0.6104
  O  O248  1  0.271400  0.513200  0.113800  1.0  -0.5819
  O  O249  1  0.112000  0.181700  0.133700  1.0  -0.4181
  O  O250  1  0.188000  0.590900  0.861070  1.0  -0.6088
  O  O251  1  0.241800  0.728600  0.780470  1.0  -0.5822
  O  O252  1  0.069700  0.888000  0.800370  1.0  -0.4194
