# generated using pymatgen
data_Cu2H13C16N2ClO9
_symmetry_space_group_name_H-M   'P 1'
_cell_length_a   8.69700000
_cell_length_b   25.05000000
_cell_length_c   11.63800000
_cell_angle_alpha   90.00000000
_cell_angle_beta   104.01000000
_cell_angle_gamma   90.00000000
_symmetry_Int_Tables_number   1
_chemical_formula_structural   Cu2H13C16N2ClO9
_chemical_formula_sum   'Cu8 H52 C64 N8 Cl4 O36'
_cell_volume   2460.03205357
_cell_formula_units_Z   4
loop_
 _symmetry_equiv_pos_site_id
 _symmetry_equiv_pos_as_xyz
  1  'x, y, z'
loop_
 _atom_site_type_symbol
 _atom_site_label
 _atom_site_symmetry_multiplicity
 _atom_site_fract_x
 _atom_site_fract_y
 _atom_site_fract_z
 _atom_site_occupancy
 _atom_site_charge
  Cu  Cu1  1  0.587930  0.033190  0.603650  1.0  0.9051
  Cu  Cu2  1  0.275070  0.084850  0.405210  1.0  0.9408
  Cu  Cu3  1  0.912070  0.533190  0.896350  1.0  0.9068
  Cu  Cu4  1  0.224930  0.584850  0.094790  1.0  0.9418
  Cu  Cu5  1  0.412070  0.966810  0.396350  1.0  0.9043
  Cu  Cu6  1  0.724930  0.915150  0.594790  1.0  0.9421
  Cu  Cu7  1  0.087930  0.466810  0.103650  1.0  0.9029
  Cu  Cu8  1  0.775070  0.415150  0.905210  1.0  0.941
  H  H9  1  0.545500  0.056700  0.391200  1.0  0.3394
  H  H10  1  0.032100  0.075600  0.805900  1.0  0.1229
  H  H11  1  0.086400  0.080700  0.009800  1.0  0.1268
  H  H12  1  0.358900  0.950600  0.028300  1.0  0.1233
  H  H13  1  0.300000  0.948300  0.824300  1.0  0.1047
  H  H14  1  0.010100  0.022100  0.638000  1.0  0.1322
  H  H15  1  0.107600  0.969100  0.646000  1.0  0.1248
  H  H16  1  0.244400  0.286900  0.066800  1.0  0.1322
  H  H17  1  0.263300  0.222600  0.211200  1.0  0.1152
  H  H18  1  0.637100  0.160300  0.114000  1.0  0.12
  H  H19  1  0.613300  0.226700  0.973700  1.0  0.1194
  H  H20  1  0.327400  0.326600  0.916800  1.0  0.1336
  H  H21  1  0.414100  0.289400  0.843900  1.0  0.138
  H  H22  1  0.954500  0.556700  0.108800  1.0  0.34
  H  H23  1  0.467900  0.575600  0.694100  1.0  0.123
  H  H24  1  0.413600  0.580700  0.490200  1.0  0.1267
  H  H25  1  0.141100  0.450600  0.471700  1.0  0.1226
  H  H26  1  0.200000  0.448300  0.675700  1.0  0.1046
  H  H27  1  0.489900  0.522100  0.862000  1.0  0.1327
  H  H28  1  0.392400  0.469100  0.854000  1.0  0.1261
  H  H29  1  0.255600  0.786900  0.433200  1.0  0.1326
  H  H30  1  0.236700  0.722600  0.288800  1.0  0.1152
  H  H31  1  0.862900  0.660300  0.386000  1.0  0.1196
  H  H32  1  0.886700  0.726700  0.526300  1.0  0.12
  H  H33  1  0.172600  0.826600  0.583200  1.0  0.1335
  H  H34  1  0.085900  0.789400  0.656100  1.0  0.1392
  H  H35  1  0.454500  0.943300  0.608800  1.0  0.3396
  H  H36  1  0.967900  0.924400  0.194100  1.0  0.1233
  H  H37  1  0.913600  0.919300  0.990200  1.0  0.1268
  H  H38  1  0.641100  0.049400  0.971700  1.0  0.1227
  H  H39  1  0.700000  0.051700  0.175700  1.0  0.1044
  H  H40  1  0.989900  0.977900  0.362000  1.0  0.1326
  H  H41  1  0.892400  0.030900  0.354000  1.0  0.1259
  H  H42  1  0.755600  0.713100  0.933200  1.0  0.1327
  H  H43  1  0.736700  0.777400  0.788800  1.0  0.1154
  H  H44  1  0.362900  0.839700  0.886000  1.0  0.1195
  H  H45  1  0.386700  0.773300  0.026300  1.0  0.1198
  H  H46  1  0.672600  0.673400  0.083200  1.0  0.1333
  H  H47  1  0.585900  0.710600  0.156100  1.0  0.1385
  H  H48  1  0.045500  0.443300  0.891200  1.0  0.3395
  H  H49  1  0.532100  0.424400  0.305900  1.0  0.1231
  H  H50  1  0.586400  0.419300  0.509800  1.0  0.1267
  H  H51  1  0.858900  0.549400  0.528300  1.0  0.1232
  H  H52  1  0.800000  0.551700  0.324300  1.0  0.1047
  H  H53  1  0.510100  0.477900  0.138000  1.0  0.132
  H  H54  1  0.607600  0.530900  0.146000  1.0  0.1252
  H  H55  1  0.744400  0.213100  0.566800  1.0  0.1323
  H  H56  1  0.763300  0.277400  0.711200  1.0  0.1155
  H  H57  1  0.137100  0.339700  0.614000  1.0  0.1198
  H  H58  1  0.113300  0.273300  0.473700  1.0  0.1192
  H  H59  1  0.827400  0.173400  0.416800  1.0  0.1334
  H  H60  1  0.914100  0.210600  0.343900  1.0  0.138
  C  C61  1  0.097100  0.050140  0.851800  1.0  0.032
  C  C62  1  0.129000  0.053150  0.973600  1.0  -0.0441
  C  C63  1  0.224700  0.014990  0.041600  1.0  -0.095
  C  C64  1  0.290900  0.975910  0.984600  1.0  -0.0471
  C  C65  1  0.255800  0.974680  0.862600  1.0  0.0101
  C  C66  1  0.114300  0.006530  0.667800  1.0  -0.1507
  C  C67  1  0.231500  0.034090  0.609000  1.0  0.7064
  C  C68  1  0.250600  0.014850  0.176100  1.0  0.6808
  C  C69  1  0.324200  0.261320  0.077500  1.0  0.0177
  C  C70  1  0.334800  0.222770  0.163300  1.0  -0.0501
  C  C71  1  0.452000  0.184310  0.178200  1.0  -0.0978
  C  C72  1  0.557500  0.185770  0.105900  1.0  -0.0705
  C  C73  1  0.542600  0.225440  0.022100  1.0  0.0504
  C  C74  1  0.421400  0.305040  0.921300  1.0  -0.1272
  C  C75  1  0.568800  0.340560  0.954900  1.0  0.7122
  C  C76  1  0.463200  0.140250  0.270000  1.0  0.6537
  C  C77  1  0.402900  0.550140  0.648200  1.0  0.033
  C  C78  1  0.371000  0.553150  0.526400  1.0  -0.0454
  C  C79  1  0.275300  0.514990  0.458400  1.0  -0.0942
  C  C80  1  0.209100  0.475910  0.515400  1.0  -0.0469
  C  C81  1  0.244200  0.474680  0.637400  1.0  0.0102
  C  C82  1  0.385700  0.506530  0.832200  1.0  -0.1504
  C  C83  1  0.268500  0.534090  0.891000  1.0  0.7055
  C  C84  1  0.249400  0.514850  0.323900  1.0  0.6798
  C  C85  1  0.175800  0.761320  0.422500  1.0  0.0196
  C  C86  1  0.165200  0.722770  0.336700  1.0  -0.0481
  C  C87  1  0.048000  0.684310  0.321800  1.0  -0.0984
  C  C88  1  0.942500  0.685770  0.394100  1.0  -0.0695
  C  C89  1  0.957400  0.725440  0.477900  1.0  0.0495
  C  C90  1  0.078600  0.805040  0.578700  1.0  -0.1265
  C  C91  1  0.931200  0.840560  0.545100  1.0  0.7128
  C  C92  1  0.036800  0.640250  0.230000  1.0  0.6536
  C  C93  1  0.902900  0.949860  0.148200  1.0  0.031
  C  C94  1  0.871000  0.946850  0.026400  1.0  -0.0488
  C  C95  1  0.775300  0.985010  0.958400  1.0  -0.0942
  C  C96  1  0.709100  0.024090  0.015400  1.0  -0.0464
  C  C97  1  0.744200  0.025320  0.137400  1.0  0.0091
  C  C98  1  0.885700  0.993470  0.332200  1.0  -0.15
  C  C99  1  0.768500  0.965910  0.391000  1.0  0.7069
  C  C100  1  0.749400  0.985150  0.823900  1.0  0.6795
  C  C101  1  0.675800  0.738680  0.922500  1.0  0.0189
  C  C102  1  0.665200  0.777230  0.836700  1.0  -0.0482
  C  C103  1  0.548000  0.815690  0.821800  1.0  -0.098
  C  C104  1  0.442500  0.814230  0.894100  1.0  -0.0695
  C  C105  1  0.457400  0.774560  0.977900  1.0  0.0483
  C  C106  1  0.578600  0.694960  0.078700  1.0  -0.1266
  C  C107  1  0.431200  0.659440  0.045100  1.0  0.7116
  C  C108  1  0.536800  0.859750  0.730000  1.0  0.6538
  C  C109  1  0.597100  0.449860  0.351800  1.0  0.0308
  C  C110  1  0.629000  0.446850  0.473600  1.0  -0.0468
  C  C111  1  0.724700  0.485010  0.541600  1.0  -0.0947
  C  C112  1  0.790900  0.524090  0.484600  1.0  -0.047
  C  C113  1  0.755800  0.525320  0.362600  1.0  0.0093
  C  C114  1  0.614300  0.493470  0.167800  1.0  -0.1503
  C  C115  1  0.731500  0.465910  0.109000  1.0  0.7074
  C  C116  1  0.750600  0.485150  0.676100  1.0  0.6805
  C  C117  1  0.824200  0.238680  0.577500  1.0  0.0167
  C  C118  1  0.834800  0.277230  0.663300  1.0  -0.0494
  C  C119  1  0.952000  0.315690  0.678200  1.0  -0.0986
  C  C120  1  0.057500  0.314230  0.605900  1.0  -0.0703
  C  C121  1  0.042600  0.274560  0.522100  1.0  0.0507
  C  C122  1  0.921400  0.194960  0.421300  1.0  -0.1271
  C  C123  1  0.068800  0.159440  0.454900  1.0  0.7106
  C  C124  1  0.963200  0.359750  0.770000  1.0  0.6545
  N  N125  1  0.158800  0.010980  0.798940  1.0  0.0643
  N  N126  1  0.428300  0.262190  0.009300  1.0  0.0612
  N  N127  1  0.341200  0.510980  0.701060  1.0  0.0643
  N  N128  1  0.071700  0.762190  0.490700  1.0  0.0612
  N  N129  1  0.841200  0.989020  0.201060  1.0  0.0649
  N  N130  1  0.571700  0.737810  0.990700  1.0  0.0606
  N  N131  1  0.658800  0.489020  0.298940  1.0  0.0649
  N  N132  1  0.928300  0.237810  0.509300  1.0  0.0604
  Cl  Cl133  1  0.758890  0.101400  0.604140  1.0  -0.5292
  Cl  Cl134  1  0.741110  0.601400  0.895860  1.0  -0.529
  Cl  Cl135  1  0.241110  0.898600  0.395860  1.0  -0.5317
  Cl  Cl136  1  0.258890  0.398600  0.104140  1.0  -0.5316
  O  O137  1  0.356700  0.052620  0.667770  1.0  -0.5764
  O  O138  1  0.184800  0.033700  0.496980  1.0  -0.5688
  O  O139  1  0.340700  0.978480  0.227510  1.0  -0.5838
  O  O140  1  0.180800  0.048560  0.221330  1.0  -0.5862
  O  O141  1  0.575500  0.374370  0.875240  1.0  -0.5668
  O  O142  1  0.666400  0.334270  0.049100  1.0  -0.5165
  O  O143  1  0.362400  0.144240  0.332000  1.0  -0.584
  O  O144  1  0.565000  0.105520  0.276300  1.0  -0.5629
  O  O145  1  0.474200  0.043400  0.438220  1.0  -0.9086
  O  O146  1  0.143300  0.552620  0.832230  1.0  -0.5752
  O  O147  1  0.315200  0.533700  0.003020  1.0  -0.5709
  O  O148  1  0.159300  0.478480  0.272490  1.0  -0.5831
  O  O149  1  0.319200  0.548560  0.278670  1.0  -0.5867
  O  O150  1  0.924500  0.874370  0.624760  1.0  -0.5655
  O  O151  1  0.833600  0.834270  0.450900  1.0  -0.5142
  O  O152  1  0.137600  0.644240  0.168000  1.0  -0.586
  O  O153  1  0.935000  0.605520  0.223700  1.0  -0.5625
  O  O154  1  0.025800  0.543400  0.061780  1.0  -0.909
  O  O155  1  0.643300  0.947380  0.332230  1.0  -0.576
  O  O156  1  0.815200  0.966300  0.503020  1.0  -0.5701
  O  O157  1  0.659300  0.021520  0.772490  1.0  -0.5823
  O  O158  1  0.819200  0.951440  0.778670  1.0  -0.5877
  O  O159  1  0.424500  0.625630  0.124760  1.0  -0.5664
  O  O160  1  0.333600  0.665730  0.950900  1.0  -0.5136
  O  O161  1  0.637600  0.855760  0.668000  1.0  -0.5863
  O  O162  1  0.435000  0.894480  0.723700  1.0  -0.5635
  O  O163  1  0.525800  0.956600  0.561780  1.0  -0.9103
  O  O164  1  0.856700  0.447380  0.167770  1.0  -0.5762
  O  O165  1  0.684800  0.466300  0.996980  1.0  -0.5687
  O  O166  1  0.840700  0.521520  0.727510  1.0  -0.583
  O  O167  1  0.680800  0.451440  0.721330  1.0  -0.5869
  O  O168  1  0.075500  0.125630  0.375240  1.0  -0.5667
  O  O169  1  0.166400  0.165730  0.549100  1.0  -0.5166
  O  O170  1  0.862400  0.355760  0.832000  1.0  -0.5855
  O  O171  1  0.065000  0.394480  0.776300  1.0  -0.5633
  O  O172  1  0.974200  0.456600  0.938220  1.0  -0.9091
