# generated using pymatgen
data_Zr3H14(C3O2)8
_symmetry_space_group_name_H-M   'P 1'
_cell_length_a   14.73680000
_cell_length_b   14.73680000
_cell_length_c   14.73680000
_cell_angle_alpha   60.00000000
_cell_angle_beta   60.00000000
_cell_angle_gamma   90.00000000
_symmetry_Int_Tables_number   1
_chemical_formula_structural   Zr3H14(C3O2)8
_chemical_formula_sum   'Zr6 H28 C48 O32'
_cell_volume   2263.05219591
_cell_formula_units_Z   2
loop_
 _symmetry_equiv_pos_site_id
 _symmetry_equiv_pos_as_xyz
  1  'x, y, z'
loop_
 _atom_site_type_symbol
 _atom_site_label
 _atom_site_symmetry_multiplicity
 _atom_site_fract_x
 _atom_site_fract_y
 _atom_site_fract_z
 _atom_site_occupancy
 _atom_site_charge
  Zr  Zr1  1  0.119540  0.880460  0.000000  1.0  1.9193
  Zr  Zr2  1  0.119540  0.119540  0.000000  1.0  1.9184
  Zr  Zr3  1  0.880460  0.119540  0.000000  1.0  1.9159
  Zr  Zr4  1  0.880460  0.880460  0.000000  1.0  1.918
  Zr  Zr5  1  0.880460  0.880460  0.239080  1.0  1.9213
  Zr  Zr6  1  0.119540  0.119540  0.760920  1.0  1.9157
  H  H7  1  0.407970  0.848280  0.730820  1.0  0.1263
  H  H8  1  0.151720  0.138790  0.269180  1.0  0.1268
  H  H9  1  0.861210  0.420900  0.730820  1.0  0.1255
  H  H10  1  0.579100  0.592030  0.269180  1.0  0.1235
  H  H11  1  0.579100  0.138790  0.269180  1.0  0.1263
  H  H12  1  0.407970  0.420900  0.730820  1.0  0.1246
  H  H13  1  0.151720  0.592030  0.269180  1.0  0.1252
  H  H14  1  0.861210  0.848280  0.730820  1.0  0.1266
  H  H15  1  0.579100  0.592030  0.559700  1.0  0.1289
  H  H16  1  0.407970  0.848280  0.012930  1.0  0.124
  H  H17  1  0.151720  0.138790  0.440300  1.0  0.1282
  H  H18  1  0.861210  0.420900  0.987070  1.0  0.1236
  H  H19  1  0.407970  0.420900  0.440300  1.0  0.1276
  H  H20  1  0.151720  0.592030  0.987070  1.0  0.1239
  H  H21  1  0.861210  0.848280  0.559700  1.0  0.1269
  H  H22  1  0.579100  0.138790  0.012930  1.0  0.1251
  H  H23  1  0.407970  0.138790  0.440300  1.0  0.1321
  H  H24  1  0.151720  0.420900  0.987070  1.0  0.1248
  H  H25  1  0.861210  0.592030  0.559700  1.0  0.1289
  H  H26  1  0.579100  0.848280  0.012930  1.0  0.1275
  H  H27  1  0.579100  0.848280  0.559700  1.0  0.1319
  H  H28  1  0.407970  0.138790  0.012930  1.0  0.1295
  H  H29  1  0.151720  0.420900  0.440300  1.0  0.1308
  H  H30  1  0.861210  0.592030  0.987070  1.0  0.1263
  H  H31  1  0.283610  0.094540  0.810930  1.0  0.3556
  H  H32  1  0.905460  0.094540  0.189070  1.0  0.3521
  H  H33  1  0.905460  0.094540  0.810930  1.0  0.3532
  H  H34  1  0.905460  0.716390  0.189070  1.0  0.3599
  C  C35  1  0.446350  0.911170  0.629310  1.0  -0.0693
  C  C36  1  0.088830  0.075660  0.370690  1.0  -0.0682
  C  C37  1  0.924340  0.459520  0.629310  1.0  -0.0664
  C  C38  1  0.540480  0.553650  0.370690  1.0  -0.0726
  C  C39  1  0.540480  0.075660  0.370690  1.0  -0.0711
  C  C40  1  0.446350  0.459520  0.629310  1.0  -0.0731
  C  C41  1  0.088830  0.553650  0.370690  1.0  -0.0679
  C  C42  1  0.924340  0.911170  0.629310  1.0  -0.0654
  C  C43  1  0.540480  0.553650  0.535180  1.0  -0.0734
  C  C44  1  0.446350  0.911170  0.013170  1.0  -0.0681
  C  C45  1  0.088830  0.075660  0.464820  1.0  -0.0767
  C  C46  1  0.924340  0.459520  0.986830  1.0  -0.0645
  C  C47  1  0.446350  0.459520  0.464820  1.0  -0.0732
  C  C48  1  0.088830  0.553650  0.986830  1.0  -0.0653
  C  C49  1  0.924340  0.911170  0.535180  1.0  -0.0736
  C  C50  1  0.540480  0.075660  0.013170  1.0  -0.0702
  C  C51  1  0.446350  0.075660  0.464820  1.0  -0.0761
  C  C52  1  0.088830  0.459520  0.986830  1.0  -0.0663
  C  C53  1  0.924340  0.553650  0.535180  1.0  -0.0722
  C  C54  1  0.540480  0.911170  0.013170  1.0  -0.0685
  C  C55  1  0.540480  0.911170  0.535180  1.0  -0.0738
  C  C56  1  0.446350  0.075660  0.013170  1.0  -0.0687
  C  C57  1  0.088830  0.459520  0.464820  1.0  -0.0719
  C  C58  1  0.924340  0.553650  0.986830  1.0  -0.0647
  C  C59  1  0.004170  0.699890  0.304270  1.0  0.675
  C  C60  1  0.300110  0.308440  0.695730  1.0  0.6749
  C  C61  1  0.691560  0.995830  0.304270  1.0  0.6699
  C  C62  1  0.004170  0.995830  0.695730  1.0  0.6726
  C  C63  1  0.004170  0.308440  0.695730  1.0  0.6713
  C  C64  1  0.004170  0.995830  0.304270  1.0  0.6723
  C  C65  1  0.300110  0.995830  0.695730  1.0  0.6749
  C  C66  1  0.691560  0.699890  0.304270  1.0  0.6764
  C  C67  1  0.004170  0.699890  0.991670  1.0  0.6753
  C  C68  1  0.691560  0.995830  0.008330  1.0  0.6742
  C  C69  1  0.300110  0.995830  0.008330  1.0  0.6746
  C  C70  1  0.004170  0.308440  0.991670  1.0  0.6742
  C  C71  1  0.399180  0.993780  0.594600  1.0  -0.0895
  C  C72  1  0.006220  0.993780  0.405400  1.0  -0.0908
  C  C73  1  0.006220  0.411620  0.594600  1.0  -0.0899
  C  C74  1  0.588380  0.600820  0.405400  1.0  -0.0902
  C  C75  1  0.588380  0.993780  0.405400  1.0  -0.0904
  C  C76  1  0.399180  0.411620  0.594600  1.0  -0.09
  C  C77  1  0.006220  0.600820  0.405400  1.0  -0.0895
  C  C78  1  0.006220  0.993780  0.594600  1.0  -0.0902
  C  C79  1  0.399180  0.993780  0.012440  1.0  -0.0895
  C  C80  1  0.006220  0.411620  0.987560  1.0  -0.0899
  C  C81  1  0.006220  0.600820  0.987560  1.0  -0.0895
  C  C82  1  0.588380  0.993780  0.012440  1.0  -0.0901
  O  O83  1  0.261790  0.920300  0.812340  1.0  -0.6006
  O  O84  1  0.079700  0.074130  0.187660  1.0  -0.5997
  O  O85  1  0.925870  0.267360  0.812340  1.0  -0.5978
  O  O86  1  0.732640  0.738210  0.187660  1.0  -0.5997
  O  O87  1  0.732640  0.074130  0.187660  1.0  -0.5999
  O  O88  1  0.261790  0.267360  0.812340  1.0  -0.5995
  O  O89  1  0.079700  0.738210  0.187660  1.0  -0.5976
  O  O90  1  0.925870  0.920300  0.812340  1.0  -0.6003
  O  O91  1  0.732640  0.738210  0.341490  1.0  -0.6051
  O  O92  1  0.261790  0.920300  0.005570  1.0  -0.5992
  O  O93  1  0.079700  0.074130  0.658510  1.0  -0.6088
  O  O94  1  0.925870  0.267360  0.994430  1.0  -0.606
  O  O95  1  0.261790  0.267360  0.658510  1.0  -0.6082
  O  O96  1  0.079700  0.738210  0.994430  1.0  -0.5991
  O  O97  1  0.925870  0.920300  0.341490  1.0  -0.6094
  O  O98  1  0.732640  0.074130  0.005570  1.0  -0.607
  O  O99  1  0.261790  0.074130  0.658510  1.0  -0.6091
  O  O100  1  0.079700  0.267360  0.994430  1.0  -0.5983
  O  O101  1  0.925870  0.738210  0.341490  1.0  -0.6086
  O  O102  1  0.732640  0.920300  0.005570  1.0  -0.598
  O  O103  1  0.732640  0.920300  0.341490  1.0  -0.6042
  O  O104  1  0.261790  0.074130  0.005570  1.0  -0.6056
  O  O105  1  0.079700  0.267360  0.658510  1.0  -0.6039
  O  O106  1  0.925870  0.738210  0.994430  1.0  -0.6047
  O  O107  1  0.932390  0.797160  0.135230  1.0  -0.8678
  O  O108  1  0.202840  0.067610  0.864770  1.0  -0.8696
  O  O109  1  0.932390  0.067610  0.135230  1.0  -0.8698
  O  O110  1  0.932390  0.067610  0.864770  1.0  -0.8692
  O  O111  1  0.049730  0.149200  0.900530  1.0  -0.8387
  O  O112  1  0.850800  0.950270  0.099470  1.0  -0.8381
  O  O113  1  0.049730  0.950270  0.900530  1.0  -0.8377
  O  O114  1  0.049730  0.950270  0.099470  1.0  -0.8377
