# generated using pymatgen
data_CdH2C5(NO2)2
_symmetry_space_group_name_H-M   'P 1'
_cell_length_a   8.84380000
_cell_length_b   12.78210000
_cell_length_c   12.20850000
_cell_angle_alpha   90.00000000
_cell_angle_beta   100.06300000
_cell_angle_gamma   90.00000000
_symmetry_Int_Tables_number   1
_chemical_formula_structural   CdH2C5(NO2)2
_chemical_formula_sum   'Cd6 H12 C30 N12 O24'
_cell_volume   1358.84655452
_cell_formula_units_Z   6
loop_
 _symmetry_equiv_pos_site_id
 _symmetry_equiv_pos_as_xyz
  1  'x, y, z'
loop_
 _atom_site_type_symbol
 _atom_site_label
 _atom_site_symmetry_multiplicity
 _atom_site_fract_x
 _atom_site_fract_y
 _atom_site_fract_z
 _atom_site_occupancy
 _atom_site_charge
  Cd  Cd1  1  0.220150  0.913970  0.384750  1.0  0.9762
  Cd  Cd2  1  0.206260  0.790950  0.033960  1.0  1.004
  Cd  Cd3  1  0.263210  0.560560  0.349740  1.0  1.0275
  Cd  Cd4  1  0.220150  0.086030  0.884750  1.0  0.9771
  Cd  Cd5  1  0.206260  0.209050  0.533960  1.0  1.004
  Cd  Cd6  1  0.263210  0.439440  0.849740  1.0  1.0274
  H  H7  1  0.032000  0.671800  0.057000  1.0  0.3563
  H  H8  1  0.837800  0.995300  0.417200  1.0  0.3786
  H  H9  1  0.587800  0.862300  0.977100  1.0  0.3294
  H  H10  1  0.706200  0.705400  0.391400  1.0  0.1384
  H  H11  1  0.755900  0.639200  0.177000  1.0  0.1278
  H  H12  1  0.220500  0.220000  0.105200  1.0  0.127
  H  H13  1  0.032000  0.328200  0.557000  1.0  0.356
  H  H14  1  0.837800  0.004700  0.917200  1.0  0.3768
  H  H15  1  0.587800  0.137700  0.477100  1.0  0.3295
  H  H16  1  0.706200  0.294600  0.891400  1.0  0.1383
  H  H17  1  0.755900  0.360800  0.677000  1.0  0.1271
  H  H18  1  0.220500  0.780000  0.605200  1.0  0.1269
  C  C19  1  0.037600  0.697500  0.375900  1.0  0.6911
  C  C20  1  0.918600  0.775300  0.391400  1.0  0.0562
  C  C21  1  0.764300  0.766400  0.395500  1.0  -0.129
  C  C22  1  0.714300  0.868700  0.407100  1.0  0.0495
  C  C23  1  0.556600  0.911200  0.409000  1.0  0.7448
  C  C24  1  0.426800  0.643500  0.200300  1.0  0.6708
  C  C25  1  0.532400  0.698400  0.136700  1.0  0.0702
  C  C26  1  0.688800  0.687400  0.137300  1.0  -0.1427
  C  C27  1  0.722000  0.763400  0.066000  1.0  0.1298
  C  C28  1  0.872300  0.790500  0.034700  1.0  0.7189
  C  C29  1  0.209000  0.355200  0.298600  1.0  0.6725
  C  C30  1  0.202200  0.243400  0.272000  1.0  0.0404
  C  C31  1  0.211500  0.191400  0.173800  1.0  -0.0913
  C  C32  1  0.203900  0.084600  0.202600  1.0  0.0983
  C  C33  1  0.215100  0.989500  0.140400  1.0  0.6584
  C  C34  1  0.037600  0.302500  0.875900  1.0  0.6917
  C  C35  1  0.918600  0.224700  0.891400  1.0  0.0552
  C  C36  1  0.764300  0.233600  0.895500  1.0  -0.1292
  C  C37  1  0.714300  0.131300  0.907100  1.0  0.0496
  C  C38  1  0.556600  0.088800  0.909000  1.0  0.7452
  C  C39  1  0.426800  0.356500  0.700300  1.0  0.6712
  C  C40  1  0.532400  0.301600  0.636700  1.0  0.07
  C  C41  1  0.688800  0.312600  0.637300  1.0  -0.1429
  C  C42  1  0.722000  0.236600  0.566000  1.0  0.1292
  C  C43  1  0.872300  0.209500  0.534700  1.0  0.718
  C  C44  1  0.209000  0.644800  0.798600  1.0  0.6736
  C  C45  1  0.202200  0.756600  0.772000  1.0  0.0406
  C  C46  1  0.211500  0.808600  0.673800  1.0  -0.0928
  C  C47  1  0.203900  0.915400  0.702600  1.0  0.0988
  C  C48  1  0.215100  0.010500  0.640400  1.0  0.6585
  N  N49  1  0.961700  0.876600  0.401000  1.0  -0.265
  N  N50  1  0.839100  0.928400  0.410000  1.0  -0.0797
  N  N51  1  0.475700  0.774700  0.067300  1.0  -0.2681
  N  N52  1  0.594400  0.812500  0.025000  1.0  -0.0718
  N  N53  1  0.191700  0.173700  0.353100  1.0  -0.2872
  N  N54  1  0.190400  0.076800  0.309500  1.0  -0.1863
  N  N55  1  0.961700  0.123400  0.901000  1.0  -0.265
  N  N56  1  0.839100  0.071600  0.910000  1.0  -0.0801
  N  N57  1  0.475700  0.225300  0.567300  1.0  -0.2685
  N  N58  1  0.594400  0.187500  0.525000  1.0  -0.0721
  N  N59  1  0.191700  0.826300  0.853100  1.0  -0.2865
  N  N60  1  0.190400  0.923200  0.809500  1.0  -0.1855
  O  O61  1  0.003900  0.605000  0.361500  1.0  -0.587
  O  O62  1  0.173500  0.730100  0.383700  1.0  -0.6561
  O  O63  1  0.453700  0.845400  0.417500  1.0  -0.6002
  O  O64  1  0.538100  0.003800  0.401200  1.0  -0.5077
  O  O65  1  0.484200  0.590000  0.285500  1.0  -0.5952
  O  O66  1  0.286700  0.655100  0.169800  1.0  -0.6404
  O  O67  1  0.981500  0.726800  0.065600  1.0  -0.6489
  O  O68  1  0.884500  0.870100  0.978600  1.0  -0.6481
  O  O69  1  0.219000  0.419500  0.221700  1.0  -0.6054
  O  O70  1  0.213300  0.383100  0.398800  1.0  -0.662
  O  O71  1  0.234300  0.988800  0.042300  1.0  -0.6801
  O  O72  1  0.203500  0.901100  0.189900  1.0  -0.7162
  O  O73  1  0.003900  0.395000  0.861500  1.0  -0.5849
  O  O74  1  0.173500  0.269900  0.883700  1.0  -0.6568
  O  O75  1  0.453700  0.154600  0.917500  1.0  -0.6001
  O  O76  1  0.538100  0.996200  0.901200  1.0  -0.507
  O  O77  1  0.484200  0.410000  0.785500  1.0  -0.5953
  O  O78  1  0.286700  0.344900  0.669800  1.0  -0.6393
  O  O79  1  0.981500  0.273200  0.565600  1.0  -0.6473
  O  O80  1  0.884500  0.129900  0.478600  1.0  -0.6483
  O  O81  1  0.219000  0.580500  0.721700  1.0  -0.605
  O  O82  1  0.213300  0.616900  0.898800  1.0  -0.6595
  O  O83  1  0.234300  0.011200  0.542300  1.0  -0.6801
  O  O84  1  0.203500  0.098900  0.689900  1.0  -0.7159
