# generated using pymatgen
data_Fe5H8C6N20(O2F3)2
_symmetry_space_group_name_H-M   'P 1'
_cell_length_a   6.61180000
_cell_length_b   12.43250000
_cell_length_c   8.80750000
_cell_angle_alpha   90.00000000
_cell_angle_beta   107.72300000
_cell_angle_gamma   90.00000000
_symmetry_Int_Tables_number   1
_chemical_formula_structural   Fe5H8C6N20(O2F3)2
_chemical_formula_sum   'Fe5 H8 C6 N20 O4 F6'
_cell_volume   689.62620713
_cell_formula_units_Z   1
loop_
 _symmetry_equiv_pos_site_id
 _symmetry_equiv_pos_as_xyz
  1  'x, y, z'
loop_
 _atom_site_type_symbol
 _atom_site_label
 _atom_site_symmetry_multiplicity
 _atom_site_fract_x
 _atom_site_fract_y
 _atom_site_fract_z
 _atom_site_occupancy
 _atom_site_charge
  Fe  Fe1  1  0.500000  0.000000  0.000000  1.0  1.0955
  Fe  Fe2  1  0.000000  0.000000  0.000000  1.0  1.0244
  Fe  Fe3  1  0.500000  0.366530  0.500000  1.0  1.0384
  Fe  Fe4  1  0.500000  0.633470  0.500000  1.0  1.039
  Fe  Fe5  1  0.000000  0.500000  0.500000  1.0  1.0774
  H  H6  1  0.986500  0.286300  0.662900  1.0  0.3846
  H  H7  1  0.108000  0.205400  0.780200  1.0  0.3898
  H  H8  1  0.013500  0.286300  0.337100  1.0  0.3866
  H  H9  1  0.892000  0.205400  0.219800  1.0  0.3891
  H  H10  1  0.013500  0.713700  0.337100  1.0  0.3877
  H  H11  1  0.892000  0.794600  0.219800  1.0  0.3889
  H  H12  1  0.986500  0.713700  0.662900  1.0  0.385
  H  H13  1  0.108000  0.794600  0.780200  1.0  0.3894
  C  C14  1  0.808200  0.205000  0.759300  1.0  0.6345
  C  C15  1  0.191800  0.205000  0.240700  1.0  0.6353
  C  C16  1  0.191800  0.795000  0.240700  1.0  0.6352
  C  C17  1  0.808200  0.795000  0.759300  1.0  0.6345
  C  C18  1  0.176000  0.500000  0.229000  1.0  0.0839
  C  C19  1  0.824000  0.500000  0.771000  1.0  0.0814
  N  N20  1  0.797200  0.125000  0.858900  1.0  -0.4129
  N  N21  1  0.589000  0.121200  0.850100  1.0  0.0309
  N  N22  1  0.481200  0.192700  0.750600  1.0  -0.0915
  N  N23  1  0.616200  0.247100  0.689200  1.0  -0.2785
  N  N24  1  0.989700  0.236000  0.730600  1.0  -0.7109
  N  N25  1  0.202800  0.125000  0.141100  1.0  -0.4114
  N  N26  1  0.411000  0.121200  0.149900  1.0  0.032
  N  N27  1  0.518800  0.192700  0.249400  1.0  -0.0913
  N  N28  1  0.383800  0.247100  0.310800  1.0  -0.2788
  N  N29  1  0.010300  0.236000  0.269400  1.0  -0.7124
  N  N30  1  0.202800  0.875000  0.141100  1.0  -0.4111
  N  N31  1  0.411000  0.878800  0.149900  1.0  0.0319
  N  N32  1  0.518800  0.807300  0.249400  1.0  -0.091
  N  N33  1  0.383800  0.752900  0.310800  1.0  -0.2785
  N  N34  1  0.010300  0.764000  0.269400  1.0  -0.7128
  N  N35  1  0.797200  0.875000  0.858900  1.0  -0.4127
  N  N36  1  0.589000  0.878800  0.850100  1.0  0.0306
  N  N37  1  0.481200  0.807300  0.750600  1.0  -0.0916
  N  N38  1  0.616200  0.752900  0.689200  1.0  -0.2785
  N  N39  1  0.989700  0.764000  0.730600  1.0  -0.711
  O  O40  1  0.606100  0.500000  0.666000  1.0  -0.7708
  O  O41  1  0.996500  0.500000  0.257700  1.0  -0.5721
  O  O42  1  0.393900  0.500000  0.334000  1.0  -0.7705
  O  O43  1  0.003500  0.500000  0.742300  1.0  -0.5712
  F  F44  1  0.218300  0.380550  0.542500  1.0  -0.4674
  F  F45  1  0.781700  0.380550  0.457500  1.0  -0.4679
  F  F46  1  0.781700  0.619450  0.457500  1.0  -0.4676
  F  F47  1  0.218300  0.619450  0.542500  1.0  -0.4672
  F  F48  1  0.804200  0.000000  0.138800  1.0  -0.3386
  F  F49  1  0.195800  0.000000  0.861200  1.0  -0.3379
