# generated using pymatgen
data_Cd5H48C84(NO6)4
_symmetry_space_group_name_H-M   'P 1'
_cell_length_a   14.62610000
_cell_length_b   23.25260000
_cell_length_c   15.73570000
_cell_angle_alpha   90.00000000
_cell_angle_beta   107.09900000
_cell_angle_gamma   90.00000000
_symmetry_Int_Tables_number   1
_chemical_formula_structural   Cd5H48C84(NO6)4
_chemical_formula_sum   'Cd10 H96 C168 N8 O48'
_cell_volume   5115.07858610
_cell_formula_units_Z   2
loop_
 _symmetry_equiv_pos_site_id
 _symmetry_equiv_pos_as_xyz
  1  'x, y, z'
loop_
 _atom_site_type_symbol
 _atom_site_label
 _atom_site_symmetry_multiplicity
 _atom_site_fract_x
 _atom_site_fract_y
 _atom_site_fract_z
 _atom_site_occupancy
 _atom_site_charge
  Cd  Cd1  1  0.257270  0.300730  0.696770  1.0  1.0515
  Cd  Cd2  1  0.235090  0.437740  0.583740  1.0  1.0284
  Cd  Cd3  1  0.742730  0.800730  0.803230  1.0  1.0494
  Cd  Cd4  1  0.764910  0.937740  0.916260  1.0  1.0292
  Cd  Cd5  1  0.742730  0.699270  0.303230  1.0  1.0488
  Cd  Cd6  1  0.764910  0.562260  0.416260  1.0  1.0292
  Cd  Cd7  1  0.257270  0.199270  0.196770  1.0  1.0514
  Cd  Cd8  1  0.235090  0.062260  0.083740  1.0  1.0286
  Cd  Cd9  1  0.000000  0.500000  0.500000  1.0  1.1651
  Cd  Cd10  1  0.000000  0.000000  0.000000  1.0  1.1651
  H  H11  1  0.940700  0.285800  0.778900  1.0  0.1245
  H  H12  1  0.062500  0.331000  0.738000  1.0  0.1114
  H  H13  1  0.884600  0.355200  0.493900  1.0  0.103
  H  H14  1  0.763900  0.309200  0.534100  1.0  0.1431
  H  H15  1  0.888200  0.183800  0.681500  1.0  0.1154
  H  H16  1  0.912200  0.096100  0.755000  1.0  0.1041
  H  H17  1  0.699300  0.129800  0.856900  1.0  0.1244
  H  H18  1  0.683500  0.220300  0.796600  1.0  0.1248
  H  H19  1  0.722400  0.371600  0.698000  1.0  0.116
  H  H20  1  0.575400  0.414500  0.667200  1.0  0.1201
  H  H21  1  0.448700  0.263100  0.593800  1.0  0.1172
  H  H22  1  0.596300  0.220400  0.618700  1.0  0.1339
  H  H23  1  0.036200  0.542700  0.274400  1.0  0.1106
  H  H24  1  0.028600  0.565800  0.131700  1.0  0.1087
  H  H25  1  0.290800  0.501100  0.169100  1.0  0.1309
  H  H26  1  0.292100  0.470900  0.308100  1.0  0.1187
  H  H27  1  0.143600  0.437300  0.045900  1.0  0.1086
  H  H28  1  0.192400  0.370200  0.962100  1.0  0.113
  H  H29  1  0.280800  0.493500  0.831300  1.0  0.112
  H  H30  1  0.237100  0.563000  0.918200  1.0  0.1368
  H  H31  1  0.968000  0.052500  0.615700  1.0  0.1116
  H  H32  1  0.079100  0.121700  0.679700  1.0  0.1118
  H  H33  1  0.979100  0.221300  0.465800  1.0  0.128
  H  H34  1  0.865700  0.153800  0.404300  1.0  0.1256
  H  H35  1  0.059300  0.785800  0.721100  1.0  0.1254
  H  H36  1  0.937500  0.831000  0.762000  1.0  0.1108
  H  H37  1  0.115400  0.855200  0.006100  1.0  0.1031
  H  H38  1  0.236100  0.809200  0.965900  1.0  0.144
  H  H39  1  0.111800  0.683800  0.818500  1.0  0.1151
  H  H40  1  0.087800  0.596100  0.745000  1.0  0.1035
  H  H41  1  0.300700  0.629800  0.643100  1.0  0.1243
  H  H42  1  0.316500  0.720300  0.703400  1.0  0.1254
  H  H43  1  0.277600  0.871600  0.802000  1.0  0.1162
  H  H44  1  0.424600  0.914500  0.832800  1.0  0.1204
  H  H45  1  0.551300  0.763100  0.906200  1.0  0.1173
  H  H46  1  0.403700  0.720400  0.881300  1.0  0.1345
  H  H47  1  0.963800  0.042700  0.225600  1.0  0.1101
  H  H48  1  0.971400  0.065800  0.368300  1.0  0.1084
  H  H49  1  0.709200  0.001100  0.330900  1.0  0.1314
  H  H50  1  0.707900  0.970900  0.191900  1.0  0.1186
  H  H51  1  0.856400  0.937300  0.454100  1.0  0.1093
  H  H52  1  0.807600  0.870200  0.537900  1.0  0.1129
  H  H53  1  0.719200  0.993500  0.668700  1.0  0.1113
  H  H54  1  0.762900  0.063000  0.581800  1.0  0.1366
  H  H55  1  0.032000  0.552500  0.884300  1.0  0.1113
  H  H56  1  0.920900  0.621700  0.820300  1.0  0.1121
  H  H57  1  0.020900  0.721300  0.034200  1.0  0.1279
  H  H58  1  0.134300  0.653800  0.095700  1.0  0.1254
  H  H59  1  0.059300  0.714200  0.221100  1.0  0.1256
  H  H60  1  0.937500  0.669000  0.262000  1.0  0.1111
  H  H61  1  0.115400  0.644800  0.506100  1.0  0.103
  H  H62  1  0.236100  0.690800  0.465900  1.0  0.1436
  H  H63  1  0.111800  0.816200  0.318500  1.0  0.1151
  H  H64  1  0.087800  0.903900  0.245000  1.0  0.1039
  H  H65  1  0.300700  0.870200  0.143100  1.0  0.1242
  H  H66  1  0.316500  0.779700  0.203400  1.0  0.1253
  H  H67  1  0.277600  0.628400  0.302000  1.0  0.1164
  H  H68  1  0.424600  0.585500  0.332800  1.0  0.1203
  H  H69  1  0.551300  0.736900  0.406200  1.0  0.1178
  H  H70  1  0.403700  0.779600  0.381300  1.0  0.1346
  H  H71  1  0.963800  0.457300  0.725600  1.0  0.1103
  H  H72  1  0.971400  0.434200  0.868300  1.0  0.1082
  H  H73  1  0.709200  0.498900  0.830900  1.0  0.1313
  H  H74  1  0.707900  0.529100  0.691900  1.0  0.1195
  H  H75  1  0.856400  0.562700  0.954100  1.0  0.1096
  H  H76  1  0.807600  0.629800  0.037900  1.0  0.1132
  H  H77  1  0.719200  0.506500  0.168700  1.0  0.1111
  H  H78  1  0.762900  0.437000  0.081800  1.0  0.1364
  H  H79  1  0.032000  0.947500  0.384300  1.0  0.1111
  H  H80  1  0.920900  0.878300  0.320300  1.0  0.1121
  H  H81  1  0.020900  0.778700  0.534200  1.0  0.1281
  H  H82  1  0.134300  0.846200  0.595700  1.0  0.1255
  H  H83  1  0.940700  0.214200  0.278900  1.0  0.1246
  H  H84  1  0.062500  0.169000  0.238000  1.0  0.1111
  H  H85  1  0.884600  0.144800  0.993900  1.0  0.1033
  H  H86  1  0.763900  0.190800  0.034100  1.0  0.143
  H  H87  1  0.888200  0.316200  0.181500  1.0  0.1155
  H  H88  1  0.912200  0.403900  0.255000  1.0  0.1039
  H  H89  1  0.699300  0.370200  0.356900  1.0  0.1242
  H  H90  1  0.683500  0.279700  0.296600  1.0  0.1247
  H  H91  1  0.722400  0.128400  0.198000  1.0  0.1164
  H  H92  1  0.575400  0.085500  0.167200  1.0  0.1201
  H  H93  1  0.448700  0.236900  0.093800  1.0  0.1182
  H  H94  1  0.596300  0.279600  0.118700  1.0  0.1345
  H  H95  1  0.036200  0.957300  0.774400  1.0  0.1107
  H  H96  1  0.028600  0.934200  0.631700  1.0  0.1084
  H  H97  1  0.290800  0.998900  0.669100  1.0  0.1312
  H  H98  1  0.292100  0.029100  0.808100  1.0  0.1191
  H  H99  1  0.143600  0.062700  0.545900  1.0  0.1088
  H  H100  1  0.192400  0.129800  0.462100  1.0  0.1126
  H  H101  1  0.280800  0.006500  0.331300  1.0  0.1115
  H  H102  1  0.237100  0.937000  0.418200  1.0  0.1371
  H  H103  1  0.968000  0.447500  0.115700  1.0  0.1111
  H  H104  1  0.079100  0.378300  0.179700  1.0  0.112
  H  H105  1  0.979100  0.278700  0.965800  1.0  0.1279
  H  H106  1  0.865700  0.346200  0.904300  1.0  0.1254
  C  C107  1  0.840900  0.293100  0.660700  1.0  0.1781
  C  C108  1  0.929500  0.299600  0.721300  1.0  -0.1387
  C  C109  1  0.002500  0.326800  0.696700  1.0  -0.0137
  C  C110  1  0.986700  0.347700  0.611700  1.0  -0.1513
  C  C111  1  0.896300  0.341000  0.551300  1.0  0.0071
  C  C112  1  0.823800  0.313700  0.575300  1.0  -0.1628
  C  C113  1  0.062300  0.378100  0.585100  1.0  0.6912
  C  C114  1  0.782000  0.211400  0.730200  1.0  0.1897
  C  C115  1  0.851000  0.173600  0.717900  1.0  -0.1796
  C  C116  1  0.863800  0.120400  0.760600  1.0  -0.0335
  C  C117  1  0.806600  0.103600  0.810200  1.0  -0.0954
  C  C118  1  0.738300  0.141100  0.822700  1.0  -0.0318
  C  C119  1  0.727500  0.194800  0.785200  1.0  -0.1877
  C  C120  1  0.184900  0.544200  0.649500  1.0  0.7095
  C  C121  1  0.675200  0.291300  0.665000  1.0  0.2028
  C  C122  1  0.667400  0.349400  0.677200  1.0  -0.1769
  C  C123  1  0.579300  0.375100  0.658900  1.0  -0.0417
  C  C124  1  0.495400  0.342800  0.627800  1.0  -0.0986
  C  C125  1  0.503700  0.285300  0.614400  1.0  -0.0127
  C  C126  1  0.592300  0.259300  0.630700  1.0  -0.212
  C  C127  1  0.399500  0.371400  0.611400  1.0  0.7294
  C  C128  1  0.167900  0.487900  0.400800  1.0  0.7198
  C  C129  1  0.165900  0.504400  0.307100  1.0  -0.1143
  C  C130  1  0.086900  0.533100  0.252600  1.0  -0.0222
  C  C131  1  0.082800  0.547500  0.167500  1.0  -0.1684
  C  C132  1  0.158200  0.535400  0.133300  1.0  0.199
  C  C133  1  0.238000  0.508100  0.189000  1.0  -0.154
  C  C134  1  0.239800  0.491400  0.273300  1.0  -0.0375
  C  C135  1  0.186000  0.506800  0.992200  1.0  0.1371
  C  C136  1  0.172200  0.449200  0.003400  1.0  -0.2013
  C  C137  1  0.200400  0.409000  0.952200  1.0  -0.0266
  C  C138  1  0.239800  0.424800  0.887300  1.0  -0.1489
  C  C139  1  0.253500  0.482200  0.875100  1.0  -0.0087
  C  C140  1  0.227200  0.524200  0.927000  1.0  -0.1626
  C  C141  1  0.265300  0.380000  0.826800  1.0  0.7166
  C  C142  1  0.908800  0.094000  0.500200  1.0  0.1891
  C  C143  1  0.971100  0.086100  0.584500  1.0  -0.1556
  C  C144  1  0.038100  0.127700  0.622800  1.0  -0.0748
  C  C145  1  0.045200  0.177800  0.578500  1.0  -0.0775
  C  C146  1  0.978100  0.187000  0.495900  1.0  -0.0469
  C  C147  1  0.910800  0.146300  0.458600  1.0  -0.1336
  C  C148  1  0.122200  0.220500  0.616000  1.0  0.6933
  C  C149  1  0.159100  0.793100  0.839300  1.0  0.1788
  C  C150  1  0.070500  0.799600  0.778700  1.0  -0.1385
  C  C151  1  0.997500  0.826800  0.803300  1.0  -0.0123
  C  C152  1  0.013300  0.847700  0.888300  1.0  -0.1528
  C  C153  1  0.103700  0.841000  0.948700  1.0  0.0065
  C  C154  1  0.176200  0.813700  0.924700  1.0  -0.1631
  C  C155  1  0.937700  0.878100  0.914900  1.0  0.6917
  C  C156  1  0.218000  0.711400  0.769800  1.0  0.1898
  C  C157  1  0.149000  0.673600  0.782100  1.0  -0.1811
  C  C158  1  0.136200  0.620400  0.739400  1.0  -0.0342
  C  C159  1  0.193400  0.603600  0.689800  1.0  -0.0949
  C  C160  1  0.261700  0.641100  0.677300  1.0  -0.0318
  C  C161  1  0.272500  0.694800  0.714800  1.0  -0.185
  C  C162  1  0.815100  0.044200  0.850500  1.0  0.71
  C  C163  1  0.324800  0.791300  0.835000  1.0  0.2044
  C  C164  1  0.332600  0.849400  0.822800  1.0  -0.176
  C  C165  1  0.420700  0.875100  0.841100  1.0  -0.0437
  C  C166  1  0.504600  0.842800  0.872200  1.0  -0.099
  C  C167  1  0.496300  0.785300  0.885600  1.0  -0.0132
  C  C168  1  0.407700  0.759300  0.869300  1.0  -0.2129
  C  C169  1  0.600500  0.871400  0.888600  1.0  0.7286
  C  C170  1  0.832100  0.987900  0.099200  1.0  0.719
  C  C171  1  0.834100  0.004400  0.192900  1.0  -0.1127
  C  C172  1  0.913100  0.033100  0.247400  1.0  -0.0223
  C  C173  1  0.917200  0.047500  0.332500  1.0  -0.1688
  C  C174  1  0.841800  0.035400  0.366700  1.0  0.1986
  C  C175  1  0.762000  0.008100  0.311000  1.0  -0.157
  C  C176  1  0.760200  0.991400  0.226700  1.0  -0.0391
  C  C177  1  0.814000  0.006800  0.507800  1.0  0.1369
  C  C178  1  0.827800  0.949200  0.496600  1.0  -0.1997
  C  C179  1  0.799600  0.909000  0.547800  1.0  -0.0261
  C  C180  1  0.760200  0.924800  0.612700  1.0  -0.1486
  C  C181  1  0.746500  0.982200  0.624900  1.0  -0.0091
  C  C182  1  0.772800  0.024200  0.573000  1.0  -0.1634
  C  C183  1  0.734700  0.880000  0.673200  1.0  0.7158
  C  C184  1  0.091200  0.594000  0.999800  1.0  0.1892
  C  C185  1  0.028900  0.586100  0.915500  1.0  -0.1547
  C  C186  1  0.961900  0.627700  0.877200  1.0  -0.0733
  C  C187  1  0.954800  0.677800  0.921500  1.0  -0.0771
  C  C188  1  0.021900  0.687000  0.004100  1.0  -0.048
  C  C189  1  0.089200  0.646300  0.041400  1.0  -0.1349
  C  C190  1  0.877800  0.720500  0.884000  1.0  0.6934
  C  C191  1  0.159100  0.706900  0.339300  1.0  0.1786
  C  C192  1  0.070500  0.700400  0.278700  1.0  -0.1381
  C  C193  1  0.997500  0.673200  0.303300  1.0  -0.0121
  C  C194  1  0.013300  0.652300  0.388300  1.0  -0.1528
  C  C195  1  0.103700  0.659000  0.448700  1.0  0.0064
  C  C196  1  0.176200  0.686300  0.424700  1.0  -0.1633
  C  C197  1  0.937700  0.621900  0.414900  1.0  0.6916
  C  C198  1  0.218000  0.788600  0.269800  1.0  0.1898
  C  C199  1  0.149000  0.826400  0.282100  1.0  -0.1804
  C  C200  1  0.136200  0.879600  0.239400  1.0  -0.0339
  C  C201  1  0.193400  0.896400  0.189800  1.0  -0.0942
  C  C202  1  0.261700  0.858900  0.177300  1.0  -0.0317
  C  C203  1  0.272500  0.805200  0.214800  1.0  -0.1855
  C  C204  1  0.815100  0.455800  0.350500  1.0  0.7101
  C  C205  1  0.324800  0.708700  0.335000  1.0  0.204
  C  C206  1  0.332600  0.650600  0.322800  1.0  -0.1756
  C  C207  1  0.420700  0.624900  0.341100  1.0  -0.0417
  C  C208  1  0.504600  0.657200  0.372200  1.0  -0.0993
  C  C209  1  0.496300  0.714700  0.385600  1.0  -0.0134
  C  C210  1  0.407700  0.740700  0.369300  1.0  -0.2124
  C  C211  1  0.600500  0.628600  0.388600  1.0  0.7283
  C  C212  1  0.832100  0.512100  0.599200  1.0  0.7205
  C  C213  1  0.834100  0.495600  0.692900  1.0  -0.1127
  C  C214  1  0.913100  0.466900  0.747400  1.0  -0.0219
  C  C215  1  0.917200  0.452500  0.832500  1.0  -0.1695
  C  C216  1  0.841800  0.464600  0.866700  1.0  0.1988
  C  C217  1  0.762000  0.491900  0.811000  1.0  -0.1569
  C  C218  1  0.760200  0.508600  0.726700  1.0  -0.0398
  C  C219  1  0.814000  0.493200  0.007800  1.0  0.1371
  C  C220  1  0.827800  0.550800  0.996600  1.0  -0.1995
  C  C221  1  0.799600  0.591000  0.047800  1.0  -0.0256
  C  C222  1  0.760200  0.575200  0.112700  1.0  -0.148
  C  C223  1  0.746500  0.517800  0.124900  1.0  -0.0087
  C  C224  1  0.772800  0.475800  0.073000  1.0  -0.1618
  C  C225  1  0.734700  0.620000  0.173200  1.0  0.7168
  C  C226  1  0.091200  0.906000  0.499800  1.0  0.1894
  C  C227  1  0.028900  0.913900  0.415500  1.0  -0.1549
  C  C228  1  0.961900  0.872300  0.377200  1.0  -0.0737
  C  C229  1  0.954800  0.822200  0.421500  1.0  -0.0775
  C  C230  1  0.021900  0.813000  0.504100  1.0  -0.0472
  C  C231  1  0.089200  0.853700  0.541400  1.0  -0.1343
  C  C232  1  0.877800  0.779500  0.384000  1.0  0.6938
  C  C233  1  0.840900  0.206900  0.160700  1.0  0.1779
  C  C234  1  0.929500  0.200400  0.221300  1.0  -0.1389
  C  C235  1  0.002500  0.173200  0.196700  1.0  -0.0138
  C  C236  1  0.986700  0.152300  0.111700  1.0  -0.1516
  C  C237  1  0.896300  0.159000  0.051300  1.0  0.0071
  C  C238  1  0.823800  0.186300  0.075300  1.0  -0.163
  C  C239  1  0.062300  0.121900  0.085100  1.0  0.6911
  C  C240  1  0.782000  0.288600  0.230200  1.0  0.1893
  C  C241  1  0.851000  0.326400  0.217900  1.0  -0.1788
  C  C242  1  0.863800  0.379600  0.260600  1.0  -0.0339
  C  C243  1  0.806600  0.396400  0.310200  1.0  -0.0943
  C  C244  1  0.738300  0.358900  0.322700  1.0  -0.0326
  C  C245  1  0.727500  0.305200  0.285200  1.0  -0.1887
  C  C246  1  0.184900  0.955800  0.149500  1.0  0.7094
  C  C247  1  0.675200  0.208700  0.165000  1.0  0.2025
  C  C248  1  0.667400  0.150600  0.177200  1.0  -0.1761
  C  C249  1  0.579300  0.124900  0.158900  1.0  -0.0411
  C  C250  1  0.495400  0.157200  0.127800  1.0  -0.0998
  C  C251  1  0.503700  0.214700  0.114400  1.0  -0.0129
  C  C252  1  0.592300  0.240700  0.130700  1.0  -0.2116
  C  C253  1  0.399500  0.128600  0.111400  1.0  0.7294
  C  C254  1  0.167900  0.012100  0.900800  1.0  0.7197
  C  C255  1  0.165900  0.995600  0.807100  1.0  -0.114
  C  C256  1  0.086900  0.966900  0.752600  1.0  -0.0222
  C  C257  1  0.082800  0.952500  0.667500  1.0  -0.1687
  C  C258  1  0.158200  0.964600  0.633300  1.0  0.1994
  C  C259  1  0.238000  0.991900  0.689000  1.0  -0.1545
  C  C260  1  0.239800  0.008600  0.773300  1.0  -0.0383
  C  C261  1  0.186000  0.993200  0.492200  1.0  0.137
  C  C262  1  0.172200  0.050800  0.503400  1.0  -0.2021
  C  C263  1  0.200400  0.091000  0.452200  1.0  -0.027
  C  C264  1  0.239800  0.075200  0.387300  1.0  -0.1494
  C  C265  1  0.253500  0.017800  0.375100  1.0  -0.0085
  C  C266  1  0.227200  0.975800  0.427000  1.0  -0.1633
  C  C267  1  0.265300  0.120000  0.326800  1.0  0.7157
  C  C268  1  0.908800  0.406000  0.000200  1.0  0.1889
  C  C269  1  0.971100  0.413900  0.084500  1.0  -0.1548
  C  C270  1  0.038100  0.372300  0.122800  1.0  -0.0749
  C  C271  1  0.045200  0.322200  0.078500  1.0  -0.0778
  C  C272  1  0.978100  0.313000  0.995900  1.0  -0.046
  C  C273  1  0.910800  0.353700  0.958600  1.0  -0.1326
  C  C274  1  0.122200  0.279500  0.116000  1.0  0.6937
  N  N275  1  0.765700  0.265100  0.686400  1.0  -0.137
  N  N276  1  0.154500  0.549500  0.044800  1.0  -0.22
  N  N277  1  0.234300  0.765100  0.813600  1.0  -0.1372
  N  N278  1  0.845500  0.049500  0.455200  1.0  -0.2206
  N  N279  1  0.234300  0.734900  0.313600  1.0  -0.1374
  N  N280  1  0.845500  0.450500  0.955200  1.0  -0.2208
  N  N281  1  0.765700  0.234900  0.186400  1.0  -0.1369
  N  N282  1  0.154500  0.950500  0.544800  1.0  -0.2199
  O  O283  1  0.041800  0.404980  0.513000  1.0  -0.6819
  O  O284  1  0.147400  0.376340  0.636900  1.0  -0.625
  O  O285  1  0.258800  0.525500  0.633600  1.0  -0.5773
  O  O286  1  0.108700  0.516990  0.636400  1.0  -0.6651
  O  O287  1  0.395000  0.424100  0.612100  1.0  -0.5873
  O  O288  1  0.326200  0.340100  0.596200  1.0  -0.7013
  O  O289  1  0.224600  0.449700  0.440300  1.0  -0.593
  O  O290  1  0.111400  0.515230  0.433700  1.0  -0.6364
  O  O291  1  0.312600  0.396200  0.776800  1.0  -0.6115
  O  O292  1  0.236000  0.329300  0.829600  1.0  -0.5713
  O  O293  1  0.161700  0.221000  0.698000  1.0  -0.6035
  O  O294  1  0.148000  0.254500  0.565600  1.0  -0.5946
  O  O295  1  0.958200  0.904980  0.987000  1.0  -0.6838
  O  O296  1  0.852600  0.876340  0.863100  1.0  -0.6259
  O  O297  1  0.741200  0.025500  0.866400  1.0  -0.5798
  O  O298  1  0.891300  0.016990  0.863600  1.0  -0.6656
  O  O299  1  0.605000  0.924100  0.887900  1.0  -0.588
  O  O300  1  0.673800  0.840100  0.903800  1.0  -0.7005
  O  O301  1  0.775400  0.949700  0.059700  1.0  -0.5932
  O  O302  1  0.888600  0.015230  0.066300  1.0  -0.6377
  O  O303  1  0.687400  0.896200  0.723200  1.0  -0.6143
  O  O304  1  0.764000  0.829300  0.670400  1.0  -0.5692
  O  O305  1  0.838300  0.721000  0.802000  1.0  -0.6035
  O  O306  1  0.852000  0.754500  0.934400  1.0  -0.5946
  O  O307  1  0.958200  0.595020  0.487000  1.0  -0.6841
  O  O308  1  0.852600  0.623660  0.363100  1.0  -0.6261
  O  O309  1  0.741200  0.474500  0.366400  1.0  -0.5806
  O  O310  1  0.891300  0.483010  0.363600  1.0  -0.6654
  O  O311  1  0.605000  0.575900  0.387900  1.0  -0.589
  O  O312  1  0.673800  0.659900  0.403800  1.0  -0.7013
  O  O313  1  0.775400  0.550300  0.559700  1.0  -0.5938
  O  O314  1  0.888600  0.484770  0.566300  1.0  -0.6374
  O  O315  1  0.687400  0.603800  0.223200  1.0  -0.6143
  O  O316  1  0.764000  0.670700  0.170400  1.0  -0.5693
  O  O317  1  0.838300  0.779000  0.302000  1.0  -0.6033
  O  O318  1  0.852000  0.745500  0.434400  1.0  -0.5952
  O  O319  1  0.041800  0.095020  0.013000  1.0  -0.6826
  O  O320  1  0.147400  0.123660  0.136900  1.0  -0.6251
  O  O321  1  0.258800  0.974500  0.133600  1.0  -0.5768
  O  O322  1  0.108700  0.983010  0.136400  1.0  -0.665
  O  O323  1  0.395000  0.075900  0.112100  1.0  -0.5894
  O  O324  1  0.326200  0.159900  0.096200  1.0  -0.7009
  O  O325  1  0.224600  0.050300  0.940300  1.0  -0.5925
  O  O326  1  0.111400  0.984770  0.933700  1.0  -0.6371
  O  O327  1  0.312600  0.103800  0.276800  1.0  -0.6111
  O  O328  1  0.236000  0.170700  0.329600  1.0  -0.5675
  O  O329  1  0.161700  0.279000  0.198000  1.0  -0.6038
  O  O330  1  0.148000  0.245500  0.065600  1.0  -0.5949
