# generated using pymatgen
data_ZnH15C23N4O5
_symmetry_space_group_name_H-M   'P 1'
_cell_length_a   22.80700000
_cell_length_b   25.24300000
_cell_length_c   16.20400000
_cell_angle_alpha   90.00000000
_cell_angle_beta   133.80900000
_cell_angle_gamma   90.00000000
_symmetry_Int_Tables_number   1
_chemical_formula_structural   ZnH15C23N4O5
_chemical_formula_sum   'Zn8 H120 C184 N32 O40'
_cell_volume   6732.22902014
_cell_formula_units_Z   8
loop_
 _symmetry_equiv_pos_site_id
 _symmetry_equiv_pos_as_xyz
  1  'x, y, z'
loop_
 _atom_site_type_symbol
 _atom_site_label
 _atom_site_symmetry_multiplicity
 _atom_site_fract_x
 _atom_site_fract_y
 _atom_site_fract_z
 _atom_site_occupancy
 _atom_site_charge
  Zn  Zn1  1  0.060110  0.019670  0.739000  1.0  0.9298
  Zn  Zn2  1  0.560110  0.519670  0.739000  1.0  0.9298
  Zn  Zn3  1  0.939890  0.019670  0.761000  1.0  0.9293
  Zn  Zn4  1  0.439890  0.519670  0.761000  1.0  0.9293
  Zn  Zn5  1  0.939890  0.980330  0.261000  1.0  0.9295
  Zn  Zn6  1  0.439890  0.480330  0.261000  1.0  0.9295
  Zn  Zn7  1  0.060110  0.980330  0.239000  1.0  0.9299
  Zn  Zn8  1  0.560110  0.480330  0.239000  1.0  0.9299
  H  H9  1  0.199800  0.963500  0.617000  1.0  0.117
  H  H10  1  0.097600  0.969700  0.612100  1.0  0.0763
  H  H11  1  0.226800  0.061800  0.878900  1.0  0.0832
  H  H12  1  0.946100  0.899600  0.470200  1.0  0.0927
  H  H13  1  0.780900  0.904000  0.491100  1.0  0.114
  H  H14  1  0.870600  0.835000  0.329200  1.0  0.1228
  H  H15  1  0.331900  0.061300  0.888500  1.0  0.1353
  H  H16  1  0.790900  0.147300  0.524800  1.0  0.1021
  H  H17  1  0.705900  0.839900  0.351700  1.0  0.1225
  H  H18  1  0.943700  0.149200  0.484800  1.0  0.0985
  H  H19  1  0.723400  0.218800  0.404000  1.0  0.1186
  H  H20  1  0.502700  0.995800  0.894500  1.0  0.1151
  H  H21  1  0.876800  0.220800  0.365800  1.0  0.1128
  H  H22  1  0.377600  0.993900  0.563200  1.0  0.0943
  H  H23  1  0.383000  0.030200  0.812000  1.0  0.2025
  H  H24  1  0.699800  0.463500  0.617000  1.0  0.117
  H  H25  1  0.597600  0.469700  0.612100  1.0  0.0763
  H  H26  1  0.726800  0.561800  0.878900  1.0  0.0832
  H  H27  1  0.446100  0.399600  0.470200  1.0  0.0927
  H  H28  1  0.280900  0.404000  0.491100  1.0  0.114
  H  H29  1  0.370600  0.335000  0.329200  1.0  0.1228
  H  H30  1  0.831900  0.561300  0.888500  1.0  0.1353
  H  H31  1  0.290900  0.647300  0.524800  1.0  0.1021
  H  H32  1  0.205900  0.339900  0.351700  1.0  0.1225
  H  H33  1  0.443700  0.649200  0.484800  1.0  0.0985
  H  H34  1  0.223400  0.718800  0.404000  1.0  0.1186
  H  H35  1  0.002700  0.495800  0.894500  1.0  0.1151
  H  H36  1  0.376800  0.720800  0.365800  1.0  0.1128
  H  H37  1  0.877600  0.493900  0.563200  1.0  0.0943
  H  H38  1  0.883000  0.530200  0.812000  1.0  0.2025
  H  H39  1  0.800200  0.963500  0.883000  1.0  0.1172
  H  H40  1  0.902400  0.969700  0.887900  1.0  0.075
  H  H41  1  0.773200  0.061800  0.621100  1.0  0.0836
  H  H42  1  0.053900  0.899600  0.029800  1.0  0.0939
  H  H43  1  0.219100  0.904000  0.008900  1.0  0.1145
  H  H44  1  0.129400  0.835000  0.170800  1.0  0.1232
  H  H45  1  0.668100  0.061300  0.611500  1.0  0.1353
  H  H46  1  0.209100  0.147300  0.975200  1.0  0.1025
  H  H47  1  0.294100  0.839900  0.148300  1.0  0.1211
  H  H48  1  0.056300  0.149200  0.015200  1.0  0.0985
  H  H49  1  0.276600  0.218800  0.096000  1.0  0.1192
  H  H50  1  0.497300  0.995800  0.605500  1.0  0.1144
  H  H51  1  0.123200  0.220800  0.134200  1.0  0.1132
  H  H52  1  0.622400  0.993900  0.936800  1.0  0.0938
  H  H53  1  0.617000  0.030200  0.688000  1.0  0.2023
  H  H54  1  0.300200  0.463500  0.883000  1.0  0.1172
  H  H55  1  0.402400  0.469700  0.887900  1.0  0.075
  H  H56  1  0.273200  0.561800  0.621100  1.0  0.0836
  H  H57  1  0.553900  0.399600  0.029800  1.0  0.0939
  H  H58  1  0.719100  0.404000  0.008900  1.0  0.1145
  H  H59  1  0.629400  0.335000  0.170800  1.0  0.1232
  H  H60  1  0.168100  0.561300  0.611500  1.0  0.1353
  H  H61  1  0.709100  0.647300  0.975200  1.0  0.1025
  H  H62  1  0.794100  0.339900  0.148300  1.0  0.1211
  H  H63  1  0.556300  0.649200  0.015200  1.0  0.0985
  H  H64  1  0.776600  0.718800  0.096000  1.0  0.1192
  H  H65  1  0.997300  0.495800  0.605500  1.0  0.1144
  H  H66  1  0.623200  0.720800  0.134200  1.0  0.1132
  H  H67  1  0.122400  0.493900  0.936800  1.0  0.0938
  H  H68  1  0.117000  0.530200  0.688000  1.0  0.2023
  H  H69  1  0.800200  0.036500  0.383000  1.0  0.1171
  H  H70  1  0.902400  0.030300  0.387900  1.0  0.0748
  H  H71  1  0.773200  0.938200  0.121100  1.0  0.0839
  H  H72  1  0.053900  0.100400  0.529800  1.0  0.0933
  H  H73  1  0.219100  0.096000  0.508900  1.0  0.1134
  H  H74  1  0.129400  0.165000  0.670800  1.0  0.1238
  H  H75  1  0.668100  0.938700  0.111500  1.0  0.1353
  H  H76  1  0.209100  0.852700  0.475200  1.0  0.1025
  H  H77  1  0.294100  0.160100  0.648300  1.0  0.1218
  H  H78  1  0.056300  0.850800  0.515200  1.0  0.0993
  H  H79  1  0.276600  0.781200  0.596000  1.0  0.1193
  H  H80  1  0.497300  0.004200  0.105500  1.0  0.1144
  H  H81  1  0.123200  0.779200  0.634200  1.0  0.1134
  H  H82  1  0.622400  0.006100  0.436800  1.0  0.0942
  H  H83  1  0.617000  0.969800  0.188000  1.0  0.2027
  H  H84  1  0.300200  0.536500  0.383000  1.0  0.1171
  H  H85  1  0.402400  0.530300  0.387900  1.0  0.0748
  H  H86  1  0.273200  0.438200  0.121100  1.0  0.0839
  H  H87  1  0.553900  0.600400  0.529800  1.0  0.0933
  H  H88  1  0.719100  0.596000  0.508900  1.0  0.1134
  H  H89  1  0.629400  0.665000  0.670800  1.0  0.1238
  H  H90  1  0.168100  0.438700  0.111500  1.0  0.1353
  H  H91  1  0.709100  0.352700  0.475200  1.0  0.1025
  H  H92  1  0.794100  0.660100  0.648300  1.0  0.1218
  H  H93  1  0.556300  0.350800  0.515200  1.0  0.0993
  H  H94  1  0.776600  0.281200  0.596000  1.0  0.1193
  H  H95  1  0.997300  0.504200  0.105500  1.0  0.1144
  H  H96  1  0.623200  0.279200  0.634200  1.0  0.1134
  H  H97  1  0.122400  0.506100  0.436800  1.0  0.0942
  H  H98  1  0.117000  0.469800  0.188000  1.0  0.2027
  H  H99  1  0.199800  0.036500  0.117000  1.0  0.1173
  H  H100  1  0.097600  0.030300  0.112100  1.0  0.0762
  H  H101  1  0.226800  0.938200  0.378900  1.0  0.0832
  H  H102  1  0.946100  0.100400  0.970200  1.0  0.0922
  H  H103  1  0.780900  0.096000  0.991100  1.0  0.1133
  H  H104  1  0.870600  0.165000  0.829200  1.0  0.1229
  H  H105  1  0.331900  0.938700  0.388500  1.0  0.1356
  H  H106  1  0.790900  0.852700  0.024800  1.0  0.1024
  H  H107  1  0.705900  0.160100  0.851700  1.0  0.1225
  H  H108  1  0.943700  0.850800  0.984800  1.0  0.0994
  H  H109  1  0.723400  0.781200  0.904000  1.0  0.1191
  H  H110  1  0.502700  0.004200  0.394500  1.0  0.115
  H  H111  1  0.876800  0.779200  0.865800  1.0  0.1128
  H  H112  1  0.377600  0.006100  0.063200  1.0  0.0941
  H  H113  1  0.383000  0.969800  0.312000  1.0  0.2024
  H  H114  1  0.699800  0.536500  0.117000  1.0  0.1173
  H  H115  1  0.597600  0.530300  0.112100  1.0  0.0762
  H  H116  1  0.726800  0.438200  0.378900  1.0  0.0832
  H  H117  1  0.446100  0.600400  0.970200  1.0  0.0922
  H  H118  1  0.280900  0.596000  0.991100  1.0  0.1133
  H  H119  1  0.370600  0.665000  0.829200  1.0  0.1229
  H  H120  1  0.831900  0.438700  0.388500  1.0  0.1356
  H  H121  1  0.290900  0.352700  0.024800  1.0  0.1024
  H  H122  1  0.205900  0.660100  0.851700  1.0  0.1225
  H  H123  1  0.443700  0.350800  0.984800  1.0  0.0994
  H  H124  1  0.223400  0.281200  0.904000  1.0  0.1191
  H  H125  1  0.002700  0.504200  0.394500  1.0  0.115
  H  H126  1  0.376800  0.279200  0.865800  1.0  0.1128
  H  H127  1  0.877600  0.506100  0.063200  1.0  0.0941
  H  H128  1  0.883000  0.469800  0.312000  1.0  0.2024
  C  C129  1  0.278030  0.012130  0.753200  1.0  0.2312
  C  C130  1  0.922870  0.948850  0.591300  1.0  0.6743
  C  C131  1  0.920430  0.094620  0.600000  1.0  0.686
  C  C132  1  0.206480  0.984200  0.670400  1.0  -0.2235
  C  C133  1  0.145840  0.987800  0.669000  1.0  0.1641
  C  C134  1  0.872900  0.907440  0.498500  1.0  -0.1336
  C  C135  1  0.875730  0.141160  0.520500  1.0  -0.1869
  C  C136  1  0.221350  0.042300  0.825200  1.0  0.1697
  C  C137  1  0.898250  0.887120  0.447300  1.0  -0.0161
  C  C138  1  0.799600  0.889830  0.460000  1.0  -0.0263
  C  C139  1  0.853200  0.848530  0.362500  1.0  -0.0598
  C  C140  1  0.284990  0.041950  0.832100  1.0  -0.27
  C  C141  1  0.792400  0.226830  0.372200  1.0  0.1555
  C  C142  1  0.809200  0.162070  0.493500  1.0  -0.0487
  C  C143  1  0.781900  0.830700  0.328800  1.0  0.1605
  C  C144  1  0.347500  0.988510  0.690300  1.0  0.5314
  C  C145  1  0.754600  0.851660  0.376300  1.0  -0.1333
  C  C146  1  0.899500  0.163340  0.469900  1.0  -0.0501
  C  C147  1  0.768200  0.204950  0.420200  1.0  -0.1661
  C  C148  1  0.428000  0.994210  0.724700  1.0  -0.0357
  C  C149  1  0.501000  0.994900  0.835500  1.0  -0.1443
  C  C150  1  0.859000  0.205930  0.397800  1.0  -0.067
  C  C151  1  0.427100  0.994300  0.639200  1.0  -0.0547
  C  C152  1  0.778030  0.512130  0.753200  1.0  0.2312
  C  C153  1  0.422870  0.448850  0.591300  1.0  0.6743
  C  C154  1  0.420430  0.594620  0.600000  1.0  0.686
  C  C155  1  0.706480  0.484200  0.670400  1.0  -0.2235
  C  C156  1  0.645840  0.487800  0.669000  1.0  0.1641
  C  C157  1  0.372900  0.407440  0.498500  1.0  -0.1336
  C  C158  1  0.375730  0.641160  0.520500  1.0  -0.1869
  C  C159  1  0.721350  0.542300  0.825200  1.0  0.1697
  C  C160  1  0.398250  0.387120  0.447300  1.0  -0.0161
  C  C161  1  0.299600  0.389830  0.460000  1.0  -0.0263
  C  C162  1  0.353200  0.348530  0.362500  1.0  -0.0598
  C  C163  1  0.784990  0.541950  0.832100  1.0  -0.27
  C  C164  1  0.292400  0.726830  0.372200  1.0  0.1555
  C  C165  1  0.309200  0.662070  0.493500  1.0  -0.0487
  C  C166  1  0.281900  0.330700  0.328800  1.0  0.1605
  C  C167  1  0.847500  0.488510  0.690300  1.0  0.5314
  C  C168  1  0.254600  0.351660  0.376300  1.0  -0.1333
  C  C169  1  0.399500  0.663340  0.469900  1.0  -0.0501
  C  C170  1  0.268200  0.704950  0.420200  1.0  -0.1661
  C  C171  1  0.928000  0.494210  0.724700  1.0  -0.0357
  C  C172  1  0.001000  0.494900  0.835500  1.0  -0.1443
  C  C173  1  0.359000  0.705930  0.397800  1.0  -0.067
  C  C174  1  0.927100  0.494300  0.639200  1.0  -0.0547
  C  C175  1  0.721970  0.012130  0.746800  1.0  0.2319
  C  C176  1  0.077130  0.948850  0.908700  1.0  0.6747
  C  C177  1  0.079570  0.094620  0.900000  1.0  0.6856
  C  C178  1  0.793520  0.984200  0.829600  1.0  -0.2231
  C  C179  1  0.854160  0.987800  0.831000  1.0  0.1629
  C  C180  1  0.127100  0.907440  0.001500  1.0  -0.1346
  C  C181  1  0.124270  0.141160  0.979500  1.0  -0.1863
  C  C182  1  0.778650  0.042300  0.674800  1.0  0.1701
  C  C183  1  0.101750  0.887120  0.052700  1.0  -0.0159
  C  C184  1  0.200400  0.889830  0.040000  1.0  -0.0242
  C  C185  1  0.146800  0.848530  0.137500  1.0  -0.0603
  C  C186  1  0.715010  0.041950  0.667900  1.0  -0.2715
  C  C187  1  0.207600  0.226830  0.127800  1.0  0.1539
  C  C188  1  0.190800  0.162070  0.006500  1.0  -0.0509
  C  C189  1  0.218100  0.830700  0.171200  1.0  0.1606
  C  C190  1  0.652500  0.988510  0.809700  1.0  0.5308
  C  C191  1  0.245400  0.851660  0.123700  1.0  -0.1331
  C  C192  1  0.100500  0.163340  0.030100  1.0  -0.0506
  C  C193  1  0.231800  0.204950  0.079800  1.0  -0.1638
  C  C194  1  0.572000  0.994210  0.775300  1.0  -0.0362
  C  C195  1  0.499000  0.994900  0.664500  1.0  -0.1448
  C  C196  1  0.141000  0.205930  0.102200  1.0  -0.0674
  C  C197  1  0.572900  0.994300  0.860800  1.0  -0.0546
  C  C198  1  0.221970  0.512130  0.746800  1.0  0.2319
  C  C199  1  0.577130  0.448850  0.908700  1.0  0.6747
  C  C200  1  0.579570  0.594620  0.900000  1.0  0.6856
  C  C201  1  0.293520  0.484200  0.829600  1.0  -0.2231
  C  C202  1  0.354160  0.487800  0.831000  1.0  0.1629
  C  C203  1  0.627100  0.407440  0.001500  1.0  -0.1346
  C  C204  1  0.624270  0.641160  0.979500  1.0  -0.1863
  C  C205  1  0.278650  0.542300  0.674800  1.0  0.1701
  C  C206  1  0.601750  0.387120  0.052700  1.0  -0.0159
  C  C207  1  0.700400  0.389830  0.040000  1.0  -0.0242
  C  C208  1  0.646800  0.348530  0.137500  1.0  -0.0603
  C  C209  1  0.215010  0.541950  0.667900  1.0  -0.2715
  C  C210  1  0.707600  0.726830  0.127800  1.0  0.1539
  C  C211  1  0.690800  0.662070  0.006500  1.0  -0.0509
  C  C212  1  0.718100  0.330700  0.171200  1.0  0.1606
  C  C213  1  0.152500  0.488510  0.809700  1.0  0.5308
  C  C214  1  0.745400  0.351660  0.123700  1.0  -0.1331
  C  C215  1  0.600500  0.663340  0.030100  1.0  -0.0506
  C  C216  1  0.731800  0.704950  0.079800  1.0  -0.1638
  C  C217  1  0.072000  0.494210  0.775300  1.0  -0.0362
  C  C218  1  0.999000  0.494900  0.664500  1.0  -0.1448
  C  C219  1  0.641000  0.705930  0.102200  1.0  -0.0674
  C  C220  1  0.072900  0.494300  0.860800  1.0  -0.0546
  C  C221  1  0.721970  0.987870  0.246800  1.0  0.2321
  C  C222  1  0.077130  0.051150  0.408700  1.0  0.6756
  C  C223  1  0.079570  0.905380  0.400000  1.0  0.6857
  C  C224  1  0.793520  0.015800  0.329600  1.0  -0.2222
  C  C225  1  0.854160  0.012200  0.331000  1.0  0.1633
  C  C226  1  0.127100  0.092560  0.501500  1.0  -0.1348
  C  C227  1  0.124270  0.858840  0.479500  1.0  -0.1855
  C  C228  1  0.778650  0.957700  0.174800  1.0  0.1695
  C  C229  1  0.101750  0.112880  0.552700  1.0  -0.0164
  C  C230  1  0.200400  0.110170  0.540000  1.0  -0.0231
  C  C231  1  0.146800  0.151470  0.637500  1.0  -0.0621
  C  C232  1  0.715010  0.958050  0.167900  1.0  -0.2716
  C  C233  1  0.207600  0.773170  0.627800  1.0  0.1539
  C  C234  1  0.190800  0.837930  0.506500  1.0  -0.0511
  C  C235  1  0.218100  0.169300  0.671200  1.0  0.1583
  C  C236  1  0.652500  0.011490  0.309700  1.0  0.5308
  C  C237  1  0.245400  0.148340  0.623700  1.0  -0.133
  C  C238  1  0.100500  0.836660  0.530100  1.0  -0.0495
  C  C239  1  0.231800  0.795050  0.579800  1.0  -0.1638
  C  C240  1  0.572000  0.005790  0.275300  1.0  -0.0361
  C  C241  1  0.499000  0.005100  0.164500  1.0  -0.1446
  C  C242  1  0.141000  0.794070  0.602200  1.0  -0.0661
  C  C243  1  0.572900  0.005700  0.360800  1.0  -0.054
  C  C244  1  0.221970  0.487870  0.246800  1.0  0.2321
  C  C245  1  0.577130  0.551150  0.408700  1.0  0.6756
  C  C246  1  0.579570  0.405380  0.400000  1.0  0.6857
  C  C247  1  0.293520  0.515800  0.329600  1.0  -0.2222
  C  C248  1  0.354160  0.512200  0.331000  1.0  0.1633
  C  C249  1  0.627100  0.592560  0.501500  1.0  -0.1348
  C  C250  1  0.624270  0.358840  0.479500  1.0  -0.1855
  C  C251  1  0.278650  0.457700  0.174800  1.0  0.1695
  C  C252  1  0.601750  0.612880  0.552700  1.0  -0.0164
  C  C253  1  0.700400  0.610170  0.540000  1.0  -0.0231
  C  C254  1  0.646800  0.651470  0.637500  1.0  -0.0621
  C  C255  1  0.215010  0.458050  0.167900  1.0  -0.2716
  C  C256  1  0.707600  0.273170  0.627800  1.0  0.1539
  C  C257  1  0.690800  0.337930  0.506500  1.0  -0.0511
  C  C258  1  0.718100  0.669300  0.671200  1.0  0.1583
  C  C259  1  0.152500  0.511490  0.309700  1.0  0.5308
  C  C260  1  0.745400  0.648340  0.623700  1.0  -0.133
  C  C261  1  0.600500  0.336660  0.530100  1.0  -0.0495
  C  C262  1  0.731800  0.295050  0.579800  1.0  -0.1638
  C  C263  1  0.072000  0.505790  0.275300  1.0  -0.0361
  C  C264  1  0.999000  0.505100  0.164500  1.0  -0.1446
  C  C265  1  0.641000  0.294070  0.602200  1.0  -0.0661
  C  C266  1  0.072900  0.505700  0.360800  1.0  -0.054
  C  C267  1  0.278030  0.987870  0.253200  1.0  0.2312
  C  C268  1  0.922870  0.051150  0.091300  1.0  0.6745
  C  C269  1  0.920430  0.905380  0.100000  1.0  0.6861
  C  C270  1  0.206480  0.015800  0.170400  1.0  -0.2227
  C  C271  1  0.145840  0.012200  0.169000  1.0  0.1628
  C  C272  1  0.872900  0.092560  0.998500  1.0  -0.1327
  C  C273  1  0.875730  0.858840  0.020500  1.0  -0.1866
  C  C274  1  0.221350  0.957700  0.325200  1.0  0.1696
  C  C275  1  0.898250  0.112880  0.947300  1.0  -0.0153
  C  C276  1  0.799600  0.110170  0.960000  1.0  -0.0245
  C  C277  1  0.853200  0.151470  0.862500  1.0  -0.0601
  C  C278  1  0.284990  0.958050  0.332100  1.0  -0.2698
  C  C279  1  0.792400  0.773170  0.872200  1.0  0.1554
  C  C280  1  0.809200  0.837930  0.993500  1.0  -0.0483
  C  C281  1  0.781900  0.169300  0.828800  1.0  0.1624
  C  C282  1  0.347500  0.011490  0.190300  1.0  0.5316
  C  C283  1  0.754600  0.148340  0.876300  1.0  -0.1323
  C  C284  1  0.899500  0.836660  0.969900  1.0  -0.05
  C  C285  1  0.768200  0.795050  0.920200  1.0  -0.1652
  C  C286  1  0.428000  0.005790  0.224700  1.0  -0.0358
  C  C287  1  0.501000  0.005100  0.335500  1.0  -0.1442
  C  C288  1  0.859000  0.794070  0.897800  1.0  -0.0669
  C  C289  1  0.427100  0.005700  0.139200  1.0  -0.0557
  C  C290  1  0.778030  0.487870  0.253200  1.0  0.2312
  C  C291  1  0.422870  0.551150  0.091300  1.0  0.6745
  C  C292  1  0.420430  0.405380  0.100000  1.0  0.6861
  C  C293  1  0.706480  0.515800  0.170400  1.0  -0.2227
  C  C294  1  0.645840  0.512200  0.169000  1.0  0.1628
  C  C295  1  0.372900  0.592560  0.998500  1.0  -0.1327
  C  C296  1  0.375730  0.358840  0.020500  1.0  -0.1866
  C  C297  1  0.721350  0.457700  0.325200  1.0  0.1696
  C  C298  1  0.398250  0.612880  0.947300  1.0  -0.0153
  C  C299  1  0.299600  0.610170  0.960000  1.0  -0.0245
  C  C300  1  0.353200  0.651470  0.862500  1.0  -0.0601
  C  C301  1  0.784990  0.458050  0.332100  1.0  -0.2698
  C  C302  1  0.292400  0.273170  0.872200  1.0  0.1554
  C  C303  1  0.309200  0.337930  0.993500  1.0  -0.0483
  C  C304  1  0.281900  0.669300  0.828800  1.0  0.1624
  C  C305  1  0.847500  0.511490  0.190300  1.0  0.5316
  C  C306  1  0.254600  0.648340  0.876300  1.0  -0.1323
  C  C307  1  0.399500  0.336660  0.969900  1.0  -0.05
  C  C308  1  0.268200  0.295050  0.920200  1.0  -0.1652
  C  C309  1  0.928000  0.505790  0.224700  1.0  -0.0358
  C  C310  1  0.001000  0.505100  0.335500  1.0  -0.1442
  C  C311  1  0.359000  0.294070  0.897800  1.0  -0.0669
  C  C312  1  0.927100  0.505700  0.139200  1.0  -0.0557
  N  N313  1  0.742640  0.270140  0.293000  1.0  -0.1435
  N  N314  1  0.730220  0.789360  0.244200  1.0  -0.1502
  N  N315  1  0.151860  0.015820  0.744580  1.0  -0.3298
  N  N316  1  0.343710  0.012520  0.762100  1.0  -0.3146
  N  N317  1  0.242640  0.770140  0.293000  1.0  -0.1435
  N  N318  1  0.230220  0.289360  0.244200  1.0  -0.1502
  N  N319  1  0.651860  0.515820  0.744580  1.0  -0.3298
  N  N320  1  0.843710  0.512520  0.762100  1.0  -0.3146
  N  N321  1  0.257360  0.270140  0.207000  1.0  -0.1458
  N  N322  1  0.269780  0.789360  0.255800  1.0  -0.1502
  N  N323  1  0.848140  0.015820  0.755420  1.0  -0.3311
  N  N324  1  0.656290  0.012520  0.737900  1.0  -0.3135
  N  N325  1  0.757360  0.770140  0.207000  1.0  -0.1458
  N  N326  1  0.769780  0.289360  0.255800  1.0  -0.1502
  N  N327  1  0.348140  0.515820  0.755420  1.0  -0.3311
  N  N328  1  0.156290  0.512520  0.737900  1.0  -0.3135
  N  N329  1  0.257360  0.729860  0.707000  1.0  -0.1456
  N  N330  1  0.269780  0.210640  0.755800  1.0  -0.1498
  N  N331  1  0.848140  0.984180  0.255420  1.0  -0.3312
  N  N332  1  0.656290  0.987480  0.237900  1.0  -0.3135
  N  N333  1  0.757360  0.229860  0.707000  1.0  -0.1456
  N  N334  1  0.769780  0.710640  0.755800  1.0  -0.1498
  N  N335  1  0.348140  0.484180  0.255420  1.0  -0.3312
  N  N336  1  0.156290  0.487480  0.237900  1.0  -0.3135
  N  N337  1  0.742640  0.729860  0.793000  1.0  -0.1438
  N  N338  1  0.730220  0.210640  0.744200  1.0  -0.1494
  N  N339  1  0.151860  0.984180  0.244580  1.0  -0.3297
  N  N340  1  0.343710  0.987480  0.262100  1.0  -0.3149
  N  N341  1  0.242640  0.229860  0.793000  1.0  -0.1438
  N  N342  1  0.230220  0.710640  0.744200  1.0  -0.1494
  N  N343  1  0.651860  0.484180  0.244580  1.0  -0.3297
  N  N344  1  0.843710  0.487480  0.262100  1.0  -0.3149
  O  O345  1  0.897210  0.965320  0.634100  1.0  -0.6113
  O  O346  1  0.987570  0.963030  0.619740  1.0  -0.5815
  O  O347  1  0.897140  0.079370  0.647220  1.0  -0.5883
  O  O348  1  0.977190  0.075030  0.614340  1.0  -0.5811
  O  O349  1  0.292020  0.964530  0.604800  1.0  -0.4925
  O  O350  1  0.397210  0.465320  0.634100  1.0  -0.6113
  O  O351  1  0.487570  0.463030  0.619740  1.0  -0.5815
  O  O352  1  0.397140  0.579370  0.647220  1.0  -0.5883
  O  O353  1  0.477190  0.575030  0.614340  1.0  -0.5811
  O  O354  1  0.792020  0.464530  0.604800  1.0  -0.4925
  O  O355  1  0.102790  0.965320  0.865900  1.0  -0.6103
  O  O356  1  0.012430  0.963030  0.880260  1.0  -0.5814
  O  O357  1  0.102860  0.079370  0.852780  1.0  -0.589
  O  O358  1  0.022810  0.075030  0.885660  1.0  -0.5808
  O  O359  1  0.707980  0.964530  0.895200  1.0  -0.4952
  O  O360  1  0.602790  0.465320  0.865900  1.0  -0.6103
  O  O361  1  0.512430  0.463030  0.880260  1.0  -0.5814
  O  O362  1  0.602860  0.579370  0.852780  1.0  -0.589
  O  O363  1  0.522810  0.575030  0.885660  1.0  -0.5808
  O  O364  1  0.207980  0.464530  0.895200  1.0  -0.4952
  O  O365  1  0.102790  0.034680  0.365900  1.0  -0.6098
  O  O366  1  0.012430  0.036970  0.380260  1.0  -0.5819
  O  O367  1  0.102860  0.920630  0.352780  1.0  -0.5891
  O  O368  1  0.022810  0.924970  0.385660  1.0  -0.5808
  O  O369  1  0.707980  0.035470  0.395200  1.0  -0.4958
  O  O370  1  0.602790  0.534680  0.365900  1.0  -0.6098
  O  O371  1  0.512430  0.536970  0.380260  1.0  -0.5819
  O  O372  1  0.602860  0.420630  0.352780  1.0  -0.5891
  O  O373  1  0.522810  0.424970  0.385660  1.0  -0.5808
  O  O374  1  0.207980  0.535470  0.395200  1.0  -0.4958
  O  O375  1  0.897210  0.034680  0.134100  1.0  -0.6108
  O  O376  1  0.987570  0.036970  0.119740  1.0  -0.5818
  O  O377  1  0.897140  0.920630  0.147220  1.0  -0.5883
  O  O378  1  0.977190  0.924970  0.114340  1.0  -0.5815
  O  O379  1  0.292020  0.035470  0.104800  1.0  -0.4926
  O  O380  1  0.397210  0.534680  0.134100  1.0  -0.6108
  O  O381  1  0.487570  0.536970  0.119740  1.0  -0.5818
  O  O382  1  0.397140  0.420630  0.147220  1.0  -0.5883
  O  O383  1  0.477190  0.424970  0.114340  1.0  -0.5815
  O  O384  1  0.792020  0.535470  0.104800  1.0  -0.4926
