# generated using pymatgen
data_Nd2H24(C14O5)3
_symmetry_space_group_name_H-M   'P 1'
_cell_length_a   14.70800000
_cell_length_b   15.42900000
_cell_length_c   23.08400000
_cell_angle_alpha   84.28200000
_cell_angle_beta   82.61900000
_cell_angle_gamma   86.75600000
_symmetry_Int_Tables_number   1
_chemical_formula_structural   Nd2H24(C14O5)3
_chemical_formula_sum   'Nd8 H96 C168 O60'
_cell_volume   5164.09831183
_cell_formula_units_Z   4
loop_
 _symmetry_equiv_pos_site_id
 _symmetry_equiv_pos_as_xyz
  1  'x, y, z'
loop_
 _atom_site_type_symbol
 _atom_site_label
 _atom_site_symmetry_multiplicity
 _atom_site_fract_x
 _atom_site_fract_y
 _atom_site_fract_z
 _atom_site_occupancy
 _atom_site_charge
  Nd  Nd1  1  0.814550  0.130190  0.281540  1.0  2.2783
  Nd  Nd2  1  0.788760  0.880060  0.238440  1.0  2.2584
  Nd  Nd3  1  0.667720  0.664930  0.226960  1.0  2.3076
  Nd  Nd4  1  0.703910  0.403030  0.234950  1.0  2.329
  Nd  Nd5  1  0.185450  0.869810  0.718460  1.0  2.2782
  Nd  Nd6  1  0.211240  0.119940  0.761560  1.0  2.2588
  Nd  Nd7  1  0.332280  0.335070  0.773040  1.0  2.3076
  Nd  Nd8  1  0.296090  0.596970  0.765050  1.0  2.3292
  H  H9  1  0.139800  0.064400  0.197900  1.0  0.1046
  H  H10  1  0.968000  0.925500  0.127700  1.0  0.0972
  H  H11  1  0.088800  0.874200  0.064800  1.0  0.1059
  H  H12  1  0.260700  0.013800  0.134700  1.0  0.1146
  H  H13  1  0.181400  0.976600  0.968800  1.0  0.1142
  H  H14  1  0.323900  0.764800  0.026900  1.0  0.1318
  H  H15  1  0.167900  0.914300  0.884100  1.0  0.0925
  H  H16  1  0.310300  0.703200  0.941800  1.0  0.091
  H  H17  1  0.645500  0.018200  0.406400  1.0  0.0949
  H  H18  1  0.846400  0.853700  0.456700  1.0  0.1083
  H  H19  1  0.594400  0.037000  0.503500  1.0  0.102
  H  H20  1  0.798700  0.877400  0.554000  1.0  0.1213
  H  H21  1  0.674600  0.136700  0.576000  1.0  0.1242
  H  H22  1  0.514000  0.950800  0.654900  1.0  0.127
  H  H23  1  0.571300  0.243100  0.611400  1.0  0.0998
  H  H24  1  0.408100  0.057100  0.690100  1.0  0.0878
  H  H25  1  0.845400  0.843800  0.020400  1.0  0.1067
  H  H26  1  0.584500  0.816700  0.092000  1.0  0.1044
  H  H27  1  0.804700  0.825100  0.929500  1.0  0.131
  H  H28  1  0.542400  0.803300  0.000000  1.0  0.1274
  H  H29  1  0.563500  0.947700  0.917500  1.0  0.1277
  H  H30  1  0.562200  0.731800  0.834000  1.0  0.1246
  H  H31  1  0.440100  0.005400  0.872000  1.0  0.0961
  H  H32  1  0.442200  0.791800  0.786500  1.0  0.0931
  H  H33  1  0.085900  0.739800  0.192300  1.0  0.1078
  H  H34  1  0.900500  0.569800  0.176300  1.0  0.1042
  H  H35  1  0.201300  0.645300  0.154100  1.0  0.131
  H  H36  1  0.017000  0.477600  0.135300  1.0  0.1253
  H  H37  1  0.139100  0.594400  0.029400  1.0  0.1135
  H  H38  1  0.278700  0.375000  0.075200  1.0  0.1313
  H  H39  1  0.172400  0.569400  0.932000  1.0  0.0958
  H  H40  1  0.314600  0.353000  0.977800  1.0  0.0806
  H  H41  1  0.796400  0.642500  0.356500  1.0  0.0969
  H  H42  1  0.609500  0.480100  0.439200  1.0  0.1005
  H  H43  1  0.788600  0.716600  0.438700  1.0  0.1147
  H  H44  1  0.601600  0.554400  0.522300  1.0  0.1167
  H  H45  1  0.640800  0.669000  0.645600  1.0  0.1123
  H  H46  1  0.549900  0.760600  0.495900  1.0  0.1108
  H  H47  1  0.499600  0.701200  0.696000  1.0  0.0937
  H  H48  1  0.408200  0.798600  0.546600  1.0  0.1141
  H  H49  1  0.462300  0.567500  0.329500  1.0  0.1069
  H  H50  1  0.357400  0.432000  0.217600  1.0  0.105
  H  H51  1  0.320700  0.577600  0.384500  1.0  0.1237
  H  H52  1  0.213800  0.451600  0.267100  1.0  0.1023
  H  H53  1  0.034500  0.579100  0.318900  1.0  0.1292
  H  H54  1  0.138900  0.358200  0.392900  1.0  0.1193
  H  H55  1  0.921800  0.502400  0.287300  1.0  0.0933
  H  H56  1  0.025100  0.281400  0.364700  1.0  0.1135
  H  H57  1  0.860200  0.935600  0.802100  1.0  0.1042
  H  H58  1  0.032000  0.074500  0.872300  1.0  0.0974
  H  H59  1  0.911200  0.125800  0.935200  1.0  0.1061
  H  H60  1  0.739300  0.986200  0.865300  1.0  0.1152
  H  H61  1  0.818600  0.023400  0.031200  1.0  0.1143
  H  H62  1  0.676100  0.235200  0.973100  1.0  0.1319
  H  H63  1  0.832100  0.085700  0.115900  1.0  0.0922
  H  H64  1  0.689700  0.296800  0.058200  1.0  0.0907
  H  H65  1  0.354500  0.981800  0.593600  1.0  0.0948
  H  H66  1  0.153600  0.146300  0.543300  1.0  0.1086
  H  H67  1  0.405600  0.963000  0.496500  1.0  0.1013
  H  H68  1  0.201300  0.122600  0.446000  1.0  0.1214
  H  H69  1  0.325400  0.863300  0.424000  1.0  0.1243
  H  H70  1  0.486000  0.049200  0.345100  1.0  0.1268
  H  H71  1  0.428700  0.756900  0.388600  1.0  0.1003
  H  H72  1  0.591900  0.942900  0.309900  1.0  0.0873
  H  H73  1  0.154600  0.156200  0.979600  1.0  0.1066
  H  H74  1  0.415500  0.183300  0.908000  1.0  0.1041
  H  H75  1  0.195300  0.174900  0.070500  1.0  0.1321
  H  H76  1  0.457600  0.196700  0.000000  1.0  0.126
  H  H77  1  0.436500  0.052300  0.082500  1.0  0.1276
  H  H78  1  0.437800  0.268200  0.166000  1.0  0.1234
  H  H79  1  0.559900  0.994600  0.128000  1.0  0.0956
  H  H80  1  0.557800  0.208200  0.213500  1.0  0.093
  H  H81  1  0.914100  0.260200  0.807700  1.0  0.1074
  H  H82  1  0.099500  0.430200  0.823700  1.0  0.1042
  H  H83  1  0.798700  0.354700  0.845900  1.0  0.1316
  H  H84  1  0.983000  0.522400  0.864700  1.0  0.1253
  H  H85  1  0.860900  0.405600  0.970600  1.0  0.1137
  H  H86  1  0.721300  0.625000  0.924800  1.0  0.1305
  H  H87  1  0.827600  0.430600  0.068000  1.0  0.0959
  H  H88  1  0.685400  0.647000  0.022200  1.0  0.0796
  H  H89  1  0.203600  0.357500  0.643500  1.0  0.0967
  H  H90  1  0.390500  0.519900  0.560800  1.0  0.1001
  H  H91  1  0.211400  0.283400  0.561300  1.0  0.1144
  H  H92  1  0.398400  0.445600  0.477700  1.0  0.1173
  H  H93  1  0.359200  0.331000  0.354400  1.0  0.1129
  H  H94  1  0.450100  0.239400  0.504100  1.0  0.1096
  H  H95  1  0.500400  0.298800  0.304000  1.0  0.0937
  H  H96  1  0.591800  0.201400  0.453400  1.0  0.1143
  H  H97  1  0.537700  0.432500  0.670500  1.0  0.107
  H  H98  1  0.642600  0.568000  0.782400  1.0  0.1056
  H  H99  1  0.679300  0.422400  0.615500  1.0  0.1241
  H  H100  1  0.786200  0.548400  0.732900  1.0  0.1029
  H  H101  1  0.965500  0.420900  0.681100  1.0  0.1287
  H  H102  1  0.861100  0.641800  0.607100  1.0  0.1192
  H  H103  1  0.078200  0.497600  0.712700  1.0  0.0936
  H  H104  1  0.974900  0.718600  0.635300  1.0  0.1136
  C  C105  1  0.964400  0.036300  0.210000  1.0  0.7075
  C  C106  1  0.040500  0.000500  0.169900  1.0  -0.155
  C  C107  1  0.129100  0.026200  0.171100  1.0  -0.0241
  C  C108  1  0.026800  0.943500  0.129400  1.0  -0.0172
  C  C109  1  0.099000  0.913000  0.091400  1.0  -0.2263
  C  C110  1  0.201700  0.996200  0.133100  1.0  -0.2039
  C  C111  1  0.186400  0.940000  0.092800  1.0  0.3023
  C  C112  1  0.252100  0.875400  0.006000  1.0  0.2795
  C  C113  1  0.206700  0.921000  0.963400  1.0  -0.1843
  C  C114  1  0.291900  0.794600  0.998300  1.0  -0.2594
  C  C115  1  0.199000  0.883700  0.912900  1.0  0.0085
  C  C116  1  0.283500  0.758300  0.947200  1.0  -0.0038
  C  C117  1  0.237000  0.800700  0.904100  1.0  -0.1141
  C  C118  1  0.225800  0.760500  0.848900  1.0  0.714
  C  C119  1  0.782400  0.921600  0.359300  1.0  0.6914
  C  C120  1  0.752100  0.934500  0.422100  1.0  -0.1081
  C  C121  1  0.676100  0.989400  0.436100  1.0  -0.0363
  C  C122  1  0.796600  0.891900  0.465900  1.0  -0.0624
  C  C123  1  0.646100  0.001300  0.494000  1.0  -0.199
  C  C124  1  0.767700  0.905200  0.524200  1.0  -0.2099
  C  C125  1  0.692200  0.960600  0.537100  1.0  0.298
  C  C126  1  0.602900  0.034500  0.612800  1.0  0.267
  C  C127  1  0.620700  0.120900  0.599300  1.0  -0.145
  C  C128  1  0.525400  0.009600  0.646100  1.0  -0.1944
  C  C129  1  0.558800  0.184600  0.620300  1.0  -0.0452
  C  C130  1  0.478000  0.161100  0.654400  1.0  -0.1357
  C  C131  1  0.462000  0.073800  0.667100  1.0  -0.0114
  C  C132  1  0.411600  0.228100  0.681100  1.0  0.7106
  C  C133  1  0.747900  0.835200  0.124900  1.0  0.6938
  C  C134  1  0.719400  0.829500  0.065600  1.0  -0.1274
  C  C135  1  0.784700  0.834100  0.016500  1.0  -0.0303
  C  C136  1  0.628700  0.818700  0.059300  1.0  -0.0259
  C  C137  1  0.760500  0.824600  0.962200  1.0  -0.2222
  C  C138  1  0.603300  0.810800  0.004600  1.0  -0.178
  C  C139  1  0.670400  0.814400  0.956800  1.0  0.3161
  C  C140  1  0.574500  0.834400  0.879300  1.0  0.3116
  C  C141  1  0.538700  0.916500  0.891200  1.0  -0.2611
  C  C142  1  0.538200  0.787500  0.840900  1.0  -0.2274
  C  C143  1  0.465800  0.951000  0.863400  1.0  -0.0114
  C  C144  1  0.466700  0.823300  0.812700  1.0  0.0074
  C  C145  1  0.429900  0.906900  0.823000  1.0  -0.1255
  C  C146  1  0.351900  0.943600  0.792000  1.0  0.6912
  C  C147  1  0.910800  0.725100  0.216600  1.0  0.6911
  C  C148  1  0.982200  0.663500  0.188700  1.0  -0.1083
  C  C149  1  0.071200  0.686400  0.181400  1.0  -0.0415
  C  C150  1  0.961200  0.586000  0.171600  1.0  -0.076
  C  C151  1  0.140200  0.630500  0.157700  1.0  -0.2142
  C  C152  1  0.030900  0.530800  0.146900  1.0  -0.2169
  C  C153  1  0.118400  0.555100  0.140000  1.0  0.2797
  C  C154  1  0.204500  0.486400  0.061200  1.0  0.3061
  C  C155  1  0.173800  0.544800  0.019000  1.0  -0.1784
  C  C156  1  0.257200  0.414500  0.046400  1.0  -0.2533
  C  C157  1  0.194300  0.529900  0.960700  1.0  -0.0371
  C  C158  1  0.277900  0.401600  0.988000  1.0  -0.0314
  C  C159  1  0.246700  0.457300  0.944400  1.0  -0.1203
  C  C160  1  0.270800  0.437700  0.882100  1.0  0.7362
  C  C161  1  0.705100  0.507600  0.335900  1.0  0.6859
  C  C162  1  0.703200  0.553300  0.389300  1.0  -0.1718
  C  C163  1  0.756900  0.624700  0.389800  1.0  -0.0251
  C  C164  1  0.645500  0.527700  0.439000  1.0  -0.0288
  C  C165  1  0.752300  0.669200  0.438700  1.0  -0.231
  C  C166  1  0.640500  0.572200  0.488700  1.0  -0.2448
  C  C167  1  0.693600  0.642800  0.487700  1.0  0.3021
  C  C168  1  0.607300  0.710300  0.566200  1.0  0.2911
  C  C169  1  0.593500  0.693700  0.625400  1.0  -0.1833
  C  C170  1  0.539500  0.748900  0.536500  1.0  -0.1567
  C  C171  1  0.509100  0.713800  0.655500  1.0  -0.0149
  C  C172  1  0.454400  0.771100  0.566600  1.0  -0.0338
  C  C173  1  0.439900  0.751200  0.627400  1.0  -0.1385
  C  C174  1  0.347100  0.771200  0.658800  1.0  0.6801
  C  C175  1  0.518400  0.481700  0.238100  1.0  0.7001
  C  C176  1  0.424100  0.497600  0.267700  1.0  -0.104
  C  C177  1  0.412500  0.542200  0.318000  1.0  -0.0387
  C  C178  1  0.349800  0.462800  0.250600  1.0  -0.0606
  C  C179  1  0.327800  0.549200  0.350400  1.0  -0.2255
  C  C180  1  0.264200  0.472500  0.280900  1.0  -0.1865
  C  C181  1  0.252500  0.513500  0.332200  1.0  0.3109
  C  C182  1  0.099800  0.473700  0.354600  1.0  0.2804
  C  C183  1  0.034000  0.518700  0.326000  1.0  -0.2076
  C  C184  1  0.095900  0.386500  0.370500  1.0  -0.13
  C  C185  1  0.966600  0.472900  0.307700  1.0  -0.0011
  C  C186  1  0.028700  0.340800  0.353500  1.0  -0.0502
  C  C187  1  0.965600  0.383500  0.319400  1.0  -0.1247
  C  C188  1  0.899700  0.332700  0.294500  1.0  0.715
  C  C189  1  0.035600  0.963700  0.790000  1.0  0.7067
  C  C190  1  0.959500  0.999500  0.830100  1.0  -0.1555
  C  C191  1  0.870900  0.973800  0.828900  1.0  -0.0238
  C  C192  1  0.973200  0.056500  0.870600  1.0  -0.0167
  C  C193  1  0.901000  0.087000  0.908600  1.0  -0.2254
  C  C194  1  0.798300  0.003800  0.866900  1.0  -0.2044
  C  C195  1  0.813600  0.060000  0.907200  1.0  0.3028
  C  C196  1  0.747900  0.124600  0.994000  1.0  0.2792
  C  C197  1  0.793300  0.079000  0.036600  1.0  -0.1839
  C  C198  1  0.708100  0.205400  0.001700  1.0  -0.2595
  C  C199  1  0.801000  0.116300  0.087100  1.0  0.0071
  C  C200  1  0.716500  0.241700  0.052800  1.0  -0.0048
  C  C201  1  0.763000  0.199300  0.095900  1.0  -0.1129
  C  C202  1  0.774200  0.239500  0.151100  1.0  0.7131
  C  C203  1  0.217600  0.078400  0.640700  1.0  0.6898
  C  C204  1  0.247900  0.065500  0.577900  1.0  -0.1069
  C  C205  1  0.323900  0.010600  0.563900  1.0  -0.0383
  C  C206  1  0.203400  0.108100  0.534100  1.0  -0.063
  C  C207  1  0.353900  0.998700  0.506000  1.0  -0.1998
  C  C208  1  0.232300  0.094800  0.475800  1.0  -0.2087
  C  C209  1  0.307800  0.039400  0.462900  1.0  0.3011
  C  C210  1  0.397100  0.965500  0.387200  1.0  0.2653
  C  C211  1  0.379300  0.879100  0.400700  1.0  -0.1454
  C  C212  1  0.474600  0.990400  0.353900  1.0  -0.1945
  C  C213  1  0.441200  0.815400  0.379700  1.0  -0.0431
  C  C214  1  0.522000  0.838900  0.345600  1.0  -0.1357
  C  C215  1  0.538000  0.926200  0.332900  1.0  -0.0128
  C  C216  1  0.588400  0.771900  0.318900  1.0  0.7106
  C  C217  1  0.252100  0.164800  0.875100  1.0  0.6936
  C  C218  1  0.280600  0.170500  0.934400  1.0  -0.1282
  C  C219  1  0.215300  0.165900  0.983500  1.0  -0.0299
  C  C220  1  0.371300  0.181300  0.940700  1.0  -0.0267
  C  C221  1  0.239500  0.175400  0.037800  1.0  -0.2215
  C  C222  1  0.396700  0.189200  0.995400  1.0  -0.1773
  C  C223  1  0.329600  0.185600  0.043200  1.0  0.3145
  C  C224  1  0.425500  0.165600  0.120700  1.0  0.3115
  C  C225  1  0.461300  0.083500  0.108800  1.0  -0.2645
  C  C226  1  0.461800  0.212500  0.159100  1.0  -0.2275
  C  C227  1  0.534200  0.049000  0.136600  1.0  -0.0126
  C  C228  1  0.533300  0.176700  0.187300  1.0  0.0058
  C  C229  1  0.570100  0.093100  0.177000  1.0  -0.1239
  C  C230  1  0.648100  0.056400  0.208000  1.0  0.6908
  C  C231  1  0.089200  0.274900  0.783400  1.0  0.6912
  C  C232  1  0.017800  0.336500  0.811300  1.0  -0.1091
  C  C233  1  0.928800  0.313600  0.818600  1.0  -0.0414
  C  C234  1  0.038800  0.414000  0.828400  1.0  -0.0753
  C  C235  1  0.859800  0.369500  0.842300  1.0  -0.2146
  C  C236  1  0.969100  0.469200  0.853100  1.0  -0.2154
  C  C237  1  0.881600  0.444900  0.860000  1.0  0.2793
  C  C238  1  0.795500  0.513600  0.938800  1.0  0.308
  C  C239  1  0.826200  0.455200  0.981000  1.0  -0.1775
  C  C240  1  0.742800  0.585500  0.953600  1.0  -0.254
  C  C241  1  0.805700  0.470100  0.039300  1.0  -0.0374
  C  C242  1  0.722100  0.598400  0.012000  1.0  -0.0302
  C  C243  1  0.753300  0.542700  0.055600  1.0  -0.1227
  C  C244  1  0.729200  0.562300  0.117900  1.0  0.7369
  C  C245  1  0.294900  0.492400  0.664100  1.0  0.6846
  C  C246  1  0.296800  0.446700  0.610700  1.0  -0.1715
  C  C247  1  0.243100  0.375300  0.610200  1.0  -0.0238
  C  C248  1  0.354500  0.472300  0.561000  1.0  -0.0299
  C  C249  1  0.247700  0.330800  0.561300  1.0  -0.2299
  C  C250  1  0.359500  0.427800  0.511300  1.0  -0.2443
  C  C251  1  0.306400  0.357200  0.512300  1.0  0.3016
  C  C252  1  0.392700  0.289700  0.433800  1.0  0.2903
  C  C253  1  0.406500  0.306300  0.374600  1.0  -0.1829
  C  C254  1  0.460500  0.251100  0.463500  1.0  -0.159
  C  C255  1  0.490900  0.286200  0.344500  1.0  -0.0144
  C  C256  1  0.545600  0.228900  0.433400  1.0  -0.036
  C  C257  1  0.560100  0.248800  0.372600  1.0  -0.1381
  C  C258  1  0.652900  0.228800  0.341200  1.0  0.6798
  C  C259  1  0.481600  0.518300  0.761900  1.0  0.7005
  C  C260  1  0.575900  0.502400  0.732300  1.0  -0.1068
  C  C261  1  0.587500  0.457800  0.682000  1.0  -0.039
  C  C262  1  0.650200  0.537200  0.749400  1.0  -0.0599
  C  C263  1  0.672200  0.450800  0.649600  1.0  -0.2262
  C  C264  1  0.735800  0.527500  0.719100  1.0  -0.188
  C  C265  1  0.747500  0.486500  0.667800  1.0  0.3115
  C  C266  1  0.900200  0.526300  0.645400  1.0  0.2815
  C  C267  1  0.966000  0.481300  0.674000  1.0  -0.2085
  C  C268  1  0.904100  0.613500  0.629500  1.0  -0.1311
  C  C269  1  0.033400  0.527100  0.692300  1.0  -0.0014
  C  C270  1  0.971300  0.659200  0.646500  1.0  -0.0503
  C  C271  1  0.034400  0.616500  0.680600  1.0  -0.1241
  C  C272  1  0.100300  0.667300  0.705500  1.0  0.7151
  O  O273  1  0.976500  0.098400  0.238030  1.0  -0.6919
  O  O274  1  0.885700  0.001700  0.215910  1.0  -0.8139
  O  O275  1  0.263500  0.912000  0.057550  1.0  -0.2863
  O  O276  1  0.174900  0.797000  0.814410  1.0  -0.7055
  O  O277  1  0.270200  0.688600  0.841340  1.0  -0.7256
  O  O278  1  0.757100  0.979400  0.319680  1.0  -0.7855
  O  O279  1  0.827300  0.854800  0.344100  1.0  -0.6711
  O  O280  1  0.666800  0.969100  0.596260  1.0  -0.2846
  O  O281  1  0.431900  0.305700  0.677740  1.0  -0.6565
  O  O282  1  0.336300  0.203200  0.710700  1.0  -0.8149
  O  O283  1  0.820600  0.870800  0.129810  1.0  -0.7086
  O  O284  1  0.696200  0.804900  0.170370  1.0  -0.8249
  O  O285  1  0.651400  0.797900  0.901800  1.0  -0.2609
  O  O286  1  0.322100  0.019900  0.800010  1.0  -0.7027
  O  O287  1  0.321600  0.897700  0.757500  1.0  -0.7106
  O  O288  1  0.933800  0.796000  0.229950  1.0  -0.6847
  O  O289  1  0.826900  0.705500  0.225020  1.0  -0.8346
  O  O290  1  0.188300  0.495800  0.120400  1.0  -0.2765
  O  O291  1  0.245800  0.491100  0.842000  1.0  -0.7704
  O  O292  1  0.314800  0.368700  0.871680  1.0  -0.62
  O  O293  1  0.737200  0.546700  0.286470  1.0  -0.7621
  O  O294  1  0.674600  0.432700  0.339390  1.0  -0.6626
  O  O295  1  0.693400  0.688600  0.536500  1.0  -0.2609
  O  O296  1  0.325100  0.734500  0.710160  1.0  -0.8064
  O  O297  1  0.293700  0.826100  0.635420  1.0  -0.6737
  O  O298  1  0.580800  0.533500  0.241000  1.0  -0.7941
  O  O299  1  0.538400  0.411300  0.214230  1.0  -0.6471
  O  O300  1  0.172000  0.521100  0.368300  1.0  -0.3018
  O  O301  1  0.850500  0.374900  0.257700  1.0  -0.7315
  O  O302  1  0.893300  0.252500  0.308180  1.0  -0.7618
  O  O303  1  0.023500  0.901600  0.761970  1.0  -0.693
  O  O304  1  0.114300  0.998300  0.784090  1.0  -0.8153
  O  O305  1  0.736500  0.088000  0.942450  1.0  -0.2863
  O  O306  1  0.825100  0.203000  0.185590  1.0  -0.7053
  O  O307  1  0.729800  0.311400  0.158660  1.0  -0.7264
  O  O308  1  0.242900  0.020600  0.680320  1.0  -0.7855
  O  O309  1  0.172700  0.145200  0.655900  1.0  -0.6752
  O  O310  1  0.333200  0.030900  0.403740  1.0  -0.2785
  O  O311  1  0.568100  0.694300  0.322260  1.0  -0.6571
  O  O312  1  0.663700  0.796800  0.289300  1.0  -0.8137
  O  O313  1  0.179400  0.129200  0.870190  1.0  -0.7088
  O  O314  1  0.303800  0.195100  0.829630  1.0  -0.8247
  O  O315  1  0.348600  0.202100  0.098200  1.0  -0.2636
  O  O316  1  0.677900  0.980100  0.199990  1.0  -0.703
  O  O317  1  0.678400  0.102300  0.242500  1.0  -0.7092
  O  O318  1  0.066200  0.204000  0.770050  1.0  -0.6864
  O  O319  1  0.173100  0.294500  0.774980  1.0  -0.8329
  O  O320  1  0.811700  0.504200  0.879600  1.0  -0.2751
  O  O321  1  0.754200  0.508900  0.158000  1.0  -0.7698
  O  O322  1  0.685200  0.631300  0.128320  1.0  -0.6209
  O  O323  1  0.262800  0.453300  0.713530  1.0  -0.762
  O  O324  1  0.325400  0.567300  0.660610  1.0  -0.6622
  O  O325  1  0.306600  0.311400  0.463500  1.0  -0.2597
  O  O326  1  0.674900  0.265500  0.289840  1.0  -0.8049
  O  O327  1  0.706300  0.173900  0.364580  1.0  -0.6756
  O  O328  1  0.419200  0.466500  0.759000  1.0  -0.7925
  O  O329  1  0.461600  0.588700  0.785770  1.0  -0.6471
  O  O330  1  0.828000  0.478900  0.631700  1.0  -0.301
  O  O331  1  0.149500  0.625100  0.742300  1.0  -0.734
  O  O332  1  0.106700  0.747500  0.691820  1.0  -0.7634
