# generated using pymatgen
data_InH4(C3O2)4
_symmetry_space_group_name_H-M   'P 1'
_cell_length_a   20.44700000
_cell_length_b   20.44700000
_cell_length_c   20.44700000
_cell_angle_alpha   90.00000000
_cell_angle_beta   90.00000000
_cell_angle_gamma   90.00000000
_symmetry_Int_Tables_number   1
_chemical_formula_structural   InH4(C3O2)4
_chemical_formula_sum   'In12 H48 C144 O96'
_cell_volume   8548.47785462
_cell_formula_units_Z   12
loop_
 _symmetry_equiv_pos_site_id
 _symmetry_equiv_pos_as_xyz
  1  'x, y, z'
loop_
 _atom_site_type_symbol
 _atom_site_label
 _atom_site_symmetry_multiplicity
 _atom_site_fract_x
 _atom_site_fract_y
 _atom_site_fract_z
 _atom_site_occupancy
 _atom_site_charge
  In  In1  1  0.750000  0.375000  0.500000  1.0  1.4923
  In  In2  1  0.750000  0.625000  0.000000  1.0  1.4923
  In  In3  1  0.250000  0.875000  0.000000  1.0  1.4923
  In  In4  1  0.250000  0.125000  0.500000  1.0  1.4923
  In  In5  1  0.500000  0.750000  0.375000  1.0  1.4923
  In  In6  1  0.000000  0.750000  0.625000  1.0  1.4923
  In  In7  1  0.000000  0.250000  0.875000  1.0  1.4923
  In  In8  1  0.500000  0.250000  0.125000  1.0  1.4923
  In  In9  1  0.375000  0.500000  0.750000  1.0  1.4923
  In  In10  1  0.625000  0.000000  0.750000  1.0  1.4923
  In  In11  1  0.875000  0.000000  0.250000  1.0  1.4923
  In  In12  1  0.125000  0.500000  0.250000  1.0  1.4923
  H  H13  1  0.793800  0.180300  0.361800  1.0  0.1395
  H  H14  1  0.293800  0.680300  0.861800  1.0  0.1395
  H  H15  1  0.706200  0.819700  0.861800  1.0  0.1392
  H  H16  1  0.206200  0.319700  0.361800  1.0  0.1392
  H  H17  1  0.206200  0.680300  0.138200  1.0  0.1394
  H  H18  1  0.706200  0.180300  0.638200  1.0  0.1394
  H  H19  1  0.293800  0.319700  0.638200  1.0  0.1391
  H  H20  1  0.793800  0.819700  0.138200  1.0  0.1391
  H  H21  1  0.361800  0.793800  0.180300  1.0  0.1396
  H  H22  1  0.861800  0.293800  0.680300  1.0  0.1396
  H  H23  1  0.861800  0.706200  0.819700  1.0  0.1392
  H  H24  1  0.361800  0.206200  0.319700  1.0  0.1392
  H  H25  1  0.138200  0.206200  0.680300  1.0  0.139
  H  H26  1  0.638200  0.706200  0.180300  1.0  0.139
  H  H27  1  0.638200  0.293800  0.319700  1.0  0.1392
  H  H28  1  0.138200  0.793800  0.819700  1.0  0.1392
  H  H29  1  0.180300  0.361800  0.793800  1.0  0.1405
  H  H30  1  0.680300  0.861800  0.293800  1.0  0.1405
  H  H31  1  0.819700  0.861800  0.706200  1.0  0.1403
  H  H32  1  0.319700  0.361800  0.206200  1.0  0.1403
  H  H33  1  0.680300  0.138200  0.206200  1.0  0.1403
  H  H34  1  0.180300  0.638200  0.706200  1.0  0.1403
  H  H35  1  0.319700  0.638200  0.293800  1.0  0.1402
  H  H36  1  0.819700  0.138200  0.793800  1.0  0.1402
  H  H37  1  0.430300  0.043800  0.611800  1.0  0.1402
  H  H38  1  0.930300  0.543800  0.111800  1.0  0.1402
  H  H39  1  0.069700  0.956200  0.111800  1.0  0.1401
  H  H40  1  0.569700  0.456200  0.611800  1.0  0.1401
  H  H41  1  0.930300  0.456200  0.388200  1.0  0.14
  H  H42  1  0.430300  0.956200  0.888200  1.0  0.14
  H  H43  1  0.569700  0.543800  0.888200  1.0  0.1399
  H  H44  1  0.069700  0.043800  0.388200  1.0  0.1399
  H  H45  1  0.043800  0.611800  0.430300  1.0  0.1396
  H  H46  1  0.543800  0.111800  0.930300  1.0  0.1396
  H  H47  1  0.956200  0.111800  0.069700  1.0  0.1392
  H  H48  1  0.456200  0.611800  0.569700  1.0  0.1392
  H  H49  1  0.456200  0.388200  0.930300  1.0  0.139
  H  H50  1  0.956200  0.888200  0.430300  1.0  0.139
  H  H51  1  0.543800  0.888200  0.569700  1.0  0.1389
  H  H52  1  0.043800  0.388200  0.069700  1.0  0.1389
  H  H53  1  0.611800  0.430300  0.043800  1.0  0.1398
  H  H54  1  0.111800  0.930300  0.543800  1.0  0.1398
  H  H55  1  0.111800  0.069700  0.956200  1.0  0.1394
  H  H56  1  0.611800  0.569700  0.456200  1.0  0.1394
  H  H57  1  0.388200  0.930300  0.456200  1.0  0.1396
  H  H58  1  0.888200  0.430300  0.956200  1.0  0.1396
  H  H59  1  0.888200  0.569700  0.543800  1.0  0.1396
  H  H60  1  0.388200  0.069700  0.043800  1.0  0.1396
  C  C61  1  0.735300  0.288100  0.405500  1.0  0.6725
  C  C62  1  0.719000  0.244500  0.348800  1.0  -0.1361
  C  C63  1  0.758500  0.190200  0.335000  1.0  0.0543
  C  C64  1  0.235300  0.788100  0.905500  1.0  0.6725
  C  C65  1  0.219000  0.744500  0.848800  1.0  -0.1361
  C  C66  1  0.258500  0.690200  0.835000  1.0  0.0543
  C  C67  1  0.764700  0.711900  0.905500  1.0  0.6734
  C  C68  1  0.781000  0.755500  0.848800  1.0  -0.1358
  C  C69  1  0.741500  0.809800  0.835000  1.0  0.0546
  C  C70  1  0.264700  0.211900  0.405500  1.0  0.6734
  C  C71  1  0.281000  0.255500  0.348800  1.0  -0.1358
  C  C72  1  0.241500  0.309800  0.335000  1.0  0.0546
  C  C73  1  0.264700  0.788100  0.094500  1.0  0.6728
  C  C74  1  0.281000  0.744500  0.151200  1.0  -0.1357
  C  C75  1  0.241500  0.690200  0.165000  1.0  0.0543
  C  C76  1  0.764700  0.288100  0.594500  1.0  0.6728
  C  C77  1  0.781000  0.244500  0.651200  1.0  -0.1357
  C  C78  1  0.741500  0.190200  0.665000  1.0  0.0543
  C  C79  1  0.235300  0.211900  0.594500  1.0  0.6718
  C  C80  1  0.219000  0.255500  0.651200  1.0  -0.1362
  C  C81  1  0.258500  0.309800  0.665000  1.0  0.0544
  C  C82  1  0.735300  0.711900  0.094500  1.0  0.6718
  C  C83  1  0.719000  0.755500  0.151200  1.0  -0.1362
  C  C84  1  0.758500  0.809800  0.165000  1.0  0.0544
  C  C85  1  0.405500  0.735300  0.288100  1.0  0.6678
  C  C86  1  0.348800  0.719000  0.244500  1.0  -0.1341
  C  C87  1  0.335000  0.758500  0.190200  1.0  0.0564
  C  C88  1  0.905500  0.235300  0.788100  1.0  0.6678
  C  C89  1  0.848800  0.219000  0.744500  1.0  -0.1341
  C  C90  1  0.835000  0.258500  0.690200  1.0  0.0564
  C  C91  1  0.905500  0.764700  0.711900  1.0  0.6676
  C  C92  1  0.848800  0.781000  0.755500  1.0  -0.1346
  C  C93  1  0.835000  0.741500  0.809800  1.0  0.0568
  C  C94  1  0.405500  0.264700  0.211900  1.0  0.6676
  C  C95  1  0.348800  0.281000  0.255500  1.0  -0.1346
  C  C96  1  0.335000  0.241500  0.309800  1.0  0.0568
  C  C97  1  0.094500  0.264700  0.788100  1.0  0.6685
  C  C98  1  0.151200  0.281000  0.744500  1.0  -0.1342
  C  C99  1  0.165000  0.241500  0.690200  1.0  0.0566
  C  C100  1  0.594500  0.764700  0.288100  1.0  0.6685
  C  C101  1  0.651200  0.781000  0.244500  1.0  -0.1342
  C  C102  1  0.665000  0.741500  0.190200  1.0  0.0566
  C  C103  1  0.594500  0.235300  0.211900  1.0  0.6679
  C  C104  1  0.651200  0.219000  0.255500  1.0  -0.1342
  C  C105  1  0.665000  0.258500  0.309800  1.0  0.0556
  C  C106  1  0.094500  0.735300  0.711900  1.0  0.6679
  C  C107  1  0.151200  0.719000  0.755500  1.0  -0.1342
  C  C108  1  0.165000  0.758500  0.809800  1.0  0.0556
  C  C109  1  0.288100  0.405500  0.735300  1.0  0.6705
  C  C110  1  0.244500  0.348800  0.719000  1.0  -0.1342
  C  C111  1  0.190200  0.335000  0.758500  1.0  0.0553
  C  C112  1  0.788100  0.905500  0.235300  1.0  0.6705
  C  C113  1  0.744500  0.848800  0.219000  1.0  -0.1342
  C  C114  1  0.690200  0.835000  0.258500  1.0  0.0553
  C  C115  1  0.711900  0.905500  0.764700  1.0  0.6706
  C  C116  1  0.755500  0.848800  0.781000  1.0  -0.134
  C  C117  1  0.809800  0.835000  0.741500  1.0  0.0546
  C  C118  1  0.211900  0.405500  0.264700  1.0  0.6706
  C  C119  1  0.255500  0.348800  0.281000  1.0  -0.134
  C  C120  1  0.309800  0.335000  0.241500  1.0  0.0546
  C  C121  1  0.788100  0.094500  0.264700  1.0  0.6706
  C  C122  1  0.744500  0.151200  0.281000  1.0  -0.1343
  C  C123  1  0.690200  0.165000  0.241500  1.0  0.0554
  C  C124  1  0.288100  0.594500  0.764700  1.0  0.6706
  C  C125  1  0.244500  0.651200  0.781000  1.0  -0.1343
  C  C126  1  0.190200  0.665000  0.741500  1.0  0.0554
  C  C127  1  0.211900  0.594500  0.235300  1.0  0.6708
  C  C128  1  0.255500  0.651200  0.219000  1.0  -0.1346
  C  C129  1  0.309800  0.665000  0.258500  1.0  0.0562
  C  C130  1  0.711900  0.094500  0.735300  1.0  0.6708
  C  C131  1  0.755500  0.151200  0.719000  1.0  -0.1346
  C  C132  1  0.809800  0.165000  0.758500  1.0  0.0562
  C  C133  1  0.538100  0.985300  0.655500  1.0  0.6719
  C  C134  1  0.494500  0.969000  0.598800  1.0  -0.1359
  C  C135  1  0.440200  0.008500  0.585000  1.0  0.0555
  C  C136  1  0.038100  0.485300  0.155500  1.0  0.6719
  C  C137  1  0.994500  0.469000  0.098800  1.0  -0.1359
  C  C138  1  0.940200  0.508500  0.085000  1.0  0.0555
  C  C139  1  0.961900  0.014700  0.155500  1.0  0.6724
  C  C140  1  0.005500  0.031000  0.098800  1.0  -0.1361
  C  C141  1  0.059800  0.991500  0.085000  1.0  0.057
  C  C142  1  0.461900  0.514700  0.655500  1.0  0.6724
  C  C143  1  0.505500  0.531000  0.598800  1.0  -0.1361
  C  C144  1  0.559800  0.491500  0.585000  1.0  0.057
  C  C145  1  0.038100  0.514700  0.344500  1.0  0.6713
  C  C146  1  0.994500  0.531000  0.401200  1.0  -0.1361
  C  C147  1  0.940200  0.491500  0.415000  1.0  0.0573
  C  C148  1  0.538100  0.014700  0.844500  1.0  0.6713
  C  C149  1  0.494500  0.031000  0.901200  1.0  -0.1361
  C  C150  1  0.440200  0.991500  0.915000  1.0  0.0573
  C  C151  1  0.461900  0.485300  0.844500  1.0  0.6717
  C  C152  1  0.505500  0.469000  0.901200  1.0  -0.1356
  C  C153  1  0.559800  0.508500  0.915000  1.0  0.0557
  C  C154  1  0.961900  0.985300  0.344500  1.0  0.6717
  C  C155  1  0.005500  0.969000  0.401200  1.0  -0.1356
  C  C156  1  0.059800  0.008500  0.415000  1.0  0.0557
  C  C157  1  0.985300  0.655500  0.538100  1.0  0.6715
  C  C158  1  0.969000  0.598800  0.494500  1.0  -0.1341
  C  C159  1  0.008500  0.585000  0.440200  1.0  0.0555
  C  C160  1  0.485300  0.155500  0.038100  1.0  0.6715
  C  C161  1  0.469000  0.098800  0.994500  1.0  -0.1341
  C  C162  1  0.508500  0.085000  0.940200  1.0  0.0555
  C  C163  1  0.014700  0.155500  0.961900  1.0  0.6719
  C  C164  1  0.031000  0.098800  0.005500  1.0  -0.134
  C  C165  1  0.991500  0.085000  0.059800  1.0  0.0555
  C  C166  1  0.514700  0.655500  0.461900  1.0  0.6719
  C  C167  1  0.531000  0.598800  0.505500  1.0  -0.134
  C  C168  1  0.491500  0.585000  0.559800  1.0  0.0555
  C  C169  1  0.514700  0.344500  0.038100  1.0  0.6726
  C  C170  1  0.531000  0.401200  0.994500  1.0  -0.1342
  C  C171  1  0.491500  0.415000  0.940200  1.0  0.0558
  C  C172  1  0.014700  0.844500  0.538100  1.0  0.6726
  C  C173  1  0.031000  0.901200  0.494500  1.0  -0.1342
  C  C174  1  0.991500  0.915000  0.440200  1.0  0.0558
  C  C175  1  0.485300  0.844500  0.461900  1.0  0.6714
  C  C176  1  0.469000  0.901200  0.505500  1.0  -0.1346
  C  C177  1  0.508500  0.915000  0.559800  1.0  0.0558
  C  C178  1  0.985300  0.344500  0.961900  1.0  0.6714
  C  C179  1  0.969000  0.401200  0.005500  1.0  -0.1346
  C  C180  1  0.008500  0.415000  0.059800  1.0  0.0558
  C  C181  1  0.655500  0.538100  0.985300  1.0  0.6674
  C  C182  1  0.598800  0.494500  0.969000  1.0  -0.1344
  C  C183  1  0.585000  0.440200  0.008500  1.0  0.0548
  C  C184  1  0.155500  0.038100  0.485300  1.0  0.6674
  C  C185  1  0.098800  0.994500  0.469000  1.0  -0.1344
  C  C186  1  0.085000  0.940200  0.508500  1.0  0.0548
  C  C187  1  0.155500  0.961900  0.014700  1.0  0.6675
  C  C188  1  0.098800  0.005500  0.031000  1.0  -0.1343
  C  C189  1  0.085000  0.059800  0.991500  1.0  0.0539
  C  C190  1  0.655500  0.461900  0.514700  1.0  0.6675
  C  C191  1  0.598800  0.505500  0.531000  1.0  -0.1343
  C  C192  1  0.585000  0.559800  0.491500  1.0  0.0539
  C  C193  1  0.344500  0.038100  0.514700  1.0  0.6676
  C  C194  1  0.401200  0.994500  0.531000  1.0  -0.134
  C  C195  1  0.415000  0.940200  0.491500  1.0  0.054
  C  C196  1  0.844500  0.538100  0.014700  1.0  0.6676
  C  C197  1  0.901200  0.494500  0.031000  1.0  -0.134
  C  C198  1  0.915000  0.440200  0.991500  1.0  0.054
  C  C199  1  0.844500  0.461900  0.485300  1.0  0.6678
  C  C200  1  0.901200  0.505500  0.469000  1.0  -0.1342
  C  C201  1  0.915000  0.559800  0.508500  1.0  0.054
  C  C202  1  0.344500  0.961900  0.985300  1.0  0.6678
  C  C203  1  0.401200  0.005500  0.969000  1.0  -0.1342
  C  C204  1  0.415000  0.059800  0.008500  1.0  0.054
  O  O205  1  0.694860  0.334080  0.419100  1.0  -0.5503
  O  O206  1  0.786450  0.279630  0.437500  1.0  -0.5537
  O  O207  1  0.194860  0.834080  0.919100  1.0  -0.5503
  O  O208  1  0.286450  0.779630  0.937500  1.0  -0.5537
  O  O209  1  0.805140  0.665920  0.919100  1.0  -0.5513
  O  O210  1  0.713550  0.720370  0.937500  1.0  -0.5523
  O  O211  1  0.305140  0.165920  0.419100  1.0  -0.5513
  O  O212  1  0.213550  0.220370  0.437500  1.0  -0.5523
  O  O213  1  0.305140  0.834080  0.080900  1.0  -0.551
  O  O214  1  0.213550  0.779630  0.062500  1.0  -0.5529
  O  O215  1  0.805140  0.334080  0.580900  1.0  -0.551
  O  O216  1  0.713550  0.279630  0.562500  1.0  -0.5529
  O  O217  1  0.194860  0.165920  0.580900  1.0  -0.5506
  O  O218  1  0.286450  0.220370  0.562500  1.0  -0.5529
  O  O219  1  0.694860  0.665920  0.080900  1.0  -0.5506
  O  O220  1  0.786450  0.720370  0.062500  1.0  -0.5529
  O  O221  1  0.419100  0.694860  0.334080  1.0  -0.5553
  O  O222  1  0.437500  0.786450  0.279630  1.0  -0.547
  O  O223  1  0.919100  0.194860  0.834080  1.0  -0.5553
  O  O224  1  0.937500  0.286450  0.779630  1.0  -0.547
  O  O225  1  0.919100  0.805140  0.665920  1.0  -0.5571
  O  O226  1  0.937500  0.713550  0.720370  1.0  -0.547
  O  O227  1  0.419100  0.305140  0.165920  1.0  -0.5571
  O  O228  1  0.437500  0.213550  0.220370  1.0  -0.547
  O  O229  1  0.080900  0.305140  0.834080  1.0  -0.5556
  O  O230  1  0.062500  0.213550  0.779630  1.0  -0.5467
  O  O231  1  0.580900  0.805140  0.334080  1.0  -0.5556
  O  O232  1  0.562500  0.713550  0.279630  1.0  -0.5467
  O  O233  1  0.580900  0.194860  0.165920  1.0  -0.5558
  O  O234  1  0.562500  0.286450  0.220370  1.0  -0.547
  O  O235  1  0.080900  0.694860  0.665920  1.0  -0.5558
  O  O236  1  0.062500  0.786450  0.720370  1.0  -0.547
  O  O237  1  0.334080  0.419100  0.694860  1.0  -0.5529
  O  O238  1  0.279630  0.437500  0.786450  1.0  -0.5509
  O  O239  1  0.834080  0.919100  0.194860  1.0  -0.5529
  O  O240  1  0.779630  0.937500  0.286450  1.0  -0.5509
  O  O241  1  0.665920  0.919100  0.805140  1.0  -0.5527
  O  O242  1  0.720370  0.937500  0.713550  1.0  -0.5517
  O  O243  1  0.165920  0.419100  0.305140  1.0  -0.5527
  O  O244  1  0.220370  0.437500  0.213550  1.0  -0.5517
  O  O245  1  0.834080  0.080900  0.305140  1.0  -0.5535
  O  O246  1  0.779630  0.062500  0.213550  1.0  -0.5512
  O  O247  1  0.334080  0.580900  0.805140  1.0  -0.5535
  O  O248  1  0.279630  0.562500  0.713550  1.0  -0.5512
  O  O249  1  0.165920  0.580900  0.194860  1.0  -0.5531
  O  O250  1  0.220370  0.562500  0.286450  1.0  -0.5516
  O  O251  1  0.665920  0.080900  0.694860  1.0  -0.5531
  O  O252  1  0.720370  0.062500  0.786450  1.0  -0.5516
  O  O253  1  0.584080  0.944860  0.669100  1.0  -0.5524
  O  O254  1  0.529630  0.036450  0.687500  1.0  -0.5493
  O  O255  1  0.084080  0.444860  0.169100  1.0  -0.5524
  O  O256  1  0.029630  0.536450  0.187500  1.0  -0.5493
  O  O257  1  0.915920  0.055140  0.169100  1.0  -0.5528
  O  O258  1  0.970370  0.963550  0.187500  1.0  -0.5493
  O  O259  1  0.415920  0.555140  0.669100  1.0  -0.5528
  O  O260  1  0.470370  0.463550  0.687500  1.0  -0.5493
  O  O261  1  0.084080  0.555140  0.330900  1.0  -0.5534
  O  O262  1  0.029630  0.463550  0.312500  1.0  -0.5487
  O  O263  1  0.584080  0.055140  0.830900  1.0  -0.5534
  O  O264  1  0.529630  0.963550  0.812500  1.0  -0.5487
  O  O265  1  0.415920  0.444860  0.830900  1.0  -0.5524
  O  O266  1  0.470370  0.536450  0.812500  1.0  -0.5494
  O  O267  1  0.915920  0.944860  0.330900  1.0  -0.5524
  O  O268  1  0.970370  0.036450  0.312500  1.0  -0.5494
  O  O269  1  0.944860  0.669100  0.584080  1.0  -0.5508
  O  O270  1  0.036450  0.687500  0.529630  1.0  -0.5538
  O  O271  1  0.444860  0.169100  0.084080  1.0  -0.5508
  O  O272  1  0.536450  0.187500  0.029630  1.0  -0.5538
  O  O273  1  0.055140  0.169100  0.915920  1.0  -0.5521
  O  O274  1  0.963550  0.187500  0.970370  1.0  -0.5527
  O  O275  1  0.555140  0.669100  0.415920  1.0  -0.5521
  O  O276  1  0.463550  0.687500  0.470370  1.0  -0.5527
  O  O277  1  0.555140  0.330900  0.084080  1.0  -0.5525
  O  O278  1  0.463550  0.312500  0.029630  1.0  -0.5537
  O  O279  1  0.055140  0.830900  0.584080  1.0  -0.5525
  O  O280  1  0.963550  0.812500  0.529630  1.0  -0.5537
  O  O281  1  0.444860  0.830900  0.415920  1.0  -0.5521
  O  O282  1  0.536450  0.812500  0.470370  1.0  -0.5546
  O  O283  1  0.944860  0.330900  0.915920  1.0  -0.5521
  O  O284  1  0.036450  0.312500  0.970370  1.0  -0.5546
  O  O285  1  0.669100  0.584080  0.944860  1.0  -0.5557
  O  O286  1  0.687500  0.529630  0.036450  1.0  -0.5485
  O  O287  1  0.169100  0.084080  0.444860  1.0  -0.5557
  O  O288  1  0.187500  0.029630  0.536450  1.0  -0.5485
  O  O289  1  0.169100  0.915920  0.055140  1.0  -0.5552
  O  O290  1  0.187500  0.970370  0.963550  1.0  -0.5489
  O  O291  1  0.669100  0.415920  0.555140  1.0  -0.5552
  O  O292  1  0.687500  0.470370  0.463550  1.0  -0.5489
  O  O293  1  0.330900  0.084080  0.555140  1.0  -0.5544
  O  O294  1  0.312500  0.029630  0.463550  1.0  -0.5487
  O  O295  1  0.830900  0.584080  0.055140  1.0  -0.5544
  O  O296  1  0.812500  0.529630  0.963550  1.0  -0.5487
  O  O297  1  0.830900  0.415920  0.444860  1.0  -0.5552
  O  O298  1  0.812500  0.470370  0.536450  1.0  -0.5481
  O  O299  1  0.330900  0.915920  0.944860  1.0  -0.5552
  O  O300  1  0.312500  0.970370  0.036450  1.0  -0.5481
