# generated using pymatgen
data_Eu3H20(C2O)24
_symmetry_space_group_name_H-M   'P 1'
_cell_length_a   11.66920000
_cell_length_b   12.23650000
_cell_length_c   13.65860000
_cell_angle_alpha   65.22900000
_cell_angle_beta   67.51800000
_cell_angle_gamma   88.43500000
_symmetry_Int_Tables_number   1
_chemical_formula_structural   Eu3H20(C2O)24
_chemical_formula_sum   'Eu3 H20 C48 O24'
_cell_volume   1615.61611596
_cell_formula_units_Z   1
loop_
 _symmetry_equiv_pos_site_id
 _symmetry_equiv_pos_as_xyz
  1  'x, y, z'
loop_
 _atom_site_type_symbol
 _atom_site_label
 _atom_site_symmetry_multiplicity
 _atom_site_fract_x
 _atom_site_fract_y
 _atom_site_fract_z
 _atom_site_occupancy
 _atom_site_charge
  Eu  Eu1  1  0.433180  0.330100  0.325750  1.0  2.1266
  Eu  Eu2  1  0.566820  0.669900  0.674250  1.0  2.1259
  Eu  Eu3  1  0.500000  0.500000  0.500000  1.0  2.1661
  H  H4  1  0.122500  0.315300  0.298600  1.0  0.4021
  H  H5  1  0.501600  0.879000  0.173300  1.0  0.1231
  H  H6  1  0.512200  0.945600  0.859100  1.0  0.1241
  H  H7  1  0.511500  0.603000  0.084100  1.0  0.1219
  H  H8  1  0.364700  0.991000  0.455500  1.0  0.1198
  H  H9  1  0.102600  0.948500  0.346800  1.0  0.1238
  H  H10  1  0.276400  0.669100  0.469500  1.0  0.1114
  H  H11  1  0.937500  0.774700  0.430800  1.0  0.1193
  H  H12  1  0.922600  0.496000  0.351000  1.0  0.1316
  H  H13  1  0.248900  0.627900  0.327500  1.0  0.1136
  H  H14  1  0.877500  0.684700  0.701400  1.0  0.4013
  H  H15  1  0.498400  0.121000  0.826700  1.0  0.1251
  H  H16  1  0.487800  0.054400  0.140900  1.0  0.1257
  H  H17  1  0.488500  0.397000  0.915900  1.0  0.1222
  H  H18  1  0.635300  0.009000  0.544500  1.0  0.1203
  H  H19  1  0.897400  0.051500  0.653200  1.0  0.1239
  H  H20  1  0.723600  0.330900  0.530500  1.0  0.1112
  H  H21  1  0.062500  0.225300  0.569200  1.0  0.1193
  H  H22  1  0.077400  0.504000  0.649000  1.0  0.132
  H  H23  1  0.751100  0.372100  0.672500  1.0  0.1135
  C  C24  1  0.509100  0.643600  0.264500  1.0  0.7263
  C  C25  1  0.507500  0.726500  0.147300  1.0  -0.118
  C  C26  1  0.503900  0.852000  0.118400  1.0  -0.0468
  C  C27  1  0.503500  0.935300  0.012800  1.0  -0.0641
  C  C28  1  0.509600  0.891300  0.932400  1.0  -0.052
  C  C29  1  0.511900  0.767800  0.957900  1.0  -0.1317
  C  C30  1  0.520700  0.729100  0.865500  1.0  0.7128
  C  C31  1  0.510500  0.685000  0.066300  1.0  0.0336
  C  C32  1  0.424000  0.768800  0.528100  1.0  0.714
  C  C33  1  0.335600  0.821900  0.470800  1.0  -0.1343
  C  C34  1  0.318000  0.941800  0.442900  1.0  0.0265
  C  C35  1  0.230800  0.988700  0.396200  1.0  -0.1275
  C  C36  1  0.211300  0.119000  0.371200  1.0  0.682
  C  C37  1  0.161900  0.916600  0.376600  1.0  -0.0455
  C  C38  1  0.179700  0.797500  0.400600  1.0  0.058
  C  C39  1  0.265700  0.750000  0.450100  1.0  -0.0896
  C  C40  1  0.106000  0.716700  0.381800  1.0  0.0345
  C  C41  1  0.977700  0.718000  0.406700  1.0  -0.0614
  C  C42  1  0.910400  0.635600  0.395900  1.0  -0.1265
  C  C43  1  0.768800  0.626900  0.435900  1.0  0.7158
  C  C44  1  0.968300  0.550100  0.359400  1.0  0.0023
  C  C45  1  0.094300  0.546000  0.335800  1.0  -0.1353
  C  C46  1  0.155900  0.446100  0.311000  1.0  0.6416
  C  C47  1  0.163800  0.629700  0.345400  1.0  -0.0938
  C  C48  1  0.490900  0.356400  0.735500  1.0  0.7246
  C  C49  1  0.492500  0.273500  0.852700  1.0  -0.1161
  C  C50  1  0.496100  0.148000  0.881600  1.0  -0.0479
  C  C51  1  0.496500  0.064700  0.987200  1.0  -0.0644
  C  C52  1  0.490400  0.108700  0.067600  1.0  -0.0529
  C  C53  1  0.488100  0.232200  0.042100  1.0  -0.1342
  C  C54  1  0.479300  0.270900  0.134500  1.0  0.7135
  C  C55  1  0.489500  0.315000  0.933700  1.0  0.0342
  C  C56  1  0.576000  0.231200  0.471900  1.0  0.7132
  C  C57  1  0.664400  0.178100  0.529200  1.0  -0.1339
  C  C58  1  0.682000  0.058200  0.557100  1.0  0.026
  C  C59  1  0.769200  0.011300  0.603800  1.0  -0.1269
  C  C60  1  0.788700  0.881000  0.628800  1.0  0.6818
  C  C61  1  0.838100  0.083400  0.623400  1.0  -0.0436
  C  C62  1  0.820300  0.202500  0.599400  1.0  0.0585
  C  C63  1  0.734300  0.250000  0.549900  1.0  -0.091
  C  C64  1  0.894000  0.283300  0.618200  1.0  0.0356
  C  C65  1  0.022300  0.282000  0.593300  1.0  -0.0638
  C  C66  1  0.089600  0.364400  0.604100  1.0  -0.1197
  C  C67  1  0.231200  0.373100  0.564100  1.0  0.7164
  C  C68  1  0.031700  0.449900  0.640600  1.0  0.0033
  C  C69  1  0.905700  0.454000  0.664200  1.0  -0.1349
  C  C70  1  0.844100  0.553900  0.689000  1.0  0.6369
  C  C71  1  0.836200  0.370300  0.654600  1.0  -0.0933
  O  O72  1  0.476800  0.531200  0.309200  1.0  -0.7757
  O  O73  1  0.537400  0.689000  0.320300  1.0  -0.6553
  O  O74  1  0.434500  0.655900  0.556900  1.0  -0.7913
  O  O75  1  0.482600  0.831500  0.551000  1.0  -0.6219
  O  O76  1  0.497300  0.800200  0.779100  1.0  -0.6956
  O  O77  1  0.555000  0.629000  0.871600  1.0  -0.6039
  O  O78  1  0.142000  0.165700  0.319100  1.0  -0.5632
  O  O79  1  0.265500  0.173100  0.404900  1.0  -0.6659
  O  O80  1  0.266800  0.442300  0.294200  1.0  -0.5823
  O  O81  1  0.082700  0.367100  0.312900  1.0  -0.4875
  O  O82  1  0.716600  0.548400  0.423000  1.0  -0.6359
  O  O83  1  0.710700  0.691800  0.481600  1.0  -0.7414
  O  O84  1  0.523200  0.468800  0.690800  1.0  -0.7769
  O  O85  1  0.462600  0.311000  0.679700  1.0  -0.6559
  O  O86  1  0.565500  0.344100  0.443100  1.0  -0.7905
  O  O87  1  0.517400  0.168500  0.449000  1.0  -0.6202
  O  O88  1  0.502700  0.199800  0.220900  1.0  -0.696
  O  O89  1  0.445000  0.371000  0.128400  1.0  -0.6035
  O  O90  1  0.858000  0.834300  0.680900  1.0  -0.5677
  O  O91  1  0.734500  0.826900  0.595100  1.0  -0.6664
  O  O92  1  0.733200  0.557700  0.705800  1.0  -0.5823
  O  O93  1  0.917300  0.632900  0.687100  1.0  -0.4898
  O  O94  1  0.283400  0.451600  0.577000  1.0  -0.635
  O  O95  1  0.289300  0.308200  0.518400  1.0  -0.7419
