# generated using pymatgen
data_Zn2H9(C2O)12
_symmetry_space_group_name_H-M   'P 1'
_cell_length_a   8.51700000
_cell_length_b   10.33410000
_cell_length_c   18.23920000
_cell_angle_alpha   104.78200000
_cell_angle_beta   91.18700000
_cell_angle_gamma   110.47900000
_symmetry_Int_Tables_number   1
_chemical_formula_structural   Zn2H9(C2O)12
_chemical_formula_sum   'Zn4 H18 C48 O24'
_cell_volume   1443.34530581
_cell_formula_units_Z   2
loop_
 _symmetry_equiv_pos_site_id
 _symmetry_equiv_pos_as_xyz
  1  'x, y, z'
loop_
 _atom_site_type_symbol
 _atom_site_label
 _atom_site_symmetry_multiplicity
 _atom_site_fract_x
 _atom_site_fract_y
 _atom_site_fract_z
 _atom_site_occupancy
 _atom_site_charge
  Zn  Zn1  1  0.670650  0.810020  0.218160  1.0  1.0571
  Zn  Zn2  1  0.962370  0.138350  0.309350  1.0  1.0458
  Zn  Zn3  1  0.329350  0.189980  0.781840  1.0  1.0567
  Zn  Zn4  1  0.037630  0.861650  0.690650  1.0  1.0444
  H  H5  1  0.948700  0.419500  0.406400  1.0  0.4214
  H  H6  1  0.701900  0.353000  0.243400  1.0  0.1305
  H  H7  1  0.328000  0.979500  0.127900  1.0  0.1405
  H  H8  1  0.245300  0.158000  0.970900  1.0  0.1341
  H  H9  1  0.274900  0.605600  0.426400  1.0  0.1309
  H  H10  1  0.555400  0.354200  0.385000  1.0  0.1376
  H  H11  1  0.315600  0.360600  0.112700  1.0  0.1425
  H  H12  1  0.785600  0.789100  0.460300  1.0  0.1387
  H  H13  1  0.329000  0.806200  0.541100  1.0  0.1256
  H  H14  1  0.051300  0.580500  0.593600  1.0  0.4223
  H  H15  1  0.298100  0.647000  0.756600  1.0  0.1312
  H  H16  1  0.672000  0.020500  0.872100  1.0  0.1398
  H  H17  1  0.754700  0.842000  0.029100  1.0  0.1339
  H  H18  1  0.725100  0.394400  0.573600  1.0  0.1311
  H  H19  1  0.444600  0.645800  0.615000  1.0  0.1383
  H  H20  1  0.684400  0.639400  0.887300  1.0  0.1421
  H  H21  1  0.214400  0.210900  0.539700  1.0  0.1384
  H  H22  1  0.671000  0.193800  0.458900  1.0  0.1249
  C  C23  1  0.603000  0.541800  0.200510  1.0  0.6855
  C  C24  1  0.520700  0.380800  0.180780  1.0  -0.1217
  C  C25  1  0.236000  0.330000  0.371290  1.0  0.6701
  C  C26  1  0.528000  0.720200  0.447900  1.0  0.0625
  C  C27  1  0.718100  0.963200  0.383740  1.0  0.713
  C  C28  1  0.528400  0.154000  0.189540  1.0  -0.118
  C  C29  1  0.599500  0.303500  0.209780  1.0  -0.0228
  C  C30  1  0.862700  0.557300  0.418480  1.0  0.675
  C  C31  1  0.513400  0.863500  0.473380  1.0  0.0401
  C  C32  1  0.376800  0.081600  0.141290  1.0  -0.0455
  C  C33  1  0.140100  0.079300  0.056990  1.0  0.0212
  C  C34  1  0.145500  0.093400  0.982930  1.0  -0.0535
  C  C35  1  0.382400  0.597000  0.425130  1.0  -0.0743
  C  C36  1  0.619700  0.071500  0.217340  1.0  0.7173
  C  C37  1  0.548400  0.446900  0.400190  1.0  -0.0353
  C  C38  1  0.962200  0.973300  0.153740  1.0  0.7329
  C  C39  1  0.369300  0.307800  0.132370  1.0  -0.0497
  C  C40  1  0.614100  0.981000  0.448530  1.0  -0.0618
  C  C41  1  0.685000  0.705900  0.445760  1.0  -0.0688
  C  C42  1  0.392100  0.461000  0.400430  1.0  -0.0895
  C  C43  1  0.991200  0.984400  0.073950  1.0  -0.0952
  C  C44  1  0.296100  0.158000  0.112550  1.0  0.0374
  C  C45  1  0.694700  0.569900  0.422370  1.0  -0.1232
  C  C46  1  0.399100  0.884700  0.524450  1.0  -0.0609
  C  C47  1  0.397000  0.458200  0.799490  1.0  0.6845
  C  C48  1  0.479300  0.619200  0.819220  1.0  -0.1223
  C  C49  1  0.764000  0.670000  0.628710  1.0  0.6697
  C  C50  1  0.472000  0.279800  0.552100  1.0  0.0638
  C  C51  1  0.281900  0.036800  0.616260  1.0  0.7131
  C  C52  1  0.471600  0.846000  0.810460  1.0  -0.1166
  C  C53  1  0.400500  0.696500  0.790220  1.0  -0.024
  C  C54  1  0.137300  0.442700  0.581520  1.0  0.6742
  C  C55  1  0.486600  0.136500  0.526620  1.0  0.04
  C  C56  1  0.623200  0.918400  0.858710  1.0  -0.0467
  C  C57  1  0.859900  0.920700  0.943010  1.0  0.0212
  C  C58  1  0.854500  0.906600  0.017070  1.0  -0.054
  C  C59  1  0.617600  0.403000  0.574870  1.0  -0.0717
  C  C60  1  0.380300  0.928500  0.782660  1.0  0.718
  C  C61  1  0.451600  0.553100  0.599810  1.0  -0.0343
  C  C62  1  0.037800  0.026700  0.846260  1.0  0.7294
  C  C63  1  0.630700  0.692200  0.867630  1.0  -0.0503
  C  C64  1  0.385900  0.019000  0.551470  1.0  -0.0622
  C  C65  1  0.315000  0.294100  0.554240  1.0  -0.0675
  C  C66  1  0.607900  0.539000  0.599570  1.0  -0.0892
  C  C67  1  0.008800  0.015600  0.926050  1.0  -0.0943
  C  C68  1  0.703900  0.842000  0.887450  1.0  0.0371
  C  C69  1  0.305300  0.430100  0.577630  1.0  -0.1234
  C  C70  1  0.600900  0.115300  0.475550  1.0  -0.0607
  O  O71  1  0.524600  0.607870  0.172170  1.0  -0.5621
  O  O72  1  0.095900  0.347700  0.358550  1.0  -0.6632
  O  O73  1  0.859100  0.429200  0.420170  1.0  -0.5032
  O  O74  1  0.645000  0.860100  0.325960  1.0  -0.5719
  O  O75  1  0.743500  0.142700  0.267670  1.0  -0.6066
  O  O76  1  0.740600  0.605900  0.241380  1.0  -0.5975
  O  O77  1  0.865700  0.854200  0.160520  1.0  -0.6221
  O  O78  1  0.239400  0.207130  0.356960  1.0  -0.5517
  O  O79  1  0.566600  0.937200  0.187290  1.0  -0.5777
  O  O80  1  0.865300  0.054300  0.390520  1.0  -0.5762
  O  O81  1  0.031400  0.085600  0.207080  1.0  -0.5857
  O  O82  1  0.990500  0.653300  0.412580  1.0  -0.5187
  O  O83  1  0.475400  0.392130  0.827830  1.0  -0.5624
  O  O84  1  0.904100  0.652300  0.641450  1.0  -0.665
  O  O85  1  0.140900  0.570800  0.579830  1.0  -0.5018
  O  O86  1  0.355000  0.139900  0.674040  1.0  -0.5711
  O  O87  1  0.256500  0.857300  0.732330  1.0  -0.607
  O  O88  1  0.259400  0.394100  0.758620  1.0  -0.5984
  O  O89  1  0.134300  0.145800  0.839480  1.0  -0.6246
  O  O90  1  0.760600  0.792870  0.643040  1.0  -0.5527
  O  O91  1  0.433400  0.062800  0.812710  1.0  -0.5757
  O  O92  1  0.134700  0.945700  0.609480  1.0  -0.5763
  O  O93  1  0.968600  0.914400  0.792920  1.0  -0.5849
  O  O94  1  0.009500  0.346700  0.587420  1.0  -0.5196
