# generated using pymatgen
data_MnHC4SO2
_symmetry_space_group_name_H-M   'P 1'
_cell_length_a   27.28000000
_cell_length_b   27.28000000
_cell_length_c   15.12100000
_cell_angle_alpha   90.00000000
_cell_angle_beta   90.00000000
_cell_angle_gamma   120.00000000
_symmetry_Int_Tables_number   1
_chemical_formula_structural   MnHC4SO2
_chemical_formula_sum   'Mn36 H36 C144 S36 O72'
_cell_volume   9745.40465894
_cell_formula_units_Z   36
loop_
 _symmetry_equiv_pos_site_id
 _symmetry_equiv_pos_as_xyz
  1  'x, y, z'
loop_
 _atom_site_type_symbol
 _atom_site_label
 _atom_site_symmetry_multiplicity
 _atom_site_fract_x
 _atom_site_fract_y
 _atom_site_fract_z
 _atom_site_occupancy
 _atom_site_charge
  Mn  Mn1  1  0.323100  0.333333  0.083330  1.0  0.8547
  Mn  Mn2  1  0.666667  0.989760  0.083330  1.0  0.8527
  Mn  Mn3  1  0.333333  0.323100  0.416670  1.0  0.8533
  Mn  Mn4  1  0.010240  0.676900  0.083330  1.0  0.8541
  Mn  Mn5  1  0.343570  0.343570  0.750000  1.0  0.8471
  Mn  Mn6  1  0.000000  0.656430  0.750000  1.0  0.8533
  Mn  Mn7  1  0.989760  0.666667  0.416670  1.0  0.8549
  Mn  Mn8  1  0.656430  0.000000  0.750000  1.0  0.8545
  Mn  Mn9  1  0.676900  0.010240  0.416670  1.0  0.8543
  Mn  Mn10  1  0.676900  0.666667  0.916670  1.0  0.8539
  Mn  Mn11  1  0.343570  0.000000  0.250000  1.0  0.854
  Mn  Mn12  1  0.010240  0.333333  0.583330  1.0  0.8536
  Mn  Mn13  1  0.333333  0.010240  0.916670  1.0  0.8553
  Mn  Mn14  1  0.000000  0.343570  0.250000  1.0  0.855
  Mn  Mn15  1  0.989760  0.323100  0.916670  1.0  0.854
  Mn  Mn16  1  0.656430  0.656430  0.250000  1.0  0.8463
  Mn  Mn17  1  0.666667  0.676900  0.583330  1.0  0.855
  Mn  Mn18  1  0.323100  0.989760  0.583330  1.0  0.8537
  Mn  Mn19  1  0.397670  0.397670  0.250000  1.0  1.066
  Mn  Mn20  1  0.064330  0.731000  0.583330  1.0  1.0659
  Mn  Mn21  1  0.731000  0.064330  0.916670  1.0  1.0658
  Mn  Mn22  1  0.602330  0.000000  0.250000  1.0  1.0663
  Mn  Mn23  1  0.269000  0.333333  0.583330  1.0  1.0663
  Mn  Mn24  1  0.935670  0.666667  0.916670  1.0  1.0661
  Mn  Mn25  1  0.000000  0.602330  0.250000  1.0  1.0672
  Mn  Mn26  1  0.666667  0.935670  0.583330  1.0  1.0672
  Mn  Mn27  1  0.333333  0.269000  0.916670  1.0  1.0673
  Mn  Mn28  1  0.602330  0.602330  0.750000  1.0  1.0682
  Mn  Mn29  1  0.269000  0.935670  0.083330  1.0  1.0681
  Mn  Mn30  1  0.935670  0.269000  0.416670  1.0  1.0681
  Mn  Mn31  1  0.397670  0.000000  0.750000  1.0  1.0641
  Mn  Mn32  1  0.064330  0.333333  0.083330  1.0  1.0642
  Mn  Mn33  1  0.731000  0.666667  0.416670  1.0  1.0643
  Mn  Mn34  1  0.000000  0.397670  0.750000  1.0  1.0664
  Mn  Mn35  1  0.666667  0.731000  0.083330  1.0  1.0664
  Mn  Mn36  1  0.333333  0.064330  0.416670  1.0  1.0664
  H  H37  1  0.372840  0.207100  0.306990  1.0  0.1366
  H  H38  1  0.039510  0.540440  0.640320  1.0  0.1357
  H  H39  1  0.706180  0.873770  0.973650  1.0  0.1366
  H  H40  1  0.792900  0.165740  0.306990  1.0  0.1355
  H  H41  1  0.459560  0.499070  0.640320  1.0  0.1355
  H  H42  1  0.126230  0.832410  0.973650  1.0  0.1361
  H  H43  1  0.834260  0.627160  0.306990  1.0  0.1357
  H  H44  1  0.500930  0.960490  0.640320  1.0  0.137
  H  H45  1  0.167590  0.293820  0.973650  1.0  0.1367
  H  H46  1  0.207100  0.372840  0.193010  1.0  0.1363
  H  H47  1  0.873770  0.706180  0.526350  1.0  0.1358
  H  H48  1  0.540440  0.039510  0.859680  1.0  0.1346
  H  H49  1  0.165740  0.792890  0.193010  1.0  0.1347
  H  H50  1  0.832410  0.126230  0.526350  1.0  0.1353
  H  H51  1  0.499070  0.459560  0.859680  1.0  0.1345
  H  H52  1  0.627160  0.834260  0.193010  1.0  0.134
  H  H53  1  0.293820  0.167590  0.526350  1.0  0.1362
  H  H54  1  0.960490  0.500930  0.859680  1.0  0.1357
  H  H55  1  0.627160  0.792900  0.693010  1.0  0.1354
  H  H56  1  0.293820  0.126230  0.026350  1.0  0.1358
  H  H57  1  0.960490  0.459560  0.359680  1.0  0.1344
  H  H58  1  0.207100  0.834260  0.693010  1.0  0.1348
  H  H59  1  0.873770  0.167590  0.026350  1.0  0.1358
  H  H60  1  0.540440  0.500930  0.359680  1.0  0.1349
  H  H61  1  0.165740  0.372840  0.693010  1.0  0.1344
  H  H62  1  0.832410  0.706180  0.026350  1.0  0.1359
  H  H63  1  0.499070  0.039510  0.359680  1.0  0.1356
  H  H64  1  0.792900  0.627160  0.806990  1.0  0.1368
  H  H65  1  0.459560  0.960490  0.140320  1.0  0.1362
  H  H66  1  0.126230  0.293820  0.473650  1.0  0.1366
  H  H67  1  0.834260  0.207100  0.806990  1.0  0.1358
  H  H68  1  0.500930  0.540440  0.140320  1.0  0.1365
  H  H69  1  0.167590  0.873770  0.473650  1.0  0.1364
  H  H70  1  0.372840  0.165740  0.806990  1.0  0.1358
  H  H71  1  0.039510  0.499070  0.140320  1.0  0.1375
  H  H72  1  0.706180  0.832410  0.473650  1.0  0.1371
  C  C73  1  0.338200  0.218000  0.192900  1.0  0.0084
  C  C74  1  0.315100  0.196000  0.108400  1.0  -0.027
  C  C75  1  0.354300  0.187800  0.244000  1.0  -0.081
  C  C76  1  0.348000  0.271900  0.234000  1.0  0.6719
  C  C77  1  0.004870  0.551330  0.526230  1.0  0.0083
  C  C78  1  0.981770  0.529330  0.441730  1.0  -0.0267
  C  C79  1  0.020970  0.521130  0.577330  1.0  -0.081
  C  C80  1  0.014670  0.605230  0.567330  1.0  0.672
  C  C81  1  0.671530  0.884670  0.859570  1.0  0.0084
  C  C82  1  0.648430  0.862670  0.775070  1.0  -0.0271
  C  C83  1  0.687630  0.854470  0.910670  1.0  -0.081
  C  C84  1  0.681330  0.938570  0.900670  1.0  0.6719
  C  C85  1  0.782000  0.120200  0.192900  1.0  0.008
  C  C86  1  0.804000  0.119100  0.108400  1.0  -0.0259
  C  C87  1  0.812200  0.166500  0.244000  1.0  -0.0827
  C  C88  1  0.728100  0.076100  0.234000  1.0  0.6716
  C  C89  1  0.448670  0.453530  0.526230  1.0  0.0079
  C  C90  1  0.470670  0.452430  0.441730  1.0  -0.0255
  C  C91  1  0.478870  0.499830  0.577330  1.0  -0.0825
  C  C92  1  0.394770  0.409430  0.567330  1.0  0.6717
  C  C93  1  0.115330  0.786870  0.859570  1.0  0.0079
  C  C94  1  0.137330  0.785770  0.775070  1.0  -0.0259
  C  C95  1  0.145530  0.833170  0.910670  1.0  -0.0827
  C  C96  1  0.061430  0.742770  0.900670  1.0  0.6716
  C  C97  1  0.879800  0.661800  0.192900  1.0  0.0096
  C  C98  1  0.880900  0.684900  0.108400  1.0  -0.0252
  C  C99  1  0.833500  0.645700  0.244000  1.0  -0.0815
  C  C100  1  0.923900  0.652000  0.234000  1.0  0.6751
  C  C101  1  0.546470  0.995130  0.526230  1.0  0.0098
  C  C102  1  0.547570  0.018230  0.441730  1.0  -0.0255
  C  C103  1  0.500170  0.979030  0.577330  1.0  -0.0815
  C  C104  1  0.590570  0.985330  0.567330  1.0  0.6751
  C  C105  1  0.213130  0.328470  0.859570  1.0  0.0096
  C  C106  1  0.214230  0.351570  0.775070  1.0  -0.0252
  C  C107  1  0.166830  0.312370  0.910670  1.0  -0.0815
  C  C108  1  0.257230  0.318670  0.900670  1.0  0.6751
  C  C109  1  0.218000  0.338200  0.307100  1.0  0.0096
  C  C110  1  0.196000  0.315100  0.391600  1.0  -0.0253
  C  C111  1  0.187800  0.354300  0.256000  1.0  -0.0811
  C  C112  1  0.271900  0.348000  0.266000  1.0  0.6743
  C  C113  1  0.884670  0.671530  0.640430  1.0  0.0096
  C  C114  1  0.862670  0.648430  0.724930  1.0  -0.0253
  C  C115  1  0.854470  0.687630  0.589330  1.0  -0.0811
  C  C116  1  0.938570  0.681330  0.599330  1.0  0.6743
  C  C117  1  0.551330  0.004870  0.973770  1.0  0.0096
  C  C118  1  0.529330  0.981770  0.058270  1.0  -0.025
  C  C119  1  0.521130  0.020970  0.922670  1.0  -0.081
  C  C120  1  0.605230  0.014670  0.932670  1.0  0.6744
  C  C121  1  0.120200  0.782000  0.307100  1.0  0.0084
  C  C122  1  0.119100  0.804000  0.391600  1.0  -0.0266
  C  C123  1  0.166500  0.812200  0.256000  1.0  -0.0802
  C  C124  1  0.076100  0.728100  0.266000  1.0  0.6711
  C  C125  1  0.786870  0.115330  0.640430  1.0  0.0083
  C  C126  1  0.785770  0.137330  0.724930  1.0  -0.0266
  C  C127  1  0.833170  0.145530  0.589330  1.0  -0.0803
  C  C128  1  0.742770  0.061430  0.599330  1.0  0.671
  C  C129  1  0.453530  0.448670  0.973770  1.0  0.0082
  C  C130  1  0.452430  0.470670  0.058270  1.0  -0.0262
  C  C131  1  0.499830  0.478870  0.922670  1.0  -0.0802
  C  C132  1  0.409430  0.394770  0.932670  1.0  0.6711
  C  C133  1  0.661800  0.879800  0.307100  1.0  0.0082
  C  C134  1  0.684900  0.880900  0.391600  1.0  -0.0236
  C  C135  1  0.645700  0.833500  0.256000  1.0  -0.0816
  C  C136  1  0.652000  0.923900  0.266000  1.0  0.6719
  C  C137  1  0.328470  0.213130  0.640430  1.0  0.0082
  C  C138  1  0.351570  0.214230  0.724930  1.0  -0.0236
  C  C139  1  0.312370  0.166830  0.589330  1.0  -0.0816
  C  C140  1  0.318670  0.257230  0.599330  1.0  0.6719
  C  C141  1  0.995130  0.546470  0.973770  1.0  0.0084
  C  C142  1  0.018230  0.547570  0.058270  1.0  -0.024
  C  C143  1  0.979030  0.500170  0.922670  1.0  -0.0817
  C  C144  1  0.985330  0.590570  0.932670  1.0  0.6719
  C  C145  1  0.661800  0.782000  0.807100  1.0  0.0075
  C  C146  1  0.684900  0.804000  0.891600  1.0  -0.0245
  C  C147  1  0.645700  0.812200  0.756000  1.0  -0.0806
  C  C148  1  0.652000  0.728100  0.766000  1.0  0.6726
  C  C149  1  0.328470  0.115330  0.140430  1.0  0.0075
  C  C150  1  0.351570  0.137330  0.224930  1.0  -0.0245
  C  C151  1  0.312370  0.145530  0.089330  1.0  -0.0806
  C  C152  1  0.318670  0.061430  0.099330  1.0  0.6726
  C  C153  1  0.995130  0.448670  0.473770  1.0  0.0074
  C  C154  1  0.018230  0.470670  0.558270  1.0  -0.0241
  C  C155  1  0.979030  0.478870  0.422670  1.0  -0.0806
  C  C156  1  0.985330  0.394770  0.432670  1.0  0.6727
  C  C157  1  0.218000  0.879800  0.807100  1.0  0.0068
  C  C158  1  0.196000  0.880900  0.891600  1.0  -0.0256
  C  C159  1  0.187800  0.833500  0.756000  1.0  -0.082
  C  C160  1  0.271900  0.923900  0.766000  1.0  0.6723
  C  C161  1  0.884670  0.213130  0.140430  1.0  0.0066
  C  C162  1  0.862670  0.214230  0.224930  1.0  -0.0256
  C  C163  1  0.854470  0.166830  0.089330  1.0  -0.082
  C  C164  1  0.938570  0.257230  0.099330  1.0  0.6723
  C  C165  1  0.551330  0.546470  0.473770  1.0  0.0066
  C  C166  1  0.529330  0.547570  0.558270  1.0  -0.025
  C  C167  1  0.521130  0.500170  0.422670  1.0  -0.0819
  C  C168  1  0.605230  0.590570  0.432670  1.0  0.6724
  C  C169  1  0.120200  0.338200  0.807100  1.0  0.0069
  C  C170  1  0.119100  0.315100  0.891600  1.0  -0.0246
  C  C171  1  0.166500  0.354300  0.756000  1.0  -0.0805
  C  C172  1  0.076100  0.348000  0.766000  1.0  0.6737
  C  C173  1  0.786870  0.671530  0.140430  1.0  0.0069
  C  C174  1  0.785770  0.648430  0.224930  1.0  -0.0246
  C  C175  1  0.833170  0.687630  0.089330  1.0  -0.0805
  C  C176  1  0.742770  0.681330  0.099330  1.0  0.6737
  C  C177  1  0.453530  0.004870  0.473770  1.0  0.0071
  C  C178  1  0.452430  0.981770  0.558270  1.0  -0.0249
  C  C179  1  0.499830  0.020970  0.422670  1.0  -0.0806
  C  C180  1  0.409430  0.014670  0.432670  1.0  0.6737
  C  C181  1  0.782000  0.661800  0.692900  1.0  0.007
  C  C182  1  0.804000  0.684900  0.608400  1.0  -0.0246
  C  C183  1  0.812200  0.645700  0.744000  1.0  -0.0807
  C  C184  1  0.728100  0.652000  0.734000  1.0  0.6742
  C  C185  1  0.448670  0.995130  0.026230  1.0  0.0069
  C  C186  1  0.470670  0.018230  0.941730  1.0  -0.0243
  C  C187  1  0.478870  0.979030  0.077330  1.0  -0.0807
  C  C188  1  0.394770  0.985330  0.067330  1.0  0.6743
  C  C189  1  0.115330  0.328470  0.359570  1.0  0.007
  C  C190  1  0.137330  0.351570  0.275070  1.0  -0.0246
  C  C191  1  0.145530  0.312370  0.410670  1.0  -0.0807
  C  C192  1  0.061430  0.318670  0.400670  1.0  0.6742
  C  C193  1  0.879800  0.218000  0.692900  1.0  0.0078
  C  C194  1  0.880900  0.196000  0.608400  1.0  -0.0257
  C  C195  1  0.833500  0.187800  0.744000  1.0  -0.0819
  C  C196  1  0.923900  0.271900  0.734000  1.0  0.6733
  C  C197  1  0.546470  0.551330  0.026230  1.0  0.0076
  C  C198  1  0.547570  0.529330  0.941730  1.0  -0.0253
  C  C199  1  0.500170  0.521130  0.077330  1.0  -0.0818
  C  C200  1  0.590570  0.605230  0.067330  1.0  0.6734
  C  C201  1  0.213130  0.884670  0.359570  1.0  0.0077
  C  C202  1  0.214230  0.862670  0.275070  1.0  -0.0256
  C  C203  1  0.166830  0.854470  0.410670  1.0  -0.0818
  C  C204  1  0.257230  0.938570  0.400670  1.0  0.6733
  C  C205  1  0.338200  0.120200  0.692900  1.0  0.0064
  C  C206  1  0.315100  0.119100  0.608400  1.0  -0.0271
  C  C207  1  0.354300  0.166500  0.744000  1.0  -0.0822
  C  C208  1  0.348000  0.076100  0.734000  1.0  0.6721
  C  C209  1  0.004870  0.453530  0.026230  1.0  0.0065
  C  C210  1  0.981770  0.452430  0.941730  1.0  -0.0274
  C  C211  1  0.020970  0.499830  0.077330  1.0  -0.0822
  C  C212  1  0.014670  0.409430  0.067330  1.0  0.6721
  C  C213  1  0.671530  0.786870  0.359570  1.0  0.0064
  C  C214  1  0.648430  0.785770  0.275070  1.0  -0.0271
  C  C215  1  0.687630  0.833170  0.410670  1.0  -0.0822
  C  C216  1  0.681330  0.742770  0.400670  1.0  0.6721
  S  S217  1  0.280100  0.227000  0.050000  1.0  -0.3633
  S  S218  1  0.946770  0.560330  0.383330  1.0  -0.3667
  S  S219  1  0.613430  0.893670  0.716670  1.0  -0.3674
  S  S220  1  0.773000  0.053100  0.050000  1.0  -0.3666
  S  S221  1  0.439670  0.386430  0.383330  1.0  -0.3719
  S  S222  1  0.106330  0.719770  0.716670  1.0  -0.3659
  S  S223  1  0.946900  0.719900  0.050000  1.0  -0.3677
  S  S224  1  0.613570  0.053230  0.383330  1.0  -0.3699
  S  S225  1  0.280230  0.386570  0.716670  1.0  -0.3716
  S  S226  1  0.227000  0.280100  0.450000  1.0  -0.3648
  S  S227  1  0.893670  0.613430  0.783330  1.0  -0.369
  S  S228  1  0.560330  0.946770  0.116670  1.0  -0.3679
  S  S229  1  0.053100  0.773000  0.450000  1.0  -0.3651
  S  S230  1  0.719770  0.106330  0.783330  1.0  -0.3647
  S  S231  1  0.386430  0.439670  0.116670  1.0  -0.3701
  S  S232  1  0.719900  0.946900  0.450000  1.0  -0.3656
  S  S233  1  0.386570  0.280230  0.783330  1.0  -0.3707
  S  S234  1  0.053230  0.613570  0.116670  1.0  -0.3676
  S  S235  1  0.719900  0.773000  0.950000  1.0  -0.366
  S  S236  1  0.386570  0.106330  0.283330  1.0  -0.37
  S  S237  1  0.053230  0.439670  0.616670  1.0  -0.3682
  S  S238  1  0.227000  0.946900  0.950000  1.0  -0.3685
  S  S239  1  0.893670  0.280230  0.283330  1.0  -0.3674
  S  S240  1  0.560330  0.613570  0.616670  1.0  -0.3727
  S  S241  1  0.053100  0.280100  0.950000  1.0  -0.3683
  S  S242  1  0.719770  0.613430  0.283330  1.0  -0.3719
  S  S243  1  0.386430  0.946770  0.616670  1.0  -0.3701
  S  S244  1  0.773000  0.719900  0.550000  1.0  -0.3665
  S  S245  1  0.439670  0.053230  0.883330  1.0  -0.368
  S  S246  1  0.106330  0.386570  0.216670  1.0  -0.3703
  S  S247  1  0.946900  0.227000  0.550000  1.0  -0.3697
  S  S248  1  0.613570  0.560330  0.883330  1.0  -0.3727
  S  S249  1  0.280230  0.893670  0.216670  1.0  -0.3685
  S  S250  1  0.280100  0.053100  0.550000  1.0  -0.3689
  S  S251  1  0.946770  0.386430  0.883330  1.0  -0.371
  S  S252  1  0.613430  0.719770  0.216670  1.0  -0.3738
  O  O253  1  0.379900  0.319300  0.194300  1.0  -0.6541
  O  O254  1  0.336000  0.266100  0.316000  1.0  -0.6477
  O  O255  1  0.046570  0.652630  0.527630  1.0  -0.6542
  O  O256  1  0.002670  0.599430  0.649330  1.0  -0.6477
  O  O257  1  0.713230  0.985970  0.860970  1.0  -0.654
  O  O258  1  0.669330  0.932770  0.982670  1.0  -0.6477
  O  O259  1  0.680700  0.060600  0.194300  1.0  -0.6513
  O  O260  1  0.733900  0.069900  0.316000  1.0  -0.6473
  O  O261  1  0.347370  0.393930  0.527630  1.0  -0.6513
  O  O262  1  0.400570  0.403230  0.649330  1.0  -0.6473
  O  O263  1  0.014030  0.727270  0.860970  1.0  -0.6513
  O  O264  1  0.067230  0.736570  0.982670  1.0  -0.6496
  O  O265  1  0.939400  0.620100  0.194300  1.0  -0.653
  O  O266  1  0.930100  0.664000  0.316000  1.0  -0.6494
  O  O267  1  0.606070  0.953430  0.527630  1.0  -0.6532
  O  O268  1  0.596770  0.997330  0.649330  1.0  -0.6518
  O  O269  1  0.272730  0.286770  0.860970  1.0  -0.6533
  O  O270  1  0.263430  0.330670  0.982670  1.0  -0.6494
  O  O271  1  0.319300  0.379900  0.305700  1.0  -0.6553
  O  O272  1  0.266100  0.336000  0.184000  1.0  -0.648
  O  O273  1  0.985970  0.713230  0.639030  1.0  -0.6552
  O  O274  1  0.932770  0.669330  0.517330  1.0  -0.648
  O  O275  1  0.652630  0.046570  0.972370  1.0  -0.6551
  O  O276  1  0.599430  0.002670  0.850670  1.0  -0.648
  O  O277  1  0.060600  0.680700  0.305700  1.0  -0.6538
  O  O278  1  0.069900  0.733900  0.184000  1.0  -0.647
  O  O279  1  0.727270  0.014030  0.639030  1.0  -0.6539
  O  O280  1  0.736570  0.067230  0.517330  1.0  -0.6494
  O  O281  1  0.393930  0.347370  0.972370  1.0  -0.6538
  O  O282  1  0.403230  0.400570  0.850670  1.0  -0.647
  O  O283  1  0.620100  0.939400  0.305700  1.0  -0.6511
  O  O284  1  0.664000  0.930100  0.184000  1.0  -0.6458
  O  O285  1  0.286770  0.272730  0.639030  1.0  -0.6513
  O  O286  1  0.330670  0.263430  0.517330  1.0  -0.6458
  O  O287  1  0.953430  0.606070  0.972370  1.0  -0.6512
  O  O288  1  0.997330  0.596770  0.850670  1.0  -0.6481
  O  O289  1  0.620100  0.680700  0.805700  1.0  -0.654
  O  O290  1  0.664000  0.733900  0.684000  1.0  -0.6469
  O  O291  1  0.286770  0.014030  0.139030  1.0  -0.6539
  O  O292  1  0.330670  0.067230  0.017330  1.0  -0.6469
  O  O293  1  0.953430  0.347370  0.472370  1.0  -0.6539
  O  O294  1  0.997330  0.400570  0.350670  1.0  -0.6469
  O  O295  1  0.319300  0.939400  0.805700  1.0  -0.6511
  O  O296  1  0.266100  0.930100  0.684000  1.0  -0.6449
  O  O297  1  0.985970  0.272730  0.139030  1.0  -0.651
  O  O298  1  0.932770  0.263430  0.017330  1.0  -0.6473
  O  O299  1  0.652630  0.606070  0.472370  1.0  -0.651
  O  O300  1  0.599430  0.596770  0.350670  1.0  -0.6449
  O  O301  1  0.060600  0.379900  0.805700  1.0  -0.6552
  O  O302  1  0.069900  0.336000  0.684000  1.0  -0.6482
  O  O303  1  0.727270  0.713230  0.139030  1.0  -0.6554
  O  O304  1  0.736570  0.669330  0.017330  1.0  -0.6482
  O  O305  1  0.393930  0.046570  0.472370  1.0  -0.6553
  O  O306  1  0.403230  0.002670  0.350670  1.0  -0.6505
  O  O307  1  0.680700  0.620100  0.694300  1.0  -0.6528
  O  O308  1  0.733900  0.664000  0.816000  1.0  -0.6495
  O  O309  1  0.347370  0.953430  0.027630  1.0  -0.6526
  O  O310  1  0.400570  0.997330  0.149330  1.0  -0.6495
  O  O311  1  0.014030  0.286770  0.360970  1.0  -0.6527
  O  O312  1  0.067230  0.330670  0.482670  1.0  -0.6495
  O  O313  1  0.939400  0.319300  0.694300  1.0  -0.6543
  O  O314  1  0.930100  0.266100  0.816000  1.0  -0.6475
  O  O315  1  0.606070  0.652630  0.027630  1.0  -0.6543
  O  O316  1  0.596770  0.599430  0.149330  1.0  -0.6475
  O  O317  1  0.272730  0.985970  0.360970  1.0  -0.6545
  O  O318  1  0.263430  0.932770  0.482670  1.0  -0.6498
  O  O319  1  0.379900  0.060600  0.694300  1.0  -0.6502
  O  O320  1  0.336000  0.069900  0.816000  1.0  -0.647
  O  O321  1  0.046570  0.393930  0.027630  1.0  -0.6504
  O  O322  1  0.002670  0.403230  0.149330  1.0  -0.6493
  O  O323  1  0.713230  0.727270  0.360970  1.0  -0.6505
  O  O324  1  0.669330  0.736570  0.482670  1.0  -0.647
