# generated using pymatgen
data_MnHC4SO2
_symmetry_space_group_name_H-M   'P 1'
_cell_length_a   27.31600000
_cell_length_b   27.31600000
_cell_length_c   15.08910000
_cell_angle_alpha   90.00000000
_cell_angle_beta   90.00000000
_cell_angle_gamma   120.00000000
_symmetry_Int_Tables_number   1
_chemical_formula_structural   MnHC4SO2
_chemical_formula_sum   'Mn36 H36 C144 S36 O72'
_cell_volume   9750.52895998
_cell_formula_units_Z   36
loop_
 _symmetry_equiv_pos_site_id
 _symmetry_equiv_pos_as_xyz
  1  'x, y, z'
loop_
 _atom_site_type_symbol
 _atom_site_label
 _atom_site_symmetry_multiplicity
 _atom_site_fract_x
 _atom_site_fract_y
 _atom_site_fract_z
 _atom_site_occupancy
 _atom_site_charge
  Mn  Mn1  1  0.312540  0.333333  0.083330  1.0  0.9501
  Mn  Mn2  1  0.666667  0.979200  0.083330  1.0  0.9524
  Mn  Mn3  1  0.333333  0.312540  0.416670  1.0  0.9518
  Mn  Mn4  1  0.020800  0.687460  0.083330  1.0  0.9518
  Mn  Mn5  1  0.354130  0.354130  0.750000  1.0  0.9524
  Mn  Mn6  1  0.000000  0.645870  0.750000  1.0  0.9518
  Mn  Mn7  1  0.979200  0.666667  0.416670  1.0  0.9504
  Mn  Mn8  1  0.645870  0.000000  0.750000  1.0  0.9499
  Mn  Mn9  1  0.687460  0.020800  0.416670  1.0  0.9518
  Mn  Mn10  1  0.687460  0.666667  0.916670  1.0  0.9488
  Mn  Mn11  1  0.354130  0.000000  0.250000  1.0  0.9489
  Mn  Mn12  1  0.020800  0.333333  0.583330  1.0  0.9495
  Mn  Mn13  1  0.333333  0.020800  0.916670  1.0  0.9524
  Mn  Mn14  1  0.000000  0.354130  0.250000  1.0  0.9518
  Mn  Mn15  1  0.979200  0.312540  0.916670  1.0  0.952
  Mn  Mn16  1  0.645870  0.645870  0.250000  1.0  0.9525
  Mn  Mn17  1  0.666667  0.687460  0.583330  1.0  0.9518
  Mn  Mn18  1  0.312540  0.979200  0.583330  1.0  0.952
  Mn  Mn19  1  0.402650  0.402650  0.250000  1.0  1.0167
  Mn  Mn20  1  0.069320  0.735980  0.583330  1.0  1.0167
  Mn  Mn21  1  0.735980  0.069320  0.916670  1.0  1.0167
  Mn  Mn22  1  0.597350  0.000000  0.250000  1.0  1.0209
  Mn  Mn23  1  0.264020  0.333333  0.583330  1.0  1.0209
  Mn  Mn24  1  0.930680  0.666667  0.916670  1.0  1.0209
  Mn  Mn25  1  0.000000  0.597350  0.250000  1.0  1.0216
  Mn  Mn26  1  0.666667  0.930680  0.583330  1.0  1.0217
  Mn  Mn27  1  0.333333  0.264020  0.916670  1.0  1.0214
  Mn  Mn28  1  0.597350  0.597350  0.750000  1.0  1.0231
  Mn  Mn29  1  0.264020  0.930680  0.083330  1.0  1.023
  Mn  Mn30  1  0.930680  0.264020  0.416670  1.0  1.0231
  Mn  Mn31  1  0.402650  0.000000  0.750000  1.0  1.0198
  Mn  Mn32  1  0.069320  0.333333  0.083330  1.0  1.02
  Mn  Mn33  1  0.735980  0.666667  0.416670  1.0  1.0198
  Mn  Mn34  1  0.000000  0.402650  0.750000  1.0  1.018
  Mn  Mn35  1  0.666667  0.735980  0.083330  1.0  1.018
  Mn  Mn36  1  0.333333  0.069320  0.416670  1.0  1.018
  H  H37  1  0.373210  0.203060  0.308510  1.0  0.145
  H  H38  1  0.039880  0.536390  0.641840  1.0  0.145
  H  H39  1  0.706540  0.869730  0.975180  1.0  0.1441
  H  H40  1  0.796940  0.170150  0.308510  1.0  0.1448
  H  H41  1  0.463610  0.503480  0.641840  1.0  0.1448
  H  H42  1  0.130270  0.836820  0.975180  1.0  0.1386
  H  H43  1  0.829850  0.626790  0.308510  1.0  0.1448
  H  H44  1  0.496520  0.960120  0.641840  1.0  0.1448
  H  H45  1  0.163180  0.293460  0.975180  1.0  0.1443
  H  H46  1  0.203060  0.373210  0.191490  1.0  0.145
  H  H47  1  0.869730  0.706540  0.524820  1.0  0.1441
  H  H48  1  0.536390  0.039880  0.858160  1.0  0.145
  H  H49  1  0.170150  0.796940  0.191490  1.0  0.1444
  H  H50  1  0.836820  0.130270  0.524820  1.0  0.1382
  H  H51  1  0.503480  0.463610  0.858160  1.0  0.1444
  H  H52  1  0.626790  0.829850  0.191490  1.0  0.1445
  H  H53  1  0.293460  0.163180  0.524820  1.0  0.1438
  H  H54  1  0.960120  0.496520  0.858160  1.0  0.1445
  H  H55  1  0.626790  0.796940  0.691490  1.0  0.1447
  H  H56  1  0.293460  0.130270  0.024820  1.0  0.1441
  H  H57  1  0.960120  0.463610  0.358160  1.0  0.1447
  H  H58  1  0.203060  0.829850  0.691490  1.0  0.145
  H  H59  1  0.869730  0.163180  0.024820  1.0  0.1386
  H  H60  1  0.536390  0.496520  0.358160  1.0  0.145
  H  H61  1  0.170150  0.373210  0.691490  1.0  0.1446
  H  H62  1  0.836820  0.706540  0.024820  1.0  0.1439
  H  H63  1  0.503480  0.039880  0.358160  1.0  0.1446
  H  H64  1  0.796940  0.626790  0.808510  1.0  0.146
  H  H65  1  0.463610  0.960120  0.141840  1.0  0.146
  H  H66  1  0.130270  0.293460  0.475180  1.0  0.1453
  H  H67  1  0.829850  0.203060  0.808510  1.0  0.1445
  H  H68  1  0.496520  0.536390  0.141840  1.0  0.1445
  H  H69  1  0.163180  0.869730  0.475180  1.0  0.1384
  H  H70  1  0.373210  0.170150  0.808510  1.0  0.1447
  H  H71  1  0.039880  0.503480  0.141840  1.0  0.1447
  H  H72  1  0.706540  0.836820  0.475180  1.0  0.1443
  C  C73  1  0.339530  0.218110  0.197450  1.0  0.1448
  C  C74  1  0.316390  0.197150  0.113830  1.0  -0.0385
  C  C75  1  0.357800  0.187610  0.245140  1.0  -0.0376
  C  C76  1  0.344350  0.268150  0.234670  1.0  0.3839
  C  C77  1  0.006200  0.551440  0.530780  1.0  0.145
  C  C78  1  0.983060  0.530480  0.447160  1.0  -0.0381
  C  C79  1  0.024470  0.520940  0.578470  1.0  -0.0377
  C  C80  1  0.011020  0.601480  0.568000  1.0  0.3839
  C  C81  1  0.672860  0.884780  0.864120  1.0  0.1448
  C  C82  1  0.649720  0.863820  0.780500  1.0  -0.0385
  C  C83  1  0.691130  0.854280  0.911810  1.0  -0.0396
  C  C84  1  0.677680  0.934820  0.901340  1.0  0.3839
  C  C85  1  0.781890  0.121420  0.197450  1.0  0.1452
  C  C86  1  0.802850  0.119240  0.113830  1.0  -0.0392
  C  C87  1  0.812390  0.170190  0.245140  1.0  -0.0448
  C  C88  1  0.731850  0.076200  0.234670  1.0  0.3847
  C  C89  1  0.448560  0.454750  0.530780  1.0  0.1449
  C  C90  1  0.469520  0.452570  0.447160  1.0  -0.0371
  C  C91  1  0.479060  0.503520  0.578470  1.0  -0.0449
  C  C92  1  0.398520  0.409530  0.568000  1.0  0.3847
  C  C93  1  0.115220  0.788090  0.864120  1.0  0.1449
  C  C94  1  0.136180  0.785910  0.780500  1.0  -0.0392
  C  C95  1  0.145720  0.836860  0.911810  1.0  -0.0793
  C  C96  1  0.065180  0.742870  0.901340  1.0  0.3847
  C  C97  1  0.878580  0.660470  0.197450  1.0  0.1477
  C  C98  1  0.880760  0.683610  0.113830  1.0  -0.0381
  C  C99  1  0.829810  0.642200  0.245140  1.0  -0.0387
  C  C100  1  0.923800  0.655650  0.234670  1.0  0.3839
  C  C101  1  0.545250  0.993800  0.530780  1.0  0.148
  C  C102  1  0.547430  0.016940  0.447160  1.0  -0.0382
  C  C103  1  0.496480  0.975530  0.578470  1.0  -0.0389
  C  C104  1  0.590470  0.988980  0.568000  1.0  0.3839
  C  C105  1  0.211910  0.327140  0.864120  1.0  0.1477
  C  C106  1  0.214090  0.350280  0.780500  1.0  -0.038
  C  C107  1  0.163140  0.308870  0.911810  1.0  -0.0411
  C  C108  1  0.257130  0.322320  0.901340  1.0  0.3839
  C  C109  1  0.218110  0.339530  0.302550  1.0  0.148
  C  C110  1  0.197150  0.316390  0.386170  1.0  -0.0373
  C  C111  1  0.187610  0.357800  0.254860  1.0  -0.0397
  C  C112  1  0.268150  0.344350  0.265330  1.0  0.3838
  C  C113  1  0.884780  0.672860  0.635880  1.0  0.1479
  C  C114  1  0.863820  0.649720  0.719500  1.0  -0.0373
  C  C115  1  0.854280  0.691130  0.588190  1.0  -0.0417
  C  C116  1  0.934820  0.677680  0.598660  1.0  0.3838
  C  C117  1  0.551440  0.006200  0.969220  1.0  0.1482
  C  C118  1  0.530480  0.983060  0.052840  1.0  -0.0375
  C  C119  1  0.520940  0.024470  0.921530  1.0  -0.0399
  C  C120  1  0.601480  0.011020  0.932000  1.0  0.3838
  C  C121  1  0.121420  0.781890  0.302550  1.0  0.1451
  C  C122  1  0.119240  0.802850  0.386170  1.0  -0.0396
  C  C123  1  0.170190  0.812390  0.254860  1.0  -0.041
  C  C124  1  0.076200  0.731850  0.265330  1.0  0.3836
  C  C125  1  0.788090  0.115220  0.635880  1.0  0.1448
  C  C126  1  0.785910  0.136180  0.719500  1.0  -0.0396
  C  C127  1  0.836860  0.145720  0.588190  1.0  -0.076
  C  C128  1  0.742870  0.065180  0.598660  1.0  0.3836
  C  C129  1  0.454750  0.448560  0.969220  1.0  0.1448
  C  C130  1  0.452570  0.469520  0.052840  1.0  -0.0377
  C  C131  1  0.503520  0.479060  0.921530  1.0  -0.041
  C  C132  1  0.409530  0.398520  0.932000  1.0  0.3836
  C  C133  1  0.660470  0.878580  0.302550  1.0  0.1452
  C  C134  1  0.683610  0.880760  0.386170  1.0  -0.0383
  C  C135  1  0.642200  0.829810  0.254860  1.0  -0.0413
  C  C136  1  0.655650  0.923800  0.265330  1.0  0.3853
  C  C137  1  0.327140  0.211910  0.635880  1.0  0.1452
  C  C138  1  0.350280  0.214090  0.719500  1.0  -0.0381
  C  C139  1  0.308870  0.163140  0.588190  1.0  -0.0432
  C  C140  1  0.322320  0.257130  0.598660  1.0  0.3853
  C  C141  1  0.993800  0.545250  0.969220  1.0  0.1455
  C  C142  1  0.016940  0.547430  0.052840  1.0  -0.0389
  C  C143  1  0.975530  0.496480  0.921530  1.0  -0.0414
  C  C144  1  0.988980  0.590470  0.932000  1.0  0.3853
  C  C145  1  0.660470  0.781890  0.802550  1.0  0.1451
  C  C146  1  0.683610  0.802850  0.886170  1.0  -0.0367
  C  C147  1  0.642200  0.812390  0.754860  1.0  -0.038
  C  C148  1  0.655650  0.731850  0.765330  1.0  0.3837
  C  C149  1  0.327140  0.115220  0.135880  1.0  0.1451
  C  C150  1  0.350280  0.136180  0.219500  1.0  -0.0367
  C  C151  1  0.308870  0.145720  0.088190  1.0  -0.0404
  C  C152  1  0.322320  0.065180  0.098660  1.0  0.3837
  C  C153  1  0.993800  0.448560  0.469220  1.0  0.1452
  C  C154  1  0.016940  0.469520  0.552840  1.0  -0.0361
  C  C155  1  0.975530  0.479060  0.421530  1.0  -0.038
  C  C156  1  0.988980  0.398520  0.432000  1.0  0.3837
  C  C157  1  0.218110  0.878580  0.802550  1.0  0.1454
  C  C158  1  0.197150  0.880760  0.886170  1.0  -0.0379
  C  C159  1  0.187610  0.829810  0.754860  1.0  -0.0438
  C  C160  1  0.268150  0.923800  0.765330  1.0  0.3849
  C  C161  1  0.884780  0.211910  0.135880  1.0  0.1451
  C  C162  1  0.863820  0.214090  0.219500  1.0  -0.0379
  C  C163  1  0.854280  0.163140  0.088190  1.0  -0.0787
  C  C164  1  0.934820  0.257130  0.098660  1.0  0.3849
  C  C165  1  0.551440  0.545250  0.469220  1.0  0.1451
  C  C166  1  0.530480  0.547430  0.552840  1.0  -0.0361
  C  C167  1  0.520940  0.496480  0.421530  1.0  -0.0439
  C  C168  1  0.601480  0.590470  0.432000  1.0  0.3849
  C  C169  1  0.121420  0.339530  0.802550  1.0  0.1466
  C  C170  1  0.119240  0.316390  0.886170  1.0  -0.0356
  C  C171  1  0.170190  0.357800  0.754860  1.0  -0.0396
  C  C172  1  0.076200  0.344350  0.765330  1.0  0.3839
  C  C173  1  0.788090  0.672860  0.135880  1.0  0.1466
  C  C174  1  0.785910  0.649720  0.219500  1.0  -0.0354
  C  C175  1  0.836860  0.691130  0.088190  1.0  -0.0422
  C  C176  1  0.742870  0.677680  0.098660  1.0  0.3839
  C  C177  1  0.454750  0.006200  0.469220  1.0  0.147
  C  C178  1  0.452570  0.983060  0.552840  1.0  -0.0363
  C  C179  1  0.503520  0.024470  0.421530  1.0  -0.0398
  C  C180  1  0.409530  0.011020  0.432000  1.0  0.3839
  C  C181  1  0.781890  0.660470  0.697450  1.0  0.1463
  C  C182  1  0.802850  0.683610  0.613830  1.0  -0.0367
  C  C183  1  0.812390  0.642200  0.745140  1.0  -0.0394
  C  C184  1  0.731850  0.655650  0.734670  1.0  0.3841
  C  C185  1  0.448560  0.993800  0.030780  1.0  0.1465
  C  C186  1  0.469520  0.016940  0.947160  1.0  -0.0363
  C  C187  1  0.479060  0.975530  0.078470  1.0  -0.0394
  C  C188  1  0.398520  0.988980  0.068000  1.0  0.384
  C  C189  1  0.115220  0.327140  0.364120  1.0  0.1462
  C  C190  1  0.136180  0.350280  0.280500  1.0  -0.0367
  C  C191  1  0.145720  0.308870  0.411810  1.0  -0.0407
  C  C192  1  0.065180  0.322320  0.401340  1.0  0.3841
  C  C193  1  0.878580  0.218110  0.697450  1.0  0.1452
  C  C194  1  0.880760  0.197150  0.613830  1.0  -0.0366
  C  C195  1  0.829810  0.187610  0.745140  1.0  -0.0432
  C  C196  1  0.923800  0.268150  0.734670  1.0  0.3839
  C  C197  1  0.545250  0.551440  0.030780  1.0  0.1449
  C  C198  1  0.547430  0.530480  0.947160  1.0  -0.0348
  C  C199  1  0.496480  0.520940  0.078470  1.0  -0.0433
  C  C200  1  0.590470  0.601480  0.068000  1.0  0.3839
  C  C201  1  0.211910  0.884780  0.364120  1.0  0.1449
  C  C202  1  0.214090  0.863820  0.280500  1.0  -0.0366
  C  C203  1  0.163140  0.854280  0.411810  1.0  -0.0776
  C  C204  1  0.257130  0.934820  0.401340  1.0  0.3839
  C  C205  1  0.339530  0.121420  0.697450  1.0  0.1449
  C  C206  1  0.316390  0.119240  0.613830  1.0  -0.0346
  C  C207  1  0.357800  0.170190  0.745140  1.0  -0.0401
  C  C208  1  0.344350  0.076200  0.734670  1.0  0.3846
  C  C209  1  0.006200  0.454750  0.030780  1.0  0.1452
  C  C210  1  0.983060  0.452570  0.947160  1.0  -0.0355
  C  C211  1  0.024470  0.503520  0.078470  1.0  -0.0402
  C  C212  1  0.011020  0.409530  0.068000  1.0  0.3846
  C  C213  1  0.672860  0.788090  0.364120  1.0  0.1449
  C  C214  1  0.649720  0.785910  0.280500  1.0  -0.0343
  C  C215  1  0.691130  0.836860  0.411810  1.0  -0.043
  C  C216  1  0.677680  0.742870  0.401340  1.0  0.3846
  S  S217  1  0.287770  0.229100  0.052450  1.0  -0.1497
  S  S218  1  0.954440  0.562430  0.385780  1.0  -0.1497
  S  S219  1  0.621100  0.895770  0.719120  1.0  -0.1497
  S  S220  1  0.770900  0.058670  0.052450  1.0  -0.1476
  S  S221  1  0.437570  0.392000  0.385780  1.0  -0.1509
  S  S222  1  0.104230  0.725340  0.719120  1.0  -0.151
  S  S223  1  0.941330  0.712230  0.052450  1.0  -0.1519
  S  S224  1  0.608000  0.045560  0.385780  1.0  -0.1521
  S  S225  1  0.274660  0.378900  0.719120  1.0  -0.1521
  S  S226  1  0.229100  0.287770  0.447550  1.0  -0.1526
  S  S227  1  0.895770  0.621100  0.780880  1.0  -0.1527
  S  S228  1  0.562430  0.954440  0.114220  1.0  -0.1527
  S  S229  1  0.058670  0.770900  0.447550  1.0  -0.1474
  S  S230  1  0.725340  0.104230  0.780880  1.0  -0.151
  S  S231  1  0.392000  0.437570  0.114220  1.0  -0.151
  S  S232  1  0.712230  0.941330  0.447550  1.0  -0.1519
  S  S233  1  0.378900  0.274660  0.780880  1.0  -0.152
  S  S234  1  0.045560  0.608000  0.114220  1.0  -0.152
  S  S235  1  0.712230  0.770900  0.947550  1.0  -0.1542
  S  S236  1  0.378900  0.104230  0.280880  1.0  -0.1542
  S  S237  1  0.045560  0.437570  0.614220  1.0  -0.1542
  S  S238  1  0.229100  0.941330  0.947550  1.0  -0.1525
  S  S239  1  0.895770  0.274660  0.280880  1.0  -0.1554
  S  S240  1  0.562430  0.608000  0.614220  1.0  -0.1553
  S  S241  1  0.058670  0.287770  0.947550  1.0  -0.1544
  S  S242  1  0.725340  0.621100  0.280880  1.0  -0.1549
  S  S243  1  0.392000  0.954440  0.614220  1.0  -0.1549
  S  S244  1  0.770900  0.712230  0.552450  1.0  -0.1543
  S  S245  1  0.437570  0.045560  0.885780  1.0  -0.1543
  S  S246  1  0.104230  0.378900  0.219120  1.0  -0.1543
  S  S247  1  0.941330  0.229100  0.552450  1.0  -0.1496
  S  S248  1  0.608000  0.562430  0.885780  1.0  -0.1529
  S  S249  1  0.274660  0.895770  0.219120  1.0  -0.153
  S  S250  1  0.287770  0.058670  0.552450  1.0  -0.154
  S  S251  1  0.954440  0.392000  0.885780  1.0  -0.1546
  S  S252  1  0.621100  0.725340  0.219120  1.0  -0.1546
  O  O253  1  0.371240  0.318470  0.192260  1.0  -0.6871
  O  O254  1  0.338100  0.279430  0.325240  1.0  -0.7402
  O  O255  1  0.037910  0.651800  0.525590  1.0  -0.6872
  O  O256  1  0.004770  0.612760  0.658570  1.0  -0.7402
  O  O257  1  0.704570  0.985140  0.858930  1.0  -0.6872
  O  O258  1  0.671430  0.946100  0.991910  1.0  -0.7402
  O  O259  1  0.681530  0.052770  0.192260  1.0  -0.6827
  O  O260  1  0.720570  0.058670  0.325240  1.0  -0.741
  O  O261  1  0.348200  0.386100  0.525590  1.0  -0.6827
  O  O262  1  0.387240  0.392000  0.658570  1.0  -0.741
  O  O263  1  0.014860  0.719440  0.858930  1.0  -0.6826
  O  O264  1  0.053900  0.725340  0.991910  1.0  -0.741
  O  O265  1  0.947230  0.628760  0.192260  1.0  -0.6842
  O  O266  1  0.941330  0.661900  0.325240  1.0  -0.7395
  O  O267  1  0.613900  0.962090  0.525590  1.0  -0.6841
  O  O268  1  0.608000  0.995230  0.658570  1.0  -0.7395
  O  O269  1  0.280560  0.295430  0.858930  1.0  -0.6839
  O  O270  1  0.274660  0.328570  0.991910  1.0  -0.7395
  O  O271  1  0.318470  0.371240  0.307740  1.0  -0.6855
  O  O272  1  0.279430  0.338100  0.174760  1.0  -0.7391
  O  O273  1  0.985140  0.704570  0.641070  1.0  -0.6856
  O  O274  1  0.946100  0.671430  0.508090  1.0  -0.7391
  O  O275  1  0.651800  0.037910  0.974410  1.0  -0.6856
  O  O276  1  0.612760  0.004770  0.841430  1.0  -0.7391
  O  O277  1  0.052770  0.681530  0.307740  1.0  -0.6861
  O  O278  1  0.058670  0.720570  0.174760  1.0  -0.7395
  O  O279  1  0.719440  0.014860  0.641070  1.0  -0.686
  O  O280  1  0.725340  0.053900  0.508090  1.0  -0.7395
  O  O281  1  0.386100  0.348200  0.974410  1.0  -0.686
  O  O282  1  0.392000  0.387240  0.841430  1.0  -0.7395
  O  O283  1  0.628760  0.947230  0.307740  1.0  -0.684
  O  O284  1  0.661900  0.941330  0.174760  1.0  -0.7398
  O  O285  1  0.295430  0.280560  0.641070  1.0  -0.6837
  O  O286  1  0.328570  0.274660  0.508090  1.0  -0.7398
  O  O287  1  0.962090  0.613900  0.974410  1.0  -0.6839
  O  O288  1  0.995230  0.608000  0.841430  1.0  -0.7399
  O  O289  1  0.628760  0.681530  0.807740  1.0  -0.6852
  O  O290  1  0.661900  0.720570  0.674760  1.0  -0.741
  O  O291  1  0.295430  0.014860  0.141070  1.0  -0.6853
  O  O292  1  0.328570  0.053900  0.008090  1.0  -0.741
  O  O293  1  0.962090  0.348200  0.474410  1.0  -0.6853
  O  O294  1  0.995230  0.387240  0.341430  1.0  -0.741
  O  O295  1  0.318470  0.947230  0.807740  1.0  -0.6833
  O  O296  1  0.279430  0.941330  0.674760  1.0  -0.7395
  O  O297  1  0.985140  0.280560  0.141070  1.0  -0.6832
  O  O298  1  0.946100  0.274660  0.008090  1.0  -0.7395
  O  O299  1  0.651800  0.613900  0.474410  1.0  -0.6833
  O  O300  1  0.612760  0.608000  0.341430  1.0  -0.7395
  O  O301  1  0.052770  0.371240  0.807740  1.0  -0.6876
  O  O302  1  0.058670  0.338100  0.674760  1.0  -0.7384
  O  O303  1  0.719440  0.704570  0.141070  1.0  -0.6873
  O  O304  1  0.725340  0.671430  0.008090  1.0  -0.7384
  O  O305  1  0.386100  0.037910  0.474410  1.0  -0.6874
  O  O306  1  0.392000  0.004770  0.341430  1.0  -0.7386
  O  O307  1  0.681530  0.628760  0.692260  1.0  -0.6858
  O  O308  1  0.720570  0.661900  0.825240  1.0  -0.7397
  O  O309  1  0.348200  0.962090  0.025590  1.0  -0.6859
  O  O310  1  0.387240  0.995230  0.158570  1.0  -0.7397
  O  O311  1  0.014860  0.295430  0.358930  1.0  -0.686
  O  O312  1  0.053900  0.328570  0.491910  1.0  -0.7397
  O  O313  1  0.947230  0.318470  0.692260  1.0  -0.6864
  O  O314  1  0.941330  0.279430  0.825240  1.0  -0.7409
  O  O315  1  0.613900  0.651800  0.025590  1.0  -0.6863
  O  O316  1  0.608000  0.612760  0.158570  1.0  -0.7409
  O  O317  1  0.280560  0.985140  0.358930  1.0  -0.6862
  O  O318  1  0.274660  0.946100  0.491910  1.0  -0.7409
  O  O319  1  0.371240  0.052770  0.692260  1.0  -0.6827
  O  O320  1  0.338100  0.058670  0.825240  1.0  -0.7401
  O  O321  1  0.037910  0.386100  0.025590  1.0  -0.6826
  O  O322  1  0.004770  0.392000  0.158570  1.0  -0.7401
  O  O323  1  0.704570  0.719440  0.358930  1.0  -0.6824
  O  O324  1  0.671430  0.725340  0.491910  1.0  -0.7401
