# generated using pymatgen
data_MnHC4SO2
_symmetry_space_group_name_H-M   'P 1'
_cell_length_a   27.31800000
_cell_length_b   27.31800000
_cell_length_c   15.10200000
_cell_angle_alpha   90.00000000
_cell_angle_beta   90.00000000
_cell_angle_gamma   120.00000000
_symmetry_Int_Tables_number   1
_chemical_formula_structural   MnHC4SO2
_chemical_formula_sum   'Mn36 H36 C144 S36 O72'
_cell_volume   9760.29398451
_cell_formula_units_Z   36
loop_
 _symmetry_equiv_pos_site_id
 _symmetry_equiv_pos_as_xyz
  1  'x, y, z'
loop_
 _atom_site_type_symbol
 _atom_site_label
 _atom_site_symmetry_multiplicity
 _atom_site_fract_x
 _atom_site_fract_y
 _atom_site_fract_z
 _atom_site_occupancy
 _atom_site_charge
  Mn  Mn1  1  0.312500  0.333333  0.083330  1.0  0.953
  Mn  Mn2  1  0.666667  0.979170  0.083330  1.0  0.9546
  Mn  Mn3  1  0.333333  0.312500  0.416670  1.0  0.9546
  Mn  Mn4  1  0.020830  0.687500  0.083330  1.0  0.9545
  Mn  Mn5  1  0.354170  0.354170  0.750000  1.0  0.9547
  Mn  Mn6  1  0.000000  0.645830  0.750000  1.0  0.9546
  Mn  Mn7  1  0.979170  0.666667  0.416670  1.0  0.9527
  Mn  Mn8  1  0.645830  0.000000  0.750000  1.0  0.9528
  Mn  Mn9  1  0.687500  0.020830  0.416670  1.0  0.9545
  Mn  Mn10  1  0.687500  0.666667  0.916670  1.0  0.9516
  Mn  Mn11  1  0.354170  0.000000  0.250000  1.0  0.9517
  Mn  Mn12  1  0.020830  0.333333  0.583330  1.0  0.9517
  Mn  Mn13  1  0.333333  0.020830  0.916670  1.0  0.9545
  Mn  Mn14  1  0.000000  0.354170  0.250000  1.0  0.9545
  Mn  Mn15  1  0.979170  0.312500  0.916670  1.0  0.9548
  Mn  Mn16  1  0.645830  0.645830  0.250000  1.0  0.9548
  Mn  Mn17  1  0.666667  0.687500  0.583330  1.0  0.9545
  Mn  Mn18  1  0.312500  0.979170  0.583330  1.0  0.9548
  Mn  Mn19  1  0.402700  0.402700  0.250000  1.0  1.0181
  Mn  Mn20  1  0.069370  0.736030  0.583330  1.0  1.0181
  Mn  Mn21  1  0.736030  0.069370  0.916670  1.0  1.0181
  Mn  Mn22  1  0.597300  0.000000  0.250000  1.0  1.0224
  Mn  Mn23  1  0.263970  0.333333  0.583330  1.0  1.0224
  Mn  Mn24  1  0.930630  0.666667  0.916670  1.0  1.0223
  Mn  Mn25  1  0.000000  0.597300  0.250000  1.0  1.023
  Mn  Mn26  1  0.666667  0.930630  0.583330  1.0  1.0231
  Mn  Mn27  1  0.333333  0.263970  0.916670  1.0  1.0229
  Mn  Mn28  1  0.597300  0.597300  0.750000  1.0  1.0245
  Mn  Mn29  1  0.263970  0.930630  0.083330  1.0  1.0244
  Mn  Mn30  1  0.930630  0.263970  0.416670  1.0  1.0245
  Mn  Mn31  1  0.402700  0.000000  0.750000  1.0  1.0211
  Mn  Mn32  1  0.069370  0.333333  0.083330  1.0  1.0215
  Mn  Mn33  1  0.736030  0.666667  0.416670  1.0  1.0213
  Mn  Mn34  1  0.000000  0.402700  0.750000  1.0  1.0195
  Mn  Mn35  1  0.666667  0.736030  0.083330  1.0  1.0195
  Mn  Mn36  1  0.333333  0.069370  0.416670  1.0  1.0194
  H  H37  1  0.373200  0.203100  0.308500  1.0  0.1486
  H  H38  1  0.039870  0.536430  0.641830  1.0  0.1486
  H  H39  1  0.706530  0.869770  0.975170  1.0  0.147
  H  H40  1  0.796900  0.170100  0.308500  1.0  0.1486
  H  H41  1  0.463570  0.503430  0.641830  1.0  0.1486
  H  H42  1  0.130230  0.836770  0.975170  1.0  0.1436
  H  H43  1  0.829900  0.626800  0.308500  1.0  0.1482
  H  H44  1  0.496570  0.960130  0.641830  1.0  0.1482
  H  H45  1  0.163230  0.293470  0.975170  1.0  0.1491
  H  H46  1  0.203100  0.373200  0.191500  1.0  0.1478
  H  H47  1  0.869770  0.706530  0.524830  1.0  0.147
  H  H48  1  0.536430  0.039870  0.858170  1.0  0.1478
  H  H49  1  0.170100  0.796900  0.191500  1.0  0.1479
  H  H50  1  0.836770  0.130230  0.524830  1.0  0.1435
  H  H51  1  0.503430  0.463570  0.858170  1.0  0.1479
  H  H52  1  0.626800  0.829900  0.191500  1.0  0.148
  H  H53  1  0.293470  0.163230  0.524830  1.0  0.1487
  H  H54  1  0.960130  0.496570  0.858170  1.0  0.1481
  H  H55  1  0.626800  0.796900  0.691500  1.0  0.1476
  H  H56  1  0.293470  0.130230  0.024830  1.0  0.1472
  H  H57  1  0.960130  0.463570  0.358170  1.0  0.1476
  H  H58  1  0.203100  0.829900  0.691500  1.0  0.1485
  H  H59  1  0.869770  0.163230  0.024830  1.0  0.1437
  H  H60  1  0.536430  0.496570  0.358170  1.0  0.1485
  H  H61  1  0.170100  0.373200  0.691500  1.0  0.148
  H  H62  1  0.836770  0.706530  0.024830  1.0  0.1489
  H  H63  1  0.503430  0.039870  0.358170  1.0  0.1481
  H  H64  1  0.796900  0.626800  0.808500  1.0  0.1488
  H  H65  1  0.463570  0.960130  0.141830  1.0  0.1488
  H  H66  1  0.130230  0.293470  0.475170  1.0  0.1479
  H  H67  1  0.829900  0.203100  0.808500  1.0  0.1484
  H  H68  1  0.496570  0.536430  0.141830  1.0  0.1484
  H  H69  1  0.163230  0.869770  0.475170  1.0  0.1434
  H  H70  1  0.373200  0.170100  0.808500  1.0  0.1484
  H  H71  1  0.039870  0.503430  0.141830  1.0  0.1484
  H  H72  1  0.706530  0.836770  0.475170  1.0  0.1489
  C  C73  1  0.339500  0.218100  0.197500  1.0  0.1412
  C  C74  1  0.316400  0.197200  0.113800  1.0  -0.038
  C  C75  1  0.357800  0.187600  0.245100  1.0  -0.0449
  C  C76  1  0.344300  0.268100  0.234700  1.0  0.3801
  C  C77  1  0.006170  0.551430  0.530830  1.0  0.1408
  C  C78  1  0.983070  0.530530  0.447130  1.0  -0.0387
  C  C79  1  0.024470  0.520930  0.578430  1.0  -0.0455
  C  C80  1  0.010970  0.601430  0.568030  1.0  0.3799
  C  C81  1  0.672830  0.884770  0.864170  1.0  0.1412
  C  C82  1  0.649730  0.863870  0.780470  1.0  -0.038
  C  C83  1  0.691130  0.854270  0.911770  1.0  -0.0476
  C  C84  1  0.677630  0.934770  0.901370  1.0  0.3801
  C  C85  1  0.781900  0.121400  0.197500  1.0  0.1418
  C  C86  1  0.802800  0.119200  0.113800  1.0  -0.0373
  C  C87  1  0.812400  0.170200  0.245100  1.0  -0.0521
  C  C88  1  0.731900  0.076200  0.234700  1.0  0.3809
  C  C89  1  0.448570  0.454730  0.530830  1.0  0.1418
  C  C90  1  0.469470  0.452530  0.447130  1.0  -0.0373
  C  C91  1  0.479070  0.503530  0.578430  1.0  -0.052
  C  C92  1  0.398570  0.409530  0.568030  1.0  0.3809
  C  C93  1  0.115230  0.788070  0.864170  1.0  0.1418
  C  C94  1  0.136130  0.785870  0.780470  1.0  -0.0373
  C  C95  1  0.145730  0.836870  0.911770  1.0  -0.0859
  C  C96  1  0.065230  0.742870  0.901370  1.0  0.3809
  C  C97  1  0.878600  0.660500  0.197500  1.0  0.1442
  C  C98  1  0.880800  0.683600  0.113800  1.0  -0.0386
  C  C99  1  0.829800  0.642200  0.245100  1.0  -0.0472
  C  C100  1  0.923800  0.655700  0.234700  1.0  0.3802
  C  C101  1  0.545270  0.993830  0.530830  1.0  0.1441
  C  C102  1  0.547470  0.016930  0.447130  1.0  -0.0374
  C  C103  1  0.496470  0.975530  0.578430  1.0  -0.0472
  C  C104  1  0.590470  0.989030  0.568030  1.0  0.3802
  C  C105  1  0.211930  0.327170  0.864170  1.0  0.1442
  C  C106  1  0.214130  0.350270  0.780470  1.0  -0.0385
  C  C107  1  0.163130  0.308870  0.911770  1.0  -0.0494
  C  C108  1  0.257130  0.322370  0.901370  1.0  0.3802
  C  C109  1  0.218100  0.339500  0.302500  1.0  0.1444
  C  C110  1  0.197200  0.316400  0.386200  1.0  -0.0375
  C  C111  1  0.187600  0.357800  0.254900  1.0  -0.0476
  C  C112  1  0.268100  0.344300  0.265300  1.0  0.3799
  C  C113  1  0.884770  0.672830  0.635830  1.0  0.1444
  C  C114  1  0.863870  0.649730  0.719530  1.0  -0.0375
  C  C115  1  0.854270  0.691130  0.588230  1.0  -0.0503
  C  C116  1  0.934770  0.677630  0.598630  1.0  0.3799
  C  C117  1  0.551430  0.006170  0.969170  1.0  0.144
  C  C118  1  0.530530  0.983070  0.052870  1.0  -0.0385
  C  C119  1  0.520930  0.024470  0.921570  1.0  -0.0483
  C  C120  1  0.601430  0.010970  0.931970  1.0  0.3797
  C  C121  1  0.121400  0.781900  0.302500  1.0  0.1413
  C  C122  1  0.119200  0.802800  0.386200  1.0  -0.0387
  C  C123  1  0.170200  0.812400  0.254900  1.0  -0.0487
  C  C124  1  0.076200  0.731900  0.265300  1.0  0.3796
  C  C125  1  0.788070  0.115230  0.635830  1.0  0.1413
  C  C126  1  0.785870  0.136130  0.719530  1.0  -0.0387
  C  C127  1  0.836870  0.145730  0.588230  1.0  -0.0826
  C  C128  1  0.742870  0.065230  0.598630  1.0  0.3796
  C  C129  1  0.454730  0.448570  0.969170  1.0  0.1412
  C  C130  1  0.452530  0.469470  0.052870  1.0  -0.0387
  C  C131  1  0.503530  0.479070  0.921570  1.0  -0.0487
  C  C132  1  0.409530  0.398570  0.931970  1.0  0.3796
  C  C133  1  0.660500  0.878600  0.302500  1.0  0.1422
  C  C134  1  0.683600  0.880800  0.386200  1.0  -0.0391
  C  C135  1  0.642200  0.829800  0.254900  1.0  -0.0487
  C  C136  1  0.655700  0.923800  0.265300  1.0  0.3815
  C  C137  1  0.327170  0.211930  0.635830  1.0  0.1421
  C  C138  1  0.350270  0.214130  0.719530  1.0  -0.0391
  C  C139  1  0.308870  0.163130  0.588230  1.0  -0.0508
  C  C140  1  0.322370  0.257130  0.598630  1.0  0.3815
  C  C141  1  0.993830  0.545270  0.969170  1.0  0.1421
  C  C142  1  0.016930  0.547470  0.052870  1.0  -0.0386
  C  C143  1  0.975530  0.496470  0.921570  1.0  -0.0487
  C  C144  1  0.989030  0.590470  0.931970  1.0  0.3815
  C  C145  1  0.660500  0.781900  0.802500  1.0  0.1417
  C  C146  1  0.683600  0.802800  0.886200  1.0  -0.0366
  C  C147  1  0.642200  0.812400  0.754900  1.0  -0.0458
  C  C148  1  0.655700  0.731900  0.765300  1.0  0.3799
  C  C149  1  0.327170  0.115230  0.135830  1.0  0.1417
  C  C150  1  0.350270  0.136130  0.219530  1.0  -0.0366
  C  C151  1  0.308870  0.145730  0.088230  1.0  -0.0488
  C  C152  1  0.322370  0.065230  0.098630  1.0  0.3799
  C  C153  1  0.993830  0.448570  0.469170  1.0  0.1413
  C  C154  1  0.016930  0.469470  0.552870  1.0  -0.0373
  C  C155  1  0.975530  0.479070  0.421570  1.0  -0.0464
  C  C156  1  0.989030  0.398570  0.431970  1.0  0.3797
  C  C157  1  0.218100  0.878600  0.802500  1.0  0.142
  C  C158  1  0.197200  0.880800  0.886200  1.0  -0.0375
  C  C159  1  0.187600  0.829800  0.754900  1.0  -0.0518
  C  C160  1  0.268100  0.923800  0.765300  1.0  0.3812
  C  C161  1  0.884770  0.211930  0.135830  1.0  0.142
  C  C162  1  0.863870  0.214130  0.219530  1.0  -0.0375
  C  C163  1  0.854270  0.163130  0.088230  1.0  -0.0857
  C  C164  1  0.934770  0.257130  0.098630  1.0  0.3812
  C  C165  1  0.551430  0.545270  0.469170  1.0  0.1421
  C  C166  1  0.530530  0.547470  0.552870  1.0  -0.0375
  C  C167  1  0.520930  0.496470  0.421570  1.0  -0.0518
  C  C168  1  0.601430  0.590470  0.431970  1.0  0.3812
  C  C169  1  0.121400  0.339500  0.802500  1.0  0.1432
  C  C170  1  0.119200  0.316400  0.886200  1.0  -0.0363
  C  C171  1  0.170200  0.357800  0.754900  1.0  -0.0476
  C  C172  1  0.076200  0.344300  0.765300  1.0  0.38
  C  C173  1  0.788070  0.672830  0.135830  1.0  0.1432
  C  C174  1  0.785870  0.649730  0.219530  1.0  -0.0363
  C  C175  1  0.836870  0.691130  0.088230  1.0  -0.0504
  C  C176  1  0.742870  0.677630  0.098630  1.0  0.38
  C  C177  1  0.454730  0.006170  0.469170  1.0  0.1432
  C  C178  1  0.452530  0.983070  0.552870  1.0  -0.0358
  C  C179  1  0.503530  0.024470  0.421570  1.0  -0.0476
  C  C180  1  0.409530  0.010970  0.431970  1.0  0.38
  C  C181  1  0.781900  0.660500  0.697500  1.0  0.1426
  C  C182  1  0.802800  0.683600  0.613800  1.0  -0.0353
  C  C183  1  0.812400  0.642200  0.745100  1.0  -0.0473
  C  C184  1  0.731900  0.655700  0.734700  1.0  0.3803
  C  C185  1  0.448570  0.993830  0.030830  1.0  0.1423
  C  C186  1  0.469470  0.016930  0.947130  1.0  -0.0361
  C  C187  1  0.479070  0.975530  0.078430  1.0  -0.0478
  C  C188  1  0.398570  0.989030  0.068030  1.0  0.38
  C  C189  1  0.115230  0.327170  0.364170  1.0  0.1426
  C  C190  1  0.136130  0.350270  0.280470  1.0  -0.0353
  C  C191  1  0.145730  0.308870  0.411770  1.0  -0.0494
  C  C192  1  0.065230  0.322370  0.401370  1.0  0.3803
  C  C193  1  0.878600  0.218100  0.697500  1.0  0.1418
  C  C194  1  0.880800  0.197200  0.613800  1.0  -0.0359
  C  C195  1  0.829800  0.187600  0.745100  1.0  -0.0503
  C  C196  1  0.923800  0.268100  0.734700  1.0  0.3804
  C  C197  1  0.545270  0.551430  0.030830  1.0  0.1418
  C  C198  1  0.547470  0.530530  0.947130  1.0  -0.0358
  C  C199  1  0.496470  0.520930  0.078430  1.0  -0.0502
  C  C200  1  0.590470  0.601430  0.068030  1.0  0.3804
  C  C201  1  0.211930  0.884770  0.364170  1.0  0.1418
  C  C202  1  0.214130  0.863870  0.280470  1.0  -0.0359
  C  C203  1  0.163130  0.854270  0.411770  1.0  -0.0847
  C  C204  1  0.257130  0.934770  0.401370  1.0  0.3804
  C  C205  1  0.339500  0.121400  0.697500  1.0  0.1419
  C  C206  1  0.316400  0.119200  0.613800  1.0  -0.0353
  C  C207  1  0.357800  0.170200  0.745100  1.0  -0.0483
  C  C208  1  0.344300  0.076200  0.734700  1.0  0.3809
  C  C209  1  0.006170  0.454730  0.030830  1.0  0.1419
  C  C210  1  0.983070  0.452530  0.947130  1.0  -0.0348
  C  C211  1  0.024470  0.503530  0.078430  1.0  -0.0483
  C  C212  1  0.010970  0.409530  0.068030  1.0  0.3809
  C  C213  1  0.672830  0.788070  0.364170  1.0  0.1419
  C  C214  1  0.649730  0.785870  0.280470  1.0  -0.0353
  C  C215  1  0.691130  0.836870  0.411770  1.0  -0.0508
  C  C216  1  0.677630  0.742870  0.401370  1.0  0.3809
  S  S217  1  0.287800  0.229100  0.052000  1.0  -0.1456
  S  S218  1  0.954470  0.562430  0.385330  1.0  -0.1455
  S  S219  1  0.621130  0.895770  0.718670  1.0  -0.1454
  S  S220  1  0.770900  0.058700  0.052000  1.0  -0.1459
  S  S221  1  0.437570  0.392030  0.385330  1.0  -0.1467
  S  S222  1  0.104230  0.725370  0.718670  1.0  -0.1466
  S  S223  1  0.941300  0.712200  0.052000  1.0  -0.1479
  S  S224  1  0.607970  0.045530  0.385330  1.0  -0.1479
  S  S225  1  0.274630  0.378870  0.718670  1.0  -0.148
  S  S226  1  0.229100  0.287800  0.448000  1.0  -0.1485
  S  S227  1  0.895770  0.621130  0.781330  1.0  -0.1484
  S  S228  1  0.562430  0.954470  0.114670  1.0  -0.1484
  S  S229  1  0.058700  0.770900  0.448000  1.0  -0.1455
  S  S230  1  0.725370  0.104230  0.781330  1.0  -0.1468
  S  S231  1  0.392030  0.437570  0.114670  1.0  -0.1468
  S  S232  1  0.712200  0.941300  0.448000  1.0  -0.1478
  S  S233  1  0.378870  0.274630  0.781330  1.0  -0.1478
  S  S234  1  0.045530  0.607970  0.114670  1.0  -0.1478
  S  S235  1  0.712200  0.770900  0.948000  1.0  -0.1498
  S  S236  1  0.378870  0.104230  0.281330  1.0  -0.1497
  S  S237  1  0.045530  0.437570  0.614670  1.0  -0.1498
  S  S238  1  0.229100  0.941300  0.948000  1.0  -0.1507
  S  S239  1  0.895770  0.274630  0.281330  1.0  -0.1509
  S  S240  1  0.562430  0.607970  0.614670  1.0  -0.151
  S  S241  1  0.058700  0.287800  0.948000  1.0  -0.1504
  S  S242  1  0.725370  0.621130  0.281330  1.0  -0.1507
  S  S243  1  0.392030  0.954470  0.614670  1.0  -0.1506
  S  S244  1  0.770900  0.712200  0.552000  1.0  -0.1502
  S  S245  1  0.437570  0.045530  0.885330  1.0  -0.1501
  S  S246  1  0.104230  0.378870  0.218670  1.0  -0.15
  S  S247  1  0.941300  0.229100  0.552000  1.0  -0.148
  S  S248  1  0.607970  0.562430  0.885330  1.0  -0.1485
  S  S249  1  0.274630  0.895770  0.218670  1.0  -0.1484
  S  S250  1  0.287800  0.058700  0.552000  1.0  -0.15
  S  S251  1  0.954470  0.392030  0.885330  1.0  -0.1503
  S  S252  1  0.621130  0.725370  0.218670  1.0  -0.1503
  O  O253  1  0.371200  0.318500  0.192300  1.0  -0.6852
  O  O254  1  0.338100  0.279400  0.325200  1.0  -0.7365
  O  O255  1  0.037870  0.651830  0.525630  1.0  -0.6852
  O  O256  1  0.004770  0.612730  0.658530  1.0  -0.7362
  O  O257  1  0.704530  0.985170  0.858970  1.0  -0.6852
  O  O258  1  0.671430  0.946070  0.991870  1.0  -0.7365
  O  O259  1  0.681500  0.052700  0.192300  1.0  -0.6811
  O  O260  1  0.720600  0.058700  0.325200  1.0  -0.7376
  O  O261  1  0.348170  0.386030  0.525630  1.0  -0.6811
  O  O262  1  0.387270  0.392030  0.658530  1.0  -0.7374
  O  O263  1  0.014830  0.719370  0.858970  1.0  -0.6811
  O  O264  1  0.053930  0.725370  0.991870  1.0  -0.7374
  O  O265  1  0.947300  0.628800  0.192300  1.0  -0.6822
  O  O266  1  0.941300  0.661900  0.325200  1.0  -0.7356
  O  O267  1  0.613970  0.962130  0.525630  1.0  -0.6822
  O  O268  1  0.607970  0.995230  0.658530  1.0  -0.7359
  O  O269  1  0.280630  0.295470  0.858970  1.0  -0.6822
  O  O270  1  0.274630  0.328570  0.991870  1.0  -0.7349
  O  O271  1  0.318500  0.371200  0.307700  1.0  -0.6832
  O  O272  1  0.279400  0.338100  0.174800  1.0  -0.7358
  O  O273  1  0.985170  0.704530  0.641030  1.0  -0.6832
  O  O274  1  0.946070  0.671430  0.508130  1.0  -0.7358
  O  O275  1  0.651830  0.037870  0.974370  1.0  -0.6832
  O  O276  1  0.612730  0.004770  0.841470  1.0  -0.7355
  O  O277  1  0.052700  0.681500  0.307700  1.0  -0.6844
  O  O278  1  0.058700  0.720600  0.174800  1.0  -0.7364
  O  O279  1  0.719370  0.014830  0.641030  1.0  -0.6844
  O  O280  1  0.725370  0.053930  0.508130  1.0  -0.7363
  O  O281  1  0.386030  0.348170  0.974370  1.0  -0.6845
  O  O282  1  0.392030  0.387270  0.841470  1.0  -0.7362
  O  O283  1  0.628800  0.947300  0.307700  1.0  -0.6824
  O  O284  1  0.661900  0.941300  0.174800  1.0  -0.7364
  O  O285  1  0.295470  0.280630  0.641030  1.0  -0.6824
  O  O286  1  0.328570  0.274630  0.508130  1.0  -0.7355
  O  O287  1  0.962130  0.613970  0.974370  1.0  -0.6824
  O  O288  1  0.995230  0.607970  0.841470  1.0  -0.7367
  O  O289  1  0.628800  0.681500  0.807700  1.0  -0.6836
  O  O290  1  0.661900  0.720600  0.674800  1.0  -0.7379
  O  O291  1  0.295470  0.014830  0.141030  1.0  -0.6835
  O  O292  1  0.328570  0.053930  0.008130  1.0  -0.7379
  O  O293  1  0.962130  0.348170  0.474370  1.0  -0.6836
  O  O294  1  0.995230  0.387270  0.341470  1.0  -0.7376
  O  O295  1  0.318500  0.947300  0.807700  1.0  -0.6816
  O  O296  1  0.279400  0.941300  0.674800  1.0  -0.7363
  O  O297  1  0.985170  0.280630  0.141030  1.0  -0.6816
  O  O298  1  0.946070  0.274630  0.008130  1.0  -0.7362
  O  O299  1  0.651830  0.613970  0.474370  1.0  -0.6817
  O  O300  1  0.612730  0.607970  0.341470  1.0  -0.7361
  O  O301  1  0.052700  0.371200  0.807700  1.0  -0.6854
  O  O302  1  0.058700  0.338100  0.674800  1.0  -0.7351
  O  O303  1  0.719370  0.704530  0.141030  1.0  -0.6854
  O  O304  1  0.725370  0.671430  0.008130  1.0  -0.7341
  O  O305  1  0.386030  0.037870  0.474370  1.0  -0.6854
  O  O306  1  0.392030  0.004770  0.341470  1.0  -0.7354
  O  O307  1  0.681500  0.628800  0.692300  1.0  -0.6846
  O  O308  1  0.720600  0.661900  0.825200  1.0  -0.7364
  O  O309  1  0.348170  0.962130  0.025630  1.0  -0.6846
  O  O310  1  0.387270  0.995230  0.158530  1.0  -0.7361
  O  O311  1  0.014830  0.295470  0.358970  1.0  -0.6845
  O  O312  1  0.053930  0.328570  0.491870  1.0  -0.7364
  O  O313  1  0.947300  0.318500  0.692300  1.0  -0.6841
  O  O314  1  0.941300  0.279400  0.825200  1.0  -0.7374
  O  O315  1  0.613970  0.651830  0.025630  1.0  -0.6842
  O  O316  1  0.607970  0.612730  0.158530  1.0  -0.7372
  O  O317  1  0.280630  0.985170  0.358970  1.0  -0.6841
  O  O318  1  0.274630  0.946070  0.491870  1.0  -0.7373
  O  O319  1  0.371200  0.052700  0.692300  1.0  -0.6811
  O  O320  1  0.338100  0.058700  0.825200  1.0  -0.7362
  O  O321  1  0.037870  0.386030  0.025630  1.0  -0.6811
  O  O322  1  0.004770  0.392030  0.158530  1.0  -0.7365
  O  O323  1  0.704530  0.719370  0.358970  1.0  -0.6811
  O  O324  1  0.671430  0.725370  0.491870  1.0  -0.7356
