# generated using pymatgen
data_MnC4SO2
_symmetry_space_group_name_H-M   'P 1'
_cell_length_a   27.32380000
_cell_length_b   27.32380000
_cell_length_c   15.10360000
_cell_angle_alpha   90.00000000
_cell_angle_beta   90.00000000
_cell_angle_gamma   120.00000000
_symmetry_Int_Tables_number   1
_chemical_formula_structural   MnC4SO2
_chemical_formula_sum   'Mn36 C144 S36 O72'
_cell_volume   9765.47342849
_cell_formula_units_Z   36
loop_
 _symmetry_equiv_pos_site_id
 _symmetry_equiv_pos_as_xyz
  1  'x, y, z'
loop_
 _atom_site_type_symbol
 _atom_site_label
 _atom_site_symmetry_multiplicity
 _atom_site_fract_x
 _atom_site_fract_y
 _atom_site_fract_z
 _atom_site_occupancy
 _atom_site_charge
  Mn  Mn1  1  0.309800  0.333333  0.083330  1.0  0.9876
  Mn  Mn2  1  0.666667  0.976470  0.083330  1.0  0.9904
  Mn  Mn3  1  0.333333  0.309800  0.416670  1.0  0.9905
  Mn  Mn4  1  0.023530  0.690200  0.083330  1.0  0.9887
  Mn  Mn5  1  0.356870  0.356870  0.750000  1.0  0.9895
  Mn  Mn6  1  0.000000  0.643130  0.750000  1.0  0.9913
  Mn  Mn7  1  0.976470  0.666667  0.416670  1.0  0.9879
  Mn  Mn8  1  0.643130  0.000000  0.750000  1.0  0.9885
  Mn  Mn9  1  0.690200  0.023530  0.416670  1.0  0.9887
  Mn  Mn10  1  0.690200  0.666667  0.916670  1.0  0.9884
  Mn  Mn11  1  0.356870  0.000000  0.250000  1.0  0.9892
  Mn  Mn12  1  0.023530  0.333333  0.583330  1.0  0.9883
  Mn  Mn13  1  0.333333  0.023530  0.916670  1.0  0.9881
  Mn  Mn14  1  0.000000  0.356870  0.250000  1.0  0.9888
  Mn  Mn15  1  0.976470  0.309800  0.916670  1.0  0.9897
  Mn  Mn16  1  0.643130  0.643130  0.250000  1.0  0.9904
  Mn  Mn17  1  0.666667  0.690200  0.583330  1.0  0.9879
  Mn  Mn18  1  0.309800  0.976470  0.583330  1.0  0.9896
  Mn  Mn19  1  0.406500  0.406500  0.250000  1.0  0.9353
  Mn  Mn20  1  0.073170  0.739830  0.583330  1.0  0.9352
  Mn  Mn21  1  0.739830  0.073170  0.916670  1.0  0.9352
  Mn  Mn22  1  0.593500  0.000000  0.250000  1.0  0.9323
  Mn  Mn23  1  0.260170  0.333333  0.583330  1.0  0.9323
  Mn  Mn24  1  0.926830  0.666667  0.916670  1.0  0.9322
  Mn  Mn25  1  0.000000  0.593500  0.250000  1.0  0.9367
  Mn  Mn26  1  0.666667  0.926830  0.583330  1.0  0.9367
  Mn  Mn27  1  0.333333  0.260170  0.916670  1.0  0.9367
  Mn  Mn28  1  0.593500  0.593500  0.750000  1.0  0.9372
  Mn  Mn29  1  0.260170  0.926830  0.083330  1.0  0.9372
  Mn  Mn30  1  0.926830  0.260170  0.416670  1.0  0.9372
  Mn  Mn31  1  0.406500  0.000000  0.750000  1.0  0.9306
  Mn  Mn32  1  0.073170  0.333333  0.083330  1.0  0.9306
  Mn  Mn33  1  0.739830  0.666667  0.416670  1.0  0.9306
  Mn  Mn34  1  0.000000  0.406500  0.750000  1.0  0.9354
  Mn  Mn35  1  0.666667  0.739830  0.083330  1.0  0.9353
  Mn  Mn36  1  0.333333  0.073170  0.416670  1.0  0.9353
  C  C37  1  0.340010  0.221980  0.201920  1.0  0.0816
  C  C38  1  0.315800  0.197260  0.120480  1.0  -0.0787
  C  C39  1  0.357310  0.187140  0.238070  1.0  -0.0057
  C  C40  1  0.345060  0.272190  0.238440  1.0  0.6097
  C  C41  1  0.006680  0.555310  0.535250  1.0  0.0816
  C  C42  1  0.982470  0.530590  0.453810  1.0  -0.0795
  C  C43  1  0.023970  0.520470  0.571400  1.0  -0.0056
  C  C44  1  0.011730  0.605520  0.571770  1.0  0.6094
  C  C45  1  0.673350  0.888640  0.868580  1.0  0.0825
  C  C46  1  0.649130  0.863930  0.787140  1.0  -0.0791
  C  C47  1  0.690640  0.853810  0.904740  1.0  -0.0056
  C  C48  1  0.678390  0.938860  0.905110  1.0  0.6098
  C  C49  1  0.778020  0.118040  0.201920  1.0  0.0821
  C  C50  1  0.802740  0.118540  0.120480  1.0  -0.0803
  C  C51  1  0.812860  0.170170  0.238070  1.0  -0.0039
  C  C52  1  0.727810  0.072870  0.238440  1.0  0.6088
  C  C53  1  0.444690  0.451370  0.535250  1.0  0.0821
  C  C54  1  0.469410  0.451870  0.453810  1.0  -0.0807
  C  C55  1  0.479530  0.503500  0.571400  1.0  -0.0035
  C  C56  1  0.394480  0.406200  0.571770  1.0  0.6088
  C  C57  1  0.111360  0.784700  0.868580  1.0  0.0814
  C  C58  1  0.136070  0.785210  0.787140  1.0  -0.0811
  C  C59  1  0.146190  0.836840  0.904740  1.0  -0.0027
  C  C60  1  0.061140  0.739540  0.905110  1.0  0.6095
  C  C61  1  0.881960  0.659990  0.201920  1.0  0.0828
  C  C62  1  0.881460  0.684200  0.120480  1.0  -0.0806
  C  C63  1  0.829830  0.642690  0.238070  1.0  -0.0056
  C  C64  1  0.927130  0.654940  0.238440  1.0  0.611
  C  C65  1  0.548630  0.993320  0.535250  1.0  0.0828
  C  C66  1  0.548130  0.017530  0.453810  1.0  -0.0799
  C  C67  1  0.496500  0.976030  0.571400  1.0  -0.0063
  C  C68  1  0.593800  0.988270  0.571770  1.0  0.6108
  C  C69  1  0.215300  0.326650  0.868580  1.0  0.082
  C  C70  1  0.214790  0.350870  0.787140  1.0  -0.0814
  C  C71  1  0.163160  0.309360  0.904740  1.0  -0.0062
  C  C72  1  0.260460  0.321610  0.905110  1.0  0.6109
  C  C73  1  0.221980  0.340010  0.298080  1.0  0.0823
  C  C74  1  0.197260  0.315800  0.379520  1.0  -0.0734
  C  C75  1  0.187140  0.357310  0.261930  1.0  -0.0046
  C  C76  1  0.272190  0.345060  0.261560  1.0  0.6105
  C  C77  1  0.888640  0.673350  0.631420  1.0  0.0833
  C  C78  1  0.863930  0.649130  0.712860  1.0  -0.074
  C  C79  1  0.853810  0.690640  0.595260  1.0  -0.0046
  C  C80  1  0.938860  0.678390  0.594890  1.0  0.6105
  C  C81  1  0.555310  0.006680  0.964750  1.0  0.0823
  C  C82  1  0.530590  0.982470  0.046190  1.0  -0.0744
  C  C83  1  0.520470  0.023970  0.928600  1.0  -0.0045
  C  C84  1  0.605520  0.011730  0.928230  1.0  0.6102
  C  C85  1  0.118040  0.778020  0.298080  1.0  0.0824
  C  C86  1  0.118540  0.802740  0.379520  1.0  -0.073
  C  C87  1  0.170170  0.812860  0.261930  1.0  -0.0049
  C  C88  1  0.072870  0.727810  0.261560  1.0  0.6087
  C  C89  1  0.784700  0.111360  0.631420  1.0  0.0815
  C  C90  1  0.785210  0.136070  0.712860  1.0  -0.0738
  C  C91  1  0.836840  0.146190  0.595260  1.0  -0.0039
  C  C92  1  0.739540  0.061140  0.594890  1.0  0.6096
  C  C93  1  0.451370  0.444690  0.964750  1.0  0.0824
  C  C94  1  0.451870  0.469410  0.046190  1.0  -0.0733
  C  C95  1  0.503500  0.479530  0.928600  1.0  -0.0047
  C  C96  1  0.406200  0.394480  0.928230  1.0  0.6087
  C  C97  1  0.659990  0.881960  0.298080  1.0  0.0827
  C  C98  1  0.684200  0.881460  0.379520  1.0  -0.074
  C  C99  1  0.642690  0.829830  0.261930  1.0  -0.0027
  C  C100  1  0.654940  0.927130  0.261560  1.0  0.6093
  C  C101  1  0.326650  0.215300  0.631420  1.0  0.082
  C  C102  1  0.350870  0.214790  0.712860  1.0  -0.0752
  C  C103  1  0.309360  0.163160  0.595260  1.0  -0.0033
  C  C104  1  0.321610  0.260460  0.594890  1.0  0.6093
  C  C105  1  0.993320  0.548630  0.964750  1.0  0.0827
  C  C106  1  0.017530  0.548130  0.046190  1.0  -0.0733
  C  C107  1  0.976030  0.496500  0.928600  1.0  -0.0034
  C  C108  1  0.988270  0.593800  0.928230  1.0  0.6093
  C  C109  1  0.659990  0.778020  0.798080  1.0  0.0817
  C  C110  1  0.684200  0.802740  0.879520  1.0  -0.0683
  C  C111  1  0.642690  0.812860  0.761930  1.0  -0.0046
  C  C112  1  0.654940  0.727810  0.761560  1.0  0.6107
  C  C113  1  0.326650  0.111360  0.131420  1.0  0.0828
  C  C114  1  0.350870  0.136070  0.212860  1.0  -0.0686
  C  C115  1  0.309360  0.146190  0.095260  1.0  -0.0045
  C  C116  1  0.321610  0.061140  0.094890  1.0  0.6108
  C  C117  1  0.993320  0.444690  0.464750  1.0  0.0818
  C  C118  1  0.017530  0.469410  0.546190  1.0  -0.0692
  C  C119  1  0.976030  0.479530  0.428600  1.0  -0.0045
  C  C120  1  0.988270  0.394480  0.428230  1.0  0.6104
  C  C121  1  0.221980  0.881960  0.798080  1.0  0.0824
  C  C122  1  0.197260  0.881460  0.879520  1.0  -0.0699
  C  C123  1  0.187140  0.829830  0.761930  1.0  -0.0045
  C  C124  1  0.272190  0.927130  0.761560  1.0  0.6094
  C  C125  1  0.888640  0.215300  0.131420  1.0  0.0815
  C  C126  1  0.863930  0.214790  0.212860  1.0  -0.0708
  C  C127  1  0.853810  0.163160  0.095260  1.0  -0.0035
  C  C128  1  0.938860  0.260460  0.094890  1.0  0.6102
  C  C129  1  0.555310  0.548630  0.464750  1.0  0.0824
  C  C130  1  0.530590  0.548130  0.546190  1.0  -0.0702
  C  C131  1  0.520470  0.496500  0.428600  1.0  -0.0043
  C  C132  1  0.605520  0.593800  0.428230  1.0  0.6094
  C  C133  1  0.118040  0.340010  0.798080  1.0  0.0825
  C  C134  1  0.118540  0.315800  0.879520  1.0  -0.0701
  C  C135  1  0.170170  0.357310  0.761930  1.0  -0.0065
  C  C136  1  0.072870  0.345060  0.761560  1.0  0.6092
  C  C137  1  0.784700  0.673350  0.131420  1.0  0.0818
  C  C138  1  0.785210  0.649130  0.212860  1.0  -0.0708
  C  C139  1  0.836840  0.690640  0.095260  1.0  -0.0071
  C  C140  1  0.739540  0.678390  0.094890  1.0  0.6091
  C  C141  1  0.451370  0.006680  0.464750  1.0  0.0825
  C  C142  1  0.451870  0.982470  0.546190  1.0  -0.0695
  C  C143  1  0.503500  0.023970  0.428600  1.0  -0.0072
  C  C144  1  0.406200  0.011730  0.428230  1.0  0.6091
  C  C145  1  0.778020  0.659990  0.701920  1.0  0.0812
  C  C146  1  0.802740  0.684200  0.620480  1.0  -0.0747
  C  C147  1  0.812860  0.642690  0.738070  1.0  -0.0077
  C  C148  1  0.727810  0.654940  0.738440  1.0  0.6097
  C  C149  1  0.444690  0.993320  0.035250  1.0  0.0812
  C  C150  1  0.469410  0.017530  0.953810  1.0  -0.076
  C  C151  1  0.479530  0.976030  0.071400  1.0  -0.0075
  C  C152  1  0.394480  0.988270  0.071770  1.0  0.6094
  C  C153  1  0.111360  0.326650  0.368580  1.0  0.0821
  C  C154  1  0.136070  0.350870  0.287140  1.0  -0.0754
  C  C155  1  0.146190  0.309360  0.404740  1.0  -0.0075
  C  C156  1  0.061140  0.321610  0.405110  1.0  0.6097
  C  C157  1  0.881960  0.221980  0.701920  1.0  0.0826
  C  C158  1  0.881460  0.197260  0.620480  1.0  -0.0735
  C  C159  1  0.829830  0.187140  0.738070  1.0  -0.0051
  C  C160  1  0.927130  0.272190  0.738440  1.0  0.6108
  C  C161  1  0.548630  0.555310  0.035250  1.0  0.0827
  C  C162  1  0.548130  0.530590  0.953810  1.0  -0.0738
  C  C163  1  0.496500  0.520470  0.071400  1.0  -0.0047
  C  C164  1  0.593800  0.605520  0.071770  1.0  0.6108
  C  C165  1  0.215300  0.888640  0.368580  1.0  0.0817
  C  C166  1  0.214790  0.863930  0.287140  1.0  -0.0745
  C  C167  1  0.163160  0.853810  0.404740  1.0  -0.004
  C  C168  1  0.260460  0.938860  0.405110  1.0  0.6116
  C  C169  1  0.340010  0.118040  0.701920  1.0  0.0819
  C  C170  1  0.315800  0.118540  0.620480  1.0  -0.0768
  C  C171  1  0.357310  0.170170  0.738070  1.0  -0.0052
  C  C172  1  0.345060  0.072870  0.738440  1.0  0.6095
  C  C173  1  0.006680  0.451370  0.035250  1.0  0.0819
  C  C174  1  0.982470  0.451870  0.953810  1.0  -0.0761
  C  C175  1  0.023970  0.503500  0.071400  1.0  -0.0059
  C  C176  1  0.011730  0.406200  0.071770  1.0  0.6094
  C  C177  1  0.673350  0.784700  0.368580  1.0  0.0811
  C  C178  1  0.649130  0.785210  0.287140  1.0  -0.0778
  C  C179  1  0.690640  0.836840  0.404740  1.0  -0.0058
  C  C180  1  0.678390  0.739540  0.405110  1.0  0.6095
  S  S181  1  0.282900  0.236300  0.091500  1.0  -0.1903
  S  S182  1  0.949570  0.569630  0.424830  1.0  -0.1903
  S  S183  1  0.616230  0.902970  0.758170  1.0  -0.1903
  S  S184  1  0.763700  0.046600  0.091500  1.0  -0.1918
  S  S185  1  0.430370  0.379930  0.424830  1.0  -0.1925
  S  S186  1  0.097030  0.713270  0.758170  1.0  -0.1926
  S  S187  1  0.953400  0.717100  0.091500  1.0  -0.1915
  S  S188  1  0.620070  0.050430  0.424830  1.0  -0.1935
  S  S189  1  0.286730  0.383770  0.758170  1.0  -0.1935
  S  S190  1  0.236300  0.282900  0.408500  1.0  -0.1924
  S  S191  1  0.902970  0.616230  0.741830  1.0  -0.1924
  S  S192  1  0.569630  0.949570  0.075170  1.0  -0.1924
  S  S193  1  0.046600  0.763700  0.408500  1.0  -0.1893
  S  S194  1  0.713270  0.097030  0.741830  1.0  -0.1897
  S  S195  1  0.379930  0.430370  0.075170  1.0  -0.1897
  S  S196  1  0.717100  0.953400  0.408500  1.0  -0.1905
  S  S197  1  0.383770  0.286730  0.741830  1.0  -0.1922
  S  S198  1  0.050430  0.620070  0.075170  1.0  -0.1923
  S  S199  1  0.717100  0.763700  0.908500  1.0  -0.1906
  S  S200  1  0.383770  0.097030  0.241830  1.0  -0.1906
  S  S201  1  0.050430  0.430370  0.575170  1.0  -0.1906
  S  S202  1  0.236300  0.953400  0.908500  1.0  -0.1913
  S  S203  1  0.902970  0.286730  0.241830  1.0  -0.1917
  S  S204  1  0.569630  0.620070  0.575170  1.0  -0.1916
  S  S205  1  0.046600  0.282900  0.908500  1.0  -0.1905
  S  S206  1  0.713270  0.616230  0.241830  1.0  -0.1924
  S  S207  1  0.379930  0.949570  0.575170  1.0  -0.1923
  S  S208  1  0.763700  0.717100  0.591500  1.0  -0.1929
  S  S209  1  0.430370  0.050430  0.924830  1.0  -0.1929
  S  S210  1  0.097030  0.383770  0.258170  1.0  -0.1929
  S  S211  1  0.953400  0.236300  0.591500  1.0  -0.1912
  S  S212  1  0.620070  0.569630  0.924830  1.0  -0.1913
  S  S213  1  0.286730  0.902970  0.258170  1.0  -0.1914
  S  S214  1  0.282900  0.046600  0.591500  1.0  -0.1902
  S  S215  1  0.949570  0.379930  0.924830  1.0  -0.1922
  S  S216  1  0.616230  0.713270  0.258170  1.0  -0.1922
  O  O217  1  0.368700  0.317900  0.191500  1.0  -0.715
  O  O218  1  0.336800  0.272700  0.325400  1.0  -0.6695
  O  O219  1  0.035370  0.651230  0.524830  1.0  -0.715
  O  O220  1  0.003470  0.606030  0.658730  1.0  -0.6694
  O  O221  1  0.702030  0.984570  0.858170  1.0  -0.715
  O  O222  1  0.670130  0.939370  0.992070  1.0  -0.669
  O  O223  1  0.682100  0.050800  0.191500  1.0  -0.7104
  O  O224  1  0.727300  0.064100  0.325400  1.0  -0.6693
  O  O225  1  0.348770  0.384130  0.524830  1.0  -0.7104
  O  O226  1  0.393970  0.397430  0.658730  1.0  -0.6694
  O  O227  1  0.015430  0.717470  0.858170  1.0  -0.7104
  O  O228  1  0.060630  0.730770  0.992070  1.0  -0.6691
  O  O229  1  0.949200  0.631300  0.191500  1.0  -0.7141
  O  O230  1  0.935900  0.663200  0.325400  1.0  -0.669
  O  O231  1  0.615870  0.964630  0.524830  1.0  -0.7141
  O  O232  1  0.602570  0.996530  0.658730  1.0  -0.6691
  O  O233  1  0.282530  0.297970  0.858170  1.0  -0.7141
  O  O234  1  0.269230  0.329870  0.992070  1.0  -0.669
  O  O235  1  0.317900  0.368700  0.308500  1.0  -0.7155
  O  O236  1  0.272700  0.336800  0.174600  1.0  -0.6683
  O  O237  1  0.984570  0.702030  0.641830  1.0  -0.7155
  O  O238  1  0.939370  0.670130  0.507930  1.0  -0.6683
  O  O239  1  0.651230  0.035370  0.975170  1.0  -0.7155
  O  O240  1  0.606030  0.003470  0.841270  1.0  -0.6681
  O  O241  1  0.050800  0.682100  0.308500  1.0  -0.7143
  O  O242  1  0.064100  0.727300  0.174600  1.0  -0.6691
  O  O243  1  0.717470  0.015430  0.641830  1.0  -0.7142
  O  O244  1  0.730770  0.060630  0.507930  1.0  -0.669
  O  O245  1  0.384130  0.348770  0.975170  1.0  -0.7143
  O  O246  1  0.397430  0.393970  0.841270  1.0  -0.6692
  O  O247  1  0.631300  0.949200  0.308500  1.0  -0.7119
  O  O248  1  0.663200  0.935900  0.174600  1.0  -0.6686
  O  O249  1  0.297970  0.282530  0.641830  1.0  -0.7119
  O  O250  1  0.329870  0.269230  0.507930  1.0  -0.6688
  O  O251  1  0.964630  0.615870  0.975170  1.0  -0.7119
  O  O252  1  0.996530  0.602570  0.841270  1.0  -0.6689
  O  O253  1  0.631300  0.682100  0.808500  1.0  -0.7143
  O  O254  1  0.663200  0.727300  0.674600  1.0  -0.6698
  O  O255  1  0.297970  0.015430  0.141830  1.0  -0.7143
  O  O256  1  0.329870  0.060630  0.007930  1.0  -0.6698
  O  O257  1  0.964630  0.348770  0.475170  1.0  -0.7143
  O  O258  1  0.996530  0.393970  0.341270  1.0  -0.6697
  O  O259  1  0.317900  0.949200  0.808500  1.0  -0.7116
  O  O260  1  0.272700  0.935900  0.674600  1.0  -0.6689
  O  O261  1  0.984570  0.282530  0.141830  1.0  -0.7116
  O  O262  1  0.939370  0.269230  0.007930  1.0  -0.6687
  O  O263  1  0.651230  0.615870  0.475170  1.0  -0.7116
  O  O264  1  0.606030  0.602570  0.341270  1.0  -0.6689
  O  O265  1  0.050800  0.368700  0.808500  1.0  -0.7137
  O  O266  1  0.064100  0.336800  0.674600  1.0  -0.6681
  O  O267  1  0.717470  0.702030  0.141830  1.0  -0.7137
  O  O268  1  0.730770  0.670130  0.007930  1.0  -0.6683
  O  O269  1  0.384130  0.035370  0.475170  1.0  -0.7137
  O  O270  1  0.397430  0.003470  0.341270  1.0  -0.6683
  O  O271  1  0.682100  0.631300  0.691500  1.0  -0.7125
  O  O272  1  0.727300  0.663200  0.825400  1.0  -0.6694
  O  O273  1  0.348770  0.964630  0.024830  1.0  -0.7125
  O  O274  1  0.393970  0.996530  0.158730  1.0  -0.6692
  O  O275  1  0.015430  0.297970  0.358170  1.0  -0.7125
  O  O276  1  0.060630  0.329870  0.492070  1.0  -0.6689
  O  O277  1  0.949200  0.317900  0.691500  1.0  -0.7162
  O  O278  1  0.935900  0.272700  0.825400  1.0  -0.6696
  O  O279  1  0.615870  0.651230  0.024830  1.0  -0.7162
  O  O280  1  0.602570  0.606030  0.158730  1.0  -0.6698
  O  O281  1  0.282530  0.984570  0.358170  1.0  -0.7162
  O  O282  1  0.269230  0.939370  0.492070  1.0  -0.6695
  O  O283  1  0.368700  0.050800  0.691500  1.0  -0.7097
  O  O284  1  0.336800  0.064100  0.825400  1.0  -0.6698
  O  O285  1  0.035370  0.384130  0.024830  1.0  -0.7097
  O  O286  1  0.003470  0.397430  0.158730  1.0  -0.67
  O  O287  1  0.702030  0.717470  0.358170  1.0  -0.7097
  O  O288  1  0.670130  0.730770  0.492070  1.0  -0.6698
