# generated using pymatgen
data_MnHC4SO2
_symmetry_space_group_name_H-M   'P 1'
_cell_length_a   27.30000000
_cell_length_b   27.30000000
_cell_length_c   15.12300000
_cell_angle_alpha   90.00000000
_cell_angle_beta   90.00000000
_cell_angle_gamma   120.00000000
_symmetry_Int_Tables_number   1
_chemical_formula_structural   MnHC4SO2
_chemical_formula_sum   'Mn36 H36 C144 S36 O72'
_cell_volume   9760.99022680
_cell_formula_units_Z   36
loop_
 _symmetry_equiv_pos_site_id
 _symmetry_equiv_pos_as_xyz
  1  'x, y, z'
loop_
 _atom_site_type_symbol
 _atom_site_label
 _atom_site_symmetry_multiplicity
 _atom_site_fract_x
 _atom_site_fract_y
 _atom_site_fract_z
 _atom_site_occupancy
 _atom_site_charge
  Mn  Mn1  1  0.323100  0.333333  0.083330  1.0  0.8413
  Mn  Mn2  1  0.666667  0.989760  0.083330  1.0  0.8422
  Mn  Mn3  1  0.333333  0.323100  0.416670  1.0  0.8398
  Mn  Mn4  1  0.010240  0.676900  0.083330  1.0  0.841
  Mn  Mn5  1  0.343570  0.343570  0.750000  1.0  0.844
  Mn  Mn6  1  0.000000  0.656430  0.750000  1.0  0.8425
  Mn  Mn7  1  0.989760  0.666667  0.416670  1.0  0.8441
  Mn  Mn8  1  0.656430  0.000000  0.750000  1.0  0.8437
  Mn  Mn9  1  0.676900  0.010240  0.416670  1.0  0.8412
  Mn  Mn10  1  0.676900  0.666667  0.916670  1.0  0.8405
  Mn  Mn11  1  0.343570  0.000000  0.250000  1.0  0.8431
  Mn  Mn12  1  0.010240  0.333333  0.583330  1.0  0.8428
  Mn  Mn13  1  0.333333  0.010240  0.916670  1.0  0.8444
  Mn  Mn14  1  0.000000  0.343570  0.250000  1.0  0.8442
  Mn  Mn15  1  0.989760  0.323100  0.916670  1.0  0.8406
  Mn  Mn16  1  0.656430  0.656430  0.250000  1.0  0.8432
  Mn  Mn17  1  0.666667  0.676900  0.583330  1.0  0.8416
  Mn  Mn18  1  0.323100  0.989760  0.583330  1.0  0.8404
  Mn  Mn19  1  0.397670  0.397670  0.250000  1.0  1.0587
  Mn  Mn20  1  0.064330  0.731000  0.583330  1.0  1.0607
  Mn  Mn21  1  0.731000  0.064330  0.916670  1.0  1.0607
  Mn  Mn22  1  0.602330  0.000000  0.250000  1.0  1.0591
  Mn  Mn23  1  0.269000  0.333333  0.583330  1.0  1.0591
  Mn  Mn24  1  0.935670  0.666667  0.916670  1.0  1.065
  Mn  Mn25  1  0.000000  0.602330  0.250000  1.0  1.06
  Mn  Mn26  1  0.666667  0.935670  0.583330  1.0  1.0661
  Mn  Mn27  1  0.333333  0.269000  0.916670  1.0  1.06
  Mn  Mn28  1  0.602330  0.602330  0.750000  1.0  1.061
  Mn  Mn29  1  0.269000  0.935670  0.083330  1.0  1.063
  Mn  Mn30  1  0.935670  0.269000  0.416670  1.0  1.063
  Mn  Mn31  1  0.397670  0.000000  0.750000  1.0  1.057
  Mn  Mn32  1  0.064330  0.333333  0.083330  1.0  1.0633
  Mn  Mn33  1  0.731000  0.666667  0.416670  1.0  1.0572
  Mn  Mn34  1  0.000000  0.397670  0.750000  1.0  1.0592
  Mn  Mn35  1  0.666667  0.731000  0.083330  1.0  1.0591
  Mn  Mn36  1  0.333333  0.064330  0.416670  1.0  1.0652
  H  H37  1  0.372840  0.207100  0.306990  1.0  0.1392
  H  H38  1  0.039510  0.540440  0.640320  1.0  0.1387
  H  H39  1  0.706180  0.873770  0.973650  1.0  0.1394
  H  H40  1  0.792900  0.165740  0.306990  1.0  0.1385
  H  H41  1  0.459560  0.499070  0.640320  1.0  0.1383
  H  H42  1  0.126230  0.832410  0.973650  1.0  0.1389
  H  H43  1  0.834260  0.627160  0.306990  1.0  0.1386
  H  H44  1  0.500930  0.960490  0.640320  1.0  0.1395
  H  H45  1  0.167590  0.293820  0.973650  1.0  0.1394
  H  H46  1  0.207100  0.372840  0.193010  1.0  0.1384
  H  H47  1  0.873770  0.706180  0.526350  1.0  0.1386
  H  H48  1  0.540440  0.039510  0.859680  1.0  0.1376
  H  H49  1  0.165740  0.792900  0.193010  1.0  0.1374
  H  H50  1  0.832410  0.126230  0.526350  1.0  0.1381
  H  H51  1  0.499070  0.459560  0.859680  1.0  0.1373
  H  H52  1  0.627160  0.834260  0.193010  1.0  0.1376
  H  H53  1  0.293820  0.167590  0.526350  1.0  0.1391
  H  H54  1  0.960490  0.500930  0.859680  1.0  0.1383
  H  H55  1  0.627160  0.792900  0.693010  1.0  0.138
  H  H56  1  0.293820  0.126230  0.026350  1.0  0.1387
  H  H57  1  0.960490  0.459560  0.359680  1.0  0.1374
  H  H58  1  0.207100  0.834260  0.693010  1.0  0.1378
  H  H59  1  0.873770  0.167590  0.026350  1.0  0.1386
  H  H60  1  0.540440  0.500930  0.359680  1.0  0.1378
  H  H61  1  0.165740  0.372840  0.693010  1.0  0.1374
  H  H62  1  0.832410  0.706180  0.026350  1.0  0.1389
  H  H63  1  0.499070  0.039510  0.359680  1.0  0.1382
  H  H64  1  0.792900  0.627160  0.806990  1.0  0.1394
  H  H65  1  0.459560  0.960490  0.140320  1.0  0.1386
  H  H66  1  0.126230  0.293820  0.473650  1.0  0.1394
  H  H67  1  0.834260  0.207100  0.806990  1.0  0.1388
  H  H68  1  0.500930  0.540440  0.140320  1.0  0.1386
  H  H69  1  0.167590  0.873770  0.473650  1.0  0.1392
  H  H70  1  0.372840  0.165740  0.806990  1.0  0.1388
  H  H71  1  0.039510  0.499070  0.140320  1.0  0.1395
  H  H72  1  0.706180  0.832410  0.473650  1.0  0.14
  C  C73  1  0.338200  0.218000  0.192900  1.0  0.0046
  C  C74  1  0.315100  0.196000  0.108400  1.0  -0.024
  C  C75  1  0.354300  0.187800  0.244000  1.0  -0.0778
  C  C76  1  0.348000  0.271900  0.234000  1.0  0.6667
  C  C77  1  0.004870  0.551330  0.526230  1.0  0.0046
  C  C78  1  0.981770  0.529330  0.441730  1.0  -0.0244
  C  C79  1  0.020970  0.521130  0.577330  1.0  -0.0778
  C  C80  1  0.014670  0.605230  0.567330  1.0  0.6664
  C  C81  1  0.671530  0.884670  0.859570  1.0  0.0046
  C  C82  1  0.648430  0.862670  0.775070  1.0  -0.024
  C  C83  1  0.687630  0.854470  0.910670  1.0  -0.0778
  C  C84  1  0.681330  0.938570  0.900670  1.0  0.6667
  C  C85  1  0.782000  0.120200  0.192900  1.0  0.0042
  C  C86  1  0.804000  0.119100  0.108400  1.0  -0.0233
  C  C87  1  0.812200  0.166500  0.244000  1.0  -0.0795
  C  C88  1  0.728100  0.076100  0.234000  1.0  0.6665
  C  C89  1  0.448670  0.453530  0.526230  1.0  0.0042
  C  C90  1  0.470670  0.452430  0.441730  1.0  -0.024
  C  C91  1  0.478870  0.499830  0.577330  1.0  -0.0794
  C  C92  1  0.394770  0.409430  0.567330  1.0  0.6665
  C  C93  1  0.115330  0.786870  0.859570  1.0  0.0042
  C  C94  1  0.137330  0.785770  0.775070  1.0  -0.0233
  C  C95  1  0.145530  0.833170  0.910670  1.0  -0.0795
  C  C96  1  0.061430  0.742770  0.900670  1.0  0.6665
  C  C97  1  0.879800  0.661800  0.192900  1.0  0.006
  C  C98  1  0.880900  0.684900  0.108400  1.0  -0.023
  C  C99  1  0.833500  0.645700  0.244000  1.0  -0.0784
  C  C100  1  0.923900  0.652000  0.234000  1.0  0.6699
  C  C101  1  0.546470  0.995130  0.526230  1.0  0.006
  C  C102  1  0.547570  0.018230  0.441730  1.0  -0.0232
  C  C103  1  0.500170  0.979030  0.577330  1.0  -0.0784
  C  C104  1  0.590570  0.985330  0.567330  1.0  0.6699
  C  C105  1  0.213130  0.328470  0.859570  1.0  0.006
  C  C106  1  0.214230  0.351570  0.775070  1.0  -0.023
  C  C107  1  0.166830  0.312370  0.910670  1.0  -0.0784
  C  C108  1  0.257230  0.318670  0.900670  1.0  0.6699
  C  C109  1  0.218000  0.338200  0.307100  1.0  0.0058
  C  C110  1  0.196000  0.315100  0.391600  1.0  -0.0226
  C  C111  1  0.187800  0.354300  0.256000  1.0  -0.078
  C  C112  1  0.271900  0.348000  0.266000  1.0  0.669
  C  C113  1  0.884670  0.671530  0.640430  1.0  0.0058
  C  C114  1  0.862670  0.648430  0.724930  1.0  -0.0226
  C  C115  1  0.854470  0.687630  0.589330  1.0  -0.078
  C  C116  1  0.938570  0.681330  0.599330  1.0  0.669
  C  C117  1  0.551330  0.004870  0.973770  1.0  0.0058
  C  C118  1  0.529330  0.981770  0.058270  1.0  -0.0231
  C  C119  1  0.521130  0.020970  0.922670  1.0  -0.078
  C  C120  1  0.605230  0.014670  0.932670  1.0  0.6687
  C  C121  1  0.120200  0.782000  0.307100  1.0  0.0044
  C  C122  1  0.119100  0.804000  0.391600  1.0  -0.0241
  C  C123  1  0.166500  0.812200  0.256000  1.0  -0.0772
  C  C124  1  0.076100  0.728100  0.266000  1.0  0.6656
  C  C125  1  0.786870  0.115330  0.640430  1.0  0.0044
  C  C126  1  0.785770  0.137330  0.724930  1.0  -0.0241
  C  C127  1  0.833170  0.145530  0.589330  1.0  -0.0772
  C  C128  1  0.742770  0.061430  0.599330  1.0  0.6656
  C  C129  1  0.453530  0.448670  0.973770  1.0  0.0044
  C  C130  1  0.452430  0.470670  0.058270  1.0  -0.0248
  C  C131  1  0.499830  0.478870  0.922670  1.0  -0.0771
  C  C132  1  0.409430  0.394770  0.932670  1.0  0.6656
  C  C133  1  0.661800  0.879800  0.307100  1.0  0.0046
  C  C134  1  0.684900  0.880900  0.391600  1.0  -0.0216
  C  C135  1  0.645700  0.833500  0.256000  1.0  -0.0785
  C  C136  1  0.652000  0.923900  0.266000  1.0  0.6666
  C  C137  1  0.328470  0.213130  0.640430  1.0  0.0046
  C  C138  1  0.351570  0.214230  0.724930  1.0  -0.0216
  C  C139  1  0.312370  0.166830  0.589330  1.0  -0.0785
  C  C140  1  0.318670  0.257230  0.599330  1.0  0.6666
  C  C141  1  0.995130  0.546470  0.973770  1.0  0.0046
  C  C142  1  0.018230  0.547570  0.058270  1.0  -0.0218
  C  C143  1  0.979030  0.500170  0.922670  1.0  -0.0785
  C  C144  1  0.985330  0.590570  0.932670  1.0  0.6666
  C  C145  1  0.661800  0.782000  0.807100  1.0  0.0037
  C  C146  1  0.684900  0.804000  0.891600  1.0  -0.0219
  C  C147  1  0.645700  0.812200  0.756000  1.0  -0.0775
  C  C148  1  0.652000  0.728100  0.766000  1.0  0.6672
  C  C149  1  0.328470  0.115330  0.140430  1.0  0.0037
  C  C150  1  0.351570  0.137330  0.224930  1.0  -0.0219
  C  C151  1  0.312370  0.145530  0.089330  1.0  -0.0775
  C  C152  1  0.318670  0.061430  0.099330  1.0  0.6672
  C  C153  1  0.995130  0.448670  0.473770  1.0  0.0037
  C  C154  1  0.018230  0.470670  0.558270  1.0  -0.0223
  C  C155  1  0.979030  0.478870  0.422670  1.0  -0.0775
  C  C156  1  0.985330  0.394770  0.432670  1.0  0.667
  C  C157  1  0.218000  0.879800  0.807100  1.0  0.003
  C  C158  1  0.196000  0.880900  0.891600  1.0  -0.0229
  C  C159  1  0.187800  0.833500  0.756000  1.0  -0.0788
  C  C160  1  0.271900  0.923900  0.766000  1.0  0.6669
  C  C161  1  0.884670  0.213130  0.140430  1.0  0.003
  C  C162  1  0.862670  0.214230  0.224930  1.0  -0.023
  C  C163  1  0.854470  0.166830  0.089330  1.0  -0.0788
  C  C164  1  0.938570  0.257230  0.099330  1.0  0.6669
  C  C165  1  0.551330  0.546470  0.473770  1.0  0.003
  C  C166  1  0.529330  0.547570  0.558270  1.0  -0.0236
  C  C167  1  0.521130  0.500170  0.422670  1.0  -0.0788
  C  C168  1  0.605230  0.590570  0.432670  1.0  0.6669
  C  C169  1  0.120200  0.338200  0.807100  1.0  0.0032
  C  C170  1  0.119100  0.315100  0.891600  1.0  -0.0227
  C  C171  1  0.166500  0.354300  0.756000  1.0  -0.0774
  C  C172  1  0.076100  0.348000  0.766000  1.0  0.6684
  C  C173  1  0.786870  0.671530  0.140430  1.0  0.0032
  C  C174  1  0.785770  0.648430  0.224930  1.0  -0.0227
  C  C175  1  0.833170  0.687630  0.089330  1.0  -0.0775
  C  C176  1  0.742770  0.681330  0.099330  1.0  0.6684
  C  C177  1  0.453530  0.004870  0.473770  1.0  0.0032
  C  C178  1  0.452430  0.981770  0.558270  1.0  -0.0229
  C  C179  1  0.499830  0.020970  0.422670  1.0  -0.0774
  C  C180  1  0.409430  0.014670  0.432670  1.0  0.6684
  C  C181  1  0.782000  0.661800  0.692900  1.0  0.0031
  C  C182  1  0.804000  0.684900  0.608400  1.0  -0.0216
  C  C183  1  0.812200  0.645700  0.744000  1.0  -0.0775
  C  C184  1  0.728100  0.652000  0.734000  1.0  0.669
  C  C185  1  0.448670  0.995130  0.026230  1.0  0.0031
  C  C186  1  0.470670  0.018230  0.941730  1.0  -0.0221
  C  C187  1  0.478870  0.979030  0.077330  1.0  -0.0776
  C  C188  1  0.394770  0.985330  0.067330  1.0  0.6687
  C  C189  1  0.115330  0.328470  0.359570  1.0  0.0031
  C  C190  1  0.137330  0.351570  0.275070  1.0  -0.0216
  C  C191  1  0.145530  0.312370  0.410670  1.0  -0.0776
  C  C192  1  0.061430  0.318670  0.400670  1.0  0.669
  C  C193  1  0.879800  0.218000  0.692900  1.0  0.0041
  C  C194  1  0.880900  0.196000  0.608400  1.0  -0.0229
  C  C195  1  0.833500  0.187800  0.744000  1.0  -0.0788
  C  C196  1  0.923900  0.271900  0.734000  1.0  0.668
  C  C197  1  0.546470  0.551330  0.026230  1.0  0.0041
  C  C198  1  0.547570  0.529330  0.941730  1.0  -0.0236
  C  C199  1  0.500170  0.521130  0.077330  1.0  -0.0787
  C  C200  1  0.590570  0.605230  0.067330  1.0  0.6681
  C  C201  1  0.213130  0.884670  0.359570  1.0  0.0041
  C  C202  1  0.214230  0.862670  0.275070  1.0  -0.023
  C  C203  1  0.166830  0.854470  0.410670  1.0  -0.0788
  C  C204  1  0.257230  0.938570  0.400670  1.0  0.668
  C  C205  1  0.338200  0.120200  0.692900  1.0  0.0027
  C  C206  1  0.315100  0.119100  0.608400  1.0  -0.025
  C  C207  1  0.354300  0.166500  0.744000  1.0  -0.079
  C  C208  1  0.348000  0.076100  0.734000  1.0  0.6669
  C  C209  1  0.004870  0.453530  0.026230  1.0  0.0027
  C  C210  1  0.981770  0.452430  0.941730  1.0  -0.0252
  C  C211  1  0.020970  0.499830  0.077330  1.0  -0.079
  C  C212  1  0.014670  0.409430  0.067330  1.0  0.6669
  C  C213  1  0.671530  0.786870  0.359570  1.0  0.0027
  C  C214  1  0.648430  0.785770  0.275070  1.0  -0.025
  C  C215  1  0.687630  0.833170  0.410670  1.0  -0.079
  C  C216  1  0.681330  0.742770  0.400670  1.0  0.6669
  S  S217  1  0.280100  0.227000  0.050000  1.0  -0.3614
  S  S218  1  0.946770  0.560330  0.383330  1.0  -0.3639
  S  S219  1  0.613430  0.893670  0.716670  1.0  -0.3654
  S  S220  1  0.773000  0.053100  0.050000  1.0  -0.3637
  S  S221  1  0.439670  0.386430  0.383330  1.0  -0.3688
  S  S222  1  0.106330  0.719770  0.716670  1.0  -0.3638
  S  S223  1  0.946900  0.719900  0.050000  1.0  -0.365
  S  S224  1  0.613570  0.053230  0.383330  1.0  -0.3678
  S  S225  1  0.280230  0.386570  0.716670  1.0  -0.3696
  S  S226  1  0.227000  0.280100  0.450000  1.0  -0.3628
  S  S227  1  0.893670  0.613430  0.783330  1.0  -0.3669
  S  S228  1  0.560330  0.946770  0.116670  1.0  -0.365
  S  S229  1  0.053100  0.773000  0.450000  1.0  -0.3621
  S  S230  1  0.719770  0.106330  0.783330  1.0  -0.3627
  S  S231  1  0.386430  0.439670  0.116670  1.0  -0.367
  S  S232  1  0.719900  0.946900  0.450000  1.0  -0.3628
  S  S233  1  0.386570  0.280230  0.783330  1.0  -0.3686
  S  S234  1  0.053230  0.613570  0.116670  1.0  -0.3654
  S  S235  1  0.719900  0.773000  0.950000  1.0  -0.364
  S  S236  1  0.386570  0.106330  0.283330  1.0  -0.3679
  S  S237  1  0.053230  0.439670  0.616670  1.0  -0.3652
  S  S238  1  0.227000  0.946900  0.950000  1.0  -0.3651
  S  S239  1  0.893670  0.280230  0.283330  1.0  -0.3655
  S  S240  1  0.560330  0.613570  0.616670  1.0  -0.3696
  S  S241  1  0.053100  0.280100  0.950000  1.0  -0.3655
  S  S242  1  0.719770  0.613430  0.283330  1.0  -0.3692
  S  S243  1  0.386430  0.946770  0.616670  1.0  -0.3679
  S  S244  1  0.773000  0.719900  0.550000  1.0  -0.3645
  S  S245  1  0.439670  0.053230  0.883330  1.0  -0.3651
  S  S246  1  0.106330  0.386570  0.216670  1.0  -0.3683
  S  S247  1  0.946900  0.227000  0.550000  1.0  -0.3663
  S  S248  1  0.613570  0.560330  0.883330  1.0  -0.3697
  S  S249  1  0.280230  0.893670  0.216670  1.0  -0.3664
  S  S250  1  0.280100  0.053100  0.550000  1.0  -0.3661
  S  S251  1  0.946770  0.386430  0.883330  1.0  -0.3689
  S  S252  1  0.613430  0.719770  0.216670  1.0  -0.3711
  O  O253  1  0.379900  0.319300  0.194300  1.0  -0.6526
  O  O254  1  0.336000  0.266100  0.316000  1.0  -0.6433
  O  O255  1  0.046570  0.652630  0.527630  1.0  -0.6528
  O  O256  1  0.002670  0.599430  0.649330  1.0  -0.6433
  O  O257  1  0.713230  0.985970  0.860970  1.0  -0.6527
  O  O258  1  0.669330  0.932770  0.982670  1.0  -0.6433
  O  O259  1  0.680700  0.060600  0.194300  1.0  -0.6501
  O  O260  1  0.733900  0.069900  0.316000  1.0  -0.6428
  O  O261  1  0.347370  0.393930  0.527630  1.0  -0.6501
  O  O262  1  0.400570  0.403230  0.649330  1.0  -0.6428
  O  O263  1  0.014030  0.727270  0.860970  1.0  -0.6502
  O  O264  1  0.067230  0.736570  0.982670  1.0  -0.6428
  O  O265  1  0.939400  0.620100  0.194300  1.0  -0.6513
  O  O266  1  0.930100  0.664000  0.316000  1.0  -0.645
  O  O267  1  0.606070  0.953430  0.527630  1.0  -0.6514
  O  O268  1  0.596770  0.997330  0.649330  1.0  -0.645
  O  O269  1  0.272730  0.286770  0.860970  1.0  -0.6517
  O  O270  1  0.263430  0.330670  0.982670  1.0  -0.6449
  O  O271  1  0.319300  0.379900  0.305700  1.0  -0.6535
  O  O272  1  0.266100  0.336000  0.184000  1.0  -0.6433
  O  O273  1  0.985970  0.713230  0.639030  1.0  -0.6533
  O  O274  1  0.932770  0.669330  0.517330  1.0  -0.6434
  O  O275  1  0.652630  0.046570  0.972370  1.0  -0.6535
  O  O276  1  0.599430  0.002670  0.850670  1.0  -0.6433
  O  O277  1  0.060600  0.680700  0.305700  1.0  -0.6522
  O  O278  1  0.069900  0.733900  0.184000  1.0  -0.6424
  O  O279  1  0.727270  0.014030  0.639030  1.0  -0.6522
  O  O280  1  0.736570  0.067230  0.517330  1.0  -0.6424
  O  O281  1  0.393930  0.347370  0.972370  1.0  -0.6522
  O  O282  1  0.403230  0.400570  0.850670  1.0  -0.6424
  O  O283  1  0.620100  0.939400  0.305700  1.0  -0.6499
  O  O284  1  0.664000  0.930100  0.184000  1.0  -0.641
  O  O285  1  0.286770  0.272730  0.639030  1.0  -0.6503
  O  O286  1  0.330670  0.263430  0.517330  1.0  -0.641
  O  O287  1  0.953430  0.606070  0.972370  1.0  -0.6499
  O  O288  1  0.997330  0.596770  0.850670  1.0  -0.641
  O  O289  1  0.620100  0.680700  0.805700  1.0  -0.6526
  O  O290  1  0.664000  0.733900  0.684000  1.0  -0.6421
  O  O291  1  0.286770  0.014030  0.139030  1.0  -0.6525
  O  O292  1  0.330670  0.067230  0.017330  1.0  -0.6421
  O  O293  1  0.953430  0.347370  0.472370  1.0  -0.6527
  O  O294  1  0.997330  0.400570  0.350670  1.0  -0.6421
  O  O295  1  0.319300  0.939400  0.805700  1.0  -0.6496
  O  O296  1  0.266100  0.930100  0.684000  1.0  -0.6401
  O  O297  1  0.985970  0.272730  0.139030  1.0  -0.6497
  O  O298  1  0.932770  0.263430  0.017330  1.0  -0.6401
  O  O299  1  0.652630  0.606070  0.472370  1.0  -0.6496
  O  O300  1  0.599430  0.596770  0.350670  1.0  -0.6401
  O  O301  1  0.060600  0.379900  0.805700  1.0  -0.6536
  O  O302  1  0.069900  0.336000  0.684000  1.0  -0.6435
  O  O303  1  0.727270  0.713230  0.139030  1.0  -0.654
  O  O304  1  0.736570  0.669330  0.017330  1.0  -0.6435
  O  O305  1  0.393930  0.046570  0.472370  1.0  -0.6537
  O  O306  1  0.403230  0.002670  0.350670  1.0  -0.6435
  O  O307  1  0.680700  0.620100  0.694300  1.0  -0.6513
  O  O308  1  0.733900  0.664000  0.816000  1.0  -0.6451
  O  O309  1  0.347370  0.953430  0.027630  1.0  -0.6513
  O  O310  1  0.400570  0.997330  0.149330  1.0  -0.6451
  O  O311  1  0.014030  0.286770  0.360970  1.0  -0.6513
  O  O312  1  0.067230  0.330670  0.482670  1.0  -0.6451
  O  O313  1  0.939400  0.319300  0.694300  1.0  -0.6528
  O  O314  1  0.930100  0.266100  0.816000  1.0  -0.643
  O  O315  1  0.606070  0.652630  0.027630  1.0  -0.6528
  O  O316  1  0.596770  0.599430  0.149330  1.0  -0.643
  O  O317  1  0.272730  0.985970  0.360970  1.0  -0.6527
  O  O318  1  0.263430  0.932770  0.482670  1.0  -0.643
  O  O319  1  0.379900  0.060600  0.694300  1.0  -0.6488
  O  O320  1  0.336000  0.069900  0.816000  1.0  -0.6425
  O  O321  1  0.046570  0.393930  0.027630  1.0  -0.6488
  O  O322  1  0.002670  0.403230  0.149330  1.0  -0.6425
  O  O323  1  0.713230  0.727270  0.360970  1.0  -0.6491
  O  O324  1  0.669330  0.736570  0.482670  1.0  -0.6424
