# generated using pymatgen
data_Cu2H24C30N6Cl
_symmetry_space_group_name_H-M   'P 1'
_cell_length_a   20.06340000
_cell_length_b   17.31590000
_cell_length_c   15.64200000
_cell_angle_alpha   90.00000000
_cell_angle_beta   124.21100000
_cell_angle_gamma   90.00000000
_symmetry_Int_Tables_number   1
_chemical_formula_structural   Cu2H24C30N6Cl
_chemical_formula_sum   'Cu8 H96 C120 N24 Cl4'
_cell_volume   4493.99957728
_cell_formula_units_Z   4
loop_
 _symmetry_equiv_pos_site_id
 _symmetry_equiv_pos_as_xyz
  1  'x, y, z'
loop_
 _atom_site_type_symbol
 _atom_site_label
 _atom_site_symmetry_multiplicity
 _atom_site_fract_x
 _atom_site_fract_y
 _atom_site_fract_z
 _atom_site_occupancy
 _atom_site_charge
  Cu  Cu1  1  0.276540  0.500000  0.801020  1.0  0.4716
  Cu  Cu2  1  0.776540  0.000000  0.801020  1.0  0.4716
  Cu  Cu3  1  0.723460  0.500000  0.198980  1.0  0.4718
  Cu  Cu4  1  0.223460  0.000000  0.198980  1.0  0.4718
  Cu  Cu5  1  0.471610  0.000000  0.552270  1.0  0.2813
  Cu  Cu6  1  0.971610  0.500000  0.552270  1.0  0.2813
  Cu  Cu7  1  0.528390  0.000000  0.447730  1.0  0.2808
  Cu  Cu8  1  0.028390  0.500000  0.447730  1.0  0.2808
  H  H9  1  0.205400  0.624200  0.649000  1.0  0.0492
  H  H10  1  0.241200  0.723200  0.583300  1.0  0.0852
  H  H11  1  0.469800  0.658800  0.771900  1.0  0.0891
  H  H12  1  0.424500  0.559200  0.822600  1.0  0.0353
  H  H13  1  0.339800  0.947400  0.564300  1.0  0.2128
  H  H14  1  0.298600  0.845900  0.616300  1.0  0.1007
  H  H15  1  0.478800  0.725700  0.648000  1.0  0.0886
  H  H16  1  0.516100  0.834600  0.600700  1.0  0.0427
  H  H17  1  0.355600  0.562600  0.011900  1.0  0.0372
  H  H18  1  0.352000  0.672800  0.095200  1.0  0.1065
  H  H19  1  0.148900  0.730600  0.837300  1.0  0.0939
  H  H20  1  0.164600  0.623600  0.760400  1.0  0.053
  H  H21  1  0.705400  0.124200  0.649000  1.0  0.0492
  H  H22  1  0.741200  0.223200  0.583300  1.0  0.0852
  H  H23  1  0.969800  0.158800  0.771900  1.0  0.0891
  H  H24  1  0.924500  0.059200  0.822600  1.0  0.0353
  H  H25  1  0.839800  0.447400  0.564300  1.0  0.2128
  H  H26  1  0.798600  0.345900  0.616300  1.0  0.1007
  H  H27  1  0.978800  0.225700  0.648000  1.0  0.0886
  H  H28  1  0.016100  0.334600  0.600700  1.0  0.0427
  H  H29  1  0.855600  0.062600  0.011900  1.0  0.0372
  H  H30  1  0.852000  0.172800  0.095200  1.0  0.1065
  H  H31  1  0.648900  0.230600  0.837300  1.0  0.0939
  H  H32  1  0.664600  0.123600  0.760400  1.0  0.053
  H  H33  1  0.794600  0.624200  0.351000  1.0  0.0497
  H  H34  1  0.758800  0.723200  0.416700  1.0  0.0851
  H  H35  1  0.530200  0.658800  0.228100  1.0  0.0893
  H  H36  1  0.575500  0.559200  0.177400  1.0  0.0358
  H  H37  1  0.660200  0.947400  0.435700  1.0  0.2102
  H  H38  1  0.701400  0.845900  0.383700  1.0  0.0995
  H  H39  1  0.521200  0.725700  0.352000  1.0  0.0887
  H  H40  1  0.483900  0.834600  0.399300  1.0  0.0426
  H  H41  1  0.644400  0.562600  0.988100  1.0  0.0365
  H  H42  1  0.648000  0.672800  0.904800  1.0  0.107
  H  H43  1  0.851100  0.730600  0.162700  1.0  0.0942
  H  H44  1  0.835400  0.623600  0.239600  1.0  0.0536
  H  H45  1  0.294600  0.124200  0.351000  1.0  0.0497
  H  H46  1  0.258800  0.223200  0.416700  1.0  0.0851
  H  H47  1  0.030200  0.158800  0.228100  1.0  0.0893
  H  H48  1  0.075500  0.059200  0.177400  1.0  0.0358
  H  H49  1  0.160200  0.447400  0.435700  1.0  0.2102
  H  H50  1  0.201400  0.345900  0.383700  1.0  0.0995
  H  H51  1  0.021200  0.225700  0.352000  1.0  0.0887
  H  H52  1  0.983900  0.334600  0.399300  1.0  0.0426
  H  H53  1  0.144400  0.062600  0.988100  1.0  0.0365
  H  H54  1  0.148000  0.172800  0.904800  1.0  0.107
  H  H55  1  0.351100  0.230600  0.162700  1.0  0.0942
  H  H56  1  0.335400  0.123600  0.239600  1.0  0.0536
  H  H57  1  0.794600  0.375800  0.351000  1.0  0.0497
  H  H58  1  0.758800  0.276800  0.416700  1.0  0.0851
  H  H59  1  0.530200  0.341200  0.228100  1.0  0.0889
  H  H60  1  0.575500  0.440800  0.177400  1.0  0.0356
  H  H61  1  0.660200  0.052600  0.435700  1.0  0.2098
  H  H62  1  0.701400  0.154100  0.383700  1.0  0.0997
  H  H63  1  0.521200  0.274300  0.352000  1.0  0.0891
  H  H64  1  0.483900  0.165400  0.399300  1.0  0.0425
  H  H65  1  0.644400  0.437400  0.988100  1.0  0.0369
  H  H66  1  0.648000  0.327200  0.904800  1.0  0.1069
  H  H67  1  0.851100  0.269400  0.162700  1.0  0.0937
  H  H68  1  0.835400  0.376400  0.239600  1.0  0.054
  H  H69  1  0.294600  0.875800  0.351000  1.0  0.0497
  H  H70  1  0.258800  0.776800  0.416700  1.0  0.0851
  H  H71  1  0.030200  0.841200  0.228100  1.0  0.0889
  H  H72  1  0.075500  0.940800  0.177400  1.0  0.0356
  H  H73  1  0.160200  0.552600  0.435700  1.0  0.2098
  H  H74  1  0.201400  0.654100  0.383700  1.0  0.0997
  H  H75  1  0.021200  0.774300  0.352000  1.0  0.0891
  H  H76  1  0.983900  0.665400  0.399300  1.0  0.0425
  H  H77  1  0.144400  0.937400  0.988100  1.0  0.0369
  H  H78  1  0.148000  0.827200  0.904800  1.0  0.1069
  H  H79  1  0.351100  0.769400  0.162700  1.0  0.0937
  H  H80  1  0.335400  0.876400  0.239600  1.0  0.054
  H  H81  1  0.205400  0.375800  0.649000  1.0  0.0493
  H  H82  1  0.241200  0.276800  0.583300  1.0  0.0851
  H  H83  1  0.469800  0.341200  0.771900  1.0  0.0893
  H  H84  1  0.424500  0.440800  0.822600  1.0  0.0349
  H  H85  1  0.339800  0.052600  0.564300  1.0  0.2129
  H  H86  1  0.298600  0.154100  0.616300  1.0  0.1007
  H  H87  1  0.478800  0.274300  0.648000  1.0  0.0886
  H  H88  1  0.516100  0.165400  0.600700  1.0  0.0427
  H  H89  1  0.355600  0.437400  0.011900  1.0  0.0366
  H  H90  1  0.352000  0.327200  0.095200  1.0  0.1061
  H  H91  1  0.148900  0.269400  0.837300  1.0  0.093
  H  H92  1  0.164600  0.376400  0.760400  1.0  0.0529
  H  H93  1  0.705400  0.875800  0.649000  1.0  0.0493
  H  H94  1  0.741200  0.776800  0.583300  1.0  0.0851
  H  H95  1  0.969800  0.841200  0.771900  1.0  0.0893
  H  H96  1  0.924500  0.940800  0.822600  1.0  0.0349
  H  H97  1  0.839800  0.552600  0.564300  1.0  0.2129
  H  H98  1  0.798600  0.654100  0.616300  1.0  0.1007
  H  H99  1  0.978800  0.774300  0.648000  1.0  0.0886
  H  H100  1  0.016100  0.665400  0.600700  1.0  0.0427
  H  H101  1  0.855600  0.937400  0.011900  1.0  0.0366
  H  H102  1  0.852000  0.827200  0.095200  1.0  0.1061
  H  H103  1  0.648900  0.769400  0.837300  1.0  0.093
  H  H104  1  0.664600  0.876400  0.760400  1.0  0.0529
  C  C105  1  0.260700  0.631200  0.675300  1.0  0.1286
  C  C106  1  0.281900  0.691800  0.637400  1.0  -0.2387
  C  C107  1  0.360900  0.706800  0.677300  1.0  0.1078
  C  C108  1  0.414100  0.654700  0.745200  1.0  -0.2322
  C  C109  1  0.385800  0.595400  0.774800  1.0  0.1547
  C  C110  1  0.372000  0.902100  0.587100  1.0  0.1191
  C  C111  1  0.346000  0.841100  0.617000  1.0  -0.2267
  C  C112  1  0.387700  0.773900  0.646700  1.0  0.093
  C  C113  1  0.449800  0.772400  0.635700  1.0  -0.23
  C  C114  1  0.471700  0.838000  0.606700  1.0  0.1447
  C  C115  1  0.312900  0.598300  0.972900  1.0  0.1487
  C  C116  1  0.310600  0.664500  0.024300  1.0  -0.1757
  C  C117  1  0.251700  0.714400  0.974500  1.0  0.0226
  C  C118  1  0.194900  0.698300  0.876400  1.0  -0.2086
  C  C119  1  0.204100  0.632800  0.831700  1.0  0.1362
  C  C120  1  0.760700  0.131200  0.675300  1.0  0.1286
  C  C121  1  0.781900  0.191800  0.637400  1.0  -0.2387
  C  C122  1  0.860900  0.206800  0.677300  1.0  0.1078
  C  C123  1  0.914100  0.154700  0.745200  1.0  -0.2322
  C  C124  1  0.885800  0.095400  0.774800  1.0  0.1547
  C  C125  1  0.872000  0.402100  0.587100  1.0  0.1191
  C  C126  1  0.846000  0.341100  0.617000  1.0  -0.2267
  C  C127  1  0.887700  0.273900  0.646700  1.0  0.093
  C  C128  1  0.949800  0.272400  0.635700  1.0  -0.23
  C  C129  1  0.971700  0.338000  0.606700  1.0  0.1447
  C  C130  1  0.812900  0.098300  0.972900  1.0  0.1487
  C  C131  1  0.810600  0.164500  0.024300  1.0  -0.1757
  C  C132  1  0.751700  0.214400  0.974500  1.0  0.0226
  C  C133  1  0.694900  0.198300  0.876400  1.0  -0.2086
  C  C134  1  0.704100  0.132800  0.831700  1.0  0.1362
  C  C135  1  0.739300  0.631200  0.324700  1.0  0.1293
  C  C136  1  0.718100  0.691800  0.362600  1.0  -0.237
  C  C137  1  0.639100  0.706800  0.322700  1.0  0.1078
  C  C138  1  0.585900  0.654700  0.254800  1.0  -0.2342
  C  C139  1  0.614200  0.595400  0.225200  1.0  0.1548
  C  C140  1  0.628000  0.902100  0.412900  1.0  0.121
  C  C141  1  0.654000  0.841100  0.383000  1.0  -0.2265
  C  C142  1  0.612300  0.773900  0.353300  1.0  0.091
  C  C143  1  0.550200  0.772400  0.364300  1.0  -0.23
  C  C144  1  0.528300  0.838000  0.393300  1.0  0.1458
  C  C145  1  0.687100  0.598300  0.027100  1.0  0.1464
  C  C146  1  0.689400  0.664500  0.975700  1.0  -0.1755
  C  C147  1  0.748300  0.714400  0.025500  1.0  0.0226
  C  C148  1  0.805100  0.698300  0.123600  1.0  -0.2086
  C  C149  1  0.795900  0.632800  0.168300  1.0  0.1359
  C  C150  1  0.239300  0.131200  0.324700  1.0  0.1293
  C  C151  1  0.218100  0.191800  0.362600  1.0  -0.237
  C  C152  1  0.139100  0.206800  0.322700  1.0  0.1078
  C  C153  1  0.085900  0.154700  0.254800  1.0  -0.2342
  C  C154  1  0.114200  0.095400  0.225200  1.0  0.1548
  C  C155  1  0.128000  0.402100  0.412900  1.0  0.121
  C  C156  1  0.154000  0.341100  0.383000  1.0  -0.2265
  C  C157  1  0.112300  0.273900  0.353300  1.0  0.091
  C  C158  1  0.050200  0.272400  0.364300  1.0  -0.23
  C  C159  1  0.028300  0.338000  0.393300  1.0  0.1458
  C  C160  1  0.187100  0.098300  0.027100  1.0  0.1464
  C  C161  1  0.189400  0.164500  0.975700  1.0  -0.1755
  C  C162  1  0.248300  0.214400  0.025500  1.0  0.0226
  C  C163  1  0.305100  0.198300  0.123600  1.0  -0.2086
  C  C164  1  0.295900  0.132800  0.168300  1.0  0.1359
  C  C165  1  0.739300  0.368800  0.324700  1.0  0.1291
  C  C166  1  0.718100  0.308200  0.362600  1.0  -0.2372
  C  C167  1  0.639100  0.293200  0.322700  1.0  0.1075
  C  C168  1  0.585900  0.345300  0.254800  1.0  -0.2343
  C  C169  1  0.614200  0.404600  0.225200  1.0  0.154
  C  C170  1  0.628000  0.097900  0.412900  1.0  0.1201
  C  C171  1  0.654000  0.158900  0.383000  1.0  -0.227
  C  C172  1  0.612300  0.226100  0.353300  1.0  0.0913
  C  C173  1  0.550200  0.227600  0.364300  1.0  -0.2328
  C  C174  1  0.528300  0.162000  0.393300  1.0  0.1456
  C  C175  1  0.687100  0.401700  0.027100  1.0  0.1465
  C  C176  1  0.689400  0.335500  0.975700  1.0  -0.1756
  C  C177  1  0.748300  0.285600  0.025500  1.0  0.0221
  C  C178  1  0.805100  0.301700  0.123600  1.0  -0.2082
  C  C179  1  0.795900  0.367200  0.168300  1.0  0.1364
  C  C180  1  0.239300  0.868800  0.324700  1.0  0.1291
  C  C181  1  0.218100  0.808200  0.362600  1.0  -0.2372
  C  C182  1  0.139100  0.793200  0.322700  1.0  0.1075
  C  C183  1  0.085900  0.845300  0.254800  1.0  -0.2343
  C  C184  1  0.114200  0.904600  0.225200  1.0  0.154
  C  C185  1  0.128000  0.597900  0.412900  1.0  0.1201
  C  C186  1  0.154000  0.658900  0.383000  1.0  -0.227
  C  C187  1  0.112300  0.726100  0.353300  1.0  0.0913
  C  C188  1  0.050200  0.727600  0.364300  1.0  -0.2328
  C  C189  1  0.028300  0.662000  0.393300  1.0  0.1456
  C  C190  1  0.187100  0.901700  0.027100  1.0  0.1465
  C  C191  1  0.189400  0.835500  0.975700  1.0  -0.1756
  C  C192  1  0.248300  0.785600  0.025500  1.0  0.0221
  C  C193  1  0.305100  0.801700  0.123600  1.0  -0.2082
  C  C194  1  0.295900  0.867200  0.168300  1.0  0.1364
  C  C195  1  0.260700  0.368800  0.675300  1.0  0.1282
  C  C196  1  0.281900  0.308200  0.637400  1.0  -0.2387
  C  C197  1  0.360900  0.293200  0.677300  1.0  0.1077
  C  C198  1  0.414100  0.345300  0.745200  1.0  -0.2322
  C  C199  1  0.385800  0.404600  0.774800  1.0  0.1539
  C  C200  1  0.372000  0.097900  0.587100  1.0  0.1176
  C  C201  1  0.346000  0.158900  0.617000  1.0  -0.2261
  C  C202  1  0.387700  0.226100  0.646700  1.0  0.0921
  C  C203  1  0.449800  0.227600  0.635700  1.0  -0.2322
  C  C204  1  0.471700  0.162000  0.606700  1.0  0.1448
  C  C205  1  0.312900  0.401700  0.972900  1.0  0.1484
  C  C206  1  0.310600  0.335500  0.024300  1.0  -0.176
  C  C207  1  0.251700  0.285600  0.974500  1.0  0.0224
  C  C208  1  0.194900  0.301700  0.876400  1.0  -0.2088
  C  C209  1  0.204100  0.367200  0.831700  1.0  0.1364
  C  C210  1  0.760700  0.868800  0.675300  1.0  0.1282
  C  C211  1  0.781900  0.808200  0.637400  1.0  -0.2387
  C  C212  1  0.860900  0.793200  0.677300  1.0  0.1077
  C  C213  1  0.914100  0.845300  0.745200  1.0  -0.2322
  C  C214  1  0.885800  0.904600  0.774800  1.0  0.1539
  C  C215  1  0.872000  0.597900  0.587100  1.0  0.1176
  C  C216  1  0.846000  0.658900  0.617000  1.0  -0.2261
  C  C217  1  0.887700  0.726100  0.646700  1.0  0.0921
  C  C218  1  0.949800  0.727600  0.635700  1.0  -0.2322
  C  C219  1  0.971700  0.662000  0.606700  1.0  0.1448
  C  C220  1  0.812900  0.901700  0.972900  1.0  0.1484
  C  C221  1  0.810600  0.835500  0.024300  1.0  -0.176
  C  C222  1  0.751700  0.785600  0.974500  1.0  0.0224
  C  C223  1  0.694900  0.801700  0.876400  1.0  -0.2088
  C  C224  1  0.704100  0.867200  0.831700  1.0  0.1364
  N  N225  1  0.312300  0.584000  0.744200  1.0  -0.2981
  N  N226  1  0.435600  0.903500  0.587500  1.0  -0.297
  N  N227  1  0.262300  0.584100  0.880100  1.0  -0.2756
  N  N228  1  0.812300  0.084000  0.744200  1.0  -0.2981
  N  N229  1  0.935600  0.403500  0.587500  1.0  -0.297
  N  N230  1  0.762300  0.084100  0.880100  1.0  -0.2756
  N  N231  1  0.687700  0.584000  0.255800  1.0  -0.2978
  N  N232  1  0.564400  0.903500  0.412500  1.0  -0.2945
  N  N233  1  0.737700  0.584100  0.119900  1.0  -0.2749
  N  N234  1  0.187700  0.084000  0.255800  1.0  -0.2978
  N  N235  1  0.064400  0.403500  0.412500  1.0  -0.2945
  N  N236  1  0.237700  0.084100  0.119900  1.0  -0.2749
  N  N237  1  0.687700  0.416000  0.255800  1.0  -0.2978
  N  N238  1  0.564400  0.096500  0.412500  1.0  -0.295
  N  N239  1  0.737700  0.415900  0.119900  1.0  -0.2751
  N  N240  1  0.187700  0.916000  0.255800  1.0  -0.2978
  N  N241  1  0.064400  0.596500  0.412500  1.0  -0.295
  N  N242  1  0.237700  0.915900  0.119900  1.0  -0.2751
  N  N243  1  0.312300  0.416000  0.744200  1.0  -0.2983
  N  N244  1  0.435600  0.096500  0.587500  1.0  -0.2951
  N  N245  1  0.262300  0.415900  0.880100  1.0  -0.2759
  N  N246  1  0.812300  0.916000  0.744200  1.0  -0.2983
  N  N247  1  0.935600  0.596500  0.587500  1.0  -0.2951
  N  N248  1  0.762300  0.915900  0.880100  1.0  -0.2759
  Cl  Cl249  1  0.622600  0.000000  0.647600  1.0  -0.4816
  Cl  Cl250  1  0.122600  0.500000  0.647600  1.0  -0.4816
  Cl  Cl251  1  0.377400  0.000000  0.352400  1.0  -0.4814
  Cl  Cl252  1  0.877400  0.500000  0.352400  1.0  -0.4814
