# generated using pymatgen
data_Cu2H16C37O8
_symmetry_space_group_name_H-M   'P 1'
_cell_length_a   19.01530000
_cell_length_b   17.31460000
_cell_length_c   14.77290000
_cell_angle_alpha   110.33900000
_cell_angle_beta   114.07700000
_cell_angle_gamma   60.31420000
_symmetry_Int_Tables_number   1
_chemical_formula_structural   Cu2H16C37O8
_chemical_formula_sum   'Cu2 H16 C37 O8'
_cell_volume   3792.38057515
_cell_formula_units_Z   1
loop_
 _symmetry_equiv_pos_site_id
 _symmetry_equiv_pos_as_xyz
  1  'x, y, z'
loop_
 _atom_site_type_symbol
 _atom_site_label
 _atom_site_symmetry_multiplicity
 _atom_site_fract_x
 _atom_site_fract_y
 _atom_site_fract_z
 _atom_site_occupancy
 _atom_site_charge
  Cu  Cu1  1  0.493370  0.293580  0.319240  1.0  0.9153
  Cu  Cu2  1  0.512470  0.176800  0.156020  1.0  0.8981
  H  H3  1  0.747190  0.777270  0.305170  1.0  0.1646
  H  H4  1  0.650570  0.921760  0.252340  1.0  0.1421
  H  H5  1  0.809600  0.183920  0.314450  1.0  0.1384
  H  H6  1  0.908490  0.257580  0.395790  1.0  0.1423
  H  H7  1  0.330050  0.176460  0.352440  1.0  0.1166
  H  H8  1  0.218570  0.271430  0.434900  1.0  0.129
  H  H9  1  0.111360  0.461150  0.243660  1.0  0.1288
  H  H10  1  0.223590  0.365190  0.161020  1.0  0.1089
  H  H11  1  0.742270  0.060110  0.542750  1.0  0.1555
  H  H12  1  0.840300  0.913050  0.595910  1.0  0.1767
  H  H13  1  0.703290  0.513440  0.353610  1.0  0.137
  H  H14  1  0.605730  0.441010  0.272620  1.0  0.1121
  H  H15  1  0.376990  0.320200  0.917270  1.0  0.1447
  H  H16  1  0.268330  0.373360  0.766600  1.0  0.1478
  H  H17  1  0.096030  0.547700  0.939110  1.0  0.1744
  H  H18  1  0.206220  0.493900  0.092820  1.0  0.1226
  C  C19  1  0.682360  0.011380  0.389900  1.0  -0.0594
  C  C20  1  0.806780  0.825220  0.457430  1.0  -0.048
  C  C21  1  0.748590  0.837360  0.360380  1.0  -0.0664
  C  C22  1  0.690800  0.924190  0.329210  1.0  -0.0558
  C  C23  1  0.784650  0.255860  0.318050  1.0  -0.01
  C  C24  1  0.842080  0.299300  0.367250  1.0  -0.1113
  C  C25  1  0.284760  0.256890  0.242300  1.0  0.0372
  C  C26  1  0.279430  0.235720  0.322170  1.0  0.1245
  C  C27  1  0.216030  0.292000  0.372020  1.0  -0.1096
  C  C28  1  0.153710  0.375690  0.347560  1.0  0.006
  C  C29  1  0.156840  0.396780  0.266120  1.0  -0.1142
  C  C30  1  0.220520  0.339860  0.215970  1.0  -0.0384
  C  C31  1  0.740750  0.999880  0.487890  1.0  -0.0556
  C  C32  1  0.799230  0.912100  0.519350  1.0  -0.0457
  C  C33  1  0.696690  0.303930  0.280160  1.0  -0.0193
  C  C34  1  0.816310  0.393800  0.383500  1.0  -0.0316
  C  C35  1  0.729110  0.440720  0.344420  1.0  -0.1343
  C  C36  1  0.672360  0.397810  0.296180  1.0  -0.0961
  C  C37  1  0.307380  0.400280  0.026390  1.0  -0.0659
  C  C38  1  0.316400  0.371070  0.927070  1.0  -0.0588
  C  C39  1  0.251570  0.402380  0.836460  1.0  -0.102
  C  C40  1  0.167820  0.467410  0.832350  1.0  -0.054
  C  C41  1  0.157590  0.497750  0.931430  1.0  -0.0052
  C  C42  1  0.223200  0.466200  0.023150  1.0  -0.0487
  C  C43  1  0.980390  0.540370  0.529390  1.0  0.0928
  C  C44  1  0.876060  0.443140  0.440250  1.0  -0.0342
  C  C45  1  0.920730  0.488660  0.486790  1.0  0.0831
  C  C46  1  0.041170  0.524100  0.644740  1.0  0.0322
  C  C47  1  0.096770  0.499920  0.729910  1.0  -0.0181
  C  C48  1  0.090440  0.439660  0.407950  1.0  -0.057
  C  C49  1  0.041010  0.491270  0.461450  1.0  0.12
  C  C50  1  0.870660  0.727440  0.489960  1.0  0.0259
  C  C51  1  0.921460  0.646800  0.513330  1.0  -0.0055
  C  C52  1  0.385460  0.351450  0.119500  1.0  0.3284
  C  C53  1  0.625830  0.270210  0.252240  1.0  0.4224
  C  C54  1  0.613940  0.104140  0.342400  1.0  0.3213
  C  C55  1  0.373590  0.222730  0.232590  1.0  0.4214
  O  O56  1  0.395410  0.369140  0.222420  1.0  -0.5842
  O  O57  1  0.449090  0.281810  0.089500  1.0  -0.5909
  O  O58  1  0.567490  0.328080  0.296750  1.0  -0.5354
  O  O59  1  0.616940  0.193060  0.190820  1.0  -0.5845
  O  O60  1  0.593440  0.194950  0.386140  1.0  -0.5699
  O  O61  1  0.572730  0.088460  0.245770  1.0  -0.5769
  O  O62  1  0.423200  0.241490  0.319260  1.0  -0.6001
  O  O63  1  0.403450  0.184710  0.149980  1.0  -0.5829
