# generated using pymatgen
data_Co3H48C80(NO4)4
_symmetry_space_group_name_H-M   'P 1'
_cell_length_a   40.26690000
_cell_length_b   13.90320000
_cell_length_c   25.99480000
_cell_angle_alpha   90.00000000
_cell_angle_beta   104.20100000
_cell_angle_gamma   90.00000000
_symmetry_Int_Tables_number   1
_chemical_formula_structural   Co3H48C80(NO4)4
_chemical_formula_sum   'Co12 H192 C320 N16 O64'
_cell_volume   14108.17572845
_cell_formula_units_Z   4
loop_
 _symmetry_equiv_pos_site_id
 _symmetry_equiv_pos_as_xyz
  1  'x, y, z'
loop_
 _atom_site_type_symbol
 _atom_site_label
 _atom_site_symmetry_multiplicity
 _atom_site_fract_x
 _atom_site_fract_y
 _atom_site_fract_z
 _atom_site_occupancy
 _atom_site_charge
  Co  Co1  1  0.794250  0.526140  0.538030  1.0  1.0195
  Co  Co2  1  0.294250  0.026140  0.538030  1.0  1.0195
  Co  Co3  1  0.205750  0.526140  0.961970  1.0  1.0211
  Co  Co4  1  0.705750  0.026140  0.961970  1.0  1.0212
  Co  Co5  1  0.205750  0.473860  0.461970  1.0  1.0219
  Co  Co6  1  0.705750  0.973860  0.461970  1.0  1.0218
  Co  Co7  1  0.794250  0.473860  0.038030  1.0  1.0203
  Co  Co8  1  0.294250  0.973860  0.038030  1.0  1.0203
  Co  Co9  1  0.750000  0.750000  0.500000  1.0  0.9892
  Co  Co10  1  0.250000  0.750000  0.000000  1.0  0.9898
  Co  Co11  1  0.250000  0.250000  0.500000  1.0  0.9898
  Co  Co12  1  0.750000  0.250000  0.000000  1.0  0.9897
  H  H13  1  0.358100  0.479400  0.504600  1.0  0.1401
  H  H14  1  0.354200  0.573800  0.610100  1.0  0.1174
  H  H15  1  0.748300  0.491000  0.672400  1.0  0.116
  H  H16  1  0.325200  0.339300  0.491800  1.0  0.1088
  H  H17  1  0.385900  0.228100  0.626300  1.0  0.113
  H  H18  1  0.682200  0.372500  0.882400  1.0  0.1064
  H  H19  1  0.391000  0.823500  0.518100  1.0  0.119
  H  H20  1  0.445000  0.645200  0.651000  1.0  0.1317
  H  H21  1  0.739700  0.610500  0.886000  1.0  0.1249
  H  H22  1  0.713900  0.465500  0.729800  1.0  0.1248
  H  H23  1  0.706900  0.655000  0.802600  1.0  0.1333
  H  H24  1  0.503700  0.646200  0.689000  1.0  0.1141
  H  H25  1  0.417400  0.370300  0.640300  1.0  0.1442
  H  H26  1  0.323200  0.716800  0.594500  1.0  0.1148
  H  H27  1  0.456400  0.406900  0.568600  1.0  0.1359
  H  H28  1  0.652800  0.684000  0.661300  1.0  0.1345
  H  H29  1  0.626300  0.485300  0.648300  1.0  0.1212
  H  H30  1  0.422400  0.682600  0.534300  1.0  0.136
  H  H31  1  0.610000  0.594400  0.784300  1.0  0.1356
  H  H32  1  0.687800  0.710200  0.604800  1.0  0.1169
  H  H33  1  0.649300  0.415000  0.797700  1.0  0.1361
  H  H34  1  0.566800  0.472500  0.612800  1.0  0.1247
  H  H35  1  0.514700  0.408300  0.607300  1.0  0.1268
  H  H36  1  0.551100  0.583500  0.747800  1.0  0.1041
  H  H37  1  0.858100  0.979400  0.504600  1.0  0.1401
  H  H38  1  0.854200  0.073800  0.610100  1.0  0.1174
  H  H39  1  0.248300  0.991000  0.672400  1.0  0.116
  H  H40  1  0.825200  0.839300  0.491800  1.0  0.1088
  H  H41  1  0.885900  0.728100  0.626300  1.0  0.113
  H  H42  1  0.182200  0.872500  0.882400  1.0  0.1064
  H  H43  1  0.891000  0.323500  0.518100  1.0  0.119
  H  H44  1  0.945000  0.145200  0.651000  1.0  0.1317
  H  H45  1  0.239700  0.110500  0.886000  1.0  0.1249
  H  H46  1  0.213900  0.965500  0.729800  1.0  0.1248
  H  H47  1  0.206900  0.155000  0.802600  1.0  0.1333
  H  H48  1  0.003700  0.146200  0.689000  1.0  0.1141
  H  H49  1  0.917400  0.870300  0.640300  1.0  0.1442
  H  H50  1  0.823200  0.216800  0.594500  1.0  0.1148
  H  H51  1  0.956400  0.906900  0.568600  1.0  0.1359
  H  H52  1  0.152800  0.184000  0.661300  1.0  0.1345
  H  H53  1  0.126300  0.985300  0.648300  1.0  0.1212
  H  H54  1  0.922400  0.182600  0.534300  1.0  0.136
  H  H55  1  0.110000  0.094400  0.784300  1.0  0.1356
  H  H56  1  0.187800  0.210200  0.604800  1.0  0.1169
  H  H57  1  0.149300  0.915000  0.797700  1.0  0.1361
  H  H58  1  0.066800  0.972500  0.612800  1.0  0.1247
  H  H59  1  0.014700  0.908300  0.607300  1.0  0.1268
  H  H60  1  0.051100  0.083500  0.747800  1.0  0.1041
  H  H61  1  0.641900  0.479400  0.995400  1.0  0.1396
  H  H62  1  0.645800  0.573800  0.889900  1.0  0.1172
  H  H63  1  0.251700  0.491000  0.827600  1.0  0.1159
  H  H64  1  0.674800  0.339300  0.008200  1.0  0.1099
  H  H65  1  0.614100  0.228100  0.873700  1.0  0.1126
  H  H66  1  0.317800  0.372500  0.617600  1.0  0.1064
  H  H67  1  0.609000  0.823500  0.981900  1.0  0.121
  H  H68  1  0.555000  0.645200  0.849000  1.0  0.1324
  H  H69  1  0.260300  0.610500  0.614000  1.0  0.1248
  H  H70  1  0.286100  0.465500  0.770200  1.0  0.1252
  H  H71  1  0.293100  0.655000  0.697400  1.0  0.1333
  H  H72  1  0.496300  0.646200  0.811000  1.0  0.1144
  H  H73  1  0.582600  0.370300  0.859700  1.0  0.1449
  H  H74  1  0.676800  0.716800  0.905500  1.0  0.117
  H  H75  1  0.543600  0.406900  0.931400  1.0  0.1361
  H  H76  1  0.347200  0.684000  0.838700  1.0  0.1347
  H  H77  1  0.373700  0.485300  0.851700  1.0  0.1214
  H  H78  1  0.577600  0.682600  0.965700  1.0  0.1363
  H  H79  1  0.390000  0.594400  0.715700  1.0  0.1367
  H  H80  1  0.312200  0.710200  0.895200  1.0  0.1162
  H  H81  1  0.350700  0.415000  0.702300  1.0  0.1368
  H  H82  1  0.433200  0.472500  0.887200  1.0  0.125
  H  H83  1  0.485300  0.408300  0.892700  1.0  0.1267
  H  H84  1  0.448900  0.583500  0.752200  1.0  0.1043
  H  H85  1  0.141900  0.979400  0.995400  1.0  0.1396
  H  H86  1  0.145800  0.073800  0.889900  1.0  0.1172
  H  H87  1  0.751700  0.991000  0.827600  1.0  0.1159
  H  H88  1  0.174800  0.839300  0.008200  1.0  0.1099
  H  H89  1  0.114100  0.728100  0.873700  1.0  0.1126
  H  H90  1  0.817800  0.872500  0.617600  1.0  0.1064
  H  H91  1  0.109000  0.323500  0.981900  1.0  0.1199
  H  H92  1  0.055000  0.145200  0.849000  1.0  0.1324
  H  H93  1  0.760300  0.110500  0.614000  1.0  0.1248
  H  H94  1  0.786100  0.965500  0.770200  1.0  0.1252
  H  H95  1  0.793100  0.155000  0.697400  1.0  0.1333
  H  H96  1  0.996300  0.146200  0.811000  1.0  0.1144
  H  H97  1  0.082600  0.870300  0.859700  1.0  0.1449
  H  H98  1  0.176800  0.216800  0.905500  1.0  0.1169
  H  H99  1  0.043600  0.906900  0.931400  1.0  0.1361
  H  H100  1  0.847200  0.184000  0.838700  1.0  0.1347
  H  H101  1  0.873700  0.985300  0.851700  1.0  0.1214
  H  H102  1  0.077600  0.182600  0.965700  1.0  0.1363
  H  H103  1  0.890000  0.094400  0.715700  1.0  0.1367
  H  H104  1  0.812200  0.210200  0.895200  1.0  0.1162
  H  H105  1  0.850700  0.915000  0.702300  1.0  0.1368
  H  H106  1  0.933200  0.972500  0.887200  1.0  0.125
  H  H107  1  0.985300  0.908300  0.892700  1.0  0.1267
  H  H108  1  0.948900  0.083500  0.752200  1.0  0.1043
  H  H109  1  0.641900  0.520600  0.495400  1.0  0.14
  H  H110  1  0.645800  0.426200  0.389900  1.0  0.1168
  H  H111  1  0.251700  0.509000  0.327600  1.0  0.1161
  H  H112  1  0.674800  0.660700  0.508200  1.0  0.1097
  H  H113  1  0.614100  0.771900  0.373700  1.0  0.1143
  H  H114  1  0.317800  0.627500  0.117600  1.0  0.1062
  H  H115  1  0.609000  0.176500  0.481900  1.0  0.1193
  H  H116  1  0.555000  0.354800  0.349000  1.0  0.132
  H  H117  1  0.260300  0.389500  0.114000  1.0  0.1244
  H  H118  1  0.286100  0.534500  0.270200  1.0  0.1253
  H  H119  1  0.293100  0.345000  0.197400  1.0  0.1337
  H  H120  1  0.496300  0.353800  0.311000  1.0  0.1136
  H  H121  1  0.582600  0.629700  0.359700  1.0  0.1446
  H  H122  1  0.676800  0.283200  0.405500  1.0  0.1162
  H  H123  1  0.543600  0.593100  0.431400  1.0  0.1357
  H  H124  1  0.347200  0.316000  0.338700  1.0  0.1348
  H  H125  1  0.373700  0.514700  0.351700  1.0  0.1213
  H  H126  1  0.577600  0.317400  0.465700  1.0  0.1361
  H  H127  1  0.390000  0.405600  0.215700  1.0  0.137
  H  H128  1  0.312200  0.289800  0.395200  1.0  0.1162
  H  H129  1  0.350700  0.585000  0.202300  1.0  0.1369
  H  H130  1  0.433200  0.527500  0.387200  1.0  0.1252
  H  H131  1  0.485300  0.591700  0.392700  1.0  0.1274
  H  H132  1  0.448900  0.416500  0.252200  1.0  0.1039
  H  H133  1  0.141900  0.020600  0.495400  1.0  0.14
  H  H134  1  0.145800  0.926200  0.389900  1.0  0.1169
  H  H135  1  0.751700  0.009000  0.327600  1.0  0.1161
  H  H136  1  0.174800  0.160700  0.508200  1.0  0.1097
  H  H137  1  0.114100  0.271900  0.373700  1.0  0.1143
  H  H138  1  0.817800  0.127500  0.117600  1.0  0.1062
  H  H139  1  0.109000  0.676500  0.481900  1.0  0.1191
  H  H140  1  0.055000  0.854800  0.349000  1.0  0.132
  H  H141  1  0.760300  0.889500  0.114000  1.0  0.1244
  H  H142  1  0.786100  0.034500  0.270200  1.0  0.1253
  H  H143  1  0.793100  0.845000  0.197400  1.0  0.1337
  H  H144  1  0.996300  0.853800  0.311000  1.0  0.1136
  H  H145  1  0.082600  0.129700  0.359700  1.0  0.1446
  H  H146  1  0.176800  0.783200  0.405500  1.0  0.1161
  H  H147  1  0.043600  0.093100  0.431400  1.0  0.1357
  H  H148  1  0.847200  0.816000  0.338700  1.0  0.1348
  H  H149  1  0.873700  0.014700  0.351700  1.0  0.1213
  H  H150  1  0.077600  0.817400  0.465700  1.0  0.1361
  H  H151  1  0.890000  0.905600  0.215700  1.0  0.137
  H  H152  1  0.812200  0.789800  0.395200  1.0  0.1162
  H  H153  1  0.850700  0.085000  0.202300  1.0  0.1369
  H  H154  1  0.933200  0.027500  0.387200  1.0  0.1252
  H  H155  1  0.985300  0.091700  0.392700  1.0  0.1274
  H  H156  1  0.948900  0.916500  0.252200  1.0  0.1039
  H  H157  1  0.358100  0.520600  0.004600  1.0  0.1403
  H  H158  1  0.354200  0.426200  0.110100  1.0  0.1174
  H  H159  1  0.748300  0.509000  0.172400  1.0  0.1164
  H  H160  1  0.325200  0.660700  0.991800  1.0  0.1094
  H  H161  1  0.385900  0.771900  0.126300  1.0  0.1134
  H  H162  1  0.682200  0.627500  0.382400  1.0  0.1069
  H  H163  1  0.391000  0.176500  0.018100  1.0  0.1199
  H  H164  1  0.445000  0.354800  0.151000  1.0  0.1315
  H  H165  1  0.739700  0.389500  0.386000  1.0  0.1246
  H  H166  1  0.713900  0.534500  0.229800  1.0  0.124
  H  H167  1  0.706900  0.345000  0.302600  1.0  0.1331
  H  H168  1  0.503700  0.353800  0.189000  1.0  0.1138
  H  H169  1  0.417400  0.629700  0.140300  1.0  0.1438
  H  H170  1  0.323200  0.283200  0.094500  1.0  0.1159
  H  H171  1  0.456400  0.593100  0.068600  1.0  0.136
  H  H172  1  0.652800  0.316000  0.161300  1.0  0.1345
  H  H173  1  0.626300  0.514700  0.148300  1.0  0.1209
  H  H174  1  0.422400  0.317400  0.034300  1.0  0.1363
  H  H175  1  0.610000  0.405600  0.284300  1.0  0.1359
  H  H176  1  0.687800  0.289800  0.104800  1.0  0.116
  H  H177  1  0.649300  0.585000  0.297700  1.0  0.1374
  H  H178  1  0.566800  0.527500  0.112800  1.0  0.125
  H  H179  1  0.514700  0.591700  0.107300  1.0  0.127
  H  H180  1  0.551100  0.416500  0.247800  1.0  0.1046
  H  H181  1  0.858100  0.020600  0.004600  1.0  0.1403
  H  H182  1  0.854200  0.926200  0.110100  1.0  0.1174
  H  H183  1  0.248300  0.009000  0.172400  1.0  0.1164
  H  H184  1  0.825200  0.160700  0.991800  1.0  0.1094
  H  H185  1  0.885900  0.271900  0.126300  1.0  0.1134
  H  H186  1  0.182200  0.127500  0.382400  1.0  0.1069
  H  H187  1  0.891000  0.676500  0.018100  1.0  0.1193
  H  H188  1  0.945000  0.854800  0.151000  1.0  0.1315
  H  H189  1  0.239700  0.889500  0.386000  1.0  0.1246
  H  H190  1  0.213900  0.034500  0.229800  1.0  0.124
  H  H191  1  0.206900  0.845000  0.302600  1.0  0.1331
  H  H192  1  0.003700  0.853800  0.189000  1.0  0.1138
  H  H193  1  0.917400  0.129700  0.140300  1.0  0.1438
  H  H194  1  0.823200  0.783200  0.094500  1.0  0.1159
  H  H195  1  0.956400  0.093100  0.068600  1.0  0.136
  H  H196  1  0.152800  0.816000  0.161300  1.0  0.1345
  H  H197  1  0.126300  0.014700  0.148300  1.0  0.1209
  H  H198  1  0.922400  0.817400  0.034300  1.0  0.1363
  H  H199  1  0.110000  0.905600  0.284300  1.0  0.1359
  H  H200  1  0.187800  0.789800  0.104800  1.0  0.116
  H  H201  1  0.149300  0.085000  0.297700  1.0  0.1374
  H  H202  1  0.066800  0.027500  0.112800  1.0  0.125
  H  H203  1  0.014700  0.091700  0.107300  1.0  0.127
  H  H204  1  0.051100  0.916500  0.247800  1.0  0.1046
  C  C205  1  0.714380  0.487110  0.891400  1.0  -0.1331
  C  C206  1  0.363400  0.428540  0.529710  1.0  -0.1567
  C  C207  1  0.390780  0.613730  0.573580  1.0  0.1617
  C  C208  1  0.390510  0.437670  0.573780  1.0  0.1794
  C  C209  1  0.444870  0.526410  0.605980  1.0  0.2108
  C  C210  1  0.736610  0.457030  0.945410  1.0  0.7364
  C  C211  1  0.675990  0.535260  0.790840  1.0  0.1899
  C  C212  1  0.361760  0.624700  0.591430  1.0  -0.1787
  C  C213  1  0.721320  0.602270  0.631880  1.0  -0.1246
  C  C214  1  0.354110  0.783760  0.556200  1.0  -0.1333
  C  C215  1  0.728760  0.530460  0.670060  1.0  -0.0314
  C  C216  1  0.343900  0.345330  0.522080  1.0  -0.0311
  C  C217  1  0.680050  0.573130  0.701840  1.0  0.1957
  C  C218  1  0.379670  0.279840  0.601970  1.0  -0.0304
  C  C219  1  0.623620  0.543430  0.718410  1.0  0.1604
  C  C220  1  0.687460  0.429310  0.865660  1.0  -0.0727
  C  C221  1  0.383730  0.772770  0.537240  1.0  -0.0421
  C  C222  1  0.459100  0.596600  0.641810  1.0  -0.1635
  C  C223  1  0.721500  0.570390  0.867950  1.0  -0.0188
  C  C224  1  0.708530  0.515490  0.704260  1.0  -0.1483
  C  C225  1  0.351600  0.270150  0.558880  1.0  -0.1258
  C  C226  1  0.743550  0.618820  0.594260  1.0  0.7299
  C  C227  1  0.702340  0.596280  0.818220  1.0  -0.2179
  C  C228  1  0.494290  0.596560  0.664690  1.0  -0.1199
  C  C229  1  0.398750  0.363710  0.610030  1.0  -0.225
  C  C230  1  0.330130  0.183620  0.552900  1.0  0.6657
  C  C231  1  0.343460  0.709940  0.582320  1.0  -0.0338
  C  C232  1  0.465920  0.455940  0.593310  1.0  -0.2139
  C  C233  1  0.672450  0.644810  0.663820  1.0  -0.1411
  C  C234  1  0.610980  0.506000  0.668550  1.0  -0.1931
  C  C235  1  0.402110  0.689450  0.546290  1.0  -0.1427
  C  C236  1  0.601420  0.570970  0.749170  1.0  -0.2102
  C  C237  1  0.693010  0.659570  0.630050  1.0  -0.0565
  C  C238  1  0.668020  0.454260  0.815120  1.0  -0.1583
  C  C239  1  0.515530  0.527850  0.653430  1.0  0.0851
  C  C240  1  0.575460  0.498200  0.647380  1.0  -0.1337
  C  C241  1  0.333400  0.874920  0.546930  1.0  0.6807
  C  C242  1  0.500560  0.456870  0.616500  1.0  -0.1424
  C  C243  1  0.552900  0.528340  0.677500  1.0  0.036
  C  C244  1  0.566360  0.563370  0.727230  1.0  -0.1076
  C  C245  1  0.214380  0.987110  0.891400  1.0  -0.1331
  C  C246  1  0.863400  0.928540  0.529710  1.0  -0.1567
  C  C247  1  0.890780  0.113730  0.573580  1.0  0.1617
  C  C248  1  0.890510  0.937670  0.573780  1.0  0.1794
  C  C249  1  0.944870  0.026410  0.605980  1.0  0.2108
  C  C250  1  0.236610  0.957030  0.945410  1.0  0.7364
  C  C251  1  0.175990  0.035260  0.790840  1.0  0.1899
  C  C252  1  0.861760  0.124700  0.591430  1.0  -0.1787
  C  C253  1  0.221320  0.102270  0.631880  1.0  -0.1246
  C  C254  1  0.854110  0.283760  0.556200  1.0  -0.1333
  C  C255  1  0.228760  0.030460  0.670060  1.0  -0.0314
  C  C256  1  0.843900  0.845330  0.522080  1.0  -0.0311
  C  C257  1  0.180050  0.073130  0.701840  1.0  0.1957
  C  C258  1  0.879670  0.779840  0.601970  1.0  -0.0304
  C  C259  1  0.123620  0.043430  0.718410  1.0  0.1604
  C  C260  1  0.187460  0.929310  0.865660  1.0  -0.0727
  C  C261  1  0.883730  0.272770  0.537240  1.0  -0.0421
  C  C262  1  0.959100  0.096600  0.641810  1.0  -0.1635
  C  C263  1  0.221500  0.070390  0.867950  1.0  -0.0188
  C  C264  1  0.208530  0.015490  0.704260  1.0  -0.1483
  C  C265  1  0.851600  0.770150  0.558880  1.0  -0.1258
  C  C266  1  0.243550  0.118820  0.594260  1.0  0.7299
  C  C267  1  0.202340  0.096280  0.818220  1.0  -0.2179
  C  C268  1  0.994290  0.096560  0.664690  1.0  -0.1199
  C  C269  1  0.898750  0.863710  0.610030  1.0  -0.225
  C  C270  1  0.830130  0.683620  0.552900  1.0  0.6657
  C  C271  1  0.843460  0.209940  0.582320  1.0  -0.0338
  C  C272  1  0.965920  0.955940  0.593310  1.0  -0.2139
  C  C273  1  0.172450  0.144810  0.663820  1.0  -0.1411
  C  C274  1  0.110980  0.006000  0.668550  1.0  -0.1931
  C  C275  1  0.902110  0.189450  0.546290  1.0  -0.1427
  C  C276  1  0.101420  0.070970  0.749170  1.0  -0.2102
  C  C277  1  0.193010  0.159570  0.630050  1.0  -0.0565
  C  C278  1  0.168020  0.954260  0.815120  1.0  -0.1583
  C  C279  1  0.015530  0.027850  0.653430  1.0  0.0851
  C  C280  1  0.075460  0.998200  0.647380  1.0  -0.1337
  C  C281  1  0.833400  0.374920  0.546930  1.0  0.6807
  C  C282  1  0.000560  0.956870  0.616500  1.0  -0.1424
  C  C283  1  0.052900  0.028340  0.677500  1.0  0.036
  C  C284  1  0.066360  0.063370  0.727230  1.0  -0.1076
  C  C285  1  0.285620  0.487110  0.608600  1.0  -0.1334
  C  C286  1  0.636600  0.428540  0.970290  1.0  -0.1609
  C  C287  1  0.609220  0.613730  0.926420  1.0  0.1605
  C  C288  1  0.609490  0.437670  0.926220  1.0  0.1791
  C  C289  1  0.555130  0.526410  0.894020  1.0  0.2108
  C  C290  1  0.263390  0.457030  0.554590  1.0  0.7375
  C  C291  1  0.324010  0.535260  0.709160  1.0  0.189
  C  C292  1  0.638240  0.624700  0.908570  1.0  -0.1788
  C  C293  1  0.278680  0.602270  0.868120  1.0  -0.1247
  C  C294  1  0.645890  0.783760  0.943800  1.0  -0.1337
  C  C295  1  0.271240  0.530460  0.829940  1.0  -0.0301
  C  C296  1  0.656100  0.345330  0.977920  1.0  -0.031
  C  C297  1  0.319950  0.573130  0.798160  1.0  0.1953
  C  C298  1  0.620330  0.279840  0.898030  1.0  -0.0287
  C  C299  1  0.376380  0.543430  0.781590  1.0  0.1624
  C  C300  1  0.312540  0.429310  0.634340  1.0  -0.0719
  C  C301  1  0.616270  0.772770  0.962760  1.0  -0.0415
  C  C302  1  0.540900  0.596600  0.858190  1.0  -0.1651
  C  C303  1  0.278500  0.570390  0.632050  1.0  -0.0195
  C  C304  1  0.291470  0.515490  0.795740  1.0  -0.1485
  C  C305  1  0.648400  0.270150  0.941120  1.0  -0.1284
  C  C306  1  0.256450  0.618820  0.905740  1.0  0.7311
  C  C307  1  0.297660  0.596280  0.681780  1.0  -0.2193
  C  C308  1  0.505710  0.596560  0.835310  1.0  -0.1197
  C  C309  1  0.601250  0.363710  0.889970  1.0  -0.2272
  C  C310  1  0.669870  0.183620  0.947100  1.0  0.6656
  C  C311  1  0.656540  0.709940  0.917680  1.0  -0.0324
  C  C312  1  0.534080  0.455940  0.906690  1.0  -0.2133
  C  C313  1  0.327550  0.644810  0.836180  1.0  -0.1417
  C  C314  1  0.389020  0.506000  0.831450  1.0  -0.1927
  C  C315  1  0.597890  0.689450  0.953710  1.0  -0.1455
  C  C316  1  0.398580  0.570970  0.750830  1.0  -0.2093
  C  C317  1  0.306990  0.659570  0.869950  1.0  -0.0562
  C  C318  1  0.331980  0.454260  0.684880  1.0  -0.1569
  C  C319  1  0.484470  0.527850  0.846570  1.0  0.0853
  C  C320  1  0.424540  0.498200  0.852620  1.0  -0.1345
  C  C321  1  0.666667  0.874920  0.953070  1.0  0.6798
  C  C322  1  0.499440  0.456870  0.883500  1.0  -0.142
  C  C323  1  0.447100  0.528340  0.822500  1.0  0.0364
  C  C324  1  0.433640  0.563370  0.772770  1.0  -0.1073
  C  C325  1  0.785620  0.987110  0.608600  1.0  -0.1334
  C  C326  1  0.136600  0.928540  0.970290  1.0  -0.1609
  C  C327  1  0.109220  0.113730  0.926420  1.0  0.1605
  C  C328  1  0.109490  0.937670  0.926220  1.0  0.1791
  C  C329  1  0.055130  0.026410  0.894020  1.0  0.2108
  C  C330  1  0.763390  0.957030  0.554590  1.0  0.7375
  C  C331  1  0.824010  0.035260  0.709160  1.0  0.189
  C  C332  1  0.138240  0.124700  0.908570  1.0  -0.1788
  C  C333  1  0.778680  0.102270  0.868120  1.0  -0.1247
  C  C334  1  0.145890  0.283760  0.943800  1.0  -0.1335
  C  C335  1  0.771240  0.030460  0.829940  1.0  -0.0301
  C  C336  1  0.156100  0.845330  0.977920  1.0  -0.031
  C  C337  1  0.819950  0.073130  0.798160  1.0  0.1953
  C  C338  1  0.120330  0.779840  0.898030  1.0  -0.0287
  C  C339  1  0.876380  0.043430  0.781590  1.0  0.1624
  C  C340  1  0.812540  0.929310  0.634340  1.0  -0.0719
  C  C341  1  0.116270  0.272770  0.962760  1.0  -0.0415
  C  C342  1  0.040900  0.096600  0.858190  1.0  -0.1651
  C  C343  1  0.778500  0.070390  0.632050  1.0  -0.0195
  C  C344  1  0.791470  0.015490  0.795740  1.0  -0.1485
  C  C345  1  0.148400  0.770150  0.941120  1.0  -0.1284
  C  C346  1  0.756450  0.118820  0.905740  1.0  0.7311
  C  C347  1  0.797660  0.096280  0.681780  1.0  -0.2193
  C  C348  1  0.005710  0.096560  0.835310  1.0  -0.1197
  C  C349  1  0.101250  0.863710  0.889970  1.0  -0.2272
  C  C350  1  0.169870  0.683620  0.947100  1.0  0.6656
  C  C351  1  0.156540  0.209940  0.917680  1.0  -0.0322
  C  C352  1  0.034080  0.955940  0.906690  1.0  -0.2133
  C  C353  1  0.827550  0.144810  0.836180  1.0  -0.1417
  C  C354  1  0.889020  0.006000  0.831450  1.0  -0.1927
  C  C355  1  0.097890  0.189450  0.953710  1.0  -0.1454
  C  C356  1  0.898580  0.070970  0.750830  1.0  -0.2093
  C  C357  1  0.806990  0.159570  0.869950  1.0  -0.0562
  C  C358  1  0.831980  0.954260  0.684880  1.0  -0.1569
  C  C359  1  0.984470  0.027850  0.846570  1.0  0.0853
  C  C360  1  0.924540  0.998200  0.852620  1.0  -0.1345
  C  C361  1  0.166600  0.374920  0.953070  1.0  0.6803
  C  C362  1  0.999440  0.956870  0.883500  1.0  -0.142
  C  C363  1  0.947100  0.028340  0.822500  1.0  0.0364
  C  C364  1  0.933640  0.063370  0.772770  1.0  -0.1073
  C  C365  1  0.285620  0.512890  0.108600  1.0  -0.1333
  C  C366  1  0.636600  0.571460  0.470290  1.0  -0.1603
  C  C367  1  0.609220  0.386270  0.426420  1.0  0.1607
  C  C368  1  0.609490  0.562330  0.426220  1.0  0.179
  C  C369  1  0.555130  0.473590  0.394020  1.0  0.2109
  C  C370  1  0.263390  0.542970  0.054590  1.0  0.7379
  C  C371  1  0.324010  0.464740  0.209160  1.0  0.189
  C  C372  1  0.638240  0.375300  0.408570  1.0  -0.1793
  C  C373  1  0.278680  0.397730  0.368120  1.0  -0.1248
  C  C374  1  0.645890  0.216240  0.443800  1.0  -0.134
  C  C375  1  0.271240  0.469540  0.329940  1.0  -0.0297
  C  C376  1  0.656100  0.654670  0.477920  1.0  -0.031
  C  C377  1  0.319950  0.426870  0.298160  1.0  0.1949
  C  C378  1  0.620330  0.720160  0.398030  1.0  -0.029
  C  C379  1  0.376380  0.456570  0.281590  1.0  0.1624
  C  C380  1  0.312540  0.570690  0.134340  1.0  -0.0716
  C  C381  1  0.616270  0.227230  0.462760  1.0  -0.0393
  C  C382  1  0.540900  0.403400  0.358190  1.0  -0.1649
  C  C383  1  0.278500  0.429610  0.132050  1.0  -0.0198
  C  C384  1  0.291470  0.484510  0.295740  1.0  -0.1489
  C  C385  1  0.648400  0.729850  0.441120  1.0  -0.1258
  C  C386  1  0.256450  0.381180  0.405740  1.0  0.7306
  C  C387  1  0.297660  0.403720  0.181780  1.0  -0.2187
  C  C388  1  0.505710  0.403440  0.335310  1.0  -0.1192
  C  C389  1  0.601250  0.636290  0.389970  1.0  -0.2292
  C  C390  1  0.669870  0.816380  0.447100  1.0  0.6662
  C  C391  1  0.656540  0.290060  0.417680  1.0  -0.0334
  C  C392  1  0.534080  0.544060  0.406690  1.0  -0.214
  C  C393  1  0.327550  0.355190  0.336180  1.0  -0.1425
  C  C394  1  0.389020  0.494000  0.331450  1.0  -0.1939
  C  C395  1  0.597890  0.310550  0.453710  1.0  -0.1447
  C  C396  1  0.398580  0.429030  0.250830  1.0  -0.2098
  C  C397  1  0.306990  0.340430  0.369950  1.0  -0.058
  C  C398  1  0.331980  0.545740  0.184880  1.0  -0.1576
  C  C399  1  0.484470  0.472150  0.346570  1.0  0.0854
  C  C400  1  0.424540  0.501800  0.352620  1.0  -0.1345
  C  C401  1  0.666667  0.125080  0.453070  1.0  0.6806
  C  C402  1  0.499440  0.543130  0.383500  1.0  -0.1421
  C  C403  1  0.447100  0.471660  0.322500  1.0  0.0363
  C  C404  1  0.433640  0.436630  0.272770  1.0  -0.1074
  C  C405  1  0.785620  0.012890  0.108600  1.0  -0.1333
  C  C406  1  0.136600  0.071460  0.470290  1.0  -0.1603
  C  C407  1  0.109220  0.886270  0.426420  1.0  0.1607
  C  C408  1  0.109490  0.062330  0.426220  1.0  0.179
  C  C409  1  0.055130  0.973590  0.394020  1.0  0.2109
  C  C410  1  0.763390  0.042970  0.054590  1.0  0.7379
  C  C411  1  0.824010  0.964740  0.209160  1.0  0.189
  C  C412  1  0.138240  0.875300  0.408570  1.0  -0.1793
  C  C413  1  0.778680  0.897730  0.368120  1.0  -0.1248
  C  C414  1  0.145890  0.716240  0.443800  1.0  -0.1336
  C  C415  1  0.771240  0.969540  0.329940  1.0  -0.0297
  C  C416  1  0.156100  0.154670  0.477920  1.0  -0.031
  C  C417  1  0.819950  0.926870  0.298160  1.0  0.1949
  C  C418  1  0.120330  0.220160  0.398030  1.0  -0.029
  C  C419  1  0.876380  0.956570  0.281590  1.0  0.1624
  C  C420  1  0.812540  0.070690  0.134340  1.0  -0.0716
  C  C421  1  0.116270  0.727230  0.462760  1.0  -0.0393
  C  C422  1  0.040900  0.903400  0.358190  1.0  -0.1649
  C  C423  1  0.778500  0.929610  0.132050  1.0  -0.0198
  C  C424  1  0.791470  0.984510  0.295740  1.0  -0.1489
  C  C425  1  0.148400  0.229850  0.441120  1.0  -0.1258
  C  C426  1  0.756450  0.881180  0.405740  1.0  0.7306
  C  C427  1  0.797660  0.903720  0.181780  1.0  -0.2187
  C  C428  1  0.005710  0.903440  0.335310  1.0  -0.1192
  C  C429  1  0.101250  0.136290  0.389970  1.0  -0.2292
  C  C430  1  0.169870  0.316380  0.447100  1.0  0.6662
  C  C431  1  0.156540  0.790060  0.417680  1.0  -0.0332
  C  C432  1  0.034080  0.044060  0.406690  1.0  -0.214
  C  C433  1  0.827550  0.855190  0.336180  1.0  -0.1425
  C  C434  1  0.889020  0.994000  0.331450  1.0  -0.1939
  C  C435  1  0.097890  0.810550  0.453710  1.0  -0.1446
  C  C436  1  0.898580  0.929030  0.250830  1.0  -0.2098
  C  C437  1  0.806990  0.840430  0.369950  1.0  -0.058
  C  C438  1  0.831980  0.045740  0.184880  1.0  -0.1576
  C  C439  1  0.984470  0.972150  0.346570  1.0  0.0854
  C  C440  1  0.924540  0.001800  0.352620  1.0  -0.1345
  C  C441  1  0.166600  0.625080  0.453070  1.0  0.6812
  C  C442  1  0.999440  0.043130  0.383500  1.0  -0.1421
  C  C443  1  0.947100  0.971660  0.322500  1.0  0.0363
  C  C444  1  0.933640  0.936630  0.272770  1.0  -0.1074
  C  C445  1  0.714380  0.512890  0.391400  1.0  -0.1331
  C  C446  1  0.363400  0.571460  0.029710  1.0  -0.1577
  C  C447  1  0.390780  0.386270  0.073580  1.0  0.162
  C  C448  1  0.390510  0.562330  0.073780  1.0  0.1792
  C  C449  1  0.444870  0.473590  0.105980  1.0  0.2108
  C  C450  1  0.736610  0.542970  0.445410  1.0  0.7372
  C  C451  1  0.675990  0.464740  0.290840  1.0  0.1899
  C  C452  1  0.361760  0.375300  0.091430  1.0  -0.1792
  C  C453  1  0.721320  0.397730  0.131880  1.0  -0.1246
  C  C454  1  0.354110  0.216240  0.056200  1.0  -0.1324
  C  C455  1  0.728760  0.469540  0.170060  1.0  -0.029
  C  C456  1  0.343900  0.654670  0.022080  1.0  -0.0305
  C  C457  1  0.680050  0.426870  0.201840  1.0  0.1955
  C  C458  1  0.379670  0.720160  0.101970  1.0  -0.0291
  C  C459  1  0.623620  0.456570  0.218410  1.0  0.1603
  C  C460  1  0.687460  0.570690  0.365660  1.0  -0.072
  C  C461  1  0.383730  0.227230  0.037240  1.0  -0.0424
  C  C462  1  0.459100  0.403400  0.141810  1.0  -0.1628
  C  C463  1  0.721500  0.429610  0.367950  1.0  -0.0193
  C  C464  1  0.708530  0.484510  0.204260  1.0  -0.1488
  C  C465  1  0.351600  0.729850  0.058880  1.0  -0.1247
  C  C466  1  0.743550  0.381180  0.094260  1.0  0.7297
  C  C467  1  0.702340  0.403720  0.318220  1.0  -0.2174
  C  C468  1  0.494290  0.403440  0.164690  1.0  -0.12
  C  C469  1  0.398750  0.636290  0.110030  1.0  -0.2259
  C  C470  1  0.330130  0.816380  0.052900  1.0  0.6653
  C  C471  1  0.343460  0.290060  0.082320  1.0  -0.034
  C  C472  1  0.465920  0.544060  0.093310  1.0  -0.2138
  C  C473  1  0.672450  0.355190  0.163820  1.0  -0.1409
  C  C474  1  0.610980  0.494000  0.168550  1.0  -0.1926
  C  C475  1  0.402110  0.310550  0.046290  1.0  -0.1428
  C  C476  1  0.601420  0.429030  0.249170  1.0  -0.2085
  C  C477  1  0.693010  0.340430  0.130050  1.0  -0.0582
  C  C478  1  0.668020  0.545740  0.315120  1.0  -0.1585
  C  C479  1  0.515530  0.472150  0.153430  1.0  0.085
  C  C480  1  0.575460  0.501800  0.147380  1.0  -0.1344
  C  C481  1  0.333400  0.125080  0.046930  1.0  0.6818
  C  C482  1  0.500560  0.543130  0.116500  1.0  -0.1418
  C  C483  1  0.552900  0.471660  0.177500  1.0  0.036
  C  C484  1  0.566360  0.436630  0.227230  1.0  -0.1074
  C  C485  1  0.214380  0.012890  0.391400  1.0  -0.1331
  C  C486  1  0.863400  0.071460  0.029710  1.0  -0.1577
  C  C487  1  0.890780  0.886270  0.073580  1.0  0.162
  C  C488  1  0.890510  0.062330  0.073780  1.0  0.1792
  C  C489  1  0.944870  0.973590  0.105980  1.0  0.2108
  C  C490  1  0.236610  0.042970  0.445410  1.0  0.7372
  C  C491  1  0.175990  0.964740  0.290840  1.0  0.1899
  C  C492  1  0.861760  0.875300  0.091430  1.0  -0.1792
  C  C493  1  0.221320  0.897730  0.131880  1.0  -0.1246
  C  C494  1  0.854110  0.716240  0.056200  1.0  -0.1324
  C  C495  1  0.228760  0.969540  0.170060  1.0  -0.029
  C  C496  1  0.843900  0.154670  0.022080  1.0  -0.0305
  C  C497  1  0.180050  0.926870  0.201840  1.0  0.1955
  C  C498  1  0.879670  0.220160  0.101970  1.0  -0.0291
  C  C499  1  0.123620  0.956570  0.218410  1.0  0.1603
  C  C500  1  0.187460  0.070690  0.365660  1.0  -0.072
  C  C501  1  0.883730  0.727230  0.037240  1.0  -0.0424
  C  C502  1  0.959100  0.903400  0.141810  1.0  -0.1628
  C  C503  1  0.221500  0.929610  0.367950  1.0  -0.0193
  C  C504  1  0.208530  0.984510  0.204260  1.0  -0.1488
  C  C505  1  0.851600  0.229850  0.058880  1.0  -0.1247
  C  C506  1  0.243550  0.881180  0.094260  1.0  0.7297
  C  C507  1  0.202340  0.903720  0.318220  1.0  -0.2174
  C  C508  1  0.994290  0.903440  0.164690  1.0  -0.12
  C  C509  1  0.898750  0.136290  0.110030  1.0  -0.2259
  C  C510  1  0.830130  0.316380  0.052900  1.0  0.6653
  C  C511  1  0.843460  0.790060  0.082320  1.0  -0.034
  C  C512  1  0.965920  0.044060  0.093310  1.0  -0.2138
  C  C513  1  0.172450  0.855190  0.163820  1.0  -0.1409
  C  C514  1  0.110980  0.994000  0.168550  1.0  -0.1926
  C  C515  1  0.902110  0.810550  0.046290  1.0  -0.1428
  C  C516  1  0.101420  0.929030  0.249170  1.0  -0.2085
  C  C517  1  0.193010  0.840430  0.130050  1.0  -0.0582
  C  C518  1  0.168020  0.045740  0.315120  1.0  -0.1585
  C  C519  1  0.015530  0.972150  0.153430  1.0  0.085
  C  C520  1  0.075460  0.001800  0.147380  1.0  -0.1344
  C  C521  1  0.833400  0.625080  0.046930  1.0  0.6818
  C  C522  1  0.000560  0.043130  0.116500  1.0  -0.1418
  C  C523  1  0.052900  0.971660  0.177500  1.0  0.036
  C  C524  1  0.066360  0.936630  0.227230  1.0  -0.1074
  N  N525  1  0.409330  0.525390  0.582470  1.0  -0.1487
  N  N526  1  0.659310  0.559710  0.738450  1.0  -0.1327
  N  N527  1  0.909330  0.025390  0.582470  1.0  -0.1487
  N  N528  1  0.159310  0.059710  0.738450  1.0  -0.1327
  N  N529  1  0.590670  0.525390  0.917530  1.0  -0.1504
  N  N530  1  0.340690  0.559710  0.761550  1.0  -0.1329
  N  N531  1  0.090670  0.025390  0.917530  1.0  -0.1504
  N  N532  1  0.840690  0.059710  0.761550  1.0  -0.1329
  N  N533  1  0.590670  0.474610  0.417530  1.0  -0.1505
  N  N534  1  0.340690  0.440290  0.261550  1.0  -0.1339
  N  N535  1  0.090670  0.974610  0.417530  1.0  -0.1505
  N  N536  1  0.840690  0.940290  0.261550  1.0  -0.1339
  N  N537  1  0.409330  0.474610  0.082470  1.0  -0.1489
  N  N538  1  0.659310  0.440290  0.238450  1.0  -0.1338
  N  N539  1  0.909330  0.974610  0.082470  1.0  -0.1489
  N  N540  1  0.159310  0.940290  0.238450  1.0  -0.1338
  O  O541  1  0.302690  0.178600  0.515510  1.0  -0.6847
  O  O542  1  0.729770  0.378140  0.963170  1.0  -0.6307
  O  O543  1  0.338580  0.113030  0.584440  1.0  -0.5588
  O  O544  1  0.741250  0.698800  0.571480  1.0  -0.5763
  O  O545  1  0.310420  0.886530  0.571720  1.0  -0.5395
  O  O546  1  0.759690  0.512210  0.967600  1.0  -0.5794
  O  O547  1  0.763470  0.549810  0.590160  1.0  -0.6323
  O  O548  1  0.339360  0.937750  0.515640  1.0  -0.563
  O  O549  1  0.802690  0.678600  0.515510  1.0  -0.6847
  O  O550  1  0.229770  0.878140  0.963170  1.0  -0.6307
  O  O551  1  0.838580  0.613030  0.584440  1.0  -0.5588
  O  O552  1  0.241250  0.198800  0.571480  1.0  -0.5763
  O  O553  1  0.810420  0.386530  0.571720  1.0  -0.5395
  O  O554  1  0.259690  0.012210  0.967600  1.0  -0.5794
  O  O555  1  0.263470  0.049810  0.590160  1.0  -0.6327
  O  O556  1  0.839360  0.437750  0.515640  1.0  -0.563
  O  O557  1  0.697310  0.178600  0.984490  1.0  -0.685
  O  O558  1  0.270230  0.378140  0.536830  1.0  -0.6309
  O  O559  1  0.661420  0.113030  0.915560  1.0  -0.5539
  O  O560  1  0.258750  0.698800  0.928520  1.0  -0.5767
  O  O561  1  0.689580  0.886530  0.928280  1.0  -0.5412
  O  O562  1  0.240310  0.512210  0.532400  1.0  -0.5794
  O  O563  1  0.236530  0.549810  0.909840  1.0  -0.6321
  O  O564  1  0.660640  0.937750  0.984360  1.0  -0.5617
  O  O565  1  0.197310  0.678600  0.984490  1.0  -0.6849
  O  O566  1  0.770230  0.878140  0.536830  1.0  -0.6309
  O  O567  1  0.161420  0.613030  0.915560  1.0  -0.5539
  O  O568  1  0.758750  0.198800  0.928520  1.0  -0.5767
  O  O569  1  0.189580  0.386530  0.928280  1.0  -0.5418
  O  O570  1  0.740310  0.012210  0.532400  1.0  -0.5793
  O  O571  1  0.736530  0.049810  0.909840  1.0  -0.6323
  O  O572  1  0.160640  0.437750  0.984360  1.0  -0.5614
  O  O573  1  0.697310  0.821400  0.484490  1.0  -0.6845
  O  O574  1  0.270230  0.621860  0.036830  1.0  -0.6307
  O  O575  1  0.661420  0.886970  0.415560  1.0  -0.5548
  O  O576  1  0.258750  0.301200  0.428520  1.0  -0.5762
  O  O577  1  0.689580  0.113470  0.428280  1.0  -0.5412
  O  O578  1  0.240310  0.487790  0.032400  1.0  -0.5786
  O  O579  1  0.236530  0.450190  0.409840  1.0  -0.6316
  O  O580  1  0.660640  0.062250  0.484360  1.0  -0.5601
  O  O581  1  0.197310  0.321400  0.484490  1.0  -0.6845
  O  O582  1  0.770230  0.121860  0.036830  1.0  -0.6307
  O  O583  1  0.161420  0.386970  0.415560  1.0  -0.5548
  O  O584  1  0.758750  0.801200  0.428520  1.0  -0.5762
  O  O585  1  0.189580  0.613470  0.428280  1.0  -0.5419
  O  O586  1  0.740310  0.987790  0.032400  1.0  -0.5785
  O  O587  1  0.736530  0.950190  0.409840  1.0  -0.6319
  O  O588  1  0.160640  0.562250  0.484360  1.0  -0.5598
  O  O589  1  0.302690  0.821400  0.015510  1.0  -0.6832
  O  O590  1  0.729770  0.621860  0.463170  1.0  -0.6306
  O  O591  1  0.338580  0.886970  0.084440  1.0  -0.5564
  O  O592  1  0.741250  0.301200  0.071480  1.0  -0.5758
  O  O593  1  0.310420  0.113470  0.071720  1.0  -0.5393
  O  O594  1  0.759690  0.487790  0.467600  1.0  -0.5785
  O  O595  1  0.763470  0.450190  0.090160  1.0  -0.631
  O  O596  1  0.339360  0.062250  0.015640  1.0  -0.5627
  O  O597  1  0.802690  0.321400  0.015510  1.0  -0.6832
  O  O598  1  0.229770  0.121860  0.463170  1.0  -0.6306
  O  O599  1  0.838580  0.386970  0.084440  1.0  -0.5564
  O  O600  1  0.241250  0.801200  0.071480  1.0  -0.5758
  O  O601  1  0.810420  0.613470  0.071720  1.0  -0.5393
  O  O602  1  0.259690  0.987790  0.467600  1.0  -0.5785
  O  O603  1  0.263470  0.950190  0.090160  1.0  -0.6313
  O  O604  1  0.839360  0.562250  0.015640  1.0  -0.5627
