# generated using pymatgen
data_CuH3(C7O2)2
_symmetry_space_group_name_H-M   'P 1'
_cell_length_a   12.33420000
_cell_length_b   12.37310000
_cell_length_c   8.87090000
_cell_angle_alpha   75.47780000
_cell_angle_beta   78.95790000
_cell_angle_gamma   63.38790000
_symmetry_Int_Tables_number   1
_chemical_formula_structural   CuH3(C7O2)2
_chemical_formula_sum   'Cu2 H6 C28 O8'
_cell_volume   1166.79752613
_cell_formula_units_Z   2
loop_
 _symmetry_equiv_pos_site_id
 _symmetry_equiv_pos_as_xyz
  1  'x, y, z'
loop_
 _atom_site_type_symbol
 _atom_site_label
 _atom_site_symmetry_multiplicity
 _atom_site_fract_x
 _atom_site_fract_y
 _atom_site_fract_z
 _atom_site_occupancy
 _atom_site_charge
  Cu  Cu1  1  0.376340  0.818960  0.389580  1.0  0.8922
  Cu  Cu2  1  0.306210  0.928570  0.108320  1.0  0.907
  H  H3  1  0.118460  0.413110  0.463660  1.0  0.0965
  H  H4  1  0.900670  0.702320  0.125630  1.0  0.1051
  H  H5  1  0.832020  0.384470  0.305030  1.0  0.1417
  H  H6  1  0.895850  0.350830  0.962240  1.0  0.086
  H  H7  1  0.701770  0.175230  0.844130  1.0  0.0916
  H  H8  1  0.708380  0.176640  0.319270  1.0  0.0854
  C  C9  1  0.974980  0.389040  0.396480  1.0  0.1149
  C  C10  1  0.011090  0.567720  0.302540  1.0  0.033
  C  C11  1  0.862040  0.544110  0.196930  1.0  0.0641
  C  C12  1  0.040020  0.454130  0.397280  1.0  -0.1029
  C  C13  1  0.923130  0.612820  0.200170  1.0  -0.1427
  C  C14  1  0.882980  0.436720  0.302130  1.0  -0.1538
  C  C15  1  0.139480  0.689150  0.296130  1.0  -0.0957
  C  C16  1  0.079970  0.634010  0.301130  1.0  -0.0689
  C  C17  1  0.650100  0.644330  0.096370  1.0  0.1702
  C  C18  1  0.754590  0.596660  0.120060  1.0  0.165
  C  C19  1  0.087840  0.154710  0.423160  1.0  0.1041
  C  C20  1  0.031530  0.259980  0.432620  1.0  0.2775
  C  C21  1  0.164780  0.043120  0.373140  1.0  0.6891
  C  C22  1  0.475630  0.992020  0.206510  1.0  0.7054
  C  C23  1  0.523770  0.705490  0.131550  1.0  0.6508
  C  C24  1  0.210790  0.755230  0.282170  1.0  0.6803
  C  C25  1  0.806250  0.266100  0.154930  1.0  -0.0492
  C  C26  1  0.802910  0.265760  0.883810  1.0  -0.0468
  C  C27  1  0.698490  0.168680  0.086740  1.0  0.0334
  C  C28  1  0.840840  0.299410  0.996770  1.0  -0.1465
  C  C29  1  0.731950  0.200710  0.930990  1.0  -0.1459
  C  C30  1  0.735730  0.201270  0.197040  1.0  -0.1627
  C  C31  1  0.844600  0.306810  0.574200  1.0  0.0176
  C  C32  1  0.831990  0.294360  0.716030  1.0  0.0157
  C  C33  1  0.556130  0.051810  0.172880  1.0  -0.0117
  C  C34  1  0.621980  0.104230  0.135070  1.0  -0.0577
  C  C35  1  0.846500  0.307850  0.412110  1.0  -0.0421
  C  C36  1  0.836160  0.295400  0.284890  1.0  -0.0327
  O  O37  1  0.247490  0.959080  0.462530  1.0  -0.6
  O  O38  1  0.172490  0.043020  0.223360  1.0  -0.6267
  O  O39  1  0.482370  0.906920  0.332740  1.0  -0.6014
  O  O40  1  0.400330  0.019150  0.102980  1.0  -0.6233
  O  O41  1  0.493030  0.692600  0.282050  1.0  -0.6065
  O  O42  1  0.458600  0.803400  0.035340  1.0  -0.6178
  O  O43  1  0.262830  0.746960  0.402870  1.0  -0.5735
  O  O44  1  0.224580  0.821740  0.146170  1.0  -0.6182
