# generated using pymatgen
data_ZnH12C18(N3O2)2
_symmetry_space_group_name_H-M   'P 1'
_cell_length_a   17.34200000
_cell_length_b   15.87730000
_cell_length_c   18.85500000
_cell_angle_alpha   90.00000000
_cell_angle_beta   90.00000000
_cell_angle_gamma   90.00000000
_symmetry_Int_Tables_number   1
_chemical_formula_structural   ZnH12C18(N3O2)2
_chemical_formula_sum   'Zn8 H96 C144 N48 O32'
_cell_volume   5191.61369559
_cell_formula_units_Z   8
loop_
 _symmetry_equiv_pos_site_id
 _symmetry_equiv_pos_as_xyz
  1  'x, y, z'
loop_
 _atom_site_type_symbol
 _atom_site_label
 _atom_site_symmetry_multiplicity
 _atom_site_fract_x
 _atom_site_fract_y
 _atom_site_fract_z
 _atom_site_occupancy
 _atom_site_charge
  Zn  Zn1  1  0.242250  0.011050  0.032700  1.0  0.8896
  Zn  Zn2  1  0.742250  0.488950  0.967300  1.0  0.8892
  Zn  Zn3  1  0.742250  0.011050  0.467300  1.0  0.8894
  Zn  Zn4  1  0.242250  0.488950  0.532700  1.0  0.8894
  Zn  Zn5  1  0.257750  0.988950  0.532700  1.0  0.8907
  Zn  Zn6  1  0.757750  0.511050  0.467300  1.0  0.8903
  Zn  Zn7  1  0.757750  0.988950  0.967300  1.0  0.8907
  Zn  Zn8  1  0.257750  0.511050  0.032700  1.0  0.8903
  H  H9  1  0.350100  0.856300  0.004600  1.0  0.1049
  H  H10  1  0.482400  0.605000  0.029400  1.0  0.099
  H  H11  1  0.593800  0.871100  0.029700  1.0  0.1113
  H  H12  1  0.206000  0.159500  0.918100  1.0  0.1013
  H  H13  1  0.668000  0.753400  0.004900  1.0  0.0859
  H  H14  1  0.342900  0.037300  0.787400  1.0  0.0945
  H  H15  1  0.241600  0.220500  0.613600  1.0  0.0853
  H  H16  1  0.409300  0.721700  0.059300  1.0  0.1003
  H  H17  1  0.263500  0.284400  0.853200  1.0  0.1117
  H  H18  1  0.258000  0.112000  0.696300  1.0  0.1039
  H  H19  1  0.243800  0.390500  0.770000  1.0  0.0867
  H  H20  1  0.508800  0.956800  0.124100  1.0  0.0904
  H  H21  1  0.850100  0.643700  0.995400  1.0  0.1045
  H  H22  1  0.982400  0.895000  0.970600  1.0  0.0996
  H  H23  1  0.093800  0.628900  0.970300  1.0  0.111
  H  H24  1  0.706000  0.340500  0.081900  1.0  0.1012
  H  H25  1  0.168000  0.746600  0.995100  1.0  0.086
  H  H26  1  0.842900  0.462700  0.212600  1.0  0.0945
  H  H27  1  0.741600  0.279500  0.386400  1.0  0.0848
  H  H28  1  0.909300  0.778300  0.940700  1.0  0.1012
  H  H29  1  0.763500  0.215600  0.146800  1.0  0.1118
  H  H30  1  0.758000  0.388000  0.303700  1.0  0.1037
  H  H31  1  0.743800  0.109500  0.230000  1.0  0.0879
  H  H32  1  0.008800  0.543200  0.875900  1.0  0.0885
  H  H33  1  0.850100  0.856300  0.495400  1.0  0.1047
  H  H34  1  0.982400  0.605000  0.470600  1.0  0.099
  H  H35  1  0.093800  0.871100  0.470300  1.0  0.1109
  H  H36  1  0.706000  0.159500  0.581900  1.0  0.1017
  H  H37  1  0.168000  0.753400  0.495100  1.0  0.086
  H  H38  1  0.842900  0.037300  0.712600  1.0  0.0942
  H  H39  1  0.741600  0.220500  0.886400  1.0  0.085
  H  H40  1  0.909300  0.721700  0.440700  1.0  0.1006
  H  H41  1  0.763500  0.284400  0.646800  1.0  0.112
  H  H42  1  0.758000  0.112000  0.803700  1.0  0.1038
  H  H43  1  0.743800  0.390500  0.730000  1.0  0.0873
  H  H44  1  0.008800  0.956800  0.375900  1.0  0.0888
  H  H45  1  0.350100  0.643700  0.504600  1.0  0.105
  H  H46  1  0.482400  0.895000  0.529400  1.0  0.0994
  H  H47  1  0.593800  0.628900  0.529700  1.0  0.111
  H  H48  1  0.206000  0.340500  0.418100  1.0  0.101
  H  H49  1  0.668000  0.746600  0.504900  1.0  0.0861
  H  H50  1  0.342900  0.462700  0.287400  1.0  0.0951
  H  H51  1  0.241600  0.279500  0.113600  1.0  0.085
  H  H52  1  0.409300  0.778300  0.559300  1.0  0.1003
  H  H53  1  0.263500  0.215600  0.353200  1.0  0.1119
  H  H54  1  0.258000  0.388000  0.196300  1.0  0.104
  H  H55  1  0.243800  0.109500  0.270000  1.0  0.0877
  H  H56  1  0.508800  0.543200  0.624100  1.0  0.0903
  H  H57  1  0.149900  0.143700  0.504600  1.0  0.1048
  H  H58  1  0.017600  0.395000  0.529400  1.0  0.0991
  H  H59  1  0.906200  0.128900  0.529700  1.0  0.1102
  H  H60  1  0.294000  0.840500  0.418100  1.0  0.1014
  H  H61  1  0.832000  0.246600  0.504900  1.0  0.0858
  H  H62  1  0.157100  0.962700  0.287400  1.0  0.0939
  H  H63  1  0.258400  0.779500  0.113600  1.0  0.0848
  H  H64  1  0.090700  0.278300  0.559300  1.0  0.1
  H  H65  1  0.236500  0.715600  0.353200  1.0  0.1118
  H  H66  1  0.242000  0.888000  0.196300  1.0  0.1043
  H  H67  1  0.256200  0.609500  0.270000  1.0  0.0876
  H  H68  1  0.991200  0.043200  0.624100  1.0  0.0903
  H  H69  1  0.649900  0.356300  0.495400  1.0  0.1048
  H  H70  1  0.517600  0.105000  0.470600  1.0  0.0993
  H  H71  1  0.406200  0.371100  0.470300  1.0  0.11
  H  H72  1  0.794000  0.659500  0.581900  1.0  0.1016
  H  H73  1  0.332000  0.253400  0.495100  1.0  0.0857
  H  H74  1  0.657100  0.537300  0.712600  1.0  0.0939
  H  H75  1  0.758400  0.720500  0.886400  1.0  0.0846
  H  H76  1  0.590700  0.221700  0.440700  1.0  0.1005
  H  H77  1  0.736500  0.784400  0.646800  1.0  0.112
  H  H78  1  0.742000  0.612000  0.803700  1.0  0.1042
  H  H79  1  0.756200  0.890500  0.730000  1.0  0.0875
  H  H80  1  0.491200  0.456800  0.375900  1.0  0.0895
  H  H81  1  0.649900  0.143700  0.995400  1.0  0.1045
  H  H82  1  0.517600  0.395000  0.970600  1.0  0.0993
  H  H83  1  0.406200  0.128900  0.970300  1.0  0.1102
  H  H84  1  0.794000  0.840500  0.081900  1.0  0.1016
  H  H85  1  0.332000  0.246600  0.995100  1.0  0.0857
  H  H86  1  0.657100  0.962700  0.212600  1.0  0.0938
  H  H87  1  0.758400  0.779500  0.386400  1.0  0.0844
  H  H88  1  0.590700  0.278300  0.940700  1.0  0.1008
  H  H89  1  0.736500  0.715600  0.146800  1.0  0.1117
  H  H90  1  0.742000  0.888000  0.303700  1.0  0.1039
  H  H91  1  0.756200  0.609500  0.230000  1.0  0.088
  H  H92  1  0.491200  0.043200  0.875900  1.0  0.0892
  H  H93  1  0.149900  0.356300  0.004600  1.0  0.1048
  H  H94  1  0.017600  0.105000  0.029400  1.0  0.0992
  H  H95  1  0.906200  0.371100  0.029700  1.0  0.1104
  H  H96  1  0.294000  0.659500  0.918100  1.0  0.1014
  H  H97  1  0.832000  0.253400  0.004900  1.0  0.0855
  H  H98  1  0.157100  0.537300  0.787400  1.0  0.0937
  H  H99  1  0.258400  0.720500  0.613600  1.0  0.0851
  H  H100  1  0.090700  0.221700  0.059300  1.0  0.1004
  H  H101  1  0.236500  0.784400  0.853200  1.0  0.1116
  H  H102  1  0.242000  0.612000  0.696300  1.0  0.1044
  H  H103  1  0.256200  0.890500  0.770000  1.0  0.0868
  H  H104  1  0.991200  0.456800  0.124100  1.0  0.0905
  C  C105  1  0.377160  0.893400  0.033560  1.0  0.1184
  C  C106  1  0.504900  0.658200  0.030280  1.0  -0.0371
  C  C107  1  0.571930  0.817600  0.030300  1.0  -0.1485
  C  C108  1  0.238790  0.119400  0.898650  1.0  0.1186
  C  C109  1  0.494750  0.806740  0.046330  1.0  0.1703
  C  C110  1  0.630660  0.591180  0.996690  1.0  0.689
  C  C111  1  0.615840  0.747300  0.014900  1.0  -0.0145
  C  C112  1  0.239900  0.315400  0.684460  1.0  -0.1336
  C  C113  1  0.583130  0.667550  0.014430  1.0  -0.131
  C  C114  1  0.314100  0.051800  0.827210  1.0  0.1326
  C  C115  1  0.244900  0.232900  0.661700  1.0  0.0006
  C  C116  1  0.460980  0.727750  0.047300  1.0  -0.1958
  C  C117  1  0.260670  0.188200  0.781820  1.0  0.1705
  C  C118  1  0.257900  0.271500  0.805300  1.0  -0.1794
  C  C119  1  0.255100  0.167800  0.711050  1.0  -0.159
  C  C120  1  0.230340  0.113400  0.132100  1.0  0.6468
  C  C121  1  0.246700  0.334600  0.755300  1.0  -0.0278
  C  C122  1  0.463200  0.948400  0.099100  1.0  0.1867
  C  C123  1  0.877160  0.606600  0.966440  1.0  0.1184
  C  C124  1  0.004900  0.841800  0.969720  1.0  -0.0371
  C  C125  1  0.071930  0.682400  0.969700  1.0  -0.1486
  C  C126  1  0.738790  0.380600  0.101350  1.0  0.1182
  C  C127  1  0.994750  0.693260  0.953670  1.0  0.1703
  C  C128  1  0.130660  0.908820  0.003310  1.0  0.6891
  C  C129  1  0.115840  0.752700  0.985100  1.0  -0.0138
  C  C130  1  0.739900  0.184600  0.315540  1.0  -0.1324
  C  C131  1  0.083130  0.832450  0.985570  1.0  -0.1305
  C  C132  1  0.814100  0.448200  0.172790  1.0  0.1329
  C  C133  1  0.744900  0.267100  0.338300  1.0  -0.0005
  C  C134  1  0.960980  0.772250  0.952700  1.0  -0.1965
  C  C135  1  0.760670  0.311800  0.218180  1.0  0.1706
  C  C136  1  0.757900  0.228500  0.194700  1.0  -0.1777
  C  C137  1  0.755100  0.332200  0.288950  1.0  -0.1574
  C  C138  1  0.730340  0.386600  0.867900  1.0  0.6473
  C  C139  1  0.746700  0.165400  0.244700  1.0  -0.0282
  C  C140  1  0.963200  0.551600  0.900900  1.0  0.1868
  C  C141  1  0.877160  0.893400  0.466440  1.0  0.1186
  C  C142  1  0.004900  0.658200  0.469720  1.0  -0.0367
  C  C143  1  0.071930  0.817600  0.469700  1.0  -0.1479
  C  C144  1  0.738790  0.119400  0.601350  1.0  0.1184
  C  C145  1  0.994750  0.806740  0.453670  1.0  0.1706
  C  C146  1  0.130660  0.591180  0.503310  1.0  0.6892
  C  C147  1  0.115840  0.747300  0.485100  1.0  -0.0143
  C  C148  1  0.739900  0.315400  0.815540  1.0  -0.1321
  C  C149  1  0.083130  0.667550  0.485570  1.0  -0.1309
  C  C150  1  0.814100  0.051800  0.672790  1.0  0.1339
  C  C151  1  0.744900  0.232900  0.838300  1.0  -0.0002
  C  C152  1  0.960980  0.727750  0.452700  1.0  -0.1958
  C  C153  1  0.760670  0.188200  0.718180  1.0  0.1707
  C  C154  1  0.757900  0.271500  0.694700  1.0  -0.177
  C  C155  1  0.755100  0.167800  0.788950  1.0  -0.1587
  C  C156  1  0.730340  0.113400  0.367900  1.0  0.6479
  C  C157  1  0.746700  0.334600  0.744700  1.0  -0.0279
  C  C158  1  0.963200  0.948400  0.400900  1.0  0.188
  C  C159  1  0.377160  0.606600  0.533560  1.0  0.1179
  C  C160  1  0.504900  0.841800  0.530280  1.0  -0.0374
  C  C161  1  0.571930  0.682400  0.530300  1.0  -0.1489
  C  C162  1  0.238790  0.380600  0.398650  1.0  0.1185
  C  C163  1  0.494750  0.693260  0.546330  1.0  0.17
  C  C164  1  0.630660  0.908820  0.496690  1.0  0.6892
  C  C165  1  0.615840  0.752700  0.514900  1.0  -0.0144
  C  C166  1  0.239900  0.184600  0.184460  1.0  -0.1338
  C  C167  1  0.583130  0.832450  0.514430  1.0  -0.1301
  C  C168  1  0.314100  0.448200  0.327210  1.0  0.1328
  C  C169  1  0.244900  0.267100  0.161700  1.0  0.0003
  C  C170  1  0.460980  0.772250  0.547300  1.0  -0.1967
  C  C171  1  0.260670  0.311800  0.281820  1.0  0.1705
  C  C172  1  0.257900  0.228500  0.305300  1.0  -0.1807
  C  C173  1  0.255100  0.332200  0.211050  1.0  -0.1579
  C  C174  1  0.230340  0.386600  0.632100  1.0  0.6463
  C  C175  1  0.246700  0.165400  0.255300  1.0  -0.0284
  C  C176  1  0.463200  0.551600  0.599100  1.0  0.1866
  C  C177  1  0.122840  0.106600  0.533560  1.0  0.1182
  C  C178  1  0.995100  0.341800  0.530280  1.0  -0.0377
  C  C179  1  0.928070  0.182400  0.530300  1.0  -0.1488
  C  C180  1  0.261210  0.880600  0.398650  1.0  0.1191
  C  C181  1  0.005250  0.193260  0.546330  1.0  0.1702
  C  C182  1  0.869340  0.408820  0.496690  1.0  0.6889
  C  C183  1  0.884160  0.252700  0.514900  1.0  -0.0136
  C  C184  1  0.260100  0.684600  0.184460  1.0  -0.1335
  C  C185  1  0.916870  0.332450  0.514430  1.0  -0.1294
  C  C186  1  0.185900  0.948200  0.327210  1.0  0.1338
  C  C187  1  0.255100  0.767100  0.161700  1.0  0.0005
  C  C188  1  0.039020  0.272250  0.547300  1.0  -0.1957
  C  C189  1  0.239330  0.811800  0.281820  1.0  0.1699
  C  C190  1  0.242100  0.728500  0.305300  1.0  -0.1816
  C  C191  1  0.244900  0.832200  0.211050  1.0  -0.1581
  C  C192  1  0.269660  0.886600  0.632100  1.0  0.6469
  C  C193  1  0.253300  0.665400  0.255300  1.0  -0.0284
  C  C194  1  0.036800  0.051600  0.599100  1.0  0.1859
  C  C195  1  0.622840  0.393400  0.466440  1.0  0.119
  C  C196  1  0.495100  0.158200  0.469720  1.0  -0.0374
  C  C197  1  0.428070  0.317600  0.469700  1.0  -0.1476
  C  C198  1  0.761210  0.619400  0.601350  1.0  0.1187
  C  C199  1  0.505250  0.306740  0.453670  1.0  0.1708
  C  C200  1  0.369340  0.091180  0.503310  1.0  0.6896
  C  C201  1  0.384160  0.247300  0.485100  1.0  -0.0135
  C  C202  1  0.760100  0.815400  0.815540  1.0  -0.1318
  C  C203  1  0.416870  0.167550  0.485570  1.0  -0.1305
  C  C204  1  0.685900  0.551800  0.672790  1.0  0.1349
  C  C205  1  0.755100  0.732900  0.838300  1.0  -0.0002
  C  C206  1  0.539020  0.227750  0.452700  1.0  -0.195
  C  C207  1  0.739330  0.688200  0.718180  1.0  0.17
  C  C208  1  0.742100  0.771500  0.694700  1.0  -0.1777
  C  C209  1  0.744900  0.667800  0.788950  1.0  -0.1587
  C  C210  1  0.769660  0.613400  0.367900  1.0  0.6484
  C  C211  1  0.753300  0.834600  0.744700  1.0  -0.0277
  C  C212  1  0.536800  0.448400  0.400900  1.0  0.1876
  C  C213  1  0.622840  0.106600  0.966440  1.0  0.1189
  C  C214  1  0.495100  0.341800  0.969720  1.0  -0.0376
  C  C215  1  0.428070  0.182400  0.969700  1.0  -0.1488
  C  C216  1  0.761210  0.880600  0.101350  1.0  0.1187
  C  C217  1  0.505250  0.193260  0.953670  1.0  0.1705
  C  C218  1  0.369340  0.408820  0.003310  1.0  0.6889
  C  C219  1  0.384160  0.252700  0.985100  1.0  -0.0131
  C  C220  1  0.760100  0.684600  0.315540  1.0  -0.1322
  C  C221  1  0.416870  0.332450  0.985570  1.0  -0.1297
  C  C222  1  0.685900  0.948200  0.172790  1.0  0.1335
  C  C223  1  0.755100  0.767100  0.338300  1.0  -0.0005
  C  C224  1  0.539020  0.272250  0.952700  1.0  -0.1955
  C  C225  1  0.739330  0.811800  0.218180  1.0  0.17
  C  C226  1  0.742100  0.728500  0.194700  1.0  -0.1784
  C  C227  1  0.744900  0.832200  0.288950  1.0  -0.1576
  C  C228  1  0.769660  0.886600  0.867900  1.0  0.6479
  C  C229  1  0.753300  0.665400  0.244700  1.0  -0.0283
  C  C230  1  0.536800  0.051600  0.900900  1.0  0.1874
  C  C231  1  0.122840  0.393400  0.033560  1.0  0.1186
  C  C232  1  0.995100  0.158200  0.030280  1.0  -0.0378
  C  C233  1  0.928070  0.317600  0.030300  1.0  -0.148
  C  C234  1  0.261210  0.619400  0.898650  1.0  0.1192
  C  C235  1  0.005250  0.306740  0.046330  1.0  0.1705
  C  C236  1  0.869340  0.091180  0.996690  1.0  0.6893
  C  C237  1  0.884160  0.247300  0.014900  1.0  -0.0135
  C  C238  1  0.260100  0.815400  0.684460  1.0  -0.1332
  C  C239  1  0.916870  0.167550  0.014430  1.0  -0.1305
  C  C240  1  0.185900  0.551800  0.827210  1.0  0.1338
  C  C241  1  0.255100  0.732900  0.661700  1.0  0.0008
  C  C242  1  0.039020  0.227750  0.047300  1.0  -0.1949
  C  C243  1  0.239330  0.688200  0.781820  1.0  0.1699
  C  C244  1  0.242100  0.771500  0.805300  1.0  -0.1801
  C  C245  1  0.244900  0.667800  0.711050  1.0  -0.159
  C  C246  1  0.269660  0.613400  0.132100  1.0  0.6474
  C  C247  1  0.253300  0.834600  0.755300  1.0  -0.0276
  C  C248  1  0.036800  0.448400  0.099100  1.0  0.1849
  N  N249  1  0.269910  0.123100  0.833230  1.0  0.0288
  N  N250  1  0.261850  0.050700  0.930490  1.0  -0.2338
  N  N251  1  0.351670  0.966790  0.054810  1.0  -0.1618
  N  N252  1  0.447820  0.879530  0.059640  1.0  0.0087
  N  N253  1  0.310000  0.007230  0.885040  1.0  -0.2839
  N  N254  1  0.406100  0.001900  0.097900  1.0  -0.2729
  N  N255  1  0.769910  0.376900  0.166770  1.0  0.0295
  N  N256  1  0.761850  0.449300  0.069510  1.0  -0.2348
  N  N257  1  0.851670  0.533210  0.945190  1.0  -0.1613
  N  N258  1  0.947820  0.620470  0.940360  1.0  0.0088
  N  N259  1  0.810000  0.492770  0.114960  1.0  -0.2833
  N  N260  1  0.906100  0.498100  0.902100  1.0  -0.2735
  N  N261  1  0.769910  0.123100  0.666770  1.0  0.0292
  N  N262  1  0.761850  0.050700  0.569510  1.0  -0.2347
  N  N263  1  0.851670  0.966790  0.445190  1.0  -0.1616
  N  N264  1  0.947820  0.879530  0.440360  1.0  0.0089
  N  N265  1  0.810000  0.007230  0.614960  1.0  -0.2833
  N  N266  1  0.906100  0.001900  0.402100  1.0  -0.2747
  N  N267  1  0.269910  0.376900  0.333230  1.0  0.0288
  N  N268  1  0.261850  0.449300  0.430490  1.0  -0.2344
  N  N269  1  0.351670  0.533210  0.554810  1.0  -0.1613
  N  N270  1  0.447820  0.620470  0.559640  1.0  0.0085
  N  N271  1  0.310000  0.492770  0.385040  1.0  -0.283
  N  N272  1  0.406100  0.498100  0.597900  1.0  -0.271
  N  N273  1  0.230090  0.876900  0.333230  1.0  0.0291
  N  N274  1  0.238150  0.949300  0.430490  1.0  -0.2343
  N  N275  1  0.148330  0.033210  0.554810  1.0  -0.1602
  N  N276  1  0.052180  0.120470  0.559640  1.0  0.0087
  N  N277  1  0.190000  0.992770  0.385040  1.0  -0.2826
  N  N278  1  0.093900  0.998100  0.597900  1.0  -0.27
  N  N279  1  0.730090  0.623100  0.666770  1.0  0.029
  N  N280  1  0.738150  0.550700  0.569510  1.0  -0.2341
  N  N281  1  0.648330  0.466790  0.445190  1.0  -0.161
  N  N282  1  0.552180  0.379530  0.440360  1.0  0.0086
  N  N283  1  0.690000  0.507230  0.614960  1.0  -0.2835
  N  N284  1  0.593900  0.501900  0.402100  1.0  -0.2733
  N  N285  1  0.730090  0.876900  0.166770  1.0  0.0294
  N  N286  1  0.738150  0.949300  0.069510  1.0  -0.2342
  N  N287  1  0.648330  0.033210  0.945190  1.0  -0.1602
  N  N288  1  0.552180  0.120470  0.940360  1.0  0.0086
  N  N289  1  0.690000  0.992770  0.114960  1.0  -0.2829
  N  N290  1  0.593900  0.998100  0.902100  1.0  -0.2716
  N  N291  1  0.230090  0.623100  0.833230  1.0  0.0289
  N  N292  1  0.238150  0.550700  0.930490  1.0  -0.2338
  N  N293  1  0.148330  0.466790  0.054810  1.0  -0.1613
  N  N294  1  0.052180  0.379530  0.059640  1.0  0.0088
  N  N295  1  0.190000  0.507230  0.885040  1.0  -0.2841
  N  N296  1  0.093900  0.501900  0.097900  1.0  -0.2732
  O  O297  1  0.199380  0.896200  0.021160  1.0  -0.5919
  O  O298  1  0.602570  0.520190  0.000320  1.0  -0.627
  O  O299  1  0.230630  0.132340  0.067280  1.0  -0.5622
  O  O300  1  0.224500  0.040150  0.152570  1.0  -0.579
  O  O301  1  0.699380  0.603800  0.978840  1.0  -0.5923
  O  O302  1  0.102570  0.979810  0.999680  1.0  -0.6276
  O  O303  1  0.730630  0.367660  0.932720  1.0  -0.5632
  O  O304  1  0.724500  0.459850  0.847430  1.0  -0.5808
  O  O305  1  0.699380  0.896200  0.478840  1.0  -0.5922
  O  O306  1  0.102570  0.520190  0.499680  1.0  -0.6266
  O  O307  1  0.730630  0.132340  0.432720  1.0  -0.5633
  O  O308  1  0.724500  0.040150  0.347430  1.0  -0.5796
  O  O309  1  0.199380  0.603800  0.521160  1.0  -0.5921
  O  O310  1  0.602570  0.979810  0.500320  1.0  -0.6282
  O  O311  1  0.230630  0.367660  0.567280  1.0  -0.5624
  O  O312  1  0.224500  0.459850  0.652570  1.0  -0.5805
  O  O313  1  0.300620  0.103800  0.521160  1.0  -0.5916
  O  O314  1  0.897430  0.479810  0.500320  1.0  -0.6273
  O  O315  1  0.269370  0.867660  0.567280  1.0  -0.5625
  O  O316  1  0.275500  0.959850  0.652570  1.0  -0.5798
  O  O317  1  0.800620  0.396200  0.478840  1.0  -0.5924
  O  O318  1  0.397430  0.020190  0.499680  1.0  -0.6271
  O  O319  1  0.769370  0.632340  0.432720  1.0  -0.5636
  O  O320  1  0.775500  0.540150  0.347430  1.0  -0.5787
  O  O321  1  0.800620  0.103800  0.978840  1.0  -0.5919
  O  O322  1  0.397430  0.479810  0.999680  1.0  -0.6267
  O  O323  1  0.769370  0.867660  0.932720  1.0  -0.5634
  O  O324  1  0.775500  0.959850  0.847430  1.0  -0.58
  O  O325  1  0.300620  0.396200  0.021160  1.0  -0.592
  O  O326  1  0.897430  0.020190  0.000320  1.0  -0.6277
  O  O327  1  0.269370  0.632340  0.067280  1.0  -0.5624
  O  O328  1  0.275500  0.540150  0.152570  1.0  -0.5782
