# generated using pymatgen
data_Cu3H14(C5O2)6
_symmetry_space_group_name_H-M   'P 1'
_cell_length_a   22.41050000
_cell_length_b   22.51560000
_cell_length_c   22.27400000
_cell_angle_alpha   100.14100000
_cell_angle_beta   64.26520000
_cell_angle_gamma   66.75320000
_symmetry_Int_Tables_number   1
_chemical_formula_structural   Cu3H14(C5O2)6
_chemical_formula_sum   'Cu12 H56 C120 O48'
_cell_volume   8443.07594280
_cell_formula_units_Z   4
loop_
 _symmetry_equiv_pos_site_id
 _symmetry_equiv_pos_as_xyz
  1  'x, y, z'
loop_
 _atom_site_type_symbol
 _atom_site_label
 _atom_site_symmetry_multiplicity
 _atom_site_fract_x
 _atom_site_fract_y
 _atom_site_fract_z
 _atom_site_occupancy
 _atom_site_charge
  Cu  Cu1  1  0.450580  0.548970  0.502470  1.0  0.9476
  Cu  Cu2  1  0.558870  0.441960  0.502590  1.0  0.9422
  Cu  Cu3  1  0.586580  0.847350  0.038890  1.0  0.9303
  Cu  Cu4  1  0.694200  0.873350  0.958570  1.0  0.9276
  Cu  Cu5  1  0.156680  0.937300  0.963960  1.0  0.9203
  Cu  Cu6  1  0.136570  0.908060  0.857970  1.0  0.9139
  Cu  Cu7  1  0.449540  0.507250  0.140690  1.0  0.9199
  Cu  Cu8  1  0.530680  0.379040  0.036850  1.0  0.9193
  Cu  Cu9  1  0.514010  0.877210  0.444580  1.0  0.9387
  Cu  Cu10  1  0.619690  0.881420  0.467370  1.0  0.9316
  Cu  Cu11  1  0.070330  0.540300  0.553380  1.0  0.9372
  Cu  Cu12  1  0.087800  0.412790  0.530640  1.0  0.9285
  H  H13  1  0.485330  0.845220  0.918440  1.0  0.1272
  H  H14  1  0.607050  0.945790  0.827980  1.0  0.1299
  H  H15  1  0.531570  0.983280  0.774520  1.0  0.12
  H  H16  1  0.412530  0.880980  0.864980  1.0  0.1289
  H  H17  1  0.315260  0.990060  0.881520  1.0  0.12
  H  H18  1  0.327110  0.928860  0.681250  1.0  0.1251
  H  H19  1  0.520350  0.922000  0.682840  1.0  0.1258
  H  H20  1  0.044550  0.776630  0.944050  1.0  0.124
  H  H21  1  0.937160  0.962650  0.139070  1.0  0.1271
  H  H22  1  0.839580  0.935280  0.207870  1.0  0.122
  H  H23  1  0.950930  0.748570  0.016700  1.0  0.1264
  H  H24  1  0.797100  0.843940  0.253250  1.0  0.1248
  H  H25  1  0.623860  0.843760  0.217150  1.0  0.1326
  H  H26  1  0.820260  0.836380  0.052520  1.0  0.121
  H  H27  1  0.386180  0.064450  0.170290  1.0  0.129
  H  H28  1  0.579700  0.093110  0.082820  1.0  0.1281
  H  H29  1  0.491420  0.219290  0.137350  1.0  0.1275
  H  H30  1  0.296170  0.193270  0.224550  1.0  0.1212
  H  H31  1  0.266070  0.295380  0.316790  1.0  0.1219
  H  H32  1  0.256760  0.489470  0.317170  1.0  0.1284
  H  H33  1  0.400860  0.299070  0.118260  1.0  0.1232
  H  H34  1  0.670380  0.430400  0.862800  1.0  0.1187
  H  H35  1  0.669130  0.512260  0.051590  1.0  0.1221
  H  H36  1  0.770600  0.532770  0.978800  1.0  0.1248
  H  H37  1  0.768520  0.455840  0.791020  1.0  0.1201
  H  H38  1  0.714550  0.627770  0.942850  1.0  0.119
  H  H39  1  0.873800  0.658920  0.779630  1.0  0.1322
  H  H40  1  0.910380  0.450320  0.743950  1.0  0.1248
  H  H41  1  0.906780  0.076880  0.968720  1.0  0.1246
  H  H42  1  0.984430  0.159640  0.088010  1.0  0.1285
  H  H43  1  0.851970  0.263550  0.172400  1.0  0.1251
  H  H44  1  0.776910  0.175660  0.054350  1.0  0.1211
  H  H45  1  0.710830  0.291910  0.077960  1.0  0.1221
  H  H46  1  0.512300  0.452420  0.287520  1.0  0.1326
  H  H47  1  0.719720  0.307070  0.267320  1.0  0.1231
  H  H48  1  0.351680  0.112240  0.578100  1.0  0.1242
  H  H49  1  0.574880  0.078820  0.433830  1.0  0.1184
  H  H50  1  0.515760  0.204530  0.462780  1.0  0.1241
  H  H51  1  0.292090  0.239660  0.615550  1.0  0.1236
  H  H52  1  0.260690  0.313900  0.565830  1.0  0.1172
  H  H53  1  0.275280  0.495320  0.559530  1.0  0.1317
  H  H54  1  0.457870  0.316280  0.542460  1.0  0.1209
  H  H55  1  0.856080  0.493660  0.565040  1.0  0.1211
  H  H56  1  0.969010  0.568550  0.417640  1.0  0.1242
  H  H57  1  0.877150  0.591740  0.381660  1.0  0.1256
  H  H58  1  0.757700  0.524880  0.537600  1.0  0.1253
  H  H59  1  0.724340  0.502910  0.459000  1.0  0.1196
  H  H60  1  0.559830  0.669330  0.445060  1.0  0.1303
  H  H61  1  0.752940  0.673630  0.431710  1.0  0.1151
  H  H62  1  0.511120  0.430810  0.881840  1.0  0.1254
  H  H63  1  0.288830  0.603720  0.065460  1.0  0.1216
  H  H64  1  0.263820  0.653320  0.985110  1.0  0.1235
  H  H65  1  0.493060  0.483980  0.801430  1.0  0.1226
  H  H66  1  0.441060  0.513920  0.738980  1.0  0.123
  H  H67  1  0.339770  0.704700  0.716390  1.0  0.1228
  H  H68  1  0.292460  0.715650  0.925600  1.0  0.1174
  C  C69  1  0.436370  0.566130  0.640690  1.0  0.6467
  C  C70  1  0.419850  0.440820  0.533920  1.0  0.6684
  C  C71  1  0.573120  0.423980  0.364490  1.0  0.6419
  C  C72  1  0.589150  0.550650  0.470960  1.0  0.6632
  C  C73  1  0.551160  0.893200  0.877260  1.0  -0.085
  C  C74  1  0.564550  0.931210  0.835900  1.0  -0.0951
  C  C75  1  0.521480  0.952930  0.806160  1.0  -0.1321
  C  C76  1  0.464710  0.937150  0.818410  1.0  0.059
  C  C77  1  0.453460  0.897430  0.857980  1.0  -0.0994
  C  C78  1  0.496040  0.875920  0.887460  1.0  -0.0752
  C  C79  1  0.344970  0.973130  0.822830  1.0  -0.0544
  C  C80  1  0.311600  0.959580  0.787030  1.0  -0.0564
  C  C81  1  0.351340  0.940620  0.711000  1.0  -0.0637
  C  C82  1  0.425410  0.932440  0.673220  1.0  -0.0713
  C  C83  1  0.460040  0.937100  0.710920  1.0  -0.0314
  C  C84  1  0.421040  0.954800  0.784500  1.0  0.0212
  C  C85  1  0.997660  0.872260  0.032960  1.0  -0.0808
  C  C86  1  0.941310  0.914930  0.112170  1.0  -0.1105
  C  C87  1  0.887010  0.898760  0.151550  1.0  -0.0926
  C  C88  1  0.889010  0.839960  0.116980  1.0  0.0236
  C  C89  1  0.949050  0.794750  0.043790  1.0  -0.0694
  C  C90  1  0.001740  0.811130  0.001850  1.0  -0.1202
  C  C91  1  0.775740  0.840840  0.218370  1.0  -0.1149
  C  C92  1  0.706090  0.841500  0.243370  1.0  -0.0933
  C  C93  1  0.678820  0.840520  0.198010  1.0  -0.0418
  C  C94  1  0.719990  0.839210  0.129510  1.0  -0.0657
  C  C95  1  0.789250  0.835840  0.105180  1.0  -0.1173
  C  C96  1  0.818090  0.836490  0.148090  1.0  0.0382
  C  C97  1  0.489020  0.070030  0.122550  1.0  -0.0757
  C  C98  1  0.517640  0.114040  0.113510  1.0  -0.0772
  C  C99  1  0.467280  0.185940  0.143560  1.0  -0.0929
  C  C100  1  0.387670  0.214790  0.182220  1.0  0.0711
  C  C101  1  0.358500  0.171160  0.193650  1.0  -0.1018
  C  C102  1  0.409330  0.098530  0.163560  1.0  -0.0887
  C  C103  1  0.279630  0.327090  0.288540  1.0  -0.0379
  C  C104  1  0.246010  0.399350  0.325630  1.0  -0.0942
  C  C105  1  0.275930  0.435150  0.287780  1.0  -0.068
  C  C106  1  0.334520  0.398130  0.212190  1.0  -0.0343
  C  C107  1  0.358060  0.328700  0.176760  1.0  -0.0664
  C  C108  1  0.336760  0.291950  0.215380  1.0  0.0238
  C  C109  1  0.660960  0.472060  0.962920  1.0  -0.0461
  C  C110  1  0.691790  0.498170  0.993990  1.0  -0.1244
  C  C111  1  0.750590  0.508210  0.952190  1.0  -0.0756
  C  C112  1  0.777430  0.495060  0.879460  1.0  0.0539
  C  C113  1  0.750350  0.464350  0.846950  1.0  -0.0847
  C  C114  1  0.693340  0.451660  0.888280  1.0  -0.0941
  C  C115  1  0.768370  0.606280  0.890720  1.0  -0.1124
  C  C116  1  0.789750  0.650860  0.866710  1.0  -0.0721
  C  C117  1  0.857550  0.623400  0.798630  1.0  -0.0496
  C  C118  1  0.902320  0.550950  0.753620  1.0  -0.0955
  C  C119  1  0.878040  0.506530  0.778430  1.0  -0.1126
  C  C120  1  0.811420  0.534710  0.848160  1.0  0.037
  C  C121  1  0.544220  0.993710  0.081860  1.0  0.6376
  C  C122  1  0.690680  0.845590  0.082300  1.0  0.6793
  C  C123  1  0.736580  0.727030  0.914000  1.0  0.6823
  C  C124  1  0.588710  0.876330  0.916440  1.0  0.6511
  C  C125  1  0.956600  0.110710  0.020840  1.0  0.0055
  C  C126  1  0.939310  0.163370  0.079610  1.0  -0.0867
  C  C127  1  0.863690  0.222050  0.128260  1.0  -0.1002
  C  C128  1  0.804420  0.228190  0.119230  1.0  0.0594
  C  C129  1  0.821950  0.174460  0.061560  1.0  -0.1335
  C  C130  1  0.897000  0.117150  0.012460  1.0  -0.0945
  C  C131  1  0.682860  0.316100  0.136600  1.0  -0.127
  C  C132  1  0.606770  0.373100  0.179690  1.0  -0.0677
  C  C133  1  0.571980  0.407730  0.253790  1.0  -0.052
  C  C134  1  0.612300  0.384710  0.285480  1.0  -0.0869
  C  C135  1  0.688430  0.325980  0.242400  1.0  -0.0778
  C  C136  1  0.724130  0.291370  0.167360  1.0  0.0538
  C  C137  1  0.466620  0.087680  0.502690  1.0  0.0241
  C  C138  1  0.512540  0.114400  0.473360  1.0  -0.0955
  C  C139  1  0.478820  0.186130  0.491120  1.0  -0.0922
  C  C140  1  0.399040  0.232300  0.541580  1.0  0.0491
  C  C141  1  0.353970  0.205150  0.573850  1.0  -0.1365
  C  C142  1  0.387410  0.132940  0.553020  1.0  -0.0886
  C  C143  1  0.289700  0.342340  0.565520  1.0  -0.059
  C  C144  1  0.257320  0.410140  0.568820  1.0  -0.08
  C  C145  1  0.298490  0.443840  0.560950  1.0  -0.0581
  C  C146  1  0.371540  0.409410  0.550230  1.0  -0.0934
  C  C147  1  0.401750  0.342480  0.549570  1.0  -0.0825
  C  C148  1  0.361860  0.307910  0.555310  1.0  0.0638
  C  C149  1  0.917290  0.530860  0.494400  1.0  0.037
  C  C150  1  0.922450  0.558950  0.443640  1.0  -0.0889
  C  C151  1  0.870030  0.572150  0.423660  1.0  -0.1334
  C  C152  1  0.809630  0.560690  0.457190  1.0  0.0471
  C  C153  1  0.805240  0.532270  0.508150  1.0  -0.0936
  C  C154  1  0.860140  0.515720  0.525070  1.0  -0.0892
  C  C155  1  0.705200  0.551630  0.451800  1.0  -0.0903
  C  C156  1  0.637470  0.582080  0.453160  1.0  -0.096
  C  C157  1  0.613700  0.644100  0.442330  1.0  -0.0576
  C  C158  1  0.657010  0.675930  0.432040  1.0  -0.0872
  C  C159  1  0.722790  0.646050  0.433750  1.0  -0.0556
  C  C160  1  0.746750  0.584650  0.444410  1.0  0.0595
  C  C161  1  0.400650  0.513150  0.978680  1.0  0.09
  C  C162  1  0.332310  0.576240  0.006940  1.0  -0.1119
  C  C163  1  0.319410  0.605120  0.960910  1.0  -0.1101
  C  C164  1  0.377190  0.573820  0.886340  1.0  0.0459
  C  C165  1  0.445250  0.509550  0.858370  1.0  -0.0738
  C  C166  1  0.455960  0.478890  0.904090  1.0  -0.0876
  C  C167  1  0.405980  0.571320  0.763620  1.0  -0.0968
  C  C168  1  0.396620  0.605800  0.719770  1.0  -0.0987
  C  C169  1  0.347370  0.678410  0.750890  1.0  -0.0639
  C  C170  1  0.309010  0.717360  0.825020  1.0  -0.0727
  C  C171  1  0.320770  0.683600  0.868340  1.0  -0.1181
  C  C172  1  0.367800  0.609920  0.838600  1.0  0.0655
  C  C173  1  0.030640  0.049220  0.972990  1.0  0.53
  C  C174  1  0.247210  0.949370  0.831000  1.0  0.5019
  C  C175  1  0.252300  0.793640  0.856860  1.0  0.5615
  C  C176  1  0.049910  0.893080  0.988120  1.0  0.5739
  C  C177  1  0.596610  0.463540  0.008290  1.0  0.5248
  C  C178  1  0.563310  0.397830  0.146830  1.0  0.5761
  C  C179  1  0.387240  0.419500  0.168050  1.0  0.5561
  C  C180  1  0.421600  0.489020  0.027140  1.0  0.5371
  C  C181  1  0.474660  0.912270  0.593300  1.0  0.5889
  C  C182  1  0.628310  0.747120  0.432350  1.0  0.6686
  C  C183  1  0.657830  0.849680  0.319450  1.0  0.6337
  C  C184  1  0.503050  0.012000  0.484050  1.0  0.6598
  C  C185  1  0.970820  0.522840  0.678070  1.0  0.6239
  C  C186  1  0.975010  0.512530  0.512540  1.0  0.6623
  C  C187  1  0.184990  0.430610  0.405100  1.0  0.5905
  C  C188  1  0.186790  0.438550  0.567500  1.0  0.6716
  O  O189  1  0.409230  0.597220  0.605870  1.0  -0.567
  O  O190  1  0.497740  0.501470  0.607700  1.0  -0.571
  O  O191  1  0.392410  0.501980  0.529520  1.0  -0.5774
  O  O192  1  0.489810  0.405330  0.521500  1.0  -0.5643
  O  O193  1  0.510440  0.488180  0.397880  1.0  -0.579
  O  O194  1  0.602080  0.394080  0.398600  1.0  -0.5751
  O  O195  1  0.520370  0.584860  0.481290  1.0  -0.5693
  O  O196  1  0.615720  0.490440  0.477840  1.0  -0.5837
  O  O197  1  0.521160  0.950170  0.098130  1.0  -0.5604
  O  O198  1  0.613910  0.972620  0.026980  1.0  -0.5649
  O  O199  1  0.628620  0.842400  0.099700  1.0  -0.5619
  O  O200  1  0.724070  0.861270  0.027880  1.0  -0.5873
  O  O201  1  0.668710  0.747970  0.972120  1.0  -0.5731
  O  O202  1  0.757980  0.771070  0.897070  1.0  -0.5615
  O  O203  1  0.555090  0.861240  0.970980  1.0  -0.5691
  O  O204  1  0.645520  0.887330  0.903570  1.0  -0.5592
  O  O205  1  0.089740  0.036440  0.985410  1.0  -0.549
  O  O206  1  0.040500  0.002010  0.919550  1.0  -0.551
  O  O207  1  0.247040  0.934210  0.889110  1.0  -0.5799
  O  O208  1  0.195580  0.951320  0.815700  1.0  -0.5717
  O  O209  1  0.219310  0.833700  0.926670  1.0  -0.581
  O  O210  1  0.234910  0.818390  0.813580  1.0  -0.5651
  O  O211  1  0.063200  0.935270  0.022270  1.0  -0.576
  O  O212  1  0.081650  0.869090  0.916130  1.0  -0.5813
  O  O213  1  0.544570  0.507740  0.083520  1.0  -0.5484
  O  O214  1  0.592480  0.411830  0.976440  1.0  -0.5777
  O  O215  1  0.495060  0.458680  0.188050  1.0  -0.5727
  O  O216  1  0.594070  0.358290  0.077730  1.0  -0.5769
  O  O217  1  0.366880  0.486790  0.182650  1.0  -0.5695
  O  O218  1  0.457160  0.365780  0.112630  1.0  -0.5688
  O  O219  1  0.417220  0.535650  0.076750  1.0  -0.5283
  O  O220  1  0.455180  0.420170  0.011510  1.0  -0.5598
  O  O221  1  0.450060  0.904410  0.550180  1.0  -0.5621
  O  O222  1  0.543960  0.903430  0.568240  1.0  -0.5663
  O  O223  1  0.567330  0.777510  0.428520  1.0  -0.5589
  O  O224  1  0.661670  0.780250  0.443390  1.0  -0.5667
  O  O225  1  0.588980  0.856850  0.343730  1.0  -0.5651
  O  O226  1  0.683590  0.853580  0.361860  1.0  -0.5681
  O  O227  1  0.470430  0.978960  0.470380  1.0  -0.5725
  O  O228  1  0.566920  0.980710  0.482740  1.0  -0.576
  O  O229  1  0.988560  0.566900  0.653910  1.0  -0.5614
  O  O230  1  0.009120  0.454900  0.635940  1.0  -0.5678
  O  O231  1  0.994890  0.558260  0.526330  1.0  -0.5616
  O  O232  1  0.004340  0.450350  0.514180  1.0  -0.5819
  O  O233  1  0.149920  0.498090  0.448030  1.0  -0.5623
  O  O234  1  0.167840  0.387000  0.430030  1.0  -0.5668
  O  O235  1  0.153330  0.502940  0.570780  1.0  -0.5663
  O  O236  1  0.164610  0.394500  0.555740  1.0  -0.5704
