# generated using pymatgen
data_Cu3H14(C5O2)6
_symmetry_space_group_name_H-M   'P 1'
_cell_length_a   21.53260000
_cell_length_b   21.48820000
_cell_length_c   21.63730000
_cell_angle_alpha   94.33850000
_cell_angle_beta   118.78400000
_cell_angle_gamma   117.53700000
_symmetry_Int_Tables_number   1
_chemical_formula_structural   Cu3H14(C5O2)6
_chemical_formula_sum   'Cu12 H56 C120 O48'
_cell_volume   7184.64314393
_cell_formula_units_Z   4
loop_
 _symmetry_equiv_pos_site_id
 _symmetry_equiv_pos_as_xyz
  1  'x, y, z'
loop_
 _atom_site_type_symbol
 _atom_site_label
 _atom_site_symmetry_multiplicity
 _atom_site_fract_x
 _atom_site_fract_y
 _atom_site_fract_z
 _atom_site_occupancy
 _atom_site_charge
  Cu  Cu1  1  0.497080  0.611090  0.600220  1.0  0.9254
  Cu  Cu2  1  0.549010  0.524250  0.588910  1.0  0.9342
  Cu  Cu3  1  0.536800  0.990870  0.172020  1.0  0.9204
  Cu  Cu4  1  0.520240  0.951040  0.045190  1.0  0.9214
  Cu  Cu5  1  0.108240  0.015030  0.068160  1.0  0.9226
  Cu  Cu6  1  0.032210  0.034900  0.940520  1.0  0.9218
  Cu  Cu7  1  0.172050  0.635280  0.204380  1.0  0.928
  Cu  Cu8  1  0.070980  0.499740  0.099760  1.0  0.9155
  Cu  Cu9  1  0.034670  0.067910  0.529250  1.0  0.9154
  Cu  Cu10  1  0.106640  0.039170  0.472500  1.0  0.9169
  Cu  Cu11  1  0.060800  0.633610  0.529240  1.0  0.9274
  Cu  Cu12  1  0.904780  0.524720  0.485320  1.0  0.9279
  H  H13  1  0.301130  0.931570  0.698640  1.0  0.1263
  H  H14  1  0.200060  0.071730  0.765420  1.0  0.1294
  H  H15  1  0.301960  0.937120  0.810920  1.0  0.1309
  H  H16  1  0.393670  0.040630  0.923070  1.0  0.1359
  H  H17  1  0.304230  0.008000  0.063290  1.0  0.1245
  H  H18  1  0.154330  0.007770  0.841900  1.0  0.1247
  H  H19  1  0.250120  0.992900  0.617990  1.0  0.1303
  H  H20  1  0.684730  0.879450  0.896080  1.0  0.1288
  H  H21  1  0.958430  0.045590  0.151200  1.0  0.1206
  H  H22  1  0.686160  0.872160  0.006790  1.0  0.1253
  H  H23  1  0.945730  0.011430  0.242910  1.0  0.1205
  H  H24  1  0.791020  0.996890  0.319780  1.0  0.1259
  H  H25  1  0.688940  0.941440  0.085030  1.0  0.1226
  H  H26  1  0.817460  0.963330  0.908760  1.0  0.1249
  H  H27  1  0.931670  0.192290  0.239310  1.0  0.1232
  H  H28  1  0.722750  0.255530  0.188570  1.0  0.1267
  H  H29  1  0.975560  0.322260  0.259630  1.0  0.1268
  H  H30  1  0.928480  0.374080  0.167760  1.0  0.1346
  H  H31  1  0.031150  0.593250  0.311490  1.0  0.1417
  H  H32  1  0.840130  0.388820  0.299760  1.0  0.1246
  H  H33  1  0.786140  0.094550  0.194020  1.0  0.1037
  H  H34  1  0.003260  0.412740  0.727170  1.0  0.128
  H  H35  1  0.155060  0.690270  0.799930  1.0  0.1295
  H  H36  1  0.121480  0.496400  0.859160  1.0  0.1234
  H  H37  1  0.291240  0.739430  0.918800  1.0  0.1289
  H  H38  1  0.340240  0.759280  0.139020  1.0  0.1349
  H  H39  1  0.114660  0.562010  0.939950  1.0  0.125
  H  H40  1  0.958300  0.464390  0.631600  1.0  0.1248
  H  H41  1  0.387530  0.387970  0.089850  1.0  0.1257
  H  H42  1  0.223710  0.268140  0.193750  1.0  0.1384
  H  H43  1  0.402390  0.467170  0.190500  1.0  0.1288
  H  H44  1  0.258190  0.456060  0.163980  1.0  0.1284
  H  H45  1  0.313600  0.555350  0.377660  1.0  0.1203
  H  H46  1  0.377270  0.398670  0.347400  1.0  0.1283
  H  H47  1  0.286740  0.249540  0.037110  1.0  0.1252
  H  H48  1  0.890730  0.246440  0.362020  1.0  0.1194
  H  H49  1  0.166510  0.483250  0.570740  1.0  0.1247
  H  H50  1  0.025070  0.263100  0.401710  1.0  0.1222
  H  H51  1  0.280570  0.479730  0.562910  1.0  0.1209
  H  H52  1  0.344980  0.316990  0.589930  1.0  0.1407
  H  H53  1  0.095030  0.253830  0.514740  1.0  0.1276
  H  H54  1  0.890570  0.347760  0.418100  1.0  0.1304
  H  H55  1  0.558590  0.735480  0.358420  1.0  0.1283
  H  H56  1  0.752900  0.687650  0.556590  1.0  0.1269
  H  H57  1  0.682250  0.754260  0.365240  1.0  0.1309
  H  H58  1  0.828820  0.849700  0.459140  1.0  0.13
  H  H59  1  0.015630  0.809960  0.486760  1.0  0.1395
  H  H60  1  0.800890  0.646880  0.483550  1.0  0.1297
  H  H61  1  0.529940  0.694080  0.447800  1.0  0.1368
  H  H62  1  0.870000  0.498520  0.809680  1.0  0.131
  H  H63  1  0.956240  0.682120  0.035180  1.0  0.1211
  H  H64  1  0.812730  0.575500  0.792780  1.0  0.1291
  H  H65  1  0.719560  0.584840  0.823980  1.0  0.1289
  H  H66  1  0.776820  0.800200  0.810170  1.0  0.1272
  H  H67  1  0.973780  0.778360  0.972450  1.0  0.1192
  H  H68  1  0.967170  0.510850  0.937010  1.0  0.1265
  C  C69  1  0.650700  0.641580  0.734750  1.0  0.5872
  C  C70  1  0.413850  0.469260  0.610780  1.0  0.5602
  C  C71  1  0.404080  0.500760  0.452800  1.0  0.6522
  C  C72  1  0.613460  0.656370  0.556760  1.0  0.6001
  C  C73  1  0.252450  0.999180  0.669220  1.0  -0.0853
  C  C74  1  0.221360  0.036500  0.686110  1.0  -0.0629
  C  C75  1  0.222680  0.041300  0.751200  1.0  -0.0843
  C  C76  1  0.256320  0.009100  0.799140  1.0  0.0382
  C  C77  1  0.281090  0.967320  0.777720  1.0  -0.1458
  C  C78  1  0.280460  0.963460  0.714000  1.0  -0.1247
  C  C79  1  0.345120  0.029530  0.932140  1.0  -0.0931
  C  C80  1  0.355640  0.020350  0.997960  1.0  -0.0369
  C  C81  1  0.296050  0.013730  0.011180  1.0  -0.0665
  C  C82  1  0.225370  0.013470  0.956620  1.0  -0.1021
  C  C83  1  0.211640  0.013590  0.886810  1.0  -0.0922
  C  C84  1  0.270990  0.019680  0.874130  1.0  0.0564
  C  C85  1  0.818760  0.966320  0.959490  1.0  -0.0415
  C  C86  1  0.895950  0.009400  0.030900  1.0  -0.0475
  C  C87  1  0.897280  0.009990  0.095850  1.0  -0.1073
  C  C88  1  0.820790  0.965030  0.088910  1.0  0.0604
  C  C89  1  0.745710  0.914920  0.016000  1.0  -0.1136
  C  C90  1  0.744210  0.917770  0.952170  1.0  -0.0926
  C  C91  1  0.884970  0.997800  0.230410  1.0  -0.0744
  C  C92  1  0.877730  0.008730  0.290470  1.0  -0.0475
  C  C93  1  0.797800  0.989220  0.273960  1.0  -0.0796
  C  C94  1  0.726370  0.958010  0.197890  1.0  -0.045
  C  C95  1  0.738570  0.952350  0.141220  1.0  -0.0602
  C  C96  1  0.815660  0.970750  0.155260  1.0  0.0288
  C  C97  1  0.804420  0.151710  0.203770  1.0  -0.099
  C  C98  1  0.745830  0.168530  0.191130  1.0  0.0005
  C  C99  1  0.769360  0.242290  0.202010  1.0  -0.096
  C  C100  1  0.851570  0.297380  0.224040  1.0  0.045
  C  C101  1  0.909920  0.279310  0.238650  1.0  -0.1551
  C  C102  1  0.886310  0.206520  0.228460  1.0  -0.1008
  C  C103  1  0.930000  0.409840  0.207030  1.0  -0.0889
  C  C104  1  0.985480  0.487430  0.235940  1.0  -0.0985
  C  C105  1  0.985860  0.532160  0.286470  1.0  -0.0524
  C  C106  1  0.930020  0.497400  0.307150  1.0  -0.0701
  C  C107  1  0.877260  0.418430  0.279020  1.0  -0.0019
  C  C108  1  0.880800  0.375550  0.232280  1.0  0.0544
  C  C109  1  0.011010  0.503210  0.689910  1.0  -0.1268
  C  C110  1  0.055870  0.580860  0.708950  1.0  -0.03
  C  C111  1  0.122810  0.629600  0.784500  1.0  -0.1061
  C  C112  1  0.143130  0.599130  0.840000  1.0  0.0733
  C  C113  1  0.102910  0.521290  0.817940  1.0  -0.1185
  C  C114  1  0.036250  0.473570  0.743490  1.0  -0.133
  C  C115  1  0.273890  0.717220  0.955230  1.0  -0.0823
  C  C116  1  0.325070  0.759100  0.033490  1.0  -0.0877
  C  C117  1  0.301520  0.727080  0.078490  1.0  -0.088
  C  C118  1  0.226260  0.654620  0.044540  1.0  -0.0959
  C  C119  1  0.175840  0.615760  0.966980  1.0  -0.0804
  C  C120  1  0.199750  0.645460  0.922190  1.0  0.052
  C  C121  1  0.657590  0.102920  0.153720  1.0  0.6419
  C  C122  1  0.640600  0.942590  0.171000  1.0  0.5841
  C  C123  1  0.401190  0.837220  0.064310  1.0  0.6043
  C  C124  1  0.424460  0.009020  0.044550  1.0  0.5721
  C  C125  1  0.295830  0.283840  0.083880  1.0  -0.1099
  C  C126  1  0.250690  0.249760  0.113510  1.0  -0.0311
  C  C127  1  0.262270  0.294210  0.173080  1.0  -0.0809
  C  C128  1  0.315960  0.372700  0.199970  1.0  0.0711
  C  C129  1  0.361250  0.405960  0.170280  1.0  -0.1165
  C  C130  1  0.352460  0.361610  0.113380  1.0  -0.0398
  C  C131  1  0.283170  0.462730  0.222700  1.0  -0.1038
  C  C132  1  0.280240  0.509310  0.267590  1.0  -0.0372
  C  C133  1  0.314150  0.517660  0.342260  1.0  -0.1066
  C  C134  1  0.350260  0.478730  0.371160  1.0  -0.013
  C  C135  1  0.348710  0.428950  0.324920  1.0  -0.1221
  C  C136  1  0.315150  0.421240  0.250340  1.0  0.0737
  C  C137  1  0.951590  0.355330  0.440220  1.0  -0.0984
  C  C138  1  0.028780  0.422970  0.495950  1.0  -0.0348
  C  C139  1  0.106570  0.431950  0.523580  1.0  -0.109
  C  C140  1  0.105450  0.372220  0.493130  1.0  0.0377
  C  C141  1  0.027710  0.308620  0.430440  1.0  -0.1051
  C  C142  1  0.951200  0.298620  0.406970  1.0  -0.1113
  C  C143  1  0.264130  0.423920  0.562560  1.0  -0.0616
  C  C144  1  0.326130  0.407800  0.586950  1.0  -0.0932
  C  C145  1  0.299510  0.331870  0.575520  1.0  -0.0817
  C  C146  1  0.214560  0.276180  0.548540  1.0  0.0186
  C  C147  1  0.159060  0.296550  0.532150  1.0  -0.0953
  C  C148  1  0.179270  0.366500  0.531310  1.0  0.0549
  C  C149  1  0.586660  0.703110  0.453990  1.0  -0.0676
  C  C150  1  0.639890  0.688270  0.509270  1.0  -0.0743
  C  C151  1  0.710100  0.697820  0.512950  1.0  -0.0841
  C  C152  1  0.727420  0.724390  0.462650  1.0  0.073
  C  C153  1  0.671610  0.736310  0.406550  1.0  -0.1428
  C  C154  1  0.601760  0.725830  0.402370  1.0  -0.1033
  C  C155  1  0.851860  0.813830  0.465260  1.0  -0.1069
  C  C156  1  0.926190  0.837160  0.470380  1.0  -0.0871
  C  C157  1  0.956820  0.791930  0.481500  1.0  -0.0262
  C  C158  1  0.911400  0.723180  0.485840  1.0  -0.0568
  C  C159  1  0.836650  0.700500  0.480400  1.0  -0.0953
  C  C160  1  0.806960  0.746100  0.470290  1.0  0.0704
  C  C161  1  0.944350  0.546900  0.931010  1.0  -0.1256
  C  C162  1  0.969970  0.599300  0.994460  1.0  0.0242
  C  C163  1  0.938690  0.643030  0.985880  1.0  -0.1391
  C  C164  1  0.879790  0.632070  0.913080  1.0  0.0744
  C  C165  1  0.855770  0.581160  0.849810  1.0  -0.1069
  C  C166  1  0.888650  0.538730  0.858850  1.0  -0.0826
  C  C167  1  0.762990  0.645870  0.845180  1.0  -0.077
  C  C168  1  0.735620  0.687470  0.810190  1.0  -0.0193
  C  C169  1  0.795950  0.766460  0.838340  1.0  -0.0653
  C  C170  1  0.882380  0.800660  0.900570  1.0  -0.0916
  C  C171  1  0.906690  0.755520  0.930680  1.0  -0.1196
  C  C172  1  0.848130  0.679020  0.900900  1.0  0.117
  C  C173  1  0.184430  0.167780  0.075120  1.0  0.6424
  C  C174  1  0.165310  0.013080  0.972360  1.0  0.5741
  C  C175  1  0.952420  0.882450  0.935200  1.0  0.6128
  C  C176  1  0.973450  0.034180  0.034500  1.0  0.6564
  C  C177  1  0.192780  0.619540  0.086620  1.0  0.5645
  C  C178  1  0.228270  0.537340  0.229050  1.0  0.6285
  C  C179  1  0.043190  0.518330  0.212290  1.0  0.5768
  C  C180  1  0.016720  0.594420  0.066710  1.0  0.5858
  C  C181  1  0.177680  0.060450  0.628040  1.0  0.6392
  C  C182  1  0.974750  0.913680  0.472800  1.0  0.649
  C  C183  1  0.953310  0.032860  0.369190  1.0  0.5865
  C  C184  1  0.174920  0.195590  0.538730  1.0  0.5762
  C  C185  1  0.032750  0.605700  0.644950  1.0  0.5735
  C  C186  1  0.938870  0.671770  0.493240  1.0  0.6362
  C  C187  1  0.938460  0.538460  0.371510  1.0  0.6331
  C  C188  1  0.023880  0.485110  0.517360  1.0  0.6569
  O  O189  1  0.605910  0.669760  0.702530  1.0  -0.5605
  O  O190  1  0.624850  0.572460  0.700190  1.0  -0.5627
  O  O191  1  0.441310  0.541040  0.637780  1.0  -0.5447
  O  O192  1  0.454980  0.450500  0.592600  1.0  -0.5581
  O  O193  1  0.397360  0.540390  0.495870  1.0  -0.5619
  O  O194  1  0.465980  0.490210  0.479340  1.0  -0.5835
  O  O195  1  0.558500  0.666170  0.558870  1.0  -0.5698
  O  O196  1  0.633370  0.610350  0.584310  1.0  -0.5641
  O  O197  1  0.616140  0.094010  0.185630  1.0  -0.5674
  O  O198  1  0.631720  0.048110  0.096980  1.0  -0.5919
  O  O199  1  0.632320  0.979020  0.215660  1.0  -0.5811
  O  O200  1  0.579860  0.905290  0.096640  1.0  -0.5499
  O  O201  1  0.455060  0.881400  0.138340  1.0  -0.565
  O  O202  1  0.411330  0.860050  0.013340  1.0  -0.5727
  O  O203  1  0.439810  0.997980  0.108520  1.0  -0.5724
  O  O204  1  0.463350  0.003340  0.014500  1.0  -0.5723
  O  O205  1  0.178130  0.125880  0.116030  1.0  -0.5579
  O  O206  1  0.134570  0.139420  0.000040  1.0  -0.5661
  O  O207  1  0.185860  0.022650  0.041910  1.0  -0.5745
  O  O208  1  0.095740  0.007140  0.917790  1.0  -0.5687
  O  O209  1  0.026120  0.907490  0.001030  1.0  -0.577
  O  O210  1  0.940530  0.927240  0.900000  1.0  -0.5656
  O  O211  1  0.019490  0.010460  0.075440  1.0  -0.5697
  O  O212  1  0.979780  0.059050  0.982390  1.0  -0.5745
  O  O213  1  0.237040  0.656950  0.160570  1.0  -0.5844
  O  O214  1  0.116320  0.553220  0.047000  1.0  -0.561
  O  O215  1  0.232780  0.593960  0.265660  1.0  -0.5698
  O  O216  1  0.171790  0.496980  0.155760  1.0  -0.5955
  O  O217  1  0.090500  0.592400  0.230910  1.0  -0.5596
  O  O218  1  0.042330  0.469310  0.170130  1.0  -0.5688
  O  O219  1  0.095080  0.653710  0.124790  1.0  -0.5683
  O  O220  1  0.986240  0.524120  0.060740  1.0  -0.5664
  O  O221  1  0.110590  0.057010  0.618140  1.0  -0.5639
  O  O222  1  0.197330  0.069630  0.578970  1.0  -0.5498
  O  O223  1  0.951590  0.957900  0.483600  1.0  -0.5664
  O  O224  1  0.041290  0.937100  0.469390  1.0  -0.5737
  O  O225  1  0.967620  0.072110  0.430530  1.0  -0.5776
  O  O226  1  0.004330  0.012430  0.374690  1.0  -0.5675
  O  O227  1  0.129560  0.173320  0.566820  1.0  -0.5839
  O  O228  1  0.162280  0.146290  0.485760  1.0  -0.5777
  O  O229  1  0.091290  0.640860  0.631730  1.0  -0.5604
  O  O230  1  0.949650  0.568970  0.591620  1.0  -0.5571
  O  O231  1  0.021440  0.699290  0.529750  1.0  -0.5608
  O  O232  1  0.878100  0.599000  0.463240  1.0  -0.5739
  O  O233  1  0.007500  0.608110  0.419820  1.0  -0.5608
  O  O234  1  0.883900  0.496310  0.386140  1.0  -0.5714
  O  O235  1  0.076560  0.551610  0.521370  1.0  -0.5685
  O  O236  1  0.954580  0.466630  0.513650  1.0  -0.5707
