# generated using pymatgen
data_CuH2(C3O2)2
_symmetry_space_group_name_H-M   'P 1'
_cell_length_a   18.36010000
_cell_length_b   18.35860000
_cell_length_c   18.36010000
_cell_angle_alpha   89.98130000
_cell_angle_beta   59.98710000
_cell_angle_gamma   59.99500000
_symmetry_Int_Tables_number   1
_chemical_formula_structural   CuH2(C3O2)2
_chemical_formula_sum   'Cu12 H24 C72 O48'
_cell_volume   4375.50304484
_cell_formula_units_Z   12
loop_
 _symmetry_equiv_pos_site_id
 _symmetry_equiv_pos_as_xyz
  1  'x, y, z'
loop_
 _atom_site_type_symbol
 _atom_site_label
 _atom_site_symmetry_multiplicity
 _atom_site_fract_x
 _atom_site_fract_y
 _atom_site_fract_z
 _atom_site_occupancy
 _atom_site_charge
  Cu  Cu1  1  0.427960  0.572800  0.499840  1.0  0.9269
  Cu  Cu2  1  0.572040  0.427200  0.500160  1.0  0.9285
  Cu  Cu3  1  0.429210  0.001260  0.069290  1.0  0.9254
  Cu  Cu4  1  0.574020  0.001690  0.924500  1.0  0.9236
  Cu  Cu5  1  0.998460  0.001770  0.072590  1.0  0.9274
  Cu  Cu6  1  0.998610  0.001830  0.927520  1.0  0.9255
  Cu  Cu7  1  0.423080  0.576730  0.075110  1.0  0.9249
  Cu  Cu8  1  0.568380  0.431880  0.929990  1.0  0.9242
  Cu  Cu9  1  0.423940  0.002200  0.499830  1.0  0.926
  Cu  Cu10  1  0.569770  0.000720  0.499610  1.0  0.9257
  Cu  Cu11  1  0.998990  0.572940  0.500100  1.0  0.9246
  Cu  Cu12  1  0.998050  0.428410  0.499610  1.0  0.9243
  H  H13  1  0.228870  0.044220  0.777350  1.0  0.1193
  H  H14  1  0.233410  0.044450  0.992170  1.0  0.1211
  H  H15  1  0.448630  0.043790  0.772450  1.0  0.1209
  H  H16  1  0.770830  0.954390  0.005910  1.0  0.1245
  H  H17  1  0.552360  0.953940  0.221320  1.0  0.1213
  H  H18  1  0.767460  0.954580  0.224710  1.0  0.1209
  H  H19  1  0.445080  0.280690  0.006020  1.0  0.1211
  H  H20  1  0.225390  0.495380  0.225510  1.0  0.1199
  H  H21  1  0.230550  0.275690  0.220770  1.0  0.121
  H  H22  1  0.552040  0.727720  0.993680  1.0  0.1222
  H  H23  1  0.772160  0.721840  0.773680  1.0  0.1176
  H  H24  1  0.766010  0.507820  0.779430  1.0  0.1175
  H  H25  1  0.767620  0.279870  0.006100  1.0  0.1233
  H  H26  1  0.770470  0.277180  0.221800  1.0  0.1207
  H  H27  1  0.551570  0.495490  0.224730  1.0  0.1225
  H  H28  1  0.448200  0.276940  0.542490  1.0  0.1213
  H  H29  1  0.230660  0.493910  0.542680  1.0  0.1239
  H  H30  1  0.231520  0.276320  0.542190  1.0  0.1223
  H  H31  1  0.548880  0.724780  0.457240  1.0  0.1212
  H  H32  1  0.764580  0.727810  0.457040  1.0  0.1193
  H  H33  1  0.767380  0.509270  0.457530  1.0  0.1222
  H  H34  1  0.232900  0.724680  0.773150  1.0  0.1216
  H  H35  1  0.447840  0.509340  0.777140  1.0  0.1239
  H  H36  1  0.229240  0.728600  0.992090  1.0  0.121
  C  C37  1  0.404500  0.567500  0.662930  1.0  0.6707
  C  C38  1  0.403400  0.433670  0.527960  1.0  0.7064
  C  C39  1  0.595500  0.432500  0.337070  1.0  0.7059
  C  C40  1  0.596600  0.566330  0.472040  1.0  0.702
  C  C41  1  0.343660  0.047060  0.761560  1.0  -0.1415
  C  C42  1  0.214720  0.047450  0.893200  1.0  -0.1802
  C  C43  1  0.346390  0.047190  0.890270  1.0  -0.1652
  C  C44  1  0.257870  0.046010  0.806220  1.0  -0.0082
  C  C45  1  0.260580  0.046140  0.934250  1.0  -0.0077
  C  C46  1  0.388840  0.045750  0.803300  1.0  -0.0122
  C  C47  1  0.781410  0.957600  0.109330  1.0  -0.1817
  C  C48  1  0.652530  0.957220  0.107300  1.0  -0.1809
  C  C49  1  0.650520  0.957330  0.238390  1.0  -0.1644
  C  C50  1  0.739740  0.956160  0.064990  1.0  -0.0138
  C  C51  1  0.609540  0.955900  0.193370  1.0  -0.011
  C  C52  1  0.737730  0.956280  0.195390  1.0  -0.005
  C  C53  1  0.347300  0.262810  0.107010  1.0  -0.1675
  C  C54  1  0.344210  0.394440  0.109850  1.0  -0.1526
  C  C55  1  0.215670  0.391440  0.238520  1.0  -0.1788
  C  C56  1  0.387800  0.308330  0.065110  1.0  -0.0141
  C  C57  1  0.256880  0.436280  0.195920  1.0  -0.0159
  C  C58  1  0.259950  0.305350  0.193090  1.0  -0.0034
  C  C59  1  0.649490  0.611920  0.892990  1.0  -0.1729
  C  C60  1  0.653170  0.740150  0.889540  1.0  -0.1774
  C  C61  1  0.781380  0.608400  0.761170  1.0  -0.1689
  C  C62  1  0.609290  0.697920  0.934590  1.0  -0.0153
  C  C63  1  0.740480  0.694410  0.803480  1.0  -0.0092
  C  C64  1  0.736810  0.566860  0.806910  1.0  -0.0057
  C  C65  1  0.405850  0.164400  0.064700  1.0  0.7047
  C  C66  1  0.597000  0.973490  0.064430  1.0  0.6812
  C  C67  1  0.597380  0.838550  0.929080  1.0  0.7061
  C  C68  1  0.406240  0.029460  0.929350  1.0  0.7051
  C  C69  1  0.650220  0.393950  0.109410  1.0  -0.1797
  C  C70  1  0.781380  0.263150  0.107660  1.0  -0.1724
  C  C71  1  0.651930  0.392340  0.238640  1.0  -0.1642
  C  C72  1  0.737710  0.307940  0.065200  1.0  0.02
  C  C73  1  0.739400  0.306340  0.193750  1.0  -0.0105
  C  C74  1  0.608950  0.436440  0.195490  1.0  -0.0114
  C  C75  1  0.345030  0.263290  0.545400  1.0  -0.1505
  C  C76  1  0.344510  0.393650  0.545690  1.0  -0.1541
  C  C77  1  0.214680  0.393280  0.545510  1.0  -0.1772
  C  C78  1  0.388510  0.306670  0.544280  1.0  -0.013
  C  C79  1  0.258870  0.435980  0.544400  1.0  -0.0062
  C  C80  1  0.259380  0.306310  0.544110  1.0  -0.0067
  C  C81  1  0.653150  0.608670  0.454320  1.0  -0.1772
  C  C82  1  0.651470  0.739610  0.454030  1.0  -0.182
  C  C83  1  0.782390  0.610490  0.454210  1.0  -0.149
  C  C84  1  0.608570  0.695560  0.455440  1.0  -0.0114
  C  C85  1  0.737120  0.697360  0.455330  1.0  -0.0026
  C  C86  1  0.738780  0.567120  0.455610  1.0  -0.0108
  C  C87  1  0.214680  0.739990  0.890620  1.0  -0.1747
  C  C88  1  0.345660  0.608610  0.761840  1.0  -0.1527
  C  C89  1  0.343460  0.610960  0.893020  1.0  -0.1535
  C  C90  1  0.260150  0.695610  0.803780  1.0  -0.0096
  C  C91  1  0.388240  0.567270  0.806160  1.0  -0.0076
  C  C92  1  0.257970  0.697940  0.934260  1.0  -0.0063
  C  C93  1  0.863560  0.164730  0.067540  1.0  0.705
  C  C94  1  0.133520  0.029750  0.932690  1.0  0.6982
  C  C95  1  0.133510  0.838870  0.932570  1.0  0.6701
  C  C96  1  0.863550  0.973850  0.067410  1.0  0.7006
  C  C97  1  0.590860  0.572110  0.935370  1.0  0.694
  C  C98  1  0.591090  0.436860  0.070110  1.0  0.681
  C  C99  1  0.400590  0.436500  0.069730  1.0  0.7044
  C  C100  1  0.400360  0.571750  0.935000  1.0  0.7057
  C  C101  1  0.401380  0.029370  0.662650  1.0  0.6815
  C  C102  1  0.591170  0.838530  0.471760  1.0  0.6946
  C  C103  1  0.592330  0.973550  0.336790  1.0  0.703
  C  C104  1  0.402540  0.164390  0.527680  1.0  0.7072
  C  C105  1  0.863530  0.567930  0.662790  1.0  0.6953
  C  C106  1  0.863550  0.569260  0.471910  1.0  0.701
  C  C107  1  0.133500  0.433420  0.336930  1.0  0.6994
  C  C108  1  0.133490  0.432090  0.527800  1.0  0.6999
  O  O109  1  0.364320  0.614380  0.627550  1.0  -0.5483
  O  O110  1  0.486000  0.491420  0.627820  1.0  -0.5521
  O  O111  1  0.363460  0.509500  0.521780  1.0  -0.5497
  O  O112  1  0.485140  0.386540  0.522050  1.0  -0.5539
  O  O113  1  0.514000  0.508580  0.372180  1.0  -0.5577
  O  O114  1  0.635680  0.385620  0.372450  1.0  -0.551
  O  O115  1  0.514860  0.613460  0.477950  1.0  -0.5618
  O  O116  1  0.636540  0.490500  0.478220  1.0  -0.5485
  O  O117  1  0.365420  0.128970  0.111170  1.0  -0.5589
  O  O118  1  0.487710  0.129340  0.988900  1.0  -0.5472
  O  O119  1  0.515220  0.979360  0.110960  1.0  -0.554
  O  O120  1  0.637510  0.979720  0.988690  1.0  -0.5495
  O  O121  1  0.515530  0.873610  0.004890  1.0  -0.5586
  O  O122  1  0.637810  0.873970  0.882610  1.0  -0.5487
  O  O123  1  0.365720  0.023220  0.005100  1.0  -0.559
  O  O124  1  0.488010  0.023590  0.882820  1.0  -0.5501
  O  O125  1  0.892690  0.129460  0.114190  1.0  -0.5488
  O  O126  1  0.892820  0.129510  0.991690  1.0  -0.5551
  O  O127  1  0.104260  0.023680  0.008520  1.0  -0.5555
  O  O128  1  0.104390  0.023730  0.886010  1.0  -0.5514
  O  O129  1  0.104250  0.874080  0.008420  1.0  -0.5483
  O  O130  1  0.104380  0.874140  0.885910  1.0  -0.555
  O  O131  1  0.892680  0.979860  0.114100  1.0  -0.557
  O  O132  1  0.892810  0.979920  0.991590  1.0  -0.5472
  O  O133  1  0.508930  0.618610  0.011180  1.0  -0.5475
  O  O134  1  0.631640  0.496290  0.888630  1.0  -0.5579
  O  O135  1  0.509110  0.512600  0.116770  1.0  -0.547
  O  O136  1  0.631820  0.390290  0.994220  1.0  -0.5551
  O  O137  1  0.359820  0.512320  0.116480  1.0  -0.5487
  O  O138  1  0.482520  0.390000  0.993920  1.0  -0.5573
  O  O139  1  0.359640  0.618320  0.010890  1.0  -0.5501
  O  O140  1  0.482340  0.496010  0.888330  1.0  -0.5583
  O  O141  1  0.360460  0.023950  0.627500  1.0  -0.5498
  O  O142  1  0.483600  0.022710  0.627310  1.0  -0.5493
  O  O143  1  0.509200  0.874390  0.477900  1.0  -0.5485
  O  O144  1  0.632350  0.873150  0.477710  1.0  -0.5591
  O  O145  1  0.510110  0.980210  0.372130  1.0  -0.5487
  O  O146  1  0.633260  0.978960  0.371940  1.0  -0.5572
  O  O147  1  0.361360  0.129770  0.521730  1.0  -0.5507
  O  O148  1  0.484510  0.128530  0.521540  1.0  -0.5506
  O  O149  1  0.893130  0.614410  0.627750  1.0  -0.5492
  O  O150  1  0.892330  0.492360  0.627330  1.0  -0.555
  O  O151  1  0.893140  0.615450  0.478160  1.0  -0.551
  O  O152  1  0.892340  0.493400  0.477750  1.0  -0.5495
  O  O153  1  0.104700  0.508990  0.372380  1.0  -0.5491
  O  O154  1  0.103910  0.386940  0.371960  1.0  -0.5576
  O  O155  1  0.104690  0.507950  0.521970  1.0  -0.5574
  O  O156  1  0.103900  0.385900  0.521550  1.0  -0.5515
