# generated using pymatgen
data_YH4(CO2)4
_symmetry_space_group_name_H-M   'P 1'
_cell_length_a   14.89030000
_cell_length_b   13.16780000
_cell_length_c   12.98520000
_cell_angle_alpha   90.00000000
_cell_angle_beta   105.66400000
_cell_angle_gamma   90.00000000
_symmetry_Int_Tables_number   1
_chemical_formula_structural   YH4(CO2)4
_chemical_formula_sum   'Y8 H32 C32 O64'
_cell_volume   2451.48460422
_cell_formula_units_Z   8
loop_
 _symmetry_equiv_pos_site_id
 _symmetry_equiv_pos_as_xyz
  1  'x, y, z'
loop_
 _atom_site_type_symbol
 _atom_site_label
 _atom_site_symmetry_multiplicity
 _atom_site_fract_x
 _atom_site_fract_y
 _atom_site_fract_z
 _atom_site_occupancy
 _atom_site_charge
  Y  Y1  1  0.271000  0.435090  0.192290  1.0  2.0122
  Y  Y2  1  0.728990  0.564920  0.807710  1.0  2.0109
  Y  Y3  1  0.741600  0.431420  0.312020  1.0  2.0115
  Y  Y4  1  0.258400  0.568580  0.687990  1.0  2.0103
  Y  Y5  1  0.758400  0.931430  0.187990  1.0  2.0103
  Y  Y6  1  0.241600  0.068580  0.812020  1.0  2.0116
  Y  Y7  1  0.229000  0.935090  0.307710  1.0  2.0117
  Y  Y8  1  0.771000  0.064920  0.692290  1.0  2.0081
  H  H9  1  0.004060  0.488210  0.110560  1.0  0.1138
  H  H10  1  0.995940  0.511790  0.889450  1.0  0.1127
  H  H11  1  0.003080  0.509550  0.371760  1.0  0.1074
  H  H12  1  0.996920  0.490450  0.628240  1.0  0.1066
  H  H13  1  0.496920  0.009550  0.128240  1.0  0.1068
  H  H14  1  0.503080  0.990450  0.871760  1.0  0.1073
  H  H15  1  0.495940  0.988210  0.389440  1.0  0.1126
  H  H16  1  0.504060  0.011790  0.610560  1.0  0.1129
  H  H17  1  0.176540  0.283680  0.953810  1.0  0.1125
  H  H18  1  0.823460  0.716320  0.046190  1.0  0.113
  H  H19  1  0.323460  0.783680  0.546190  1.0  0.1129
  H  H20  1  0.676540  0.216320  0.453810  1.0  0.1128
  H  H21  1  0.209540  0.521200  0.423680  1.0  0.1175
  H  H22  1  0.790460  0.478810  0.576320  1.0  0.1173
  H  H23  1  0.788900  0.518030  0.077630  1.0  0.1127
  H  H24  1  0.211100  0.481970  0.922370  1.0  0.1122
  H  H25  1  0.711100  0.018030  0.422370  1.0  0.1124
  H  H26  1  0.288900  0.981970  0.577630  1.0  0.1129
  H  H27  1  0.290460  0.021190  0.076320  1.0  0.1169
  H  H28  1  0.709540  0.978810  0.923680  1.0  0.1175
  H  H29  1  0.345410  0.171610  0.246350  1.0  0.1026
  H  H30  1  0.654590  0.828390  0.753650  1.0  0.1026
  H  H31  1  0.648620  0.173640  0.237920  1.0  0.1172
  H  H32  1  0.351380  0.826360  0.762080  1.0  0.1167
  H  H33  1  0.851380  0.673640  0.262080  1.0  0.1167
  H  H34  1  0.148620  0.326360  0.737920  1.0  0.1172
  H  H35  1  0.154590  0.671610  0.253650  1.0  0.1027
  H  H36  1  0.845410  0.328390  0.746350  1.0  0.1021
  H  H37  1  0.477490  0.287790  0.235770  1.0  0.114
  H  H38  1  0.522510  0.712210  0.764240  1.0  0.1154
  H  H39  1  0.022510  0.787790  0.264230  1.0  0.1127
  H  H40  1  0.977500  0.212210  0.735770  1.0  0.1164
  C  C41  1  0.078910  0.465870  0.135440  1.0  0.5964
  C  C42  1  0.921090  0.534130  0.864560  1.0  0.594
  C  C43  1  0.928920  0.486270  0.356910  1.0  0.5858
  C  C44  1  0.071080  0.513730  0.643090  1.0  0.5847
  C  C45  1  0.571070  0.986270  0.143090  1.0  0.5853
  C  C46  1  0.428930  0.013730  0.856920  1.0  0.5851
  C  C47  1  0.421100  0.965870  0.364560  1.0  0.5948
  C  C48  1  0.578900  0.034130  0.635440  1.0  0.5956
  C  C49  1  0.249020  0.258130  0.994090  1.0  0.6526
  C  C50  1  0.750970  0.741870  0.005910  1.0  0.6521
  C  C51  1  0.749030  0.241870  0.494090  1.0  0.6525
  C  C52  1  0.250970  0.758130  0.505910  1.0  0.6525
  C  C53  1  0.278960  0.484880  0.451370  1.0  0.5988
  C  C54  1  0.721040  0.515120  0.548630  1.0  0.597
  C  C55  1  0.719970  0.480070  0.050910  1.0  0.6565
  C  C56  1  0.280040  0.519930  0.949100  1.0  0.6566
  C  C57  1  0.780040  0.980070  0.449090  1.0  0.6578
  C  C58  1  0.219970  0.019930  0.550910  1.0  0.6561
  C  C59  1  0.221040  0.984880  0.048630  1.0  0.5978
  C  C60  1  0.778960  0.015120  0.951370  1.0  0.5973
  C  C61  1  0.276680  0.185260  0.262500  1.0  0.653
  C  C62  1  0.723320  0.814740  0.737500  1.0  0.6525
  C  C63  1  0.722750  0.182050  0.236160  1.0  0.6526
  C  C64  1  0.277250  0.817950  0.763840  1.0  0.6535
  C  C65  1  0.777240  0.682050  0.263840  1.0  0.653
  C  C66  1  0.222760  0.317950  0.736170  1.0  0.653
  C  C67  1  0.223320  0.685260  0.237500  1.0  0.6523
  C  C68  1  0.776680  0.314740  0.762510  1.0  0.6538
  C  C69  1  0.499290  0.368600  0.252020  1.0  0.6606
  C  C70  1  0.500710  0.631400  0.747980  1.0  0.6614
  C  C71  1  0.000710  0.868600  0.247980  1.0  0.6606
  C  C72  1  0.999290  0.131400  0.752020  1.0  0.6609
  O  O73  1  0.120990  0.460550  0.234280  1.0  -0.5822
  O  O74  1  0.879010  0.539460  0.765730  1.0  -0.5828
  O  O75  1  0.888770  0.442240  0.268360  1.0  -0.5943
  O  O76  1  0.111230  0.557760  0.731640  1.0  -0.5955
  O  O77  1  0.611220  0.942240  0.231640  1.0  -0.5954
  O  O78  1  0.388780  0.057760  0.768370  1.0  -0.5938
  O  O79  1  0.379010  0.960550  0.265730  1.0  -0.5983
  O  O80  1  0.620990  0.039450  0.734280  1.0  -0.5953
  O  O81  1  0.120230  0.447050  0.062620  1.0  -0.5825
  O  O82  1  0.879770  0.552950  0.937380  1.0  -0.5829
  O  O83  1  0.886390  0.503440  0.427810  1.0  -0.5951
  O  O84  1  0.113610  0.496560  0.572190  1.0  -0.5949
  O  O85  1  0.613610  0.003440  0.072190  1.0  -0.5947
  O  O86  1  0.386390  0.996560  0.927810  1.0  -0.5949
  O  O87  1  0.379770  0.947060  0.437380  1.0  -0.5836
  O  O88  1  0.620230  0.052940  0.562630  1.0  -0.5814
  O  O89  1  0.294560  0.309580  0.073290  1.0  -0.6384
  O  O90  1  0.705440  0.690420  0.926720  1.0  -0.6383
  O  O91  1  0.205440  0.809580  0.426720  1.0  -0.6384
  O  O92  1  0.794560  0.190420  0.573290  1.0  -0.6386
  O  O93  1  0.279600  0.180280  0.957280  1.0  -0.6526
  O  O94  1  0.720400  0.819720  0.042720  1.0  -0.6518
  O  O95  1  0.220400  0.680280  0.542730  1.0  -0.6519
  O  O96  1  0.779600  0.319720  0.457280  1.0  -0.6525
  O  O97  1  0.316940  0.449560  0.382730  1.0  -0.6344
  O  O98  1  0.683060  0.550440  0.617270  1.0  -0.6344
  O  O99  1  0.684450  0.443000  0.120620  1.0  -0.6079
  O  O100  1  0.315550  0.557000  0.879380  1.0  -0.6074
  O  O101  1  0.815550  0.943000  0.379380  1.0  -0.6079
  O  O102  1  0.184450  0.057000  0.620620  1.0  -0.6079
  O  O103  1  0.183060  0.949560  0.117270  1.0  -0.6343
  O  O104  1  0.816940  0.050440  0.882730  1.0  -0.634
  O  O105  1  0.316400  0.481230  0.552390  1.0  -0.5673
  O  O106  1  0.683600  0.518770  0.447610  1.0  -0.5672
  O  O107  1  0.681910  0.475760  0.950120  1.0  -0.5835
  O  O108  1  0.318090  0.524240  0.049880  1.0  -0.583
  O  O109  1  0.818090  0.975760  0.549880  1.0  -0.5837
  O  O110  1  0.181910  0.024240  0.450120  1.0  -0.5838
  O  O111  1  0.183600  0.981230  0.947610  1.0  -0.5671
  O  O112  1  0.816400  0.018770  0.052390  1.0  -0.5673
  O  O113  1  0.247520  0.275940  0.260630  1.0  -0.6669
  O  O114  1  0.752480  0.724060  0.739380  1.0  -0.6674
  O  O115  1  0.756260  0.270670  0.241350  1.0  -0.6447
  O  O116  1  0.243740  0.729340  0.758660  1.0  -0.6456
  O  O117  1  0.743730  0.770670  0.258650  1.0  -0.645
  O  O118  1  0.256270  0.229330  0.741350  1.0  -0.6465
  O  O119  1  0.252480  0.775940  0.239380  1.0  -0.6645
  O  O120  1  0.747520  0.224060  0.760630  1.0  -0.6682
  O  O121  1  0.232640  0.108770  0.282190  1.0  -0.6702
  O  O122  1  0.767360  0.891230  0.717820  1.0  -0.6702
  O  O123  1  0.767700  0.102030  0.229030  1.0  -0.6441
  O  O124  1  0.232300  0.897970  0.770970  1.0  -0.6423
  O  O125  1  0.732300  0.602030  0.270970  1.0  -0.6436
  O  O126  1  0.267700  0.397970  0.729030  1.0  -0.6432
  O  O127  1  0.267360  0.608770  0.217810  1.0  -0.6702
  O  O128  1  0.732650  0.391230  0.782190  1.0  -0.6689
  O  O129  1  0.435050  0.433940  0.242910  1.0  -0.6395
  O  O130  1  0.564950  0.566060  0.757090  1.0  -0.6399
  O  O131  1  0.585750  0.386890  0.277840  1.0  -0.6633
  O  O132  1  0.414250  0.613110  0.722170  1.0  -0.6612
  O  O133  1  0.914250  0.886890  0.222160  1.0  -0.6613
  O  O134  1  0.085750  0.113110  0.777840  1.0  -0.6628
  O  O135  1  0.064960  0.933940  0.257090  1.0  -0.6386
  O  O136  1  0.935040  0.066060  0.742910  1.0  -0.6408
