# generated using pymatgen
data_Zn3P4(H2O7)2
_symmetry_space_group_name_H-M   'P 1'
_cell_length_a   32.49650000
_cell_length_b   32.49650000
_cell_length_c   13.18230000
_cell_angle_alpha   90.00000000
_cell_angle_beta   90.00000000
_cell_angle_gamma   120.00000000
_symmetry_Int_Tables_number   1
_chemical_formula_structural   Zn3P4(H2O7)2
_chemical_formula_sum   'Zn54 P72 H72 O252'
_cell_volume   12055.77125890
_cell_formula_units_Z   18
loop_
 _symmetry_equiv_pos_site_id
 _symmetry_equiv_pos_as_xyz
  1  'x, y, z'
loop_
 _atom_site_type_symbol
 _atom_site_label
 _atom_site_symmetry_multiplicity
 _atom_site_fract_x
 _atom_site_fract_y
 _atom_site_fract_z
 _atom_site_occupancy
 _atom_site_charge
  Zn  Zn1  1  0.709800  0.010910  0.908660  1.0  1.1772
  Zn  Zn2  1  0.663330  0.891870  0.352090  1.0  1.1896
  Zn  Zn3  1  0.669400  0.834210  0.665450  1.0  1.1654
  Zn  Zn4  1  0.376460  0.344250  0.241990  1.0  1.1767
  Zn  Zn5  1  0.330000  0.225210  0.685420  1.0  1.1901
  Zn  Zn6  1  0.336070  0.167540  0.998780  1.0  1.1654
  Zn  Zn7  1  0.043130  0.677580  0.575330  1.0  1.1772
  Zn  Zn8  1  0.996670  0.558540  0.018760  1.0  1.1898
  Zn  Zn9  1  0.002730  0.500880  0.332120  1.0  1.1654
  Zn  Zn10  1  0.989090  0.698880  0.908660  1.0  1.1778
  Zn  Zn11  1  0.108130  0.771460  0.352090  1.0  1.1895
  Zn  Zn12  1  0.165790  0.835190  0.665450  1.0  1.1651
  Zn  Zn13  1  0.655750  0.032210  0.241990  1.0  1.1776
  Zn  Zn14  1  0.774790  0.104790  0.685420  1.0  1.1896
  Zn  Zn15  1  0.832460  0.168520  0.998780  1.0  1.1651
  Zn  Zn16  1  0.322420  0.365550  0.575330  1.0  1.1779
  Zn  Zn17  1  0.441460  0.438120  0.018760  1.0  1.1898
  Zn  Zn18  1  0.499120  0.501860  0.332120  1.0  1.1648
  Zn  Zn19  1  0.301120  0.290200  0.908660  1.0  1.1783
  Zn  Zn20  1  0.228540  0.336670  0.352090  1.0  1.1891
  Zn  Zn21  1  0.164810  0.330600  0.665450  1.0  1.165
  Zn  Zn22  1  0.967790  0.623540  0.241990  1.0  1.1784
  Zn  Zn23  1  0.895210  0.670000  0.685420  1.0  1.1891
  Zn  Zn24  1  0.831480  0.663930  0.998780  1.0  1.165
  Zn  Zn25  1  0.634450  0.956870  0.575330  1.0  1.1781
  Zn  Zn26  1  0.561880  0.003330  0.018760  1.0  1.1891
  Zn  Zn27  1  0.498140  0.997270  0.332120  1.0  1.1653
  Zn  Zn28  1  0.290200  0.989090  0.091340  1.0  1.1774
  Zn  Zn29  1  0.336670  0.108130  0.647910  1.0  1.1891
  Zn  Zn30  1  0.330600  0.165790  0.334550  1.0  1.1649
  Zn  Zn31  1  0.956870  0.322420  0.424670  1.0  1.1774
  Zn  Zn32  1  0.003330  0.441460  0.981240  1.0  1.1893
  Zn  Zn33  1  0.997270  0.499120  0.667880  1.0  1.1649
  Zn  Zn34  1  0.623540  0.655750  0.758010  1.0  1.1769
  Zn  Zn35  1  0.670000  0.774790  0.314580  1.0  1.1896
  Zn  Zn36  1  0.663930  0.832460  0.001220  1.0  1.1649
  Zn  Zn37  1  0.010910  0.301120  0.091340  1.0  1.1774
  Zn  Zn38  1  0.891870  0.228540  0.647910  1.0  1.1893
  Zn  Zn39  1  0.834210  0.164810  0.334550  1.0  1.165
  Zn  Zn40  1  0.677580  0.634450  0.424670  1.0  1.1774
  Zn  Zn41  1  0.558540  0.561880  0.981240  1.0  1.1896
  Zn  Zn42  1  0.500880  0.498140  0.667880  1.0  1.1648
  Zn  Zn43  1  0.344250  0.967790  0.758010  1.0  1.1772
  Zn  Zn44  1  0.225210  0.895210  0.314580  1.0  1.1893
  Zn  Zn45  1  0.167540  0.831480  0.001220  1.0  1.165
  Zn  Zn46  1  0.698880  0.709800  0.091340  1.0  1.1777
  Zn  Zn47  1  0.771460  0.663330  0.647910  1.0  1.189
  Zn  Zn48  1  0.835190  0.669400  0.334550  1.0  1.1649
  Zn  Zn49  1  0.365550  0.043130  0.424670  1.0  1.1775
  Zn  Zn50  1  0.438120  0.996670  0.981240  1.0  1.189
  Zn  Zn51  1  0.501860  0.002730  0.667880  1.0  1.1652
  Zn  Zn52  1  0.032210  0.376460  0.758010  1.0  1.1777
  Zn  Zn53  1  0.104790  0.330000  0.314580  1.0  1.189
  Zn  Zn54  1  0.168520  0.336070  0.001220  1.0  1.1649
  P  P55  1  0.667870  0.040720  0.729490  1.0  1.5219
  P  P56  1  0.677620  0.907710  0.843540  1.0  1.5413
  P  P57  1  0.596270  0.850710  0.545530  1.0  1.611
  P  P58  1  0.725270  0.854660  0.465830  1.0  1.5675
  P  P59  1  0.334540  0.374050  0.062820  1.0  1.5217
  P  P60  1  0.344290  0.241040  0.176870  1.0  1.5413
  P  P61  1  0.262940  0.184040  0.878860  1.0  1.611
  P  P62  1  0.391940  0.187990  0.799160  1.0  1.5675
  P  P63  1  0.001200  0.707390  0.396160  1.0  1.5218
  P  P64  1  0.010950  0.574380  0.510210  1.0  1.5412
  P  P65  1  0.929600  0.517380  0.212200  1.0  1.6106
  P  P66  1  0.058600  0.521330  0.132500  1.0  1.5675
  P  P67  1  0.959280  0.627150  0.729490  1.0  1.5341
  P  P68  1  0.092290  0.769910  0.843540  1.0  1.56
  P  P69  1  0.149290  0.745560  0.545530  1.0  1.6182
  P  P70  1  0.145340  0.870610  0.465830  1.0  1.5682
  P  P71  1  0.625950  0.960480  0.062820  1.0  1.5344
  P  P72  1  0.758960  0.103240  0.176870  1.0  1.5601
  P  P73  1  0.815960  0.078890  0.878860  1.0  1.6182
  P  P74  1  0.812010  0.203940  0.799160  1.0  1.5685
  P  P75  1  0.292610  0.293820  0.396160  1.0  1.5341
  P  P76  1  0.425620  0.436580  0.510210  1.0  1.5602
  P  P77  1  0.482620  0.412230  0.212200  1.0  1.6182
  P  P78  1  0.478670  0.537280  0.132500  1.0  1.5682
  P  P79  1  0.372850  0.332130  0.729490  1.0  1.519
  P  P80  1  0.230090  0.322380  0.843540  1.0  1.5597
  P  P81  1  0.254440  0.403730  0.545530  1.0  1.6187
  P  P82  1  0.129390  0.274730  0.465830  1.0  1.576
  P  P83  1  0.039520  0.665460  0.062820  1.0  1.5191
  P  P84  1  0.896760  0.655710  0.176870  1.0  1.5596
  P  P85  1  0.921110  0.737060  0.878860  1.0  1.6187
  P  P86  1  0.796060  0.608060  0.799160  1.0  1.5759
  P  P87  1  0.706180  0.998800  0.396160  1.0  1.5198
  P  P88  1  0.563420  0.989050  0.510210  1.0  1.5595
  P  P89  1  0.587770  0.070400  0.212200  1.0  1.6192
  P  P90  1  0.462720  0.941400  0.132500  1.0  1.5756
  P  P91  1  0.332130  0.959280  0.270510  1.0  1.5242
  P  P92  1  0.322380  0.092290  0.156460  1.0  1.5537
  P  P93  1  0.403730  0.149290  0.454470  1.0  1.62
  P  P94  1  0.274730  0.145340  0.534170  1.0  1.5611
  P  P95  1  0.998800  0.292610  0.603840  1.0  1.5241
  P  P96  1  0.989050  0.425620  0.489790  1.0  1.5537
  P  P97  1  0.070400  0.482620  0.787800  1.0  1.6195
  P  P98  1  0.941400  0.478670  0.867500  1.0  1.5611
  P  P99  1  0.665460  0.625950  0.937180  1.0  1.5241
  P  P100  1  0.655710  0.758960  0.823130  1.0  1.5538
  P  P101  1  0.737060  0.815960  0.121140  1.0  1.6199
  P  P102  1  0.608060  0.812010  0.200840  1.0  1.561
  P  P103  1  0.040720  0.372850  0.270510  1.0  1.5231
  P  P104  1  0.907710  0.230090  0.156460  1.0  1.5466
  P  P105  1  0.850710  0.254440  0.454470  1.0  1.6071
  P  P106  1  0.854660  0.129390  0.534170  1.0  1.5737
  P  P107  1  0.707390  0.706180  0.603840  1.0  1.523
  P  P108  1  0.574380  0.563420  0.489790  1.0  1.5467
  P  P109  1  0.517380  0.587770  0.787800  1.0  1.6072
  P  P110  1  0.521330  0.462720  0.867500  1.0  1.5736
  P  P111  1  0.374050  0.039520  0.937180  1.0  1.5233
  P  P112  1  0.241040  0.896760  0.823130  1.0  1.5466
  P  P113  1  0.184040  0.921110  0.121140  1.0  1.6071
  P  P114  1  0.187990  0.796060  0.200840  1.0  1.574
  P  P115  1  0.627150  0.667870  0.270510  1.0  1.5246
  P  P116  1  0.769910  0.677620  0.156460  1.0  1.569
  P  P117  1  0.745560  0.596270  0.454470  1.0  1.6264
  P  P118  1  0.870610  0.725270  0.534170  1.0  1.5725
  P  P119  1  0.293820  0.001200  0.603840  1.0  1.5255
  P  P120  1  0.436580  0.010950  0.489790  1.0  1.569
  P  P121  1  0.412230  0.929600  0.787800  1.0  1.6267
  P  P122  1  0.537280  0.058600  0.867500  1.0  1.572
  P  P123  1  0.960480  0.334540  0.937180  1.0  1.5248
  P  P124  1  0.103240  0.344290  0.823130  1.0  1.569
  P  P125  1  0.078890  0.262940  0.121140  1.0  1.6264
  P  P126  1  0.203940  0.391940  0.200840  1.0  1.5725
  H  H127  1  0.631400  0.051400  0.731300  1.0  0.3161
  H  H128  1  0.630800  0.895400  0.826800  1.0  0.3044
  H  H129  1  0.550500  0.825000  0.549100  1.0  -0.0171
  H  H130  1  0.769500  0.862100  0.454000  1.0  0.0029
  H  H131  1  0.298070  0.384730  0.064630  1.0  0.3161
  H  H132  1  0.297470  0.228730  0.160130  1.0  0.3044
  H  H133  1  0.217170  0.158330  0.882430  1.0  -0.0102
  H  H134  1  0.436170  0.195430  0.787330  1.0  -0.0034
  H  H135  1  0.964730  0.718070  0.397970  1.0  0.3161
  H  H136  1  0.964130  0.562070  0.493470  1.0  0.3043
  H  H137  1  0.883830  0.491670  0.215770  1.0  -0.0126
  H  H138  1  0.102830  0.528770  0.120670  1.0  0.0047
  H  H139  1  0.948600  0.580000  0.731300  1.0  0.3127
  H  H140  1  0.104600  0.735400  0.826800  1.0  0.3046
  H  H141  1  0.175000  0.725500  0.549100  1.0  -0.018
  H  H142  1  0.137900  0.907400  0.454000  1.0  0.0014
  H  H143  1  0.615270  0.913330  0.064630  1.0  0.3127
  H  H144  1  0.771270  0.068730  0.160130  1.0  0.3047
  H  H145  1  0.841670  0.058830  0.882430  1.0  -0.0135
  H  H146  1  0.804570  0.240730  0.787330  1.0  0.0021
  H  H147  1  0.281930  0.246670  0.397970  1.0  0.3127
  H  H148  1  0.437930  0.402070  0.493470  1.0  0.3046
  H  H149  1  0.508330  0.392170  0.215770  1.0  -0.0165
  H  H150  1  0.471230  0.574070  0.120670  1.0  -0.0005
  H  H151  1  0.420000  0.368600  0.731300  1.0  0.3152
  H  H152  1  0.264600  0.369200  0.826800  1.0  0.3021
  H  H153  1  0.274500  0.449500  0.549100  1.0  -0.0215
  H  H154  1  0.092600  0.230500  0.454000  1.0  0.0007
  H  H155  1  0.086670  0.701930  0.064630  1.0  0.3152
  H  H156  1  0.931270  0.702530  0.160130  1.0  0.302
  H  H157  1  0.941170  0.782830  0.882430  1.0  -0.0154
  H  H158  1  0.759270  0.563830  0.787330  1.0  -0.0087
  H  H159  1  0.753330  0.035270  0.397970  1.0  0.3153
  H  H160  1  0.597930  0.035870  0.493470  1.0  0.302
  H  H161  1  0.607830  0.116170  0.215770  1.0  -0.0212
  H  H162  1  0.425930  0.897170  0.120670  1.0  -0.0007
  H  H163  1  0.368600  0.948600  0.268700  1.0  0.3159
  H  H164  1  0.369200  0.104600  0.173200  1.0  0.303
  H  H165  1  0.449500  0.175000  0.450900  1.0  -0.0172
  H  H166  1  0.230500  0.137900  0.546000  1.0  0.0026
  H  H167  1  0.035270  0.281930  0.602030  1.0  0.3158
  H  H168  1  0.035870  0.437930  0.506530  1.0  0.303
  H  H169  1  0.116170  0.508330  0.784230  1.0  -0.0125
  H  H170  1  0.897170  0.471230  0.879330  1.0  0.0045
  H  H171  1  0.701930  0.615270  0.935370  1.0  0.3159
  H  H172  1  0.702530  0.771270  0.839870  1.0  0.303
  H  H173  1  0.782830  0.841670  0.117570  1.0  -0.0098
  H  H174  1  0.563830  0.804570  0.212670  1.0  -0.0057
  H  H175  1  0.051400  0.420000  0.268700  1.0  0.3147
  H  H176  1  0.895400  0.264600  0.173200  1.0  0.3032
  H  H177  1  0.825000  0.274500  0.450900  1.0  -0.0163
  H  H178  1  0.862100  0.092600  0.546000  1.0  0.0017
  H  H179  1  0.718070  0.753330  0.602030  1.0  0.3147
  H  H180  1  0.562070  0.597930  0.506530  1.0  0.3033
  H  H181  1  0.491670  0.607830  0.784230  1.0  -0.0143
  H  H182  1  0.528770  0.425930  0.879330  1.0  0.0002
  H  H183  1  0.384730  0.086670  0.935370  1.0  0.3146
  H  H184  1  0.228730  0.931270  0.839870  1.0  0.3033
  H  H185  1  0.158330  0.941170  0.117570  1.0  -0.0126
  H  H186  1  0.195430  0.759270  0.212670  1.0  0.0024
  H  H187  1  0.580000  0.631400  0.268700  1.0  0.3119
  H  H188  1  0.735400  0.630800  0.173200  1.0  0.3016
  H  H189  1  0.725500  0.550500  0.450900  1.0  -0.0187
  H  H190  1  0.907400  0.769500  0.546000  1.0  -0.0005
  H  H191  1  0.246670  0.964730  0.602030  1.0  0.3119
  H  H192  1  0.402070  0.964130  0.506530  1.0  0.3017
  H  H193  1  0.392170  0.883830  0.784230  1.0  -0.0185
  H  H194  1  0.574070  0.102830  0.879330  1.0  -0.0032
  H  H195  1  0.913330  0.298070  0.935370  1.0  0.3119
  H  H196  1  0.068730  0.297470  0.839870  1.0  0.3015
  H  H197  1  0.058830  0.217170  0.117570  1.0  -0.0135
  H  H198  1  0.240730  0.436170  0.212670  1.0  -0.0105
  O  O199  1  0.687760  0.048600  0.837140  1.0  -0.7639
  O  O200  1  0.678220  0.983690  0.036480  1.0  -0.7927
  O  O201  1  0.695050  0.959900  0.318690  1.0  -0.7542
  O  O202  1  0.709890  0.961030  0.827370  1.0  -0.7748
  O  O203  1  0.691630  0.881400  0.769730  1.0  -0.8219
  O  O204  1  0.654610  0.772370  0.713590  1.0  -0.8095
  O  O205  1  0.614660  0.818010  0.578620  1.0  -0.7231
  O  O206  1  0.607980  0.867680  0.436970  1.0  -0.7627
  O  O207  1  0.775310  0.052480  0.953220  1.0  -0.7779
  O  O208  1  0.724980  0.867830  0.576570  1.0  -0.7153
  O  O209  1  0.716450  0.885090  0.393040  1.0  -0.7874
  O  O210  1  0.640100  0.864880  0.217580  1.0  -0.7568
  O  O211  1  0.639000  0.066600  0.730200  1.0  -0.6123
  O  O212  1  0.626100  0.891500  0.820000  1.0  -0.5491
  O  O213  1  0.354430  0.381930  0.170470  1.0  -0.7638
  O  O214  1  0.344890  0.317020  0.369810  1.0  -0.7932
  O  O215  1  0.361720  0.293230  0.652020  1.0  -0.7542
  O  O216  1  0.376560  0.294360  0.160700  1.0  -0.7747
  O  O217  1  0.358300  0.214730  0.103060  1.0  -0.8219
  O  O218  1  0.321280  0.105700  0.046920  1.0  -0.8094
  O  O219  1  0.281330  0.151340  0.911950  1.0  -0.7231
  O  O220  1  0.274650  0.201010  0.770300  1.0  -0.7627
  O  O221  1  0.441980  0.385810  0.286550  1.0  -0.7777
  O  O222  1  0.391650  0.201160  0.909900  1.0  -0.7153
  O  O223  1  0.383120  0.218420  0.726370  1.0  -0.7874
  O  O224  1  0.306770  0.198210  0.550910  1.0  -0.7568
  O  O225  1  0.305670  0.399930  0.063530  1.0  -0.6123
  O  O226  1  0.292770  0.224830  0.153330  1.0  -0.5491
  O  O227  1  0.021090  0.715270  0.503810  1.0  -0.7639
  O  O228  1  0.011550  0.650360  0.703150  1.0  -0.7927
  O  O229  1  0.028380  0.626570  0.985360  1.0  -0.7545
  O  O230  1  0.043220  0.627700  0.494040  1.0  -0.7747
  O  O231  1  0.024960  0.548070  0.436400  1.0  -0.8217
  O  O232  1  0.987940  0.439040  0.380260  1.0  -0.8092
  O  O233  1  0.947990  0.484680  0.245290  1.0  -0.7231
  O  O234  1  0.941310  0.534350  0.103640  1.0  -0.7627
  O  O235  1  0.108640  0.719150  0.619890  1.0  -0.7779
  O  O236  1  0.058310  0.534500  0.243240  1.0  -0.7153
  O  O237  1  0.049780  0.551760  0.059710  1.0  -0.7874
  O  O238  1  0.973430  0.531550  0.884250  1.0  -0.7566
  O  O239  1  0.972330  0.733270  0.396870  1.0  -0.6123
  O  O240  1  0.959430  0.558170  0.486670  1.0  -0.5497
  O  O241  1  0.951400  0.639160  0.837140  1.0  -0.7617
  O  O242  1  0.016310  0.694530  0.036480  1.0  -0.7921
  O  O243  1  0.040100  0.735150  0.318690  1.0  -0.7567
  O  O244  1  0.038970  0.748860  0.827370  1.0  -0.7725
  O  O245  1  0.118600  0.810230  0.769730  1.0  -0.8203
  O  O246  1  0.227630  0.882240  0.713590  1.0  -0.8098
  O  O247  1  0.181990  0.796650  0.578620  1.0  -0.7205
  O  O248  1  0.132320  0.740300  0.436970  1.0  -0.7659
  O  O249  1  0.947520  0.722830  0.953220  1.0  -0.775
  O  O250  1  0.132170  0.857150  0.576570  1.0  -0.7106
  O  O251  1  0.114910  0.831360  0.393040  1.0  -0.7857
  O  O252  1  0.135120  0.775220  0.217580  1.0  -0.7583
  O  O253  1  0.933400  0.572400  0.730200  1.0  -0.6114
  O  O254  1  0.108500  0.734600  0.820000  1.0  -0.55
  O  O255  1  0.618070  0.972490  0.170470  1.0  -0.7617
  O  O256  1  0.682980  0.027860  0.369810  1.0  -0.7921
  O  O257  1  0.706770  0.068480  0.652020  1.0  -0.7563
  O  O258  1  0.705640  0.082190  0.160700  1.0  -0.7725
  O  O259  1  0.785270  0.143560  0.103060  1.0  -0.8203
  O  O260  1  0.894300  0.215570  0.046920  1.0  -0.8099
  O  O261  1  0.848660  0.129980  0.911950  1.0  -0.7205
  O  O262  1  0.798990  0.073630  0.770300  1.0  -0.7659
  O  O263  1  0.614190  0.056160  0.286550  1.0  -0.7753
  O  O264  1  0.798840  0.190480  0.909900  1.0  -0.7106
  O  O265  1  0.781580  0.164690  0.726370  1.0  -0.7857
  O  O266  1  0.801790  0.108550  0.550910  1.0  -0.7583
  O  O267  1  0.600070  0.905730  0.063530  1.0  -0.6114
  O  O268  1  0.775170  0.067930  0.153330  1.0  -0.5493
  O  O269  1  0.284730  0.305830  0.503810  1.0  -0.7617
  O  O270  1  0.349640  0.361200  0.703150  1.0  -0.7923
  O  O271  1  0.373430  0.401820  0.985360  1.0  -0.7566
  O  O272  1  0.372300  0.415530  0.494040  1.0  -0.7725
  O  O273  1  0.451930  0.476900  0.436400  1.0  -0.8204
  O  O274  1  0.560960  0.548910  0.380260  1.0  -0.8098
  O  O275  1  0.515320  0.463320  0.245290  1.0  -0.7204
  O  O276  1  0.465650  0.406970  0.103640  1.0  -0.7659
  O  O277  1  0.280850  0.389500  0.619890  1.0  -0.7748
  O  O278  1  0.465500  0.523820  0.243240  1.0  -0.7106
  O  O279  1  0.448240  0.498030  0.059710  1.0  -0.7857
  O  O280  1  0.468450  0.441890  0.884250  1.0  -0.7584
  O  O281  1  0.266730  0.239070  0.396870  1.0  -0.6115
  O  O282  1  0.441830  0.401270  0.486670  1.0  -0.5494
  O  O283  1  0.360840  0.312240  0.837140  1.0  -0.7621
  O  O284  1  0.305470  0.321780  0.036480  1.0  -0.7924
  O  O285  1  0.264850  0.304950  0.318690  1.0  -0.7528
  O  O286  1  0.251140  0.290110  0.827370  1.0  -0.7769
  O  O287  1  0.189770  0.308370  0.769730  1.0  -0.822
  O  O288  1  0.117760  0.345390  0.713590  1.0  -0.8109
  O  O289  1  0.203350  0.385340  0.578620  1.0  -0.7219
  O  O290  1  0.259700  0.392020  0.436970  1.0  -0.7665
  O  O291  1  0.277170  0.224690  0.953220  1.0  -0.7746
  O  O292  1  0.142850  0.275020  0.576570  1.0  -0.7146
  O  O293  1  0.168640  0.283550  0.393040  1.0  -0.7865
  O  O294  1  0.224780  0.359900  0.217580  1.0  -0.7584
  O  O295  1  0.427600  0.361000  0.730200  1.0  -0.6203
  O  O296  1  0.265400  0.373900  0.820000  1.0  -0.5422
  O  O297  1  0.027510  0.645570  0.170470  1.0  -0.7621
  O  O298  1  0.972140  0.655110  0.369810  1.0  -0.7925
  O  O299  1  0.931520  0.638280  0.652020  1.0  -0.7528
  O  O300  1  0.917810  0.623440  0.160700  1.0  -0.7769
  O  O301  1  0.856440  0.641700  0.103060  1.0  -0.822
  O  O302  1  0.784430  0.678720  0.046920  1.0  -0.8112
  O  O303  1  0.870020  0.718670  0.911950  1.0  -0.7219
  O  O304  1  0.926370  0.725350  0.770300  1.0  -0.7665
  O  O305  1  0.943840  0.558020  0.286550  1.0  -0.7746
  O  O306  1  0.809520  0.608350  0.909900  1.0  -0.7146
  O  O307  1  0.835310  0.616880  0.726370  1.0  -0.7865
  O  O308  1  0.891450  0.693230  0.550910  1.0  -0.7585
  O  O309  1  0.094270  0.694330  0.063530  1.0  -0.6202
  O  O310  1  0.932070  0.707230  0.153330  1.0  -0.5424
  O  O311  1  0.694170  0.978910  0.503810  1.0  -0.7621
  O  O312  1  0.638800  0.988450  0.703150  1.0  -0.7924
  O  O313  1  0.598180  0.971620  0.985360  1.0  -0.7526
  O  O314  1  0.584470  0.956780  0.494040  1.0  -0.7769
  O  O315  1  0.523100  0.975040  0.436400  1.0  -0.822
  O  O316  1  0.451090  0.012060  0.380260  1.0  -0.8109
  O  O317  1  0.536680  0.052010  0.245290  1.0  -0.7219
  O  O318  1  0.593030  0.058690  0.103640  1.0  -0.7664
  O  O319  1  0.610500  0.891360  0.619890  1.0  -0.7748
  O  O320  1  0.476180  0.941690  0.243240  1.0  -0.7146
  O  O321  1  0.501970  0.950220  0.059710  1.0  -0.7865
  O  O322  1  0.558110  0.026570  0.884250  1.0  -0.7581
  O  O323  1  0.760930  0.027670  0.396870  1.0  -0.6202
  O  O324  1  0.598730  0.040570  0.486670  1.0  -0.5421
  O  O325  1  0.312240  0.951400  0.162860  1.0  -0.7632
  O  O326  1  0.321780  0.016310  0.963520  1.0  -0.7924
  O  O327  1  0.304950  0.040100  0.681310  1.0  -0.7565
  O  O328  1  0.290110  0.038970  0.172630  1.0  -0.7738
  O  O329  1  0.308370  0.118600  0.230270  1.0  -0.8196
  O  O330  1  0.345390  0.227630  0.286410  1.0  -0.8107
  O  O331  1  0.385340  0.181990  0.421380  1.0  -0.722
  O  O332  1  0.392020  0.132320  0.563030  1.0  -0.7658
  O  O333  1  0.224690  0.947520  0.046780  1.0  -0.7773
  O  O334  1  0.275020  0.132170  0.423430  1.0  -0.7145
  O  O335  1  0.283550  0.114910  0.606960  1.0  -0.79
  O  O336  1  0.359900  0.135120  0.782420  1.0  -0.7573
  O  O337  1  0.361000  0.933400  0.269800  1.0  -0.6107
  O  O338  1  0.373900  0.108500  0.180000  1.0  -0.5471
  O  O339  1  0.978910  0.284730  0.496190  1.0  -0.7632
  O  O340  1  0.988450  0.349640  0.296850  1.0  -0.7924
  O  O341  1  0.971620  0.373430  0.014640  1.0  -0.7572
  O  O342  1  0.956780  0.372300  0.505960  1.0  -0.7736
  O  O343  1  0.975040  0.451930  0.563600  1.0  -0.8195
  O  O344  1  0.012060  0.560960  0.619740  1.0  -0.8102
  O  O345  1  0.052010  0.515320  0.754710  1.0  -0.722
  O  O346  1  0.058690  0.465650  0.896360  1.0  -0.7657
  O  O347  1  0.891360  0.280850  0.380110  1.0  -0.7773
  O  O348  1  0.941690  0.465500  0.756760  1.0  -0.7145
  O  O349  1  0.950220  0.448240  0.940290  1.0  -0.79
  O  O350  1  0.026570  0.468450  0.115750  1.0  -0.757
  O  O351  1  0.027670  0.266730  0.603130  1.0  -0.6107
  O  O352  1  0.040570  0.441830  0.513330  1.0  -0.5477
  O  O353  1  0.645570  0.618070  0.829530  1.0  -0.7631
  O  O354  1  0.655110  0.682980  0.630190  1.0  -0.7926
  O  O355  1  0.638280  0.706770  0.347980  1.0  -0.7565
  O  O356  1  0.623440  0.705640  0.839300  1.0  -0.7735
  O  O357  1  0.641700  0.785270  0.896940  1.0  -0.8197
  O  O358  1  0.678720  0.894300  0.953080  1.0  -0.8105
  O  O359  1  0.718670  0.848660  0.088050  1.0  -0.722
  O  O360  1  0.725350  0.798990  0.229700  1.0  -0.7658
  O  O361  1  0.558020  0.614190  0.713450  1.0  -0.777
  O  O362  1  0.608350  0.798840  0.090100  1.0  -0.7145
  O  O363  1  0.616880  0.781580  0.273630  1.0  -0.7899
  O  O364  1  0.693230  0.801790  0.449090  1.0  -0.7571
  O  O365  1  0.694330  0.600070  0.936470  1.0  -0.6107
  O  O366  1  0.707230  0.775170  0.846670  1.0  -0.5471
  O  O367  1  0.048600  0.360840  0.162860  1.0  -0.762
  O  O368  1  0.983690  0.305470  0.963520  1.0  -0.7931
  O  O369  1  0.959900  0.264850  0.681310  1.0  -0.7569
  O  O370  1  0.961030  0.251140  0.172630  1.0  -0.7744
  O  O371  1  0.881400  0.189770  0.230270  1.0  -0.8192
  O  O372  1  0.772370  0.117760  0.286410  1.0  -0.8108
  O  O373  1  0.818010  0.203350  0.421380  1.0  -0.7193
  O  O374  1  0.867680  0.259700  0.563030  1.0  -0.7673
  O  O375  1  0.052480  0.277170  0.046780  1.0  -0.7753
  O  O376  1  0.867830  0.142850  0.423430  1.0  -0.7098
  O  O377  1  0.885090  0.168640  0.606960  1.0  -0.7825
  O  O378  1  0.864880  0.224780  0.782420  1.0  -0.7574
  O  O379  1  0.066600  0.427600  0.269800  1.0  -0.6142
  O  O380  1  0.891500  0.265400  0.180000  1.0  -0.5486
  O  O381  1  0.715270  0.694170  0.496190  1.0  -0.7619
  O  O382  1  0.650360  0.638800  0.296850  1.0  -0.7933
  O  O383  1  0.626570  0.598180  0.014640  1.0  -0.757
  O  O384  1  0.627700  0.584470  0.505960  1.0  -0.7744
  O  O385  1  0.548070  0.523100  0.563600  1.0  -0.8194
  O  O386  1  0.439040  0.451090  0.619740  1.0  -0.8108
  O  O387  1  0.484680  0.536680  0.754710  1.0  -0.7194
  O  O388  1  0.534350  0.593030  0.896360  1.0  -0.7675
  O  O389  1  0.719150  0.610500  0.380110  1.0  -0.7753
  O  O390  1  0.534500  0.476180  0.756760  1.0  -0.7098
  O  O391  1  0.551760  0.501970  0.940290  1.0  -0.7825
  O  O392  1  0.531550  0.558110  0.115750  1.0  -0.7575
  O  O393  1  0.733270  0.760930  0.603130  1.0  -0.6142
  O  O394  1  0.558170  0.598730  0.513330  1.0  -0.548
  O  O395  1  0.381930  0.027510  0.829530  1.0  -0.762
  O  O396  1  0.317020  0.972140  0.630190  1.0  -0.793
  O  O397  1  0.293230  0.931520  0.347980  1.0  -0.7562
  O  O398  1  0.294360  0.917810  0.839300  1.0  -0.7744
  O  O399  1  0.214730  0.856440  0.896940  1.0  -0.8192
  O  O400  1  0.105700  0.784430  0.953080  1.0  -0.8108
  O  O401  1  0.151340  0.870020  0.088050  1.0  -0.7193
  O  O402  1  0.201010  0.926370  0.229700  1.0  -0.7673
  O  O403  1  0.385810  0.943840  0.713450  1.0  -0.7755
  O  O404  1  0.201160  0.809520  0.090100  1.0  -0.7098
  O  O405  1  0.218420  0.835310  0.273630  1.0  -0.7825
  O  O406  1  0.198210  0.891450  0.449090  1.0  -0.7574
  O  O407  1  0.399930  0.094270  0.936470  1.0  -0.6142
  O  O408  1  0.224830  0.932070  0.846670  1.0  -0.548
  O  O409  1  0.639160  0.687760  0.162860  1.0  -0.7632
  O  O410  1  0.694530  0.678220  0.963520  1.0  -0.7931
  O  O411  1  0.735150  0.695050  0.681310  1.0  -0.7554
  O  O412  1  0.748860  0.709890  0.172630  1.0  -0.7754
  O  O413  1  0.810230  0.691630  0.230270  1.0  -0.8237
  O  O414  1  0.882240  0.654610  0.286410  1.0  -0.8112
  O  O415  1  0.796650  0.614660  0.421380  1.0  -0.7196
  O  O416  1  0.740300  0.607980  0.563030  1.0  -0.7692
  O  O417  1  0.722830  0.775310  0.046780  1.0  -0.7746
  O  O418  1  0.857150  0.724980  0.423430  1.0  -0.7182
  O  O419  1  0.831360  0.716450  0.606960  1.0  -0.7876
  O  O420  1  0.775220  0.640100  0.782420  1.0  -0.7577
  O  O421  1  0.572400  0.639000  0.269800  1.0  -0.618
  O  O422  1  0.734600  0.626100  0.180000  1.0  -0.5468
  O  O423  1  0.305830  0.021090  0.496190  1.0  -0.7632
  O  O424  1  0.361200  0.011550  0.296850  1.0  -0.7931
  O  O425  1  0.401820  0.028380  0.014640  1.0  -0.755
  O  O426  1  0.415530  0.043220  0.505960  1.0  -0.7754
  O  O427  1  0.476900  0.024960  0.563600  1.0  -0.8236
  O  O428  1  0.548910  0.987940  0.619740  1.0  -0.8113
  O  O429  1  0.463320  0.947990  0.754710  1.0  -0.7196
  O  O430  1  0.406970  0.941310  0.896360  1.0  -0.7691
  O  O431  1  0.389500  0.108640  0.380110  1.0  -0.7746
  O  O432  1  0.523820  0.058310  0.756760  1.0  -0.7182
  O  O433  1  0.498030  0.049780  0.940290  1.0  -0.7876
  O  O434  1  0.441890  0.973430  0.115750  1.0  -0.7575
  O  O435  1  0.239070  0.972330  0.603130  1.0  -0.6182
  O  O436  1  0.401270  0.959430  0.513330  1.0  -0.5468
  O  O437  1  0.972490  0.354430  0.829530  1.0  -0.7631
  O  O438  1  0.027860  0.344890  0.630190  1.0  -0.7931
  O  O439  1  0.068480  0.361720  0.347980  1.0  -0.7554
  O  O440  1  0.082190  0.376560  0.839300  1.0  -0.7754
  O  O441  1  0.143560  0.358300  0.896940  1.0  -0.8237
  O  O442  1  0.215570  0.321280  0.953080  1.0  -0.8116
  O  O443  1  0.129980  0.281330  0.088050  1.0  -0.7196
  O  O444  1  0.073630  0.274650  0.229700  1.0  -0.7692
  O  O445  1  0.056160  0.441980  0.713450  1.0  -0.7744
  O  O446  1  0.190480  0.391650  0.090100  1.0  -0.7181
  O  O447  1  0.164690  0.383120  0.273630  1.0  -0.7876
  O  O448  1  0.108550  0.306770  0.449090  1.0  -0.7577
  O  O449  1  0.905730  0.305670  0.936470  1.0  -0.6182
  O  O450  1  0.067930  0.292770  0.846670  1.0  -0.5471
