# generated using pymatgen
data_Zr3(C17O6)2
_symmetry_space_group_name_H-M   'P 1'
_cell_length_a   20.14130000
_cell_length_b   34.89200000
_cell_length_c   11.19390000
_cell_angle_alpha   90.00000000
_cell_angle_beta   90.00000000
_cell_angle_gamma   90.00000000
_symmetry_Int_Tables_number   1
_chemical_formula_structural   Zr3(C17O6)2
_chemical_formula_sum   'Zr12 C136 O48'
_cell_volume   7866.73978506
_cell_formula_units_Z   4
loop_
 _symmetry_equiv_pos_site_id
 _symmetry_equiv_pos_as_xyz
  1  'x, y, z'
loop_
 _atom_site_type_symbol
 _atom_site_label
 _atom_site_symmetry_multiplicity
 _atom_site_fract_x
 _atom_site_fract_y
 _atom_site_fract_z
 _atom_site_occupancy
 _atom_site_charge
  Zr  Zr1  1  0.081130  0.000000  0.153500  1.0  2.084
  Zr  Zr2  1  0.581130  0.500000  0.153500  1.0  2.084
  Zr  Zr3  1  0.918870  0.000000  0.153500  1.0  2.0884
  Zr  Zr4  1  0.418870  0.500000  0.153500  1.0  2.0884
  Zr  Zr5  1  0.918870  0.000000  0.846500  1.0  2.0874
  Zr  Zr6  1  0.418870  0.500000  0.846500  1.0  2.0874
  Zr  Zr7  1  0.081130  0.000000  0.846500  1.0  2.0838
  Zr  Zr8  1  0.581130  0.500000  0.846500  1.0  2.0838
  Zr  Zr9  1  0.500000  0.565680  0.000000  1.0  1.833
  Zr  Zr10  1  0.000000  0.065680  0.000000  1.0  1.833
  Zr  Zr11  1  0.500000  0.434320  0.000000  1.0  1.8322
  Zr  Zr12  1  0.000000  0.934320  0.000000  1.0  1.8322
  C  C13  1  0.784820  0.780130  0.437390  1.0  -0.0595
  C  C14  1  0.810080  0.813000  0.369100  1.0  -0.0046
  C  C15  1  0.867210  0.807830  0.300770  1.0  -0.0191
  C  C16  1  0.895240  0.838690  0.241280  1.0  0.0306
  C  C17  1  0.780210  0.849350  0.374770  1.0  0.0198
  C  C18  1  0.900650  0.906850  0.187000  1.0  0.7135
  C  C19  1  0.867080  0.875360  0.249310  1.0  -0.0608
  C  C20  1  0.808920  0.880630  0.315720  1.0  -0.0151
  C  C21  1  0.284820  0.280130  0.437390  1.0  -0.0595
  C  C22  1  0.310080  0.313000  0.369100  1.0  -0.0046
  C  C23  1  0.367210  0.307830  0.300770  1.0  -0.0191
  C  C24  1  0.395240  0.338690  0.241280  1.0  0.0306
  C  C25  1  0.280210  0.349350  0.374770  1.0  0.0198
  C  C26  1  0.400650  0.406850  0.187000  1.0  0.7135
  C  C27  1  0.367080  0.375360  0.249310  1.0  -0.0608
  C  C28  1  0.308920  0.380630  0.315720  1.0  -0.0153
  C  C29  1  0.215180  0.219870  0.437390  1.0  -0.0598
  C  C30  1  0.189920  0.187000  0.369100  1.0  -0.0037
  C  C31  1  0.132790  0.192170  0.300770  1.0  -0.0176
  C  C32  1  0.104760  0.161310  0.241280  1.0  0.0342
  C  C33  1  0.219790  0.150650  0.374770  1.0  0.0162
  C  C34  1  0.099350  0.093150  0.187000  1.0  0.7138
  C  C35  1  0.132920  0.124640  0.249310  1.0  -0.0618
  C  C36  1  0.191080  0.119370  0.315720  1.0  -0.0163
  C  C37  1  0.715180  0.719870  0.437390  1.0  -0.0598
  C  C38  1  0.689920  0.687000  0.369100  1.0  -0.0037
  C  C39  1  0.632790  0.692170  0.300770  1.0  -0.0176
  C  C40  1  0.604760  0.661310  0.241280  1.0  0.0342
  C  C41  1  0.719790  0.650650  0.374770  1.0  0.0162
  C  C42  1  0.599350  0.593150  0.187000  1.0  0.7138
  C  C43  1  0.632920  0.624640  0.249310  1.0  -0.0618
  C  C44  1  0.691080  0.619370  0.315720  1.0  -0.0167
  C  C45  1  0.215180  0.780130  0.562610  1.0  -0.0589
  C  C46  1  0.189920  0.813000  0.630900  1.0  -0.0029
  C  C47  1  0.132790  0.807830  0.699230  1.0  -0.0165
  C  C48  1  0.104760  0.838690  0.758720  1.0  0.0341
  C  C49  1  0.219790  0.849350  0.625230  1.0  0.0168
  C  C50  1  0.099350  0.906850  0.813000  1.0  0.7129
  C  C51  1  0.132920  0.875360  0.750690  1.0  -0.0613
  C  C52  1  0.191080  0.880630  0.684280  1.0  -0.0161
  C  C53  1  0.715180  0.280130  0.562610  1.0  -0.0589
  C  C54  1  0.689920  0.313000  0.630900  1.0  -0.0029
  C  C55  1  0.632790  0.307830  0.699230  1.0  -0.0165
  C  C56  1  0.604760  0.338690  0.758720  1.0  0.0341
  C  C57  1  0.719790  0.349350  0.625230  1.0  0.0168
  C  C58  1  0.599350  0.406850  0.813000  1.0  0.7129
  C  C59  1  0.632920  0.375360  0.750690  1.0  -0.0613
  C  C60  1  0.691080  0.380630  0.684280  1.0  -0.0164
  C  C61  1  0.784820  0.219870  0.562610  1.0  -0.0588
  C  C62  1  0.810080  0.187000  0.630900  1.0  -0.0035
  C  C63  1  0.867210  0.192170  0.699230  1.0  -0.0175
  C  C64  1  0.895240  0.161310  0.758720  1.0  0.0311
  C  C65  1  0.780210  0.150650  0.625230  1.0  0.0185
  C  C66  1  0.900650  0.093150  0.813000  1.0  0.7135
  C  C67  1  0.867080  0.124640  0.750690  1.0  -0.0607
  C  C68  1  0.808920  0.119370  0.684280  1.0  -0.0149
  C  C69  1  0.284820  0.719870  0.562610  1.0  -0.0588
  C  C70  1  0.310080  0.687000  0.630900  1.0  -0.0035
  C  C71  1  0.367210  0.692170  0.699230  1.0  -0.0175
  C  C72  1  0.395240  0.661310  0.758720  1.0  0.0311
  C  C73  1  0.280210  0.650650  0.625230  1.0  0.0185
  C  C74  1  0.400650  0.593150  0.813000  1.0  0.7135
  C  C75  1  0.367080  0.624640  0.750690  1.0  -0.0607
  C  C76  1  0.308920  0.619370  0.684280  1.0  -0.0152
  C  C77  1  0.215180  0.219870  0.562610  1.0  -0.059
  C  C78  1  0.189920  0.187000  0.630900  1.0  -0.0069
  C  C79  1  0.132790  0.192170  0.699230  1.0  -0.0164
  C  C80  1  0.104760  0.161310  0.758720  1.0  0.0338
  C  C81  1  0.219790  0.150650  0.625230  1.0  0.0162
  C  C82  1  0.099350  0.093150  0.813000  1.0  0.7132
  C  C83  1  0.132920  0.124640  0.750690  1.0  -0.0613
  C  C84  1  0.191080  0.119370  0.684280  1.0  -0.0159
  C  C85  1  0.715180  0.719870  0.562610  1.0  -0.059
  C  C86  1  0.689920  0.687000  0.630900  1.0  -0.0069
  C  C87  1  0.632790  0.692170  0.699230  1.0  -0.0164
  C  C88  1  0.604760  0.661310  0.758720  1.0  0.0338
  C  C89  1  0.719790  0.650650  0.625230  1.0  0.0162
  C  C90  1  0.599350  0.593150  0.813000  1.0  0.7132
  C  C91  1  0.632920  0.624640  0.750690  1.0  -0.0613
  C  C92  1  0.691080  0.619370  0.684280  1.0  -0.0163
  C  C93  1  0.784820  0.780130  0.562610  1.0  -0.0587
  C  C94  1  0.810080  0.813000  0.630900  1.0  -0.0068
  C  C95  1  0.867210  0.807830  0.699230  1.0  -0.0173
  C  C96  1  0.895240  0.838690  0.758720  1.0  0.0312
  C  C97  1  0.780210  0.849350  0.625230  1.0  0.0192
  C  C98  1  0.900650  0.906850  0.813000  1.0  0.7132
  C  C99  1  0.867080  0.875360  0.750690  1.0  -0.0606
  C  C100  1  0.808920  0.880630  0.684280  1.0  -0.0153
  C  C101  1  0.284820  0.280130  0.562610  1.0  -0.0587
  C  C102  1  0.310080  0.313000  0.630900  1.0  -0.0068
  C  C103  1  0.367210  0.307830  0.699230  1.0  -0.0173
  C  C104  1  0.395240  0.338690  0.758720  1.0  0.0312
  C  C105  1  0.280210  0.349350  0.625230  1.0  0.0192
  C  C106  1  0.400650  0.406850  0.813000  1.0  0.7132
  C  C107  1  0.367080  0.375360  0.750690  1.0  -0.0606
  C  C108  1  0.308920  0.380630  0.684280  1.0  -0.0155
  C  C109  1  0.784820  0.219870  0.437390  1.0  -0.0596
  C  C110  1  0.810080  0.187000  0.369100  1.0  -0.0075
  C  C111  1  0.867210  0.192170  0.300770  1.0  -0.0191
  C  C112  1  0.895240  0.161310  0.241280  1.0  0.0312
  C  C113  1  0.780210  0.150650  0.374770  1.0  0.019
  C  C114  1  0.900650  0.093150  0.187000  1.0  0.7138
  C  C115  1  0.867080  0.124640  0.249310  1.0  -0.0611
  C  C116  1  0.808920  0.119370  0.315720  1.0  -0.0149
  C  C117  1  0.284820  0.719870  0.437390  1.0  -0.0596
  C  C118  1  0.310080  0.687000  0.369100  1.0  -0.0075
  C  C119  1  0.367210  0.692170  0.300770  1.0  -0.0191
  C  C120  1  0.395240  0.661310  0.241280  1.0  0.0312
  C  C121  1  0.280210  0.650650  0.374770  1.0  0.019
  C  C122  1  0.400650  0.593150  0.187000  1.0  0.7138
  C  C123  1  0.367080  0.624640  0.249310  1.0  -0.0611
  C  C124  1  0.308920  0.619370  0.315720  1.0  -0.0152
  C  C125  1  0.215180  0.780130  0.437390  1.0  -0.0599
  C  C126  1  0.189920  0.813000  0.369100  1.0  -0.0077
  C  C127  1  0.132790  0.807830  0.300770  1.0  -0.0179
  C  C128  1  0.104760  0.838690  0.241280  1.0  0.0336
  C  C129  1  0.219790  0.849350  0.374770  1.0  0.017
  C  C130  1  0.099350  0.906850  0.187000  1.0  0.7133
  C  C131  1  0.132920  0.875360  0.249310  1.0  -0.0616
  C  C132  1  0.191080  0.880630  0.315720  1.0  -0.0163
  C  C133  1  0.715180  0.280130  0.437390  1.0  -0.0599
  C  C134  1  0.689920  0.313000  0.369100  1.0  -0.0077
  C  C135  1  0.632790  0.307830  0.300770  1.0  -0.0179
  C  C136  1  0.604760  0.338690  0.241280  1.0  0.0336
  C  C137  1  0.719790  0.349350  0.374770  1.0  0.017
  C  C138  1  0.599350  0.406850  0.187000  1.0  0.7133
  C  C139  1  0.632920  0.375360  0.249310  1.0  -0.0616
  C  C140  1  0.691080  0.380630  0.315720  1.0  -0.0166
  C  C141  1  0.750000  0.250000  0.376900  1.0  0.0465
  C  C142  1  0.250000  0.750000  0.376900  1.0  0.0465
  C  C143  1  0.250000  0.250000  0.623100  1.0  0.0463
  C  C144  1  0.750000  0.750000  0.623100  1.0  0.0463
  C  C145  1  0.250000  0.750000  0.623100  1.0  0.0463
  C  C146  1  0.750000  0.250000  0.623100  1.0  0.0463
  C  C147  1  0.750000  0.750000  0.376900  1.0  0.0465
  C  C148  1  0.250000  0.250000  0.376900  1.0  0.0465
  O  O149  1  0.434530  0.394020  0.102000  1.0  -0.6594
  O  O150  1  0.897900  0.942410  0.219500  1.0  -0.6074
  O  O151  1  0.934530  0.894020  0.102000  1.0  -0.6594
  O  O152  1  0.397900  0.442410  0.219500  1.0  -0.6074
  O  O153  1  0.565470  0.605980  0.102000  1.0  -0.661
  O  O154  1  0.102100  0.057590  0.219500  1.0  -0.6095
  O  O155  1  0.065470  0.105980  0.102000  1.0  -0.661
  O  O156  1  0.602100  0.557590  0.219500  1.0  -0.6095
  O  O157  1  0.565470  0.394020  0.898000  1.0  -0.6593
  O  O158  1  0.102100  0.942410  0.780500  1.0  -0.6077
  O  O159  1  0.065470  0.894020  0.898000  1.0  -0.6593
  O  O160  1  0.602100  0.442410  0.780500  1.0  -0.6077
  O  O161  1  0.434530  0.605980  0.898000  1.0  -0.663
  O  O162  1  0.897900  0.057590  0.780500  1.0  -0.6078
  O  O163  1  0.934530  0.105980  0.898000  1.0  -0.663
  O  O164  1  0.397900  0.557590  0.780500  1.0  -0.6078
  O  O165  1  0.565470  0.605980  0.898000  1.0  -0.6623
  O  O166  1  0.102100  0.057590  0.780500  1.0  -0.6079
  O  O167  1  0.065470  0.105980  0.898000  1.0  -0.6623
  O  O168  1  0.602100  0.557590  0.780500  1.0  -0.6079
  O  O169  1  0.434530  0.394020  0.898000  1.0  -0.6599
  O  O170  1  0.897900  0.942410  0.780500  1.0  -0.6077
  O  O171  1  0.934530  0.894020  0.898000  1.0  -0.6599
  O  O172  1  0.397900  0.442410  0.780500  1.0  -0.6077
  O  O173  1  0.434530  0.605980  0.102000  1.0  -0.6617
  O  O174  1  0.897900  0.057590  0.219500  1.0  -0.6084
  O  O175  1  0.934530  0.105980  0.102000  1.0  -0.6617
  O  O176  1  0.397900  0.557590  0.219500  1.0  -0.6084
  O  O177  1  0.565470  0.394020  0.102000  1.0  -0.6588
  O  O178  1  0.102100  0.942410  0.219500  1.0  -0.6078
  O  O179  1  0.065470  0.894020  0.102000  1.0  -0.6588
  O  O180  1  0.602100  0.442410  0.219500  1.0  -0.6078
  O  O181  1  0.000000  0.960340  0.179300  1.0  -0.8668
  O  O182  1  0.500000  0.460340  0.179300  1.0  -0.8668
  O  O183  1  0.000000  0.039660  0.179300  1.0  -0.8668
  O  O184  1  0.500000  0.539660  0.179300  1.0  -0.8668
  O  O185  1  0.000000  0.960340  0.820700  1.0  -0.8671
  O  O186  1  0.500000  0.460340  0.820700  1.0  -0.8671
  O  O187  1  0.000000  0.039660  0.820700  1.0  -0.8676
  O  O188  1  0.500000  0.539660  0.820700  1.0  -0.8676
  O  O189  1  0.103200  0.962860  0.000000  1.0  -0.8539
  O  O190  1  0.603200  0.462860  0.000000  1.0  -0.8531
  O  O191  1  0.896800  0.037140  0.000000  1.0  -0.8529
  O  O192  1  0.396800  0.537140  0.000000  1.0  -0.8522
  O  O193  1  0.896800  0.962860  0.000000  1.0  -0.8527
  O  O194  1  0.396800  0.462860  0.000000  1.0  -0.852
  O  O195  1  0.103200  0.037140  0.000000  1.0  -0.8539
  O  O196  1  0.603200  0.537140  0.000000  1.0  -0.8531
