# generated using pymatgen
data_Zn2H15C9N13O2
_symmetry_space_group_name_H-M   'P 1'
_cell_length_a   10.17500000
_cell_length_b   21.48100000
_cell_length_c   10.49300000
_cell_angle_alpha   90.00000000
_cell_angle_beta   93.14400000
_cell_angle_gamma   90.00000000
_symmetry_Int_Tables_number   1
_chemical_formula_structural   Zn2H15C9N13O2
_chemical_formula_sum   'Zn8 H60 C36 N52 O8'
_cell_volume   2289.99436411
_cell_formula_units_Z   4
loop_
 _symmetry_equiv_pos_site_id
 _symmetry_equiv_pos_as_xyz
  1  'x, y, z'
loop_
 _atom_site_type_symbol
 _atom_site_label
 _atom_site_symmetry_multiplicity
 _atom_site_fract_x
 _atom_site_fract_y
 _atom_site_fract_z
 _atom_site_occupancy
 _atom_site_charge
  Zn  Zn1  1  0.489300  0.426560  0.320900  1.0  0.8364
  Zn  Zn2  1  0.528200  0.653110  0.485000  1.0  0.9313
  Zn  Zn3  1  0.976000  0.470070  0.015600  1.0  0.8199
  Zn  Zn4  1  0.014500  0.697840  0.183500  1.0  0.8848
  Zn  Zn5  1  0.510700  0.926560  0.679100  1.0  0.8358
  Zn  Zn6  1  0.471800  0.153110  0.515000  1.0  0.9296
  Zn  Zn7  1  0.024000  0.970070  0.984400  1.0  0.821
  Zn  Zn8  1  0.985500  0.197840  0.816500  1.0  0.8834
  H  H9  1  0.638700  0.596900  0.656600  1.0  0.2881
  H  H10  1  0.529600  0.629200  0.708100  1.0  0.3206
  H  H11  1  0.987700  0.504700  0.785700  1.0  0.2472
  H  H12  1  0.863800  0.526500  0.827700  1.0  0.2991
  H  H13  1  0.570000  0.535000  0.146500  1.0  0.1546
  H  H14  1  0.707300  0.567400  0.137400  1.0  0.1405
  H  H15  1  0.647900  0.527900  0.022500  1.0  0.1452
  H  H16  1  0.619100  0.360900  0.541400  1.0  0.1581
  H  H17  1  0.558000  0.311900  0.631700  1.0  0.1565
  H  H18  1  0.675700  0.293100  0.549300  1.0  0.1584
  H  H19  1  0.223300  0.484900  0.383000  1.0  0.1482
  H  H20  1  0.118800  0.523900  0.301900  1.0  0.1473
  H  H21  1  0.093100  0.453300  0.328800  1.0  0.156
  H  H22  1  0.129400  0.265900  0.030600  1.0  0.1529
  H  H23  1  0.186300  0.333800  0.029800  1.0  0.1641
  H  H24  1  0.076700  0.316400  0.122900  1.0  0.1602
  H  H25  1  0.937600  0.597300  0.370700  1.0  0.1296
  H  H26  1  0.860600  0.611500  0.492800  1.0  0.1441
  H  H27  1  0.802200  0.564700  0.389900  1.0  0.1414
  H  H28  1  0.429700  0.636900  0.201000  1.0  0.1539
  H  H29  1  0.298600  0.605200  0.149300  1.0  0.1444
  H  H30  1  0.322900  0.676000  0.123100  1.0  0.1609
  H  H31  1  0.379400  0.556300  0.639000  1.0  0.1145
  H  H32  1  0.448700  0.463900  0.735600  1.0  0.1298
  H  H33  1  0.594300  0.488000  0.746700  1.0  0.1244
  H  H34  1  0.486900  0.519800  0.826300  1.0  0.1357
  H  H35  1  0.951000  0.614300  0.806700  1.0  0.117
  H  H36  1  0.185600  0.615800  0.818600  1.0  0.1279
  H  H37  1  0.187000  0.546800  0.867000  1.0  0.1291
  H  H38  1  0.133600  0.562300  0.727700  1.0  0.1167
  H  H39  1  0.361300  0.096900  0.343400  1.0  0.3031
  H  H40  1  0.470400  0.129200  0.291900  1.0  0.3215
  H  H41  1  0.012300  0.004700  0.214300  1.0  0.2488
  H  H42  1  0.136200  0.026500  0.172300  1.0  0.2895
  H  H43  1  0.430000  0.035000  0.853500  1.0  0.1566
  H  H44  1  0.292700  0.067400  0.862600  1.0  0.1414
  H  H45  1  0.352100  0.027900  0.977500  1.0  0.1447
  H  H46  1  0.380900  0.860900  0.458600  1.0  0.1583
  H  H47  1  0.442000  0.811900  0.368300  1.0  0.1549
  H  H48  1  0.324300  0.793100  0.450700  1.0  0.1578
  H  H49  1  0.776700  0.984900  0.617000  1.0  0.1471
  H  H50  1  0.881200  0.023900  0.698100  1.0  0.148
  H  H51  1  0.906900  0.953300  0.671200  1.0  0.1564
  H  H52  1  0.870600  0.765900  0.969400  1.0  0.1527
  H  H53  1  0.813700  0.833800  0.970200  1.0  0.1637
  H  H54  1  0.923300  0.816400  0.877100  1.0  0.1596
  H  H55  1  0.062400  0.097300  0.629300  1.0  0.1276
  H  H56  1  0.139400  0.111500  0.507200  1.0  0.1434
  H  H57  1  0.197800  0.064700  0.610100  1.0  0.1408
  H  H58  1  0.570300  0.136900  0.799000  1.0  0.1521
  H  H59  1  0.701400  0.105200  0.850700  1.0  0.1437
  H  H60  1  0.677100  0.176000  0.876900  1.0  0.1613
  H  H61  1  0.620600  0.056300  0.361000  1.0  0.1114
  H  H62  1  0.551300  0.963900  0.264400  1.0  0.1301
  H  H63  1  0.405700  0.988000  0.253300  1.0  0.1247
  H  H64  1  0.513100  0.019800  0.173700  1.0  0.1354
  H  H65  1  0.049000  0.114300  0.193300  1.0  0.1153
  H  H66  1  0.814400  0.115800  0.181400  1.0  0.1291
  H  H67  1  0.813000  0.046800  0.133000  1.0  0.1298
  H  H68  1  0.866400  0.062300  0.272300  1.0  0.1173
  C  C69  1  0.723000  0.473900  0.169000  1.0  0.2024
  C  C70  1  0.656000  0.531300  0.114000  1.0  -0.4011
  C  C71  1  0.503000  0.298600  0.447000  1.0  0.5413
  C  C72  1  0.597000  0.317800  0.551400  1.0  -0.4685
  C  C73  1  0.224900  0.466700  0.193900  1.0  0.4772
  C  C74  1  0.159000  0.483700  0.312000  1.0  -0.4142
  C  C75  1  0.006000  0.327300  0.941000  1.0  0.2407
  C  C76  1  0.109000  0.309200  0.040000  1.0  -0.3858
  C  C77  1  0.784900  0.652600  0.337600  1.0  0.4535
  C  C78  1  0.852000  0.602400  0.403000  1.0  -0.425
  C  C79  1  0.274000  0.659200  0.304000  1.0  0.4059
  C  C80  1  0.337000  0.642900  0.184000  1.0  -0.405
  C  C81  1  0.499000  0.518500  0.505000  1.0  0.6681
  C  C82  1  0.473000  0.545200  0.638300  1.0  0.0849
  C  C83  1  0.503000  0.500100  0.746600  1.0  -0.3349
  C  C84  1  0.010000  0.607700  0.996000  1.0  0.6887
  C  C85  1  0.002000  0.585200  0.862000  1.0  0.1525
  C  C86  1  0.140000  0.576700  0.814000  1.0  -0.2978
  C  C87  1  0.277000  0.973900  0.831000  1.0  0.2034
  C  C88  1  0.344000  0.031300  0.886000  1.0  -0.4016
  C  C89  1  0.497000  0.798600  0.553000  1.0  0.541
  C  C90  1  0.403000  0.817800  0.448600  1.0  -0.4677
  C  C91  1  0.775100  0.966700  0.806100  1.0  0.4774
  C  C92  1  0.841000  0.983700  0.688000  1.0  -0.4138
  C  C93  1  0.994000  0.827300  0.059000  1.0  0.2401
  C  C94  1  0.891000  0.809200  0.960000  1.0  -0.3852
  C  C95  1  0.215100  0.152600  0.662400  1.0  0.4532
  C  C96  1  0.148000  0.102400  0.597000  1.0  -0.4232
  C  C97  1  0.726000  0.159200  0.696000  1.0  0.4061
  C  C98  1  0.663000  0.142900  0.816000  1.0  -0.4053
  C  C99  1  0.501000  0.018500  0.495000  1.0  0.6676
  C  C100  1  0.527000  0.045200  0.361700  1.0  0.0841
  C  C101  1  0.497000  0.000100  0.253400  1.0  -0.3361
  C  C102  1  0.990000  0.107700  0.004000  1.0  0.6877
  C  C103  1  0.998000  0.085200  0.138000  1.0  0.1546
  C  C104  1  0.860000  0.076700  0.186000  1.0  -0.2965
  N  N105  1  0.845500  0.451800  0.146900  1.0  -0.4229
  N  N106  1  0.859700  0.399900  0.223600  1.0  -0.1607
  N  N107  1  0.751400  0.388500  0.291400  1.0  -0.2604
  N  N108  1  0.670900  0.433500  0.255400  1.0  -0.2431
  N  N109  1  0.456600  0.336900  0.359200  1.0  -0.2239
  N  N110  1  0.372200  0.305100  0.281500  1.0  -0.2693
  N  N111  1  0.373300  0.248200  0.327000  1.0  -0.0811
  N  N112  1  0.454700  0.243200  0.432800  1.0  -0.3277
  N  N113  1  0.355700  0.450400  0.187500  1.0  -0.4212
  N  N114  1  0.368100  0.438300  0.063900  1.0  -0.1549
  N  N115  1  0.254800  0.450600  0.997500  1.0  -0.3036
  N  N116  1  0.165300  0.461600  0.086900  1.0  -0.1611
  N  N117  1  0.952300  0.288500  0.850700  1.0  -0.2776
  N  N118  1  0.863000  0.322700  0.780100  1.0  -0.1041
  N  N119  1  0.860900  0.379300  0.822300  1.0  -0.0971
  N  N120  1  0.950600  0.384000  0.922400  1.0  -0.2719
  N  N121  1  0.840700  0.686000  0.252700  1.0  -0.4109
  N  N122  1  0.738300  0.729900  0.223600  1.0  -0.1749
  N  N123  1  0.640700  0.719900  0.282000  1.0  -0.1458
  N  N124  1  0.668200  0.671000  0.359300  1.0  -0.2486
  N  N125  1  0.154100  0.669900  0.313200  1.0  -0.1835
  N  N126  1  0.131400  0.680300  0.439800  1.0  -0.1611
  N  N127  1  0.241600  0.679300  0.502400  1.0  -0.1077
  N  N128  1  0.338400  0.658200  0.425100  1.0  -0.4219
  N  N129  1  0.554000  0.606000  0.643200  1.0  -0.5683
  N  N130  1  0.949000  0.523900  0.849000  1.0  -0.6249
  N  N131  1  0.154500  0.951800  0.853100  1.0  -0.4242
  N  N132  1  0.140300  0.899900  0.776400  1.0  -0.1611
  N  N133  1  0.248600  0.888500  0.708600  1.0  -0.2607
  N  N134  1  0.329100  0.933500  0.744600  1.0  -0.2435
  N  N135  1  0.543400  0.836900  0.640800  1.0  -0.2247
  N  N136  1  0.627800  0.805100  0.718500  1.0  -0.2712
  N  N137  1  0.626700  0.748200  0.673000  1.0  -0.0833
  N  N138  1  0.545300  0.743200  0.567200  1.0  -0.3281
  N  N139  1  0.644300  0.950400  0.812500  1.0  -0.421
  N  N140  1  0.631900  0.938300  0.936100  1.0  -0.1537
  N  N141  1  0.745200  0.950600  0.002500  1.0  -0.3025
  N  N142  1  0.834700  0.961600  0.913100  1.0  -0.1596
  N  N143  1  0.047700  0.788500  0.149300  1.0  -0.2778
  N  N144  1  0.137000  0.822700  0.219900  1.0  -0.107
  N  N145  1  0.139100  0.879300  0.177700  1.0  -0.0965
  N  N146  1  0.049400  0.884000  0.077600  1.0  -0.2704
  N  N147  1  0.159300  0.186000  0.747300  1.0  -0.4109
  N  N148  1  0.261700  0.229900  0.776400  1.0  -0.1731
  N  N149  1  0.359300  0.219900  0.718000  1.0  -0.1462
  N  N150  1  0.331800  0.171000  0.640700  1.0  -0.2498
  N  N151  1  0.845900  0.169900  0.686800  1.0  -0.1826
  N  N152  1  0.868600  0.180300  0.560200  1.0  -0.1604
  N  N153  1  0.758400  0.179300  0.497600  1.0  -0.1004
  N  N154  1  0.661600  0.158200  0.574900  1.0  -0.4219
  N  N155  1  0.446000  0.106000  0.356800  1.0  -0.5687
  N  N156  1  0.051000  0.023900  0.151000  1.0  -0.6272
  O  O157  1  0.527300  0.553000  0.420200  1.0  -0.5407
  O  O158  1  0.470600  0.460000  0.495600  1.0  -0.5869
  O  O159  1  0.982200  0.570700  0.085500  1.0  -0.5972
  O  O160  1  0.034800  0.663400  0.019000  1.0  -0.5697
  O  O161  1  0.472700  0.053000  0.579800  1.0  -0.5412
  O  O162  1  0.529400  0.960000  0.504400  1.0  -0.5862
  O  O163  1  0.017800  0.070700  0.914500  1.0  -0.5958
  O  O164  1  0.965200  0.163400  0.981000  1.0  -0.5707
