# generated using pymatgen
data_CdH17C29N3O5
_symmetry_space_group_name_H-M   'P 1'
_cell_length_a   10.16760000
_cell_length_b   17.30000000
_cell_length_c   17.48500000
_cell_angle_alpha   90.00000000
_cell_angle_beta   91.70800000
_cell_angle_gamma   90.00000000
_symmetry_Int_Tables_number   1
_chemical_formula_structural   CdH17C29N3O5
_chemical_formula_sum   'Cd4 H68 C116 N12 O20'
_cell_volume   3074.23594283
_cell_formula_units_Z   4
loop_
 _symmetry_equiv_pos_site_id
 _symmetry_equiv_pos_as_xyz
  1  'x, y, z'
loop_
 _atom_site_type_symbol
 _atom_site_label
 _atom_site_symmetry_multiplicity
 _atom_site_fract_x
 _atom_site_fract_y
 _atom_site_fract_z
 _atom_site_occupancy
 _atom_site_charge
  Cd  Cd1  1  0.827360  0.363200  0.019900  1.0  0.9159
  Cd  Cd2  1  0.172640  0.863200  0.480100  1.0  0.916
  Cd  Cd3  1  0.172640  0.636800  0.980100  1.0  0.9159
  Cd  Cd4  1  0.827360  0.136800  0.519900  1.0  0.9172
  H  H5  1  0.648100  0.338100  0.867300  1.0  0.0745
  H  H6  1  0.627200  0.371200  0.739600  1.0  0.1236
  H  H7  1  0.956800  0.499300  0.765200  1.0  0.1193
  H  H8  1  0.969300  0.463200  0.891900  1.0  0.0819
  H  H9  1  0.648300  0.379800  0.618500  1.0  0.12
  H  H10  1  0.773200  0.526700  0.455200  1.0  0.1168
  H  H11  1  0.122100  0.743300  0.622200  1.0  0.0702
  H  H12  1  0.996300  0.637500  0.652600  1.0  0.1265
  H  H13  1  0.930700  0.602900  0.426400  1.0  0.1275
  H  H14  1  0.062100  0.707700  0.403600  1.0  0.0839
  H  H15  1  0.583500  0.306800  0.523200  1.0  0.1094
  H  H16  1  0.437000  0.250800  0.434300  1.0  0.1319
  H  H17  1  0.451500  0.444100  0.304800  1.0  0.1136
  H  H18  1  0.593600  0.500600  0.394900  1.0  0.1168
  H  H19  1  0.142800  0.341700  0.226500  1.0  0.1133
  H  H20  1  0.330600  0.366300  0.026900  1.0  0.1112
  H  H21  1  0.536600  0.312400  0.221600  1.0  0.12
  H  H22  1  0.351900  0.838100  0.632700  1.0  0.0749
  H  H23  1  0.372800  0.871200  0.760400  1.0  0.1242
  H  H24  1  0.043200  0.999300  0.734800  1.0  0.1195
  H  H25  1  0.030700  0.963200  0.608100  1.0  0.0821
  H  H26  1  0.351700  0.879800  0.881500  1.0  0.1196
  H  H27  1  0.226800  0.026700  0.044800  1.0  0.118
  H  H28  1  0.877900  0.243300  0.877800  1.0  0.0705
  H  H29  1  0.003700  0.137500  0.847400  1.0  0.1269
  H  H30  1  0.069300  0.102900  0.073600  1.0  0.1276
  H  H31  1  0.937900  0.207700  0.096400  1.0  0.0833
  H  H32  1  0.416500  0.806800  0.976800  1.0  0.109
  H  H33  1  0.563000  0.750800  0.065700  1.0  0.1322
  H  H34  1  0.548500  0.944100  0.195200  1.0  0.1127
  H  H35  1  0.406400  0.000600  0.105100  1.0  0.117
  H  H36  1  0.857200  0.841700  0.273500  1.0  0.1134
  H  H37  1  0.669400  0.866300  0.473100  1.0  0.1103
  H  H38  1  0.463400  0.812400  0.278400  1.0  0.12
  H  H39  1  0.351900  0.661900  0.132700  1.0  0.0748
  H  H40  1  0.372800  0.628800  0.260400  1.0  0.1244
  H  H41  1  0.043200  0.500700  0.234800  1.0  0.1191
  H  H42  1  0.030700  0.536800  0.108100  1.0  0.0821
  H  H43  1  0.351700  0.620200  0.381500  1.0  0.1194
  H  H44  1  0.226800  0.473300  0.544800  1.0  0.1182
  H  H45  1  0.877900  0.256700  0.377800  1.0  0.0703
  H  H46  1  0.003700  0.362500  0.347400  1.0  0.1259
  H  H47  1  0.069300  0.397100  0.573600  1.0  0.1274
  H  H48  1  0.937900  0.292300  0.596400  1.0  0.0833
  H  H49  1  0.416500  0.693200  0.476800  1.0  0.1092
  H  H50  1  0.563000  0.749200  0.565700  1.0  0.132
  H  H51  1  0.548500  0.555900  0.695200  1.0  0.113
  H  H52  1  0.406400  0.499400  0.605100  1.0  0.1174
  H  H53  1  0.857200  0.658300  0.773500  1.0  0.1138
  H  H54  1  0.669400  0.633700  0.973100  1.0  0.1104
  H  H55  1  0.463400  0.687600  0.778400  1.0  0.12
  H  H56  1  0.648100  0.161900  0.367300  1.0  0.075
  H  H57  1  0.627200  0.128800  0.239600  1.0  0.1238
  H  H58  1  0.956800  0.000700  0.265200  1.0  0.1192
  H  H59  1  0.969300  0.036800  0.391900  1.0  0.082
  H  H60  1  0.648300  0.120200  0.118500  1.0  0.1191
  H  H61  1  0.773200  0.973300  0.955200  1.0  0.1171
  H  H62  1  0.122100  0.756700  0.122200  1.0  0.0707
  H  H63  1  0.996300  0.862500  0.152600  1.0  0.1257
  H  H64  1  0.930700  0.897100  0.926400  1.0  0.1274
  H  H65  1  0.062100  0.792300  0.903600  1.0  0.0841
  H  H66  1  0.583500  0.193200  0.023200  1.0  0.109
  H  H67  1  0.437000  0.249200  0.934300  1.0  0.1323
  H  H68  1  0.451500  0.055900  0.804800  1.0  0.1138
  H  H69  1  0.593600  0.999400  0.894900  1.0  0.1172
  H  H70  1  0.142800  0.158300  0.726500  1.0  0.1135
  H  H71  1  0.330600  0.133700  0.526900  1.0  0.111
  H  H72  1  0.536600  0.187600  0.721600  1.0  0.1198
  C  C73  1  0.712100  0.371200  0.846200  1.0  0.1536
  C  C74  1  0.699300  0.390500  0.769700  1.0  -0.1817
  C  C75  1  0.791200  0.438000  0.736800  1.0  -0.0064
  C  C76  1  0.892200  0.465500  0.784700  1.0  -0.141
  C  C77  1  0.898900  0.443900  0.860500  1.0  0.1695
  C  C78  1  0.784500  0.460400  0.654690  1.0  0.2044
  C  C79  1  0.700300  0.422000  0.602340  1.0  -0.0901
  C  C80  1  0.693800  0.446700  0.525800  1.0  0.0671
  C  C81  1  0.774200  0.508200  0.506400  1.0  -0.159
  C  C82  1  0.856500  0.542700  0.561700  1.0  0.236
  C  C83  1  0.080800  0.714800  0.581700  1.0  0.1751
  C  C84  1  0.005300  0.651700  0.600500  1.0  -0.1512
  C  C85  1  0.942400  0.609000  0.542700  1.0  -0.0264
  C  C86  1  0.967500  0.631300  0.468300  1.0  -0.1972
  C  C87  1  0.045400  0.694400  0.455200  1.0  0.1718
  C  C88  1  0.603200  0.409500  0.468660  1.0  0.0359
  C  C89  1  0.555900  0.335200  0.479100  1.0  -0.1008
  C  C90  1  0.469200  0.301600  0.426300  1.0  -0.151
  C  C91  1  0.430200  0.342800  0.362000  1.0  0.3035
  C  C92  1  0.477400  0.416500  0.349740  1.0  -0.1729
  C  C93  1  0.562300  0.449600  0.403000  1.0  -0.1129
  C  C94  1  0.341700  0.326000  0.235800  1.0  0.2708
  C  C95  1  0.221500  0.341500  0.198600  1.0  -0.1209
  C  C96  1  0.216900  0.356500  0.120510  1.0  -0.1304
  C  C97  1  0.333000  0.355900  0.080300  1.0  -0.0237
  C  C98  1  0.452900  0.340200  0.117900  1.0  -0.1488
  C  C99  1  0.455600  0.324400  0.195900  1.0  -0.1027
  C  C100  1  0.086600  0.370900  0.080600  1.0  0.6638
  C  C101  1  0.580000  0.340700  0.076200  1.0  0.676
  C  C102  1  0.287900  0.871200  0.653800  1.0  0.1527
  C  C103  1  0.300700  0.890500  0.730300  1.0  -0.1804
  C  C104  1  0.208800  0.938000  0.763200  1.0  -0.0074
  C  C105  1  0.107800  0.965500  0.715300  1.0  -0.1413
  C  C106  1  0.101100  0.943900  0.639500  1.0  0.1702
  C  C107  1  0.215500  0.960400  0.845310  1.0  0.2042
  C  C108  1  0.299700  0.922000  0.897660  1.0  -0.0895
  C  C109  1  0.306200  0.946700  0.974200  1.0  0.0672
  C  C110  1  0.225800  0.008200  0.993600  1.0  -0.1611
  C  C111  1  0.143500  0.042700  0.938300  1.0  0.2369
  C  C112  1  0.919200  0.214800  0.918300  1.0  0.1763
  C  C113  1  0.994700  0.151700  0.899500  1.0  -0.1502
  C  C114  1  0.057600  0.109000  0.957300  1.0  -0.0262
  C  C115  1  0.032500  0.131300  0.031700  1.0  -0.1978
  C  C116  1  0.954600  0.194400  0.044800  1.0  0.1701
  C  C117  1  0.396800  0.909500  0.031340  1.0  0.0369
  C  C118  1  0.444100  0.835200  0.020900  1.0  -0.1006
  C  C119  1  0.530800  0.801600  0.073700  1.0  -0.1524
  C  C120  1  0.569800  0.842800  0.138000  1.0  0.304
  C  C121  1  0.522600  0.916500  0.150260  1.0  -0.1728
  C  C122  1  0.437700  0.949600  0.097000  1.0  -0.1103
  C  C123  1  0.658300  0.826000  0.264200  1.0  0.2698
  C  C124  1  0.778500  0.841500  0.301400  1.0  -0.119
  C  C125  1  0.783100  0.856500  0.379490  1.0  -0.1298
  C  C126  1  0.667000  0.855900  0.419700  1.0  -0.0267
  C  C127  1  0.547100  0.840200  0.382100  1.0  -0.1483
  C  C128  1  0.544400  0.824400  0.304100  1.0  -0.1042
  C  C129  1  0.913400  0.870900  0.419400  1.0  0.665
  C  C130  1  0.420000  0.840700  0.423800  1.0  0.6759
  C  C131  1  0.287900  0.628800  0.153800  1.0  0.1536
  C  C132  1  0.300700  0.609500  0.230300  1.0  -0.1806
  C  C133  1  0.208800  0.562000  0.263200  1.0  -0.0077
  C  C134  1  0.107800  0.534500  0.215300  1.0  -0.1418
  C  C135  1  0.101100  0.556100  0.139500  1.0  0.1703
  C  C136  1  0.215500  0.539600  0.345310  1.0  0.2049
  C  C137  1  0.299700  0.578000  0.397660  1.0  -0.0893
  C  C138  1  0.306200  0.553300  0.474200  1.0  0.0674
  C  C139  1  0.225800  0.491800  0.493600  1.0  -0.1604
  C  C140  1  0.143500  0.457300  0.438300  1.0  0.2367
  C  C141  1  0.919200  0.285200  0.418300  1.0  0.176
  C  C142  1  0.994700  0.348300  0.399500  1.0  -0.1506
  C  C143  1  0.057600  0.391000  0.457300  1.0  -0.0264
  C  C144  1  0.032500  0.368700  0.531700  1.0  -0.1971
  C  C145  1  0.954600  0.305600  0.544800  1.0  0.1707
  C  C146  1  0.396800  0.590500  0.531340  1.0  0.0369
  C  C147  1  0.444100  0.664800  0.520900  1.0  -0.1016
  C  C148  1  0.530800  0.698400  0.573700  1.0  -0.1521
  C  C149  1  0.569800  0.657200  0.638000  1.0  0.304
  C  C150  1  0.522600  0.583500  0.650260  1.0  -0.1734
  C  C151  1  0.437700  0.550400  0.597000  1.0  -0.1091
  C  C152  1  0.658300  0.674000  0.764200  1.0  0.2714
  C  C153  1  0.778500  0.658500  0.801400  1.0  -0.1183
  C  C154  1  0.783100  0.643500  0.879490  1.0  -0.1301
  C  C155  1  0.667000  0.644100  0.919700  1.0  -0.0265
  C  C156  1  0.547100  0.659800  0.882100  1.0  -0.1486
  C  C157  1  0.544400  0.675600  0.804100  1.0  -0.1048
  C  C158  1  0.913400  0.629100  0.919400  1.0  0.6652
  C  C159  1  0.420000  0.659300  0.923800  1.0  0.6763
  C  C160  1  0.712100  0.128800  0.346200  1.0  0.1541
  C  C161  1  0.699300  0.109500  0.269700  1.0  -0.1816
  C  C162  1  0.791200  0.062000  0.236800  1.0  -0.0067
  C  C163  1  0.892200  0.034500  0.284700  1.0  -0.142
  C  C164  1  0.898900  0.056100  0.360500  1.0  0.1692
  C  C165  1  0.784500  0.039600  0.154690  1.0  0.2049
  C  C166  1  0.700300  0.078000  0.102340  1.0  -0.0903
  C  C167  1  0.693800  0.053300  0.025800  1.0  0.0673
  C  C168  1  0.774200  0.991800  0.006400  1.0  -0.1583
  C  C169  1  0.856500  0.957300  0.061700  1.0  0.2359
  C  C170  1  0.080800  0.785200  0.081700  1.0  0.1754
  C  C171  1  0.005300  0.848300  0.100500  1.0  -0.1512
  C  C172  1  0.942400  0.891000  0.042700  1.0  -0.0268
  C  C173  1  0.967500  0.868700  0.968300  1.0  -0.1967
  C  C174  1  0.045400  0.805600  0.955200  1.0  0.1717
  C  C175  1  0.603200  0.090500  0.968660  1.0  0.0358
  C  C176  1  0.555900  0.164800  0.979100  1.0  -0.1016
  C  C177  1  0.469200  0.198400  0.926300  1.0  -0.1511
  C  C178  1  0.430200  0.157200  0.862000  1.0  0.3035
  C  C179  1  0.477400  0.083500  0.849740  1.0  -0.1727
  C  C180  1  0.562300  0.050400  0.903000  1.0  -0.1109
  C  C181  1  0.341700  0.174000  0.735800  1.0  0.2721
  C  C182  1  0.221500  0.158500  0.698600  1.0  -0.1205
  C  C183  1  0.216900  0.143500  0.620510  1.0  -0.1304
  C  C184  1  0.333000  0.144100  0.580300  1.0  -0.0229
  C  C185  1  0.452900  0.159800  0.617900  1.0  -0.1489
  C  C186  1  0.455600  0.175600  0.695900  1.0  -0.1031
  C  C187  1  0.086600  0.129100  0.580600  1.0  0.664
  C  C188  1  0.580000  0.159300  0.576200  1.0  0.6759
  N  N189  1  0.810700  0.397050  0.891780  1.0  -0.3201
  N  N190  1  0.861900  0.519030  0.634990  1.0  -0.483
  N  N191  1  0.099200  0.738160  0.510870  1.0  -0.3412
  N  N192  1  0.189300  0.897050  0.608220  1.0  -0.321
  N  N193  1  0.138100  0.019030  0.865010  1.0  -0.4835
  N  N194  1  0.900800  0.238160  0.989130  1.0  -0.3415
  N  N195  1  0.189300  0.602950  0.108220  1.0  -0.3202
  N  N196  1  0.138100  0.480970  0.365010  1.0  -0.4844
  N  N197  1  0.900800  0.261840  0.489130  1.0  -0.3422
  N  N198  1  0.810700  0.102950  0.391780  1.0  -0.3204
  N  N199  1  0.861900  0.980970  0.134990  1.0  -0.4832
  N  N200  1  0.099200  0.761840  0.010870  1.0  -0.3407
  O  O201  1  0.081000  0.391760  0.011900  1.0  -0.6399
  O  O202  1  0.984600  0.358840  0.118060  1.0  -0.5911
  O  O203  1  0.580400  0.362620  0.007620  1.0  -0.6178
  O  O204  1  0.683400  0.319750  0.111850  1.0  -0.61
  O  O205  1  0.338700  0.307580  0.313040  1.0  -0.2827
  O  O206  1  0.919000  0.891760  0.488100  1.0  -0.642
  O  O207  1  0.015400  0.858840  0.381940  1.0  -0.5928
  O  O208  1  0.419600  0.862620  0.492380  1.0  -0.6174
  O  O209  1  0.316600  0.819750  0.388150  1.0  -0.6101
  O  O210  1  0.661300  0.807580  0.186960  1.0  -0.284
  O  O211  1  0.919000  0.608240  0.988100  1.0  -0.6411
  O  O212  1  0.015400  0.641160  0.881940  1.0  -0.5932
  O  O213  1  0.419600  0.637380  0.992380  1.0  -0.618
  O  O214  1  0.316600  0.680250  0.888150  1.0  -0.6091
  O  O215  1  0.661300  0.692420  0.686960  1.0  -0.2844
  O  O216  1  0.081000  0.108240  0.511900  1.0  -0.64
  O  O217  1  0.984600  0.141160  0.618060  1.0  -0.5909
  O  O218  1  0.580400  0.137380  0.507620  1.0  -0.6189
  O  O219  1  0.683400  0.180250  0.611850  1.0  -0.6097
  O  O220  1  0.338700  0.192420  0.813040  1.0  -0.2836
