# generated using pymatgen
data_NiH6C10N3
_symmetry_space_group_name_H-M   'P 1'
_cell_length_a   6.78830000
_cell_length_b   14.48400000
_cell_length_c   28.91670000
_cell_angle_alpha   90.00000000
_cell_angle_beta   93.29500000
_cell_angle_gamma   90.00000000
_symmetry_Int_Tables_number   1
_chemical_formula_structural   NiH6C10N3
_chemical_formula_sum   'Ni8 H48 C80 N24'
_cell_volume   2838.44000173
_cell_formula_units_Z   8
loop_
 _symmetry_equiv_pos_site_id
 _symmetry_equiv_pos_as_xyz
  1  'x, y, z'
loop_
 _atom_site_type_symbol
 _atom_site_label
 _atom_site_symmetry_multiplicity
 _atom_site_fract_x
 _atom_site_fract_y
 _atom_site_fract_z
 _atom_site_occupancy
 _atom_site_charge
  Ni  Ni1  1  0.998640  0.774260  0.253580  1.0  0.7968
  Ni  Ni2  1  0.503600  0.524460  0.246230  1.0  0.4086
  Ni  Ni3  1  0.001360  0.274260  0.246420  1.0  0.7977
  Ni  Ni4  1  0.496400  0.024460  0.253770  1.0  0.4085
  Ni  Ni5  1  0.001360  0.225740  0.746420  1.0  0.7976
  Ni  Ni6  1  0.496400  0.475540  0.753770  1.0  0.4086
  Ni  Ni7  1  0.998640  0.725740  0.753580  1.0  0.7968
  Ni  Ni8  1  0.503600  0.975540  0.746230  1.0  0.4087
  H  H9  1  0.413600  0.779000  0.302200  1.0  0.0737
  H  H10  1  0.584000  0.719700  0.704500  1.0  0.0799
  H  H11  1  0.191100  0.818500  0.492300  1.0  0.1135
  H  H12  1  0.808200  0.678800  0.514700  1.0  0.1149
  H  H13  1  0.432200  0.727100  0.631000  1.0  0.1092
  H  H14  1  0.891400  0.765900  0.353200  1.0  0.0868
  H  H15  1  0.566900  0.771800  0.375500  1.0  0.1088
  H  H16  1  0.107700  0.734600  0.654100  1.0  0.0862
  H  H17  1  0.339800  0.808200  0.566200  1.0  0.1104
  H  H18  1  0.660600  0.689600  0.440600  1.0  0.1109
  H  H19  1  0.973200  0.740200  0.579200  1.0  0.1179
  H  H20  1  0.027200  0.756300  0.427800  1.0  0.1186
  H  H21  1  0.586400  0.279000  0.197800  1.0  0.0743
  H  H22  1  0.416000  0.219700  0.795500  1.0  0.0795
  H  H23  1  0.808900  0.318500  0.007700  1.0  0.1137
  H  H24  1  0.191800  0.178800  0.985300  1.0  0.115
  H  H25  1  0.567800  0.227100  0.869000  1.0  0.1092
  H  H26  1  0.108600  0.265900  0.146800  1.0  0.0837
  H  H27  1  0.433100  0.271800  0.124500  1.0  0.1094
  H  H28  1  0.892300  0.234600  0.845900  1.0  0.0862
  H  H29  1  0.660200  0.308200  0.933800  1.0  0.1113
  H  H30  1  0.339400  0.189600  0.059400  1.0  0.1103
  H  H31  1  0.026800  0.240200  0.920800  1.0  0.1164
  H  H32  1  0.972800  0.256300  0.072200  1.0  0.1192
  H  H33  1  0.586400  0.221000  0.697800  1.0  0.0745
  H  H34  1  0.416000  0.280300  0.295500  1.0  0.0797
  H  H35  1  0.808900  0.181500  0.507700  1.0  0.1138
  H  H36  1  0.191800  0.321200  0.485300  1.0  0.1149
  H  H37  1  0.567800  0.272900  0.369000  1.0  0.1093
  H  H38  1  0.108600  0.234100  0.646800  1.0  0.0837
  H  H39  1  0.433100  0.228200  0.624500  1.0  0.1094
  H  H40  1  0.892300  0.265400  0.345900  1.0  0.0856
  H  H41  1  0.660200  0.191800  0.433800  1.0  0.111
  H  H42  1  0.339400  0.310400  0.559400  1.0  0.1101
  H  H43  1  0.026800  0.259800  0.420800  1.0  0.1166
  H  H44  1  0.972800  0.243700  0.572200  1.0  0.1191
  H  H45  1  0.413600  0.721000  0.802200  1.0  0.0736
  H  H46  1  0.584000  0.780300  0.204500  1.0  0.0798
  H  H47  1  0.191100  0.681500  0.992300  1.0  0.1139
  H  H48  1  0.808200  0.821200  0.014700  1.0  0.1149
  H  H49  1  0.432200  0.772900  0.131000  1.0  0.1092
  H  H50  1  0.891400  0.734100  0.853200  1.0  0.0869
  H  H51  1  0.566900  0.728200  0.875500  1.0  0.1087
  H  H52  1  0.107700  0.765400  0.154100  1.0  0.0857
  H  H53  1  0.339800  0.691800  0.066200  1.0  0.1105
  H  H54  1  0.660600  0.810400  0.940600  1.0  0.1108
  H  H55  1  0.973200  0.759800  0.079200  1.0  0.118
  H  H56  1  0.027200  0.743700  0.927800  1.0  0.1185
  C  C57  1  0.687300  0.432000  0.261880  1.0  0.0681
  C  C58  1  0.334500  0.774500  0.328180  1.0  0.1753
  C  C59  1  0.663700  0.724500  0.678670  1.0  0.179
  C  C60  1  0.317200  0.790300  0.496680  1.0  -0.1352
  C  C61  1  0.409500  0.756000  0.458370  1.0  0.0681
  C  C62  1  0.682700  0.707500  0.510370  1.0  -0.1346
  C  C63  1  0.592000  0.741900  0.548450  1.0  0.0338
  C  C64  1  0.314900  0.762000  0.411030  1.0  0.0824
  C  C65  1  0.572100  0.728800  0.634830  1.0  -0.1928
  C  C66  1  0.685200  0.735500  0.595960  1.0  0.0775
  C  C67  1  0.031000  0.766600  0.357950  1.0  0.1768
  C  C68  1  0.427000  0.769800  0.371930  1.0  -0.192
  C  C69  1  0.968100  0.733000  0.649180  1.0  0.1807
  C  C70  1  0.405400  0.783900  0.540720  1.0  -0.1293
  C  C71  1  0.594800  0.713900  0.466050  1.0  -0.1543
  C  C72  1  0.889100  0.736800  0.604340  1.0  -0.2062
  C  C73  1  0.111000  0.760900  0.402700  1.0  -0.2137
  C  C74  1  0.310400  0.615000  0.238150  1.0  0.1215
  C  C75  1  0.683900  0.615900  0.265770  1.0  0.0385
  C  C76  1  0.311700  0.434100  0.233980  1.0  0.1442
  C  C77  1  0.312700  0.932000  0.238120  1.0  0.0672
  C  C78  1  0.665500  0.274500  0.171820  1.0  0.1753
  C  C79  1  0.336300  0.224500  0.821330  1.0  0.1781
  C  C80  1  0.682800  0.290300  0.003320  1.0  -0.1344
  C  C81  1  0.590500  0.256000  0.041630  1.0  0.0681
  C  C82  1  0.317300  0.207500  0.989630  1.0  -0.133
  C  C83  1  0.408000  0.241900  0.951550  1.0  0.0337
  C  C84  1  0.685100  0.262000  0.088970  1.0  0.083
  C  C85  1  0.427900  0.228800  0.865170  1.0  -0.1908
  C  C86  1  0.314800  0.235500  0.904040  1.0  0.0768
  C  C87  1  0.969000  0.266600  0.142050  1.0  0.1763
  C  C88  1  0.573000  0.269800  0.128070  1.0  -0.1957
  C  C89  1  0.031900  0.233000  0.850820  1.0  0.1804
  C  C90  1  0.594600  0.283900  0.959280  1.0  -0.1291
  C  C91  1  0.405200  0.213900  0.033950  1.0  -0.1534
  C  C92  1  0.110900  0.236800  0.895660  1.0  -0.2086
  C  C93  1  0.889000  0.260900  0.097300  1.0  -0.2122
  C  C94  1  0.689600  0.115000  0.261850  1.0  0.1219
  C  C95  1  0.316100  0.115900  0.234230  1.0  0.038
  C  C96  1  0.688300  0.934100  0.266020  1.0  0.1449
  C  C97  1  0.312700  0.568000  0.738120  1.0  0.0682
  C  C98  1  0.665500  0.225500  0.671820  1.0  0.1753
  C  C99  1  0.336300  0.275500  0.321330  1.0  0.1783
  C  C100  1  0.682800  0.209700  0.503320  1.0  -0.1344
  C  C101  1  0.590500  0.244000  0.541630  1.0  0.068
  C  C102  1  0.317300  0.292500  0.489630  1.0  -0.1342
  C  C103  1  0.408000  0.258100  0.451550  1.0  0.0336
  C  C104  1  0.685100  0.238000  0.588970  1.0  0.083
  C  C105  1  0.427900  0.271200  0.365170  1.0  -0.1905
  C  C106  1  0.314800  0.264500  0.404040  1.0  0.0769
  C  C107  1  0.969000  0.233400  0.642050  1.0  0.1765
  C  C108  1  0.573000  0.230200  0.628070  1.0  -0.196
  C  C109  1  0.031900  0.267000  0.350820  1.0  0.1804
  C  C110  1  0.594600  0.216100  0.459280  1.0  -0.129
  C  C111  1  0.405200  0.286100  0.533950  1.0  -0.1543
  C  C112  1  0.110900  0.263200  0.395660  1.0  -0.2086
  C  C113  1  0.889000  0.239100  0.597300  1.0  -0.2121
  C  C114  1  0.689600  0.385000  0.761850  1.0  0.1212
  C  C115  1  0.316100  0.384100  0.734230  1.0  0.0393
  C  C116  1  0.688300  0.565900  0.766020  1.0  0.1455
  C  C117  1  0.687300  0.068000  0.761880  1.0  0.0678
  C  C118  1  0.334500  0.725500  0.828180  1.0  0.175
  C  C119  1  0.663700  0.775500  0.178670  1.0  0.179
  C  C120  1  0.317200  0.709700  0.996680  1.0  -0.1343
  C  C121  1  0.409500  0.744000  0.958370  1.0  0.0682
  C  C122  1  0.682700  0.792500  0.010370  1.0  -0.1342
  C  C123  1  0.592000  0.758100  0.048450  1.0  0.0338
  C  C124  1  0.314900  0.738000  0.911030  1.0  0.0824
  C  C125  1  0.572100  0.771200  0.134830  1.0  -0.1927
  C  C126  1  0.685200  0.764500  0.095960  1.0  0.0776
  C  C127  1  0.031000  0.733400  0.857950  1.0  0.177
  C  C128  1  0.427000  0.730200  0.871930  1.0  -0.1922
  C  C129  1  0.968100  0.767000  0.149180  1.0  0.1807
  C  C130  1  0.405400  0.716100  0.040720  1.0  -0.1279
  C  C131  1  0.594800  0.786100  0.966050  1.0  -0.1545
  C  C132  1  0.889100  0.763200  0.104340  1.0  -0.2061
  C  C133  1  0.111000  0.739100  0.902700  1.0  -0.2137
  C  C134  1  0.310400  0.885000  0.738150  1.0  0.1204
  C  C135  1  0.683900  0.884100  0.765770  1.0  0.0408
  C  C136  1  0.311700  0.065900  0.733980  1.0  0.145
  N  N137  1  0.802600  0.373100  0.266270  1.0  -0.4595
  N  N138  1  0.860200  0.727000  0.686310  1.0  -0.3204
  N  N139  1  0.798800  0.674300  0.272610  1.0  -0.4497
  N  N140  1  0.137900  0.773000  0.320820  1.0  -0.3159
  N  N141  1  0.191200  0.671900  0.235760  1.0  -0.441
  N  N142  1  0.194000  0.377100  0.228710  1.0  -0.435
  N  N143  1  0.197400  0.873100  0.233730  1.0  -0.4584
  N  N144  1  0.139800  0.227000  0.813690  1.0  -0.3208
  N  N145  1  0.201200  0.174300  0.227390  1.0  -0.4504
  N  N146  1  0.862100  0.273000  0.179180  1.0  -0.3157
  N  N147  1  0.808800  0.171900  0.264240  1.0  -0.4409
  N  N148  1  0.806000  0.877100  0.271290  1.0  -0.4367
  N  N149  1  0.197400  0.626900  0.733730  1.0  -0.4568
  N  N150  1  0.139800  0.273000  0.313690  1.0  -0.3208
  N  N151  1  0.201200  0.325700  0.727390  1.0  -0.4528
  N  N152  1  0.862100  0.227000  0.679180  1.0  -0.316
  N  N153  1  0.808800  0.328100  0.764240  1.0  -0.441
  N  N154  1  0.806000  0.622900  0.771290  1.0  -0.438
  N  N155  1  0.802600  0.126900  0.766270  1.0  -0.4582
  N  N156  1  0.860200  0.773000  0.186310  1.0  -0.3203
  N  N157  1  0.798800  0.825700  0.772610  1.0  -0.4519
  N  N158  1  0.137900  0.727000  0.820820  1.0  -0.3161
  N  N159  1  0.191200  0.828100  0.735760  1.0  -0.4416
  N  N160  1  0.194000  0.122900  0.728710  1.0  -0.4362
