# generated using pymatgen
data_Co5H26(C8O9)2
_symmetry_space_group_name_H-M   'P 1'
_cell_length_a   11.56500000
_cell_length_b   17.72330000
_cell_length_c   17.72330000
_cell_angle_alpha   83.88940000
_cell_angle_beta   70.95780000
_cell_angle_gamma   70.95770000
_symmetry_Int_Tables_number   1
_chemical_formula_structural   Co5H26(C8O9)2
_chemical_formula_sum   'Co20 H104 C64 O72'
_cell_volume   3246.04203750
_cell_formula_units_Z   4
loop_
 _symmetry_equiv_pos_site_id
 _symmetry_equiv_pos_as_xyz
  1  'x, y, z'
loop_
 _atom_site_type_symbol
 _atom_site_label
 _atom_site_symmetry_multiplicity
 _atom_site_fract_x
 _atom_site_fract_y
 _atom_site_fract_z
 _atom_site_occupancy
 _atom_site_charge
  Co  Co1  1  0.577400  0.225200  0.670800  1.0  1.0525
  Co  Co2  1  0.457700  0.412200  0.667600  1.0  1.0065
  Co  Co3  1  0.973400  0.274800  0.829200  1.0  1.0505
  Co  Co4  1  0.037500  0.087800  0.832400  1.0  1.007
  Co  Co5  1  0.248200  0.329200  0.725200  1.0  1.0549
  Co  Co6  1  0.125300  0.332400  0.912200  1.0  1.0081
  Co  Co7  1  0.802600  0.170800  0.774800  1.0  1.0526
  Co  Co8  1  0.869900  0.167600  0.587800  1.0  1.0072
  Co  Co9  1  0.422600  0.774800  0.329200  1.0  1.0497
  Co  Co10  1  0.542300  0.587800  0.332400  1.0  1.0067
  Co  Co11  1  0.026600  0.725200  0.170800  1.0  1.0496
  Co  Co12  1  0.962500  0.912200  0.167600  1.0  1.0066
  Co  Co13  1  0.751800  0.670800  0.274800  1.0  1.0527
  Co  Co14  1  0.874700  0.667600  0.087800  1.0  1.0071
  Co  Co15  1  0.197400  0.829200  0.225200  1.0  1.0516
  Co  Co16  1  0.130100  0.832400  0.412200  1.0  1.0066
  Co  Co17  1  0.500000  0.500000  0.500000  1.0  0.8487
  Co  Co18  1  0.000000  0.000000  0.000000  1.0  0.8487
  Co  Co19  1  0.000000  0.500000  0.000000  1.0  0.8487
  Co  Co20  1  0.000000  0.000000  0.500000  1.0  0.8487
  H  H21  1  0.428800  0.307000  0.600400  1.0  0.4437
  H  H22  1  0.489000  0.390200  0.904800  1.0  0.1418
  H  H23  1  0.610500  0.412600  0.849800  1.0  0.1378
  H  H24  1  0.484500  0.440000  0.826400  1.0  0.1357
  H  H25  1  0.113600  0.553600  0.553400  1.0  0.1409
  H  H26  1  0.237500  0.511500  0.485700  1.0  0.1259
  H  H27  1  0.131100  0.469500  0.522700  1.0  0.1372
  H  H28  1  0.850200  0.296500  0.431500  1.0  0.1392
  H  H29  1  0.736100  0.276100  0.419900  1.0  0.1373
  H  H30  1  0.738300  0.364700  0.410700  1.0  0.1449
  H  H31  1  0.602000  0.599600  0.715800  1.0  0.1571
  H  H32  1  0.476200  0.662600  0.708200  1.0  0.1592
  H  H33  1  0.605400  0.651600  0.638000  1.0  0.1444
  H  H34  1  0.836200  0.193000  0.899600  1.0  0.4427
  H  H35  1  0.284000  0.109800  0.595200  1.0  0.1443
  H  H36  1  0.372900  0.087400  0.650200  1.0  0.1386
  H  H37  1  0.250900  0.060000  0.673600  1.0  0.1361
  H  H38  1  0.720600  0.946400  0.946600  1.0  0.1408
  H  H39  1  0.734700  0.988500  0.014300  1.0  0.1293
  H  H40  1  0.623300  0.030500  0.977300  1.0  0.1379
  H  H41  1  0.078200  0.203500  0.068500  1.0  0.1398
  H  H42  1  0.932100  0.223900  0.080100  1.0  0.1377
  H  H43  1  0.013700  0.135300  0.089300  1.0  0.1448
  H  H44  1  0.417400  0.900400  0.784200  1.0  0.1593
  H  H45  1  0.347000  0.837400  0.791800  1.0  0.1585
  H  H46  1  0.395000  0.848400  0.862000  1.0  0.1433
  H  H47  1  0.029200  0.399600  0.807000  1.0  0.4425
  H  H48  1  0.393800  0.095200  0.890200  1.0  0.1421
  H  H49  1  0.460300  0.150200  0.912600  1.0  0.1405
  H  H50  1  0.310900  0.173600  0.940000  1.0  0.1347
  H  H51  1  0.667000  0.446600  0.053600  1.0  0.1399
  H  H52  1  0.723200  0.514300  0.011500  1.0  0.1298
  H  H53  1  0.653800  0.477300  0.969500  1.0  0.137
  H  H54  1  0.281700  0.568500  0.796500  1.0  0.1384
  H  H55  1  0.156000  0.580100  0.776100  1.0  0.1365
  H  H56  1  0.149000  0.589300  0.864700  1.0  0.1453
  H  H57  1  0.317800  0.284200  0.099600  1.0  0.1552
  H  H58  1  0.184400  0.291800  0.162600  1.0  0.1576
  H  H59  1  0.243400  0.362000  0.151600  1.0  0.1437
  H  H60  1  0.735800  0.100400  0.693000  1.0  0.4414
  H  H61  1  0.879200  0.404800  0.609800  1.0  0.1426
  H  H62  1  0.023100  0.349800  0.587400  1.0  0.1401
  H  H63  1  0.924500  0.326400  0.560000  1.0  0.1371
  H  H64  1  0.667200  0.053400  0.446400  1.0  0.1398
  H  H65  1  0.749000  0.985700  0.488500  1.0  0.1294
  H  H66  1  0.600600  0.022700  0.530500  1.0  0.1374
  H  H67  1  0.146700  0.931500  0.703500  1.0  0.1389
  H  H68  1  0.012200  0.919900  0.723900  1.0  0.1385
  H  H69  1  0.103000  0.910700  0.635300  1.0  0.1433
  H  H70  1  0.201600  0.215800  0.400400  1.0  0.1574
  H  H71  1  0.138800  0.208200  0.337400  1.0  0.1586
  H  H72  1  0.257000  0.138000  0.348400  1.0  0.1439
  H  H73  1  0.571200  0.693000  0.399600  1.0  0.4396
  H  H74  1  0.511000  0.609800  0.095200  1.0  0.1405
  H  H75  1  0.389500  0.587400  0.150200  1.0  0.1392
  H  H76  1  0.515500  0.560000  0.173600  1.0  0.1359
  H  H77  1  0.886400  0.446400  0.446600  1.0  0.1401
  H  H78  1  0.762500  0.488500  0.514300  1.0  0.1259
  H  H79  1  0.868900  0.530500  0.477300  1.0  0.1378
  H  H80  1  0.149800  0.703500  0.568500  1.0  0.1413
  H  H81  1  0.263900  0.723900  0.580100  1.0  0.1375
  H  H82  1  0.261700  0.635300  0.589300  1.0  0.1452
  H  H83  1  0.398000  0.400400  0.284200  1.0  0.1568
  H  H84  1  0.523800  0.337400  0.291800  1.0  0.1578
  H  H85  1  0.394600  0.348400  0.362000  1.0  0.1407
  H  H86  1  0.163800  0.807000  0.100400  1.0  0.4425
  H  H87  1  0.716000  0.890200  0.404800  1.0  0.1416
  H  H88  1  0.627100  0.912600  0.349800  1.0  0.1398
  H  H89  1  0.749100  0.940000  0.326400  1.0  0.1347
  H  H90  1  0.279400  0.053600  0.053400  1.0  0.1411
  H  H91  1  0.265300  0.011500  0.985700  1.0  0.1294
  H  H92  1  0.376700  0.969500  0.022700  1.0  0.1378
  H  H93  1  0.921800  0.796500  0.931500  1.0  0.1384
  H  H94  1  0.067900  0.776100  0.919900  1.0  0.1388
  H  H95  1  0.986300  0.864700  0.910700  1.0  0.1442
  H  H96  1  0.582600  0.099600  0.215800  1.0  0.1583
  H  H97  1  0.653000  0.162600  0.208200  1.0  0.1589
  H  H98  1  0.605000  0.151600  0.138000  1.0  0.1442
  H  H99  1  0.970800  0.600400  0.193000  1.0  0.4424
  H  H100  1  0.606200  0.904800  0.109800  1.0  0.1423
  H  H101  1  0.539700  0.849800  0.087400  1.0  0.1396
  H  H102  1  0.689100  0.826400  0.060000  1.0  0.1337
  H  H103  1  0.333000  0.553400  0.946400  1.0  0.1396
  H  H104  1  0.276800  0.485700  0.988500  1.0  0.1318
  H  H105  1  0.346200  0.522700  0.030500  1.0  0.1378
  H  H106  1  0.718300  0.431500  0.203500  1.0  0.1411
  H  H107  1  0.844000  0.419900  0.223900  1.0  0.1367
  H  H108  1  0.851000  0.410700  0.135300  1.0  0.1435
  H  H109  1  0.682200  0.715800  0.900400  1.0  0.1537
  H  H110  1  0.815600  0.708200  0.837400  1.0  0.1573
  H  H111  1  0.756600  0.638000  0.848400  1.0  0.1411
  H  H112  1  0.264200  0.899600  0.307000  1.0  0.442
  H  H113  1  0.120800  0.595200  0.390200  1.0  0.1396
  H  H114  1  0.976900  0.650200  0.412600  1.0  0.1403
  H  H115  1  0.075500  0.673600  0.440000  1.0  0.1372
  H  H116  1  0.332800  0.946600  0.553600  1.0  0.1382
  H  H117  1  0.251000  0.014300  0.511500  1.0  0.1305
  H  H118  1  0.399400  0.977300  0.469500  1.0  0.1343
  H  H119  1  0.853300  0.068500  0.296500  1.0  0.1386
  H  H120  1  0.987800  0.080100  0.276100  1.0  0.1381
  H  H121  1  0.897000  0.089300  0.364700  1.0  0.1452
  H  H122  1  0.798400  0.784200  0.599600  1.0  0.1563
  H  H123  1  0.861200  0.791800  0.662600  1.0  0.1594
  H  H124  1  0.743000  0.862000  0.651600  1.0  0.1424
  C  C125  1  0.582600  0.321900  0.803300  1.0  0.7767
  C  C126  1  0.537800  0.397800  0.850600  1.0  -0.4275
  C  C127  1  0.239500  0.462000  0.595000  1.0  0.7476
  C  C128  1  0.174700  0.502700  0.533900  1.0  -0.3668
  C  C129  1  0.687200  0.328200  0.527400  1.0  0.7342
  C  C130  1  0.759400  0.315800  0.439400  1.0  -0.4201
  C  C131  1  0.523500  0.563200  0.645800  1.0  0.7446
  C  C132  1  0.555100  0.624700  0.679100  1.0  -0.4483
  C  C133  1  0.207800  0.178100  0.696700  1.0  0.7771
  C  C134  1  0.286200  0.102200  0.649400  1.0  -0.429
  C  C135  1  0.796500  0.038000  0.905000  1.0  0.7477
  C  C136  1  0.711300  0.997300  0.966100  1.0  -0.3693
  C  C137  1  0.042800  0.171800  0.972600  1.0  0.7368
  C  C138  1  0.014600  0.184200  0.060600  1.0  -0.4183
  C  C139  1  0.232500  0.936800  0.854200  1.0  0.743
  C  C140  1  0.358900  0.875300  0.820900  1.0  -0.4486
  C  C141  1  0.385900  0.196700  0.821900  1.0  0.7796
  C  C142  1  0.388400  0.149400  0.897800  1.0  -0.4309
  C  C143  1  0.834500  0.405000  0.962000  1.0  0.7468
  C  C144  1  0.708600  0.466100  0.002700  1.0  -0.3709
  C  C145  1  0.214600  0.472600  0.828200  1.0  0.732
  C  C146  1  0.198800  0.560600  0.815800  1.0  -0.4195
  C  C147  1  0.169300  0.354200  0.063200  1.0  0.7463
  C  C148  1  0.234200  0.320900  0.124700  1.0  -0.4485
  C  C149  1  0.904500  0.303300  0.678100  1.0  0.7791
  C  C150  1  0.935600  0.350600  0.602200  1.0  -0.4288
  C  C151  1  0.701500  0.095000  0.538000  1.0  0.7476
  C  C152  1  0.677400  0.033900  0.497300  1.0  -0.3673
  C  C153  1  0.015400  0.027400  0.671800  1.0  0.733
  C  C154  1  0.075200  0.939400  0.684200  1.0  -0.4183
  C  C155  1  0.086700  0.145800  0.436800  1.0  0.7451
  C  C156  1  0.179800  0.179100  0.375300  1.0  -0.4477
  C  C157  1  0.417400  0.678100  0.196700  1.0  0.779
  C  C158  1  0.462200  0.602200  0.149400  1.0  -0.4276
  C  C159  1  0.760500  0.538000  0.405000  1.0  0.7453
  C  C160  1  0.825300  0.497300  0.466100  1.0  -0.368
  C  C161  1  0.312800  0.671800  0.472600  1.0  0.7358
  C  C162  1  0.240600  0.684200  0.560600  1.0  -0.4199
  C  C163  1  0.476500  0.436800  0.354200  1.0  0.7452
  C  C164  1  0.444900  0.375300  0.320900  1.0  -0.4488
  C  C165  1  0.792200  0.821900  0.303300  1.0  0.777
  C  C166  1  0.713800  0.897800  0.350600  1.0  -0.4265
  C  C167  1  0.203500  0.962000  0.095000  1.0  0.7463
  C  C168  1  0.288700  0.002700  0.033900  1.0  -0.3694
  C  C169  1  0.957200  0.828200  0.027400  1.0  0.7362
  C  C170  1  0.985400  0.815800  0.939400  1.0  -0.418
  C  C171  1  0.767500  0.063200  0.145800  1.0  0.7432
  C  C172  1  0.641100  0.124700  0.179100  1.0  -0.4465
  C  C173  1  0.614100  0.803300  0.178100  1.0  0.7797
  C  C174  1  0.611600  0.850600  0.102200  1.0  -0.4299
  C  C175  1  0.165500  0.595000  0.038000  1.0  0.7441
  C  C176  1  0.291400  0.533900  0.997300  1.0  -0.3694
  C  C177  1  0.785400  0.527400  0.171800  1.0  0.733
  C  C178  1  0.801200  0.439400  0.184200  1.0  -0.4193
  C  C179  1  0.830700  0.645800  0.936800  1.0  0.7457
  C  C180  1  0.765800  0.679100  0.875300  1.0  -0.449
  C  C181  1  0.095500  0.696700  0.321900  1.0  0.7789
  C  C182  1  0.064400  0.649400  0.397800  1.0  -0.4281
  C  C183  1  0.298500  0.905000  0.462000  1.0  0.7449
  C  C184  1  0.322600  0.966100  0.502700  1.0  -0.3684
  C  C185  1  0.984600  0.972600  0.328200  1.0  0.7321
  C  C186  1  0.924800  0.060600  0.315800  1.0  -0.4188
  C  C187  1  0.913300  0.854200  0.563200  1.0  0.7457
  C  C188  1  0.820200  0.820900  0.624700  1.0  -0.4469
  O  O189  1  0.427600  0.309600  0.648200  1.0  -0.9634
  O  O190  1  0.563700  0.326100  0.735700  1.0  -0.6789
  O  O191  1  0.183900  0.418500  0.643700  1.0  -0.5636
  O  O192  1  0.343300  0.474800  0.594600  1.0  -0.6608
  O  O193  1  0.714600  0.271000  0.574000  1.0  -0.6829
  O  O194  1  0.603200  0.394200  0.551800  1.0  -0.6676
  O  O195  1  0.501700  0.506400  0.691200  1.0  -0.5808
  O  O196  1  0.525400  0.569000  0.574000  1.0  -0.5838
  O  O197  1  0.634700  0.257900  0.831700  1.0  -0.5847
  O  O198  1  0.885400  0.190400  0.851800  1.0  -0.9652
  O  O199  1  0.125500  0.173900  0.764300  1.0  -0.6801
  O  O200  1  0.746100  0.081500  0.856300  1.0  -0.5644
  O  O201  1  0.912700  0.025200  0.905400  1.0  -0.6607
  O  O202  1  0.059600  0.229000  0.926000  1.0  -0.6852
  O  O203  1  0.049200  0.105800  0.948200  1.0  -0.6662
  O  O204  1  0.199300  0.993600  0.808800  1.0  -0.58
  O  O205  1  0.168400  0.931000  0.926000  1.0  -0.5837
  O  O206  1  0.224300  0.242100  0.668300  1.0  -0.5851
  O  O207  1  0.075800  0.351800  0.809600  1.0  -0.9651
  O  O208  1  0.299400  0.264300  0.826100  1.0  -0.6795
  O  O209  1  0.827600  0.356300  0.918500  1.0  -0.5648
  O  O210  1  0.937900  0.405400  0.974800  1.0  -0.6605
  O  O211  1  0.288600  0.426000  0.771000  1.0  -0.6858
  O  O212  1  0.155000  0.448200  0.894200  1.0  -0.667
  O  O213  1  0.192900  0.308800  0.006400  1.0  -0.5818
  O  O214  1  0.099400  0.426000  0.069000  1.0  -0.5829
  O  O215  1  0.466400  0.168300  0.757900  1.0  -0.5871
  O  O216  1  0.737200  0.148200  0.690400  1.0  -0.9631
  O  O217  1  0.889800  0.235700  0.673900  1.0  -0.6798
  O  O218  1  0.602400  0.143700  0.581500  1.0  -0.5642
  O  O219  1  0.818100  0.094600  0.525200  1.0  -0.6604
  O  O220  1  0.985600  0.074000  0.729000  1.0  -0.6832
  O  O221  1  0.997400  0.051800  0.605800  1.0  -0.6655
  O  O222  1  0.008100  0.191200  0.493600  1.0  -0.5802
  O  O223  1  0.094400  0.074000  0.431000  1.0  -0.582
  O  O224  1  0.892600  0.331700  0.742100  1.0  -0.5862
  O  O225  1  0.572400  0.690400  0.351800  1.0  -0.9643
  O  O226  1  0.436300  0.673900  0.264300  1.0  -0.679
  O  O227  1  0.816100  0.581500  0.356300  1.0  -0.5624
  O  O228  1  0.656700  0.525200  0.405400  1.0  -0.6614
  O  O229  1  0.285400  0.729000  0.426000  1.0  -0.683
  O  O230  1  0.396800  0.605800  0.448200  1.0  -0.6663
  O  O231  1  0.498300  0.493600  0.308800  1.0  -0.5796
  O  O232  1  0.474600  0.431000  0.426000  1.0  -0.584
  O  O233  1  0.365300  0.742100  0.168300  1.0  -0.5846
  O  O234  1  0.114600  0.809600  0.148200  1.0  -0.964
  O  O235  1  0.874500  0.826100  0.235700  1.0  -0.68
  O  O236  1  0.253900  0.918500  0.143700  1.0  -0.5641
  O  O237  1  0.087300  0.974800  0.094600  1.0  -0.6605
  O  O238  1  0.940400  0.771000  0.074000  1.0  -0.6848
  O  O239  1  0.950800  0.894200  0.051800  1.0  -0.6667
  O  O240  1  0.800700  0.006400  0.191200  1.0  -0.5793
  O  O241  1  0.831600  0.069000  0.074000  1.0  -0.5832
  O  O242  1  0.775700  0.757900  0.331700  1.0  -0.5851
  O  O243  1  0.924200  0.648200  0.190400  1.0  -0.9619
  O  O244  1  0.700600  0.735700  0.173900  1.0  -0.6797
  O  O245  1  0.172400  0.643700  0.081500  1.0  -0.5636
  O  O246  1  0.062100  0.594600  0.025200  1.0  -0.6609
  O  O247  1  0.711400  0.574000  0.229000  1.0  -0.6848
  O  O248  1  0.845000  0.551800  0.105800  1.0  -0.6668
  O  O249  1  0.807100  0.691200  0.993600  1.0  -0.58
  O  O250  1  0.900600  0.574000  0.931000  1.0  -0.582
  O  O251  1  0.533600  0.831700  0.242100  1.0  -0.5861
  O  O252  1  0.262800  0.851800  0.309600  1.0  -0.9642
  O  O253  1  0.110200  0.764300  0.326100  1.0  -0.6799
  O  O254  1  0.397600  0.856300  0.418500  1.0  -0.5626
  O  O255  1  0.181900  0.905400  0.474800  1.0  -0.6604
  O  O256  1  0.014400  0.926000  0.271000  1.0  -0.6833
  O  O257  1  0.002600  0.948200  0.394200  1.0  -0.6653
  O  O258  1  0.991900  0.808800  0.506400  1.0  -0.5805
  O  O259  1  0.905600  0.926000  0.569000  1.0  -0.584
  O  O260  1  0.107400  0.668300  0.257900  1.0  -0.586
