# generated using pymatgen
data_ZnH10C16N3O4
_symmetry_space_group_name_H-M   'P 1'
_cell_length_a   7.40830000
_cell_length_b   10.89000000
_cell_length_c   13.63200000
_cell_angle_alpha   66.67000000
_cell_angle_beta   78.17000000
_cell_angle_gamma   71.78000000
_symmetry_Int_Tables_number   1
_chemical_formula_structural   ZnH10C16N3O4
_chemical_formula_sum   'Zn2 H20 C32 N6 O8'
_cell_volume   955.06570008
_cell_formula_units_Z   2
loop_
 _symmetry_equiv_pos_site_id
 _symmetry_equiv_pos_as_xyz
  1  'x, y, z'
loop_
 _atom_site_type_symbol
 _atom_site_label
 _atom_site_symmetry_multiplicity
 _atom_site_fract_x
 _atom_site_fract_y
 _atom_site_fract_z
 _atom_site_occupancy
 _atom_site_charge
  Zn  Zn1  1  0.000000  0.500000  0.000000  1.0  0.7836
  Zn  Zn2  1  0.500000  0.000000  0.000000  1.0  0.9073
  H  H3  1  0.954100  0.293800  0.231300  1.0  0.0965
  H  H4  1  0.991800  0.678700  0.124500  1.0  0.0976
  H  H5  1  0.952600  0.273900  0.407000  1.0  0.1309
  H  H6  1  0.999500  0.669600  0.295900  1.0  0.1368
  H  H7  1  0.977800  0.366900  0.538300  1.0  0.1055
  H  H8  1  0.395700  0.723600  0.135500  1.0  0.0842
  H  H9  1  0.603500  0.955000  0.220400  1.0  0.0977
  H  H10  1  0.401200  0.559500  0.307500  1.0  0.1281
  H  H11  1  0.599000  0.804000  0.397100  1.0  0.1261
  H  H12  1  0.521400  0.597100  0.537000  1.0  0.1104
  H  H13  1  0.045900  0.706200  0.768700  1.0  0.0965
  H  H14  1  0.008200  0.321300  0.875500  1.0  0.0974
  H  H15  1  0.047400  0.726100  0.593000  1.0  0.1319
  H  H16  1  0.000500  0.330400  0.704100  1.0  0.1374
  H  H17  1  0.022200  0.633100  0.461700  1.0  0.1063
  H  H18  1  0.604300  0.276400  0.864500  1.0  0.0841
  H  H19  1  0.396500  0.045000  0.779600  1.0  0.097
  H  H20  1  0.598800  0.440500  0.692500  1.0  0.1282
  H  H21  1  0.401000  0.196000  0.602900  1.0  0.1259
  H  H22  1  0.478600  0.402900  0.463000  1.0  0.1124
  C  C23  1  0.659300  0.727600  0.952870  1.0  0.6616
  C  C24  1  0.613900  0.370900  0.043850  1.0  0.0736
  C  C25  1  0.576400  0.607100  0.973370  1.0  0.0722
  C  C26  1  0.963600  0.370600  0.244800  1.0  0.1735
  C  C27  1  0.986600  0.594900  0.183000  1.0  0.1847
  C  C28  1  0.746700  0.228200  0.093900  1.0  0.6431
  C  C29  1  0.964300  0.357800  0.350200  1.0  -0.1694
  C  C30  1  0.990800  0.590700  0.285100  1.0  -0.1946
  C  C31  1  0.982100  0.467400  0.373300  1.0  0.113
  C  C32  1  0.989400  0.452600  0.484000  1.0  -0.1051
  C  C33  1  0.440900  0.738400  0.189200  1.0  0.1862
  C  C34  1  0.560000  0.874700  0.238700  1.0  0.1606
  C  C35  1  0.441600  0.640400  0.292100  1.0  -0.1897
  C  C36  1  0.560000  0.783700  0.344200  1.0  -0.1629
  C  C37  1  0.502600  0.662000  0.373200  1.0  0.0984
  C  C38  1  0.507200  0.565600  0.483900  1.0  -0.1407
  C  C39  1  0.340700  0.272400  0.047130  1.0  0.6613
  C  C40  1  0.386100  0.629100  0.956150  1.0  0.0734
  C  C41  1  0.423600  0.392900  0.026630  1.0  0.0754
  C  C42  1  0.036400  0.629400  0.755200  1.0  0.1731
  C  C43  1  0.013400  0.405100  0.817000  1.0  0.1846
  C  C44  1  0.253300  0.771800  0.906100  1.0  0.6438
  C  C45  1  0.035700  0.642200  0.649800  1.0  -0.1667
  C  C46  1  0.009200  0.409300  0.714900  1.0  -0.1959
  C  C47  1  0.017900  0.532600  0.626700  1.0  0.115
  C  C48  1  0.010600  0.547400  0.516000  1.0  -0.1034
  C  C49  1  0.559100  0.261600  0.810800  1.0  0.1861
  C  C50  1  0.440000  0.125300  0.761300  1.0  0.1592
  C  C51  1  0.558400  0.359600  0.707900  1.0  -0.1896
  C  C52  1  0.440000  0.216300  0.655800  1.0  -0.1645
  C  C53  1  0.497400  0.338000  0.626800  1.0  0.0963
  C  C54  1  0.492800  0.434400  0.516100  1.0  -0.1426
  N  N55  1  0.689100  0.479200  0.015870  1.0  -0.4031
  N  N56  1  0.975600  0.486600  0.161610  1.0  -0.3205
  N  N57  1  0.500900  0.853600  0.161280  1.0  -0.3275
  N  N58  1  0.310900  0.520800  0.984130  1.0  -0.4063
  N  N59  1  0.024400  0.513400  0.838390  1.0  -0.318
  N  N60  1  0.499100  0.146400  0.838720  1.0  -0.3298
  O  O61  1  0.835100  0.701630  0.958280  1.0  -0.5645
  O  O62  1  0.540200  0.842330  0.937360  1.0  -0.6106
  O  O63  1  0.859600  0.181400  0.026860  1.0  -0.5746
  O  O64  1  0.736000  0.176400  0.193540  1.0  -0.5654
  O  O65  1  0.164900  0.298370  0.041720  1.0  -0.5659
  O  O66  1  0.459800  0.157670  0.062640  1.0  -0.608
  O  O67  1  0.140400  0.818600  0.973140  1.0  -0.5727
  O  O68  1  0.264000  0.823600  0.806460  1.0  -0.565
