# generated using pymatgen
data_Ga6P7H3(O15F)2
_symmetry_space_group_name_H-M   'P 1'
_cell_length_a   10.28300000
_cell_length_b   12.09600000
_cell_length_c   16.91100000
_cell_angle_alpha   76.07000000
_cell_angle_beta   72.38000000
_cell_angle_gamma   65.20000000
_symmetry_Int_Tables_number   1
_chemical_formula_structural   Ga6P7H3(O15F)2
_chemical_formula_sum   'Ga12 P14 H6 O60 F4'
_cell_volume   1804.07471342
_cell_formula_units_Z   2
loop_
 _symmetry_equiv_pos_site_id
 _symmetry_equiv_pos_as_xyz
  1  'x, y, z'
loop_
 _atom_site_type_symbol
 _atom_site_label
 _atom_site_symmetry_multiplicity
 _atom_site_fract_x
 _atom_site_fract_y
 _atom_site_fract_z
 _atom_site_occupancy
 _atom_site_charge
  Ga  Ga1  1  0.273350  0.498100  0.761320  1.0  1.6287
  Ga  Ga2  1  0.534270  0.000870  0.744720  1.0  1.6855
  Ga  Ga3  1  0.857250  0.593520  0.898930  1.0  1.6781
  Ga  Ga4  1  0.345260  0.907750  0.603750  1.0  1.6607
  Ga  Ga5  1  0.850720  0.739770  0.696070  1.0  1.5745
  Ga  Ga6  1  0.287060  0.759350  0.806080  1.0  1.6377
  Ga  Ga7  1  0.726650  0.501900  0.238680  1.0  1.6323
  Ga  Ga8  1  0.465730  0.999130  0.255280  1.0  1.6813
  Ga  Ga9  1  0.142750  0.406480  0.101070  1.0  1.6767
  Ga  Ga10  1  0.654740  0.092250  0.396250  1.0  1.6633
  Ga  Ga11  1  0.149280  0.260230  0.303930  1.0  1.5725
  Ga  Ga12  1  0.712940  0.240650  0.193920  1.0  1.6373
  P  P13  1  0.115100  0.599350  0.936390  1.0  1.9003
  P  P14  1  0.001000  0.458610  0.737430  1.0  1.8489
  P  P15  1  0.197000  0.041840  0.765370  1.0  1.9169
  P  P16  1  0.650600  0.908970  0.566520  1.0  1.8525
  P  P17  1  0.571800  0.751240  0.845280  1.0  1.8615
  P  P18  1  0.170100  0.744040  0.656910  1.0  1.8442
  P  P19  1  0.560200  0.255540  0.734450  1.0  1.7663
  P  P20  1  0.884900  0.400650  0.063610  1.0  1.8982
  P  P21  1  0.999000  0.541390  0.262570  1.0  1.8501
  P  P22  1  0.803000  0.958160  0.234630  1.0  1.9193
  P  P23  1  0.349400  0.091030  0.433480  1.0  1.8503
  P  P24  1  0.428200  0.248760  0.154720  1.0  1.8642
  P  P25  1  0.829900  0.255960  0.343090  1.0  1.8441
  P  P26  1  0.439800  0.744460  0.265550  1.0  1.765
  H  H27  1  0.014500  0.289100  0.739700  1.0  0.4597
  H  H28  1  0.938300  0.757000  0.811800  1.0  0.3492
  H  H29  1  0.516600  0.757000  0.697900  1.0  0.2614
  H  H30  1  0.985500  0.710900  0.260300  1.0  0.4572
  H  H31  1  0.061700  0.243000  0.188200  1.0  0.3504
  H  H32  1  0.483400  0.243000  0.302100  1.0  0.2612
  O  O33  1  0.668700  0.712700  0.759900  1.0  -0.7692
  O  O34  1  0.142700  0.784900  0.741200  1.0  -0.7953
  O  O35  1  0.159100  0.709200  0.904000  1.0  -0.7721
  O  O36  1  0.520700  0.891900  0.841600  1.0  -0.8136
  O  O37  1  0.255300  0.602900  0.661000  1.0  -0.7631
  O  O38  1  0.544600  0.868000  0.542800  1.0  -0.7771
  O  O39  1  0.260400  0.807800  0.586900  1.0  -0.7309
  O  O40  1  0.944900  0.643000  0.962000  1.0  -0.7398
  O  O41  1  0.770400  0.795800  0.598600  1.0  -0.7749
  O  O42  1  0.197800  0.927500  0.826800  1.0  -0.7156
  O  O43  1  0.322400  0.081000  0.762100  1.0  -0.7688
  O  O44  1  0.722300  0.974600  0.489200  1.0  -0.7627
  O  O45  1  0.950100  0.569700  0.674200  1.0  -0.73
  O  O46  1  0.158300  0.515700  0.869500  1.0  -0.86
  O  O47  1  0.439600  0.712500  0.867200  1.0  -0.7269
  O  O48  1  0.179400  0.528400  0.011600  1.0  -0.7831
  O  O49  1  0.023500  0.780700  0.633600  1.0  -0.7232
  O  O50  1  0.552600  0.130700  0.773200  1.0  -0.8046
  O  O51  1  0.204900  0.025800  0.675500  1.0  -0.7577
  O  O52  1  0.423600  0.351100  0.781700  1.0  -0.8931
  O  O53  1  0.162300  0.417500  0.739300  1.0  -0.7622
  O  O54  1  0.553300  0.996300  0.633100  1.0  -0.8738
  O  O55  1  0.984900  0.353000  0.708500  1.0  -0.6065
  O  O56  1  0.902500  0.475700  0.826600  1.0  -0.7812
  O  O57  1  0.911700  0.700300  0.801200  1.0  -0.9882
  O  O58  1  0.412600  0.800100  0.700700  1.0  -0.9389
  O  O59  1  0.655000  0.687500  0.915500  1.0  -0.7254
  O  O60  1  0.698500  0.257800  0.748900  1.0  -0.5199
  O  O61  1  0.053300  0.146300  0.794700  1.0  -0.7234
  O  O62  1  0.564300  0.280500  0.641100  1.0  -0.5757
  O  O63  1  0.331300  0.287300  0.240100  1.0  -0.7698
  O  O64  1  0.857300  0.215100  0.258800  1.0  -0.7954
  O  O65  1  0.840900  0.290800  0.096000  1.0  -0.7721
  O  O66  1  0.479300  0.108100  0.158400  1.0  -0.8081
  O  O67  1  0.744700  0.397100  0.339000  1.0  -0.7641
  O  O68  1  0.455400  0.132000  0.457200  1.0  -0.778
  O  O69  1  0.739600  0.192200  0.413100  1.0  -0.7323
  O  O70  1  0.055100  0.357000  0.038000  1.0  -0.7392
  O  O71  1  0.229600  0.204200  0.401400  1.0  -0.7749
  O  O72  1  0.802200  0.072500  0.173200  1.0  -0.7138
  O  O73  1  0.677600  0.919000  0.237900  1.0  -0.7695
  O  O74  1  0.277700  0.025400  0.510800  1.0  -0.7641
  O  O75  1  0.049900  0.430300  0.325800  1.0  -0.7266
  O  O76  1  0.841700  0.484300  0.130500  1.0  -0.8621
  O  O77  1  0.560400  0.287500  0.132800  1.0  -0.7265
  O  O78  1  0.820600  0.471600  0.988400  1.0  -0.7806
  O  O79  1  0.976500  0.219300  0.366400  1.0  -0.7228
  O  O80  1  0.447400  0.869300  0.226800  1.0  -0.805
  O  O81  1  0.795100  0.974200  0.324500  1.0  -0.7562
  O  O82  1  0.576400  0.648900  0.218300  1.0  -0.8906
  O  O83  1  0.837700  0.582500  0.260700  1.0  -0.7609
  O  O84  1  0.446700  0.003700  0.366900  1.0  -0.8724
  O  O85  1  0.015100  0.647000  0.291500  1.0  -0.6064
  O  O86  1  0.097500  0.524300  0.173400  1.0  -0.7824
  O  O87  1  0.088300  0.299700  0.198800  1.0  -0.988
  O  O88  1  0.587400  0.199900  0.299300  1.0  -0.9353
  O  O89  1  0.345000  0.312500  0.084500  1.0  -0.727
  O  O90  1  0.301500  0.742200  0.251100  1.0  -0.5145
  O  O91  1  0.946700  0.853700  0.205300  1.0  -0.7233
  O  O92  1  0.435700  0.719500  0.358900  1.0  -0.5816
  F  F93  1  0.752700  0.914800  0.721200  1.0  -0.4857
  F  F94  1  0.383100  0.583900  0.781800  1.0  -0.488
  F  F95  1  0.247300  0.085200  0.278800  1.0  -0.489
  F  F96  1  0.616900  0.416100  0.218200  1.0  -0.4868
