# generated using pymatgen
data_Zn2H5C9O8
_symmetry_space_group_name_H-M   'P 1'
_cell_length_a   6.92800000
_cell_length_b   17.56480000
_cell_length_c   17.56480000
_cell_angle_alpha   61.70110000
_cell_angle_beta   82.44510000
_cell_angle_gamma   97.55490000
_symmetry_Int_Tables_number   1
_chemical_formula_structural   Zn2H5C9O8
_chemical_formula_sum   'Zn12 H30 C54 O48'
_cell_volume   1819.08087748
_cell_formula_units_Z   6
loop_
 _symmetry_equiv_pos_site_id
 _symmetry_equiv_pos_as_xyz
  1  'x, y, z'
loop_
 _atom_site_type_symbol
 _atom_site_label
 _atom_site_symmetry_multiplicity
 _atom_site_fract_x
 _atom_site_fract_y
 _atom_site_fract_z
 _atom_site_occupancy
 _atom_site_charge
  Zn  Zn1  1  0.744870  0.009650  0.709100  1.0  1.0961
  Zn  Zn2  1  0.558300  0.126040  0.535540  1.0  1.1061
  Zn  Zn3  1  0.453970  0.709100  0.281250  1.0  1.0966
  Zn  Zn4  1  0.093840  0.535540  0.338420  1.0  1.1056
  Zn  Zn5  1  0.735220  0.281250  0.009650  1.0  1.0951
  Zn  Zn6  1  0.432260  0.338420  0.126040  1.0  1.1075
  Zn  Zn7  1  0.953970  0.718750  0.290900  1.0  1.0954
  Zn  Zn8  1  0.593840  0.661580  0.464460  1.0  1.1076
  Zn  Zn9  1  0.235220  0.990350  0.718750  1.0  1.0964
  Zn  Zn10  1  0.932260  0.873960  0.661580  1.0  1.1059
  Zn  Zn11  1  0.244870  0.290900  0.990350  1.0  1.0959
  Zn  Zn12  1  0.058300  0.464460  0.873960  1.0  1.1066
  H  H13  1  0.504500  0.957500  0.643300  1.0  0.4367
  H  H14  1  0.588400  0.290600  0.409100  1.0  0.417
  H  H15  1  0.583000  0.794500  0.995100  1.0  0.1252
  H  H16  1  0.468800  0.672900  0.855200  1.0  0.1192
  H  H17  1  0.327200  0.534500  0.122400  1.0  0.1098
  H  H18  1  0.147800  0.643300  0.399200  1.0  0.4354
  H  H19  1  0.997500  0.409100  0.300300  1.0  0.4145
  H  H20  1  0.578100  0.995100  0.210400  1.0  0.1257
  H  H21  1  0.324000  0.855200  0.471900  1.0  0.1198
  H  H22  1  0.449600  0.122400  0.343100  1.0  0.1086
  H  H23  1  0.547000  0.399200  0.957500  1.0  0.4366
  H  H24  1  0.297800  0.300300  0.290600  1.0  0.4173
  H  H25  1  0.788500  0.210400  0.794500  1.0  0.1256
  H  H26  1  0.795900  0.471900  0.672900  1.0  0.1193
  H  H27  1  0.792700  0.343100  0.534500  1.0  0.1086
  H  H28  1  0.647800  0.600800  0.356700  1.0  0.4371
  H  H29  1  0.497500  0.699700  0.590900  1.0  0.4135
  H  H30  1  0.078100  0.789600  0.004900  1.0  0.1252
  H  H31  1  0.824000  0.528100  0.144800  1.0  0.1195
  H  H32  1  0.949600  0.656900  0.877600  1.0  0.1101
  H  H33  1  0.047000  0.042500  0.600800  1.0  0.4368
  H  H34  1  0.797800  0.709400  0.699700  1.0  0.4151
  H  H35  1  0.288500  0.205500  0.789600  1.0  0.126
  H  H36  1  0.295900  0.327100  0.528100  1.0  0.1193
  H  H37  1  0.292700  0.465500  0.656900  1.0  0.1079
  H  H38  1  0.004500  0.356700  0.042500  1.0  0.4363
  H  H39  1  0.088400  0.590900  0.709400  1.0  0.4128
  H  H40  1  0.083000  0.004900  0.205500  1.0  0.1255
  H  H41  1  0.968800  0.144800  0.327100  1.0  0.1199
  H  H42  1  0.827200  0.877600  0.465500  1.0  0.1085
  C  C43  1  0.453040  0.664080  0.071560  1.0  -0.1547
  C  C44  1  0.539920  0.746690  0.912430  1.0  -0.1605
  C  C45  1  0.386490  0.590570  0.988300  1.0  -0.1843
  C  C46  1  0.533570  0.743620  0.993510  1.0  0.0371
  C  C47  1  0.465590  0.670410  0.909440  1.0  0.0524
  C  C48  1  0.628810  0.831420  0.826490  1.0  0.6701
  C  C49  1  0.380160  0.587590  0.069710  1.0  0.0487
  C  C50  1  0.298360  0.509470  0.986190  1.0  0.6632
  C  C51  1  0.436730  0.659790  0.159700  1.0  0.6667
  C  C52  1  0.524600  0.071560  0.264360  1.0  -0.1569
  C  C53  1  0.452350  0.912430  0.340880  1.0  -0.1621
  C  C54  1  0.374790  0.988300  0.421130  1.0  -0.183
  C  C55  1  0.527080  0.993510  0.262870  1.0  0.0394
  C  C56  1  0.375030  0.909440  0.420150  1.0  0.0479
  C  C57  1  0.455300  0.826490  0.342090  1.0  0.6693
  C  C58  1  0.449870  0.069710  0.342700  1.0  0.0457
  C  C59  1  0.284550  0.986190  0.504340  1.0  0.6638
  C  C60  1  0.596430  0.159700  0.180510  1.0  0.6654
  C  C61  1  0.788960  0.264360  0.664080  1.0  -0.1572
  C  C62  1  0.793230  0.340880  0.746690  1.0  -0.1625
  C  C63  1  0.795920  0.421130  0.590570  1.0  -0.1826
  C  C64  1  0.789950  0.262870  0.743620  1.0  0.037
  C  C65  1  0.795180  0.420150  0.670410  1.0  0.049
  C  C66  1  0.797390  0.342090  0.831420  1.0  0.6699
  C  C67  1  0.792570  0.342700  0.587590  1.0  0.049
  C  C68  1  0.788890  0.504340  0.509470  1.0  0.6646
  C  C69  1  0.776940  0.180510  0.659790  1.0  0.6664
  C  C70  1  0.024600  0.735640  0.928440  1.0  -0.1565
  C  C71  1  0.952350  0.659120  0.087570  1.0  -0.163
  C  C72  1  0.874790  0.578870  0.011700  1.0  -0.1825
  C  C73  1  0.027080  0.737130  0.006490  1.0  0.0374
  C  C74  1  0.875030  0.579850  0.090560  1.0  0.0504
  C  C75  1  0.955300  0.657910  0.173510  1.0  0.6696
  C  C76  1  0.949870  0.657300  0.930290  1.0  0.0494
  C  C77  1  0.784550  0.495660  0.013810  1.0  0.6652
  C  C78  1  0.096430  0.819490  0.840300  1.0  0.6665
  C  C79  1  0.288960  0.335920  0.735640  1.0  -0.1546
  C  C80  1  0.293230  0.253310  0.659120  1.0  -0.1607
  C  C81  1  0.295920  0.409430  0.578870  1.0  -0.1833
  C  C82  1  0.289950  0.256380  0.737130  1.0  0.0367
  C  C83  1  0.295180  0.329590  0.579850  1.0  0.0532
  C  C84  1  0.297390  0.168580  0.657910  1.0  0.6706
  C  C85  1  0.292570  0.412410  0.657300  1.0  0.0475
  C  C86  1  0.288890  0.490530  0.495660  1.0  0.6632
  C  C87  1  0.276940  0.340210  0.819490  1.0  0.6669
  C  C88  1  0.953040  0.928440  0.335920  1.0  -0.1585
  C  C89  1  0.039920  0.087570  0.253310  1.0  -0.1609
  C  C90  1  0.886490  0.011700  0.409430  1.0  -0.1828
  C  C91  1  0.033570  0.006490  0.256380  1.0  0.0392
  C  C92  1  0.965590  0.090560  0.329590  1.0  0.0476
  C  C93  1  0.128810  0.173510  0.168580  1.0  0.6694
  C  C94  1  0.880160  0.930290  0.412410  1.0  0.0477
  C  C95  1  0.798360  0.013810  0.490530  1.0  0.6641
  C  C96  1  0.936730  0.840300  0.340210  1.0  0.6654
  O  O97  1  0.507070  0.004940  0.657830  1.0  -0.9855
  O  O98  1  0.669810  0.902150  0.829720  1.0  -0.5574
  O  O99  1  0.660690  0.827540  0.756370  1.0  -0.6
  O  O100  1  0.506670  0.730120  0.159710  1.0  -0.5665
  O  O101  1  0.356670  0.587790  0.228880  1.0  -0.6011
  O  O102  1  0.611200  0.244170  0.413070  1.0  -0.6006
  O  O103  1  0.242390  0.436260  0.056590  1.0  -0.5731
  O  O104  1  0.283220  0.521980  0.908820  1.0  -0.5636
  O  O105  1  0.164900  0.657830  0.337230  1.0  -0.9845
  O  O106  1  0.499530  0.829720  0.268130  1.0  -0.556
  O  O107  1  0.417060  0.756370  0.416090  1.0  -0.5987
  O  O108  1  0.666380  0.159710  0.110170  1.0  -0.5728
  O  O109  1  0.585550  0.228880  0.183330  1.0  -0.6007
  O  O110  1  0.024270  0.413070  0.342760  1.0  -0.598
  O  O111  1  0.298980  0.056590  0.507150  1.0  -0.5735
  O  O112  1  0.192040  0.908820  0.569200  1.0  -0.5578
  O  O113  1  0.502130  0.337230  0.004940  1.0  -0.9839
  O  O114  1  0.767660  0.268130  0.902150  1.0  -0.554
  O  O115  1  0.833150  0.416090  0.827540  1.0  -0.5996
  O  O116  1  0.776550  0.110170  0.730120  1.0  -0.568
  O  O117  1  0.768880  0.183330  0.587790  1.0  -0.601
  O  O118  1  0.367030  0.342760  0.244170  1.0  -0.5984
  O  O119  1  0.806130  0.507150  0.436260  1.0  -0.5748
  O  O120  1  0.761240  0.569200  0.521980  1.0  -0.5594
  O  O121  1  0.664900  0.662770  0.342170  1.0  -0.9837
  O  O122  1  0.999530  0.731870  0.170280  1.0  -0.5535
  O  O123  1  0.917060  0.583910  0.243630  1.0  -0.5996
  O  O124  1  0.166380  0.889830  0.840290  1.0  -0.5689
  O  O125  1  0.085550  0.816670  0.771120  1.0  -0.6016
  O  O126  1  0.524270  0.657240  0.586930  1.0  -0.5998
  O  O127  1  0.798980  0.492850  0.943410  1.0  -0.5747
  O  O128  1  0.692040  0.430800  0.091180  1.0  -0.5586
  O  O129  1  0.002130  0.995060  0.662770  1.0  -0.9837
  O  O130  1  0.267660  0.097850  0.731870  1.0  -0.5573
  O  O131  1  0.333150  0.172460  0.583910  1.0  -0.5998
  O  O132  1  0.276550  0.269880  0.889830  1.0  -0.566
  O  O133  1  0.268880  0.412210  0.816670  1.0  -0.6008
  O  O134  1  0.867030  0.755830  0.657240  1.0  -0.5983
  O  O135  1  0.306130  0.563740  0.492850  1.0  -0.5738
  O  O136  1  0.261240  0.478020  0.430800  1.0  -0.5636
  O  O137  1  0.007070  0.342170  0.995060  1.0  -0.9852
  O  O138  1  0.169810  0.170280  0.097850  1.0  -0.5557
  O  O139  1  0.160690  0.243630  0.172460  1.0  -0.5992
  O  O140  1  0.006670  0.840290  0.269880  1.0  -0.5734
  O  O141  1  0.856670  0.771120  0.412210  1.0  -0.6004
  O  O142  1  0.111200  0.586930  0.755830  1.0  -0.5993
  O  O143  1  0.742390  0.943410  0.563740  1.0  -0.573
  O  O144  1  0.783220  0.091180  0.478020  1.0  -0.5586
