# generated using pymatgen
data_CeH4(C4O3)3
_symmetry_space_group_name_H-M   'P 1'
_cell_length_a   10.44500000
_cell_length_b   11.11900000
_cell_length_c   12.43000000
_cell_angle_alpha   103.72600000
_cell_angle_beta   106.48700000
_cell_angle_gamma   98.39500000
_symmetry_Int_Tables_number   1
_chemical_formula_structural   CeH4(C4O3)3
_chemical_formula_sum   'Ce2 H8 C24 O18'
_cell_volume   1308.96705170
_cell_formula_units_Z   2
loop_
 _symmetry_equiv_pos_site_id
 _symmetry_equiv_pos_as_xyz
  1  'x, y, z'
loop_
 _atom_site_type_symbol
 _atom_site_label
 _atom_site_symmetry_multiplicity
 _atom_site_fract_x
 _atom_site_fract_y
 _atom_site_fract_z
 _atom_site_occupancy
 _atom_site_charge
  Ce  Ce1  1  0.094650  0.045010  0.683860  1.0  2.1898
  Ce  Ce2  1  0.905350  0.954990  0.316140  1.0  2.1934
  H  H3  1  0.007300  0.652000  0.668700  1.0  0.1309
  H  H4  1  0.390600  0.058000  0.636500  1.0  0.1031
  H  H5  1  0.926900  0.619600  0.288600  1.0  0.394
  H  H6  1  0.179100  0.434000  0.956400  1.0  0.4251
  H  H7  1  0.992700  0.348000  0.331300  1.0  0.1315
  H  H8  1  0.609400  0.942000  0.363500  1.0  0.1034
  H  H9  1  0.073100  0.380400  0.711400  1.0  0.395
  H  H10  1  0.820900  0.566000  0.043600  1.0  0.4243
  C  C11  1  0.205500  0.960000  0.425200  1.0  0.7678
  C  C12  1  0.944900  0.746300  0.491800  1.0  0.7994
  C  C13  1  0.004200  0.589700  0.600200  1.0  -0.1135
  C  C14  1  0.424200  0.947700  0.380800  1.0  0.3204
  C  C15  1  0.539500  0.397100  0.939100  1.0  0.0614
  C  C16  1  0.362100  0.493800  0.989100  1.0  0.271
  C  C17  1  0.357000  0.981100  0.462500  1.0  -0.196
  C  C18  1  0.967800  0.527000  0.391500  1.0  0.3319
  C  C19  1  0.400100  0.390400  0.928200  1.0  -0.1972
  C  C20  1  0.971600  0.616700  0.493400  1.0  -0.267
  C  C21  1  0.295200  0.271500  0.853400  1.0  0.6942
  C  C22  1  0.435500  0.033900  0.580800  1.0  -0.0839
  C  C23  1  0.794500  0.040000  0.574800  1.0  0.7668
  C  C24  1  0.055100  0.253700  0.508200  1.0  0.7977
  C  C25  1  0.995800  0.410300  0.399800  1.0  -0.1133
  C  C26  1  0.575800  0.052300  0.619200  1.0  0.3224
  C  C27  1  0.460500  0.602900  0.060900  1.0  0.0628
  C  C28  1  0.637900  0.506200  0.010900  1.0  0.2719
  C  C29  1  0.643000  0.018900  0.537500  1.0  -0.1966
  C  C30  1  0.032200  0.473000  0.608500  1.0  0.3361
  C  C31  1  0.599900  0.609600  0.071800  1.0  -0.1984
  C  C32  1  0.028400  0.383300  0.506600  1.0  -0.2631
  C  C33  1  0.704800  0.728500  0.146600  1.0  0.6926
  C  C34  1  0.564500  0.966100  0.419200  1.0  -0.0862
  O  O35  1  0.961200  0.826000  0.587600  1.0  -0.7518
  O  O36  1  0.907700  0.766600  0.392300  1.0  -0.693
  O  O37  1  0.171500  0.260900  0.850900  1.0  -0.642
  O  O38  1  0.332700  0.183700  0.792500  1.0  -0.6938
  O  O39  1  0.145500  0.980500  0.500400  1.0  -0.8147
  O  O40  1  0.137700  0.920700  0.315900  1.0  -0.6642
  O  O41  1  0.356200  0.897100  0.263200  1.0  -0.3971
  O  O42  1  0.937900  0.545300  0.283500  1.0  -0.5054
  O  O43  1  0.233400  0.505900  0.986300  1.0  -0.474
  O  O44  1  0.038800  0.174000  0.412400  1.0  -0.7505
  O  O45  1  0.092300  0.233400  0.607700  1.0  -0.6922
  O  O46  1  0.828500  0.739100  0.149100  1.0  -0.6442
  O  O47  1  0.667300  0.816300  0.207500  1.0  -0.6951
  O  O48  1  0.854500  0.019500  0.499600  1.0  -0.8155
  O  O49  1  0.862300  0.079300  0.684100  1.0  -0.6629
  O  O50  1  0.643800  0.102900  0.736800  1.0  -0.402
  O  O51  1  0.062100  0.454700  0.716500  1.0  -0.5005
  O  O52  1  0.766600  0.494100  0.013700  1.0  -0.4729
