# generated using pymatgen
data_PrH6(C4O3)3
_symmetry_space_group_name_H-M   'P 1'
_cell_length_a   10.40600000
_cell_length_b   11.06200000
_cell_length_c   12.40700000
_cell_angle_alpha   103.58000000
_cell_angle_beta   106.34000000
_cell_angle_gamma   98.73000000
_symmetry_Int_Tables_number   1
_chemical_formula_structural   PrH6(C4O3)3
_chemical_formula_sum   'Pr2 H12 C24 O18'
_cell_volume   1295.34668836
_cell_formula_units_Z   2
loop_
 _symmetry_equiv_pos_site_id
 _symmetry_equiv_pos_as_xyz
  1  'x, y, z'
loop_
 _atom_site_type_symbol
 _atom_site_label
 _atom_site_symmetry_multiplicity
 _atom_site_fract_x
 _atom_site_fract_y
 _atom_site_fract_z
 _atom_site_occupancy
 _atom_site_charge
  Pr  Pr1  1  0.094150  0.544260  0.682660  1.0  2.1287
  Pr  Pr2  1  0.905850  0.455740  0.317340  1.0  2.1287
  H  H3  1  0.274100  0.394300  0.249600  1.0  0.4171
  H  H4  1  0.075600  0.881800  0.710700  1.0  0.3919
  H  H5  1  0.000900  0.147600  0.666300  1.0  0.1316
  H  H6  1  0.565500  0.826300  0.899300  1.0  0.1322
  H  H7  1  0.389300  0.557600  0.634700  1.0  0.104
  H  H8  1  0.176600  0.939600  0.946800  1.0  0.4144
  H  H9  1  0.725900  0.605700  0.750400  1.0  0.417
  H  H10  1  0.924400  0.118200  0.289300  1.0  0.3923
  H  H11  1  0.999100  0.852400  0.333700  1.0  0.1317
  H  H12  1  0.434500  0.173700  0.100700  1.0  0.1313
  H  H13  1  0.610700  0.442400  0.365300  1.0  0.1043
  H  H14  1  0.823400  0.060400  0.053200  1.0  0.4142
  C  C15  1  0.000800  0.088100  0.599400  1.0  -0.128
  C  C16  1  0.294200  0.771200  0.852700  1.0  0.7
  C  C17  1  0.357700  0.481500  0.462000  1.0  -0.256
  C  C18  1  0.055700  0.753400  0.508700  1.0  0.7892
  C  C19  1  0.539800  0.895600  0.939400  1.0  -0.1131
  C  C20  1  0.204900  0.460300  0.425700  1.0  0.7891
  C  C21  1  0.400300  0.890300  0.928700  1.0  -0.2425
  C  C22  1  0.434000  0.534100  0.580700  1.0  -0.1195
  C  C23  1  0.029800  0.972300  0.607500  1.0  0.3374
  C  C24  1  0.361800  0.994000  0.989100  1.0  0.3025
  C  C25  1  0.424700  0.448200  0.380900  1.0  0.327
  C  C26  1  0.028800  0.881900  0.506600  1.0  -0.269
  C  C27  1  0.999200  0.911900  0.400600  1.0  -0.1267
  C  C28  1  0.705800  0.228800  0.147300  1.0  0.7002
  C  C29  1  0.642300  0.518500  0.538000  1.0  -0.2558
  C  C30  1  0.944300  0.246600  0.491300  1.0  0.789
  C  C31  1  0.460200  0.104400  0.060600  1.0  -0.1124
  C  C32  1  0.795100  0.539700  0.574300  1.0  0.7872
  C  C33  1  0.599700  0.109700  0.071300  1.0  -0.2396
  C  C34  1  0.566000  0.465900  0.419300  1.0  -0.1181
  C  C35  1  0.970200  0.027700  0.392500  1.0  0.3377
  C  C36  1  0.638200  0.006000  0.010900  1.0  0.3046
  C  C37  1  0.575300  0.551800  0.619100  1.0  0.3271
  C  C38  1  0.971200  0.118100  0.493400  1.0  -0.2689
  O  O39  1  0.170700  0.759100  0.850500  1.0  -0.6775
  O  O40  1  0.356600  0.397500  0.263000  1.0  -0.5031
  O  O41  1  0.057800  0.952100  0.715100  1.0  -0.5073
  O  O42  1  0.136400  0.422600  0.316100  1.0  -0.6668
  O  O43  1  0.144800  0.480600  0.500700  1.0  -0.8295
  O  O44  1  0.093000  0.733100  0.607900  1.0  -0.6769
  O  O45  1  0.330700  0.682200  0.791400  1.0  -0.7064
  O  O46  1  0.039900  0.673200  0.411700  1.0  -0.7527
  O  O47  1  0.232500  0.007400  0.985400  1.0  -0.5166
  O  O48  1  0.829300  0.240900  0.149500  1.0  -0.678
  O  O49  1  0.643400  0.602500  0.737000  1.0  -0.5059
  O  O50  1  0.942200  0.047900  0.284900  1.0  -0.5076
  O  O51  1  0.863600  0.577400  0.683900  1.0  -0.667
  O  O52  1  0.855200  0.519400  0.499300  1.0  -0.8296
  O  O53  1  0.907000  0.266900  0.392100  1.0  -0.6771
  O  O54  1  0.669300  0.317800  0.208600  1.0  -0.7059
  O  O55  1  0.960100  0.326800  0.588300  1.0  -0.7566
  O  O56  1  0.767500  0.992600  0.014600  1.0  -0.5164
