# generated using pymatgen
data_ZnH18C22(N2O3)2
_symmetry_space_group_name_H-M   'P 1'
_cell_length_a   19.96100000
_cell_length_b   6.08100000
_cell_length_c   21.69300000
_cell_angle_alpha   90.00000000
_cell_angle_beta   92.69400000
_cell_angle_gamma   90.00000000
_symmetry_Int_Tables_number   1
_chemical_formula_structural   ZnH18C22(N2O3)2
_chemical_formula_sum   'Zn4 H72 C88 N16 O24'
_cell_volume   2630.24781010
_cell_formula_units_Z   4
loop_
 _symmetry_equiv_pos_site_id
 _symmetry_equiv_pos_as_xyz
  1  'x, y, z'
loop_
 _atom_site_type_symbol
 _atom_site_label
 _atom_site_symmetry_multiplicity
 _atom_site_fract_x
 _atom_site_fract_y
 _atom_site_fract_z
 _atom_site_occupancy
 _atom_site_charge
  Zn  Zn1  1  0.250000  0.121380  0.500000  1.0  0.8768
  Zn  Zn2  1  0.750000  0.621380  0.000000  1.0  0.8768
  Zn  Zn3  1  0.750000  0.878620  0.500000  1.0  0.8767
  Zn  Zn4  1  0.250000  0.378620  0.000000  1.0  0.8767
  H  H5  1  0.156800  0.063700  0.387900  1.0  0.091
  H  H6  1  0.140400  0.833000  0.305000  1.0  0.1459
  H  H7  1  0.293000  0.465600  0.373700  1.0  0.1221
  H  H8  1  0.306000  0.710800  0.453200  1.0  0.0817
  H  H9  1  0.121500  0.604200  0.241800  1.0  0.123
  H  H10  1  0.125400  0.351500  0.228200  1.0  0.1452
  H  H11  1  0.167800  0.517300  0.190700  1.0  0.1419
  H  H12  1  0.096500  0.616900  0.455600  1.0  0.1168
  H  H13  1  0.963500  0.934900  0.428600  1.0  0.4117
  H  H14  1  0.656800  0.563700  0.887900  1.0  0.091
  H  H15  1  0.640400  0.333000  0.805000  1.0  0.1459
  H  H16  1  0.793000  0.965600  0.873700  1.0  0.1221
  H  H17  1  0.806000  0.210800  0.953200  1.0  0.0817
  H  H18  1  0.621500  0.104200  0.741800  1.0  0.123
  H  H19  1  0.625400  0.851500  0.728200  1.0  0.1452
  H  H20  1  0.667800  0.017300  0.690700  1.0  0.1419
  H  H21  1  0.596500  0.116900  0.955600  1.0  0.1168
  H  H22  1  0.463500  0.434900  0.928600  1.0  0.4117
  H  H23  1  0.343200  0.063700  0.612100  1.0  0.0901
  H  H24  1  0.359600  0.833000  0.695000  1.0  0.1455
  H  H25  1  0.207000  0.465600  0.626300  1.0  0.1215
  H  H26  1  0.194000  0.710800  0.546800  1.0  0.0812
  H  H27  1  0.378500  0.604200  0.758200  1.0  0.1225
  H  H28  1  0.374600  0.351500  0.771800  1.0  0.1455
  H  H29  1  0.332200  0.517300  0.809300  1.0  0.1418
  H  H30  1  0.403500  0.616900  0.544400  1.0  0.117
  H  H31  1  0.536500  0.934900  0.571400  1.0  0.4086
  H  H32  1  0.843200  0.563700  0.112100  1.0  0.0901
  H  H33  1  0.859600  0.333000  0.195000  1.0  0.1455
  H  H34  1  0.707000  0.965600  0.126300  1.0  0.1215
  H  H35  1  0.694000  0.210800  0.046800  1.0  0.0812
  H  H36  1  0.878500  0.104200  0.258200  1.0  0.1225
  H  H37  1  0.874600  0.851500  0.271800  1.0  0.1455
  H  H38  1  0.832200  0.017300  0.309300  1.0  0.1418
  H  H39  1  0.903500  0.116900  0.044400  1.0  0.117
  H  H40  1  0.036500  0.434900  0.071400  1.0  0.4086
  H  H41  1  0.843200  0.936300  0.612100  1.0  0.0907
  H  H42  1  0.859600  0.167000  0.695000  1.0  0.1449
  H  H43  1  0.707000  0.534400  0.626300  1.0  0.1213
  H  H44  1  0.694000  0.289200  0.546800  1.0  0.0813
  H  H45  1  0.878500  0.395800  0.758200  1.0  0.1225
  H  H46  1  0.874600  0.648500  0.771800  1.0  0.1452
  H  H47  1  0.832200  0.482700  0.809300  1.0  0.1417
  H  H48  1  0.903500  0.383100  0.544400  1.0  0.1169
  H  H49  1  0.036500  0.065100  0.571400  1.0  0.4091
  H  H50  1  0.343200  0.436300  0.112100  1.0  0.0907
  H  H51  1  0.359600  0.667000  0.195000  1.0  0.1449
  H  H52  1  0.207000  0.034400  0.126300  1.0  0.1213
  H  H53  1  0.194000  0.789200  0.046800  1.0  0.0813
  H  H54  1  0.378500  0.895800  0.258200  1.0  0.1225
  H  H55  1  0.374600  0.148500  0.271800  1.0  0.1452
  H  H56  1  0.332200  0.982700  0.309300  1.0  0.1417
  H  H57  1  0.403500  0.883100  0.044400  1.0  0.1169
  H  H58  1  0.536500  0.565100  0.071400  1.0  0.4091
  H  H59  1  0.656800  0.936300  0.387900  1.0  0.0903
  H  H60  1  0.640400  0.167000  0.305000  1.0  0.1449
  H  H61  1  0.793000  0.534400  0.373700  1.0  0.1218
  H  H62  1  0.806000  0.289200  0.453200  1.0  0.0817
  H  H63  1  0.621500  0.395800  0.241800  1.0  0.1228
  H  H64  1  0.625400  0.648500  0.228200  1.0  0.1459
  H  H65  1  0.667800  0.482700  0.190700  1.0  0.1427
  H  H66  1  0.596500  0.383100  0.455600  1.0  0.1169
  H  H67  1  0.463500  0.065100  0.428600  1.0  0.4132
  H  H68  1  0.156800  0.436300  0.887900  1.0  0.0903
  H  H69  1  0.140400  0.667000  0.805000  1.0  0.1449
  H  H70  1  0.293000  0.034400  0.873700  1.0  0.1218
  H  H71  1  0.306000  0.789200  0.953200  1.0  0.0817
  H  H72  1  0.121500  0.895800  0.741800  1.0  0.1228
  H  H73  1  0.125400  0.148500  0.728200  1.0  0.1459
  H  H74  1  0.167800  0.982700  0.690700  1.0  0.1427
  H  H75  1  0.096500  0.883100  0.955600  1.0  0.1169
  H  H76  1  0.963500  0.565100  0.928600  1.0  0.4132
  C  C77  1  0.184900  0.942700  0.384500  1.0  0.1834
  C  C78  1  0.174300  0.803400  0.334700  1.0  -0.1862
  C  C79  1  0.214200  0.620300  0.329490  1.0  -0.0145
  C  C80  1  0.264800  0.586900  0.375400  1.0  -0.1093
  C  C81  1  0.272300  0.734800  0.422850  1.0  0.1883
  C  C82  1  0.206600  0.464800  0.276900  1.0  0.2589
  C  C83  1  0.150400  0.486300  0.230300  1.0  -0.3663
  C  C84  1  0.121950  0.248400  0.515200  1.0  0.6922
  C  C85  1  0.058980  0.377500  0.507850  1.0  -0.2635
  C  C86  1  0.057610  0.569300  0.473400  1.0  -0.1151
  C  C87  1  0.999300  0.691800  0.465100  1.0  0.2668
  C  C88  1  0.684900  0.442700  0.884500  1.0  0.1834
  C  C89  1  0.674300  0.303400  0.834700  1.0  -0.1862
  C  C90  1  0.714200  0.120300  0.829490  1.0  -0.0145
  C  C91  1  0.764800  0.086900  0.875400  1.0  -0.1093
  C  C92  1  0.772300  0.234800  0.922850  1.0  0.1883
  C  C93  1  0.706600  0.964800  0.776900  1.0  0.2589
  C  C94  1  0.650400  0.986300  0.730300  1.0  -0.3663
  C  C95  1  0.621950  0.748400  0.015200  1.0  0.6922
  C  C96  1  0.558980  0.877500  0.007850  1.0  -0.2635
  C  C97  1  0.557610  0.069300  0.973400  1.0  -0.1151
  C  C98  1  0.499300  0.191800  0.965100  1.0  0.2668
  C  C99  1  0.315100  0.942700  0.615500  1.0  0.1816
  C  C100  1  0.325700  0.803400  0.665300  1.0  -0.1848
  C  C101  1  0.285800  0.620300  0.670510  1.0  -0.015
  C  C102  1  0.235200  0.586900  0.624600  1.0  -0.1082
  C  C103  1  0.227700  0.734800  0.577150  1.0  0.1889
  C  C104  1  0.293400  0.464800  0.723100  1.0  0.26
  C  C105  1  0.349600  0.486300  0.769700  1.0  -0.3671
  C  C106  1  0.378050  0.248400  0.484800  1.0  0.6916
  C  C107  1  0.441020  0.377500  0.492150  1.0  -0.2647
  C  C108  1  0.442390  0.569300  0.526600  1.0  -0.1156
  C  C109  1  0.500700  0.691800  0.534900  1.0  0.2672
  C  C110  1  0.815100  0.442700  0.115500  1.0  0.1816
  C  C111  1  0.825700  0.303400  0.165300  1.0  -0.1848
  C  C112  1  0.785800  0.120300  0.170510  1.0  -0.015
  C  C113  1  0.735200  0.086900  0.124600  1.0  -0.1082
  C  C114  1  0.727700  0.234800  0.077150  1.0  0.1889
  C  C115  1  0.793400  0.964800  0.223100  1.0  0.26
  C  C116  1  0.849600  0.986300  0.269700  1.0  -0.3671
  C  C117  1  0.878050  0.748400  0.984800  1.0  0.6916
  C  C118  1  0.941020  0.877500  0.992150  1.0  -0.2647
  C  C119  1  0.942390  0.069300  0.026600  1.0  -0.1156
  C  C120  1  0.000700  0.191800  0.034900  1.0  0.2672
  C  C121  1  0.815100  0.057300  0.615500  1.0  0.1818
  C  C122  1  0.825700  0.196600  0.665300  1.0  -0.1845
  C  C123  1  0.785800  0.379700  0.670510  1.0  -0.0148
  C  C124  1  0.735200  0.413100  0.624600  1.0  -0.1078
  C  C125  1  0.727700  0.265200  0.577150  1.0  0.1889
  C  C126  1  0.793400  0.535200  0.723100  1.0  0.2603
  C  C127  1  0.849600  0.513700  0.769700  1.0  -0.3672
  C  C128  1  0.878050  0.751600  0.484800  1.0  0.6918
  C  C129  1  0.941020  0.622500  0.492150  1.0  -0.2645
  C  C130  1  0.942390  0.430700  0.526600  1.0  -0.1152
  C  C131  1  0.000700  0.308200  0.534900  1.0  0.2669
  C  C132  1  0.315100  0.557300  0.115500  1.0  0.1818
  C  C133  1  0.325700  0.696600  0.165300  1.0  -0.1845
  C  C134  1  0.285800  0.879700  0.170510  1.0  -0.0148
  C  C135  1  0.235200  0.913100  0.124600  1.0  -0.1078
  C  C136  1  0.227700  0.765200  0.077150  1.0  0.1889
  C  C137  1  0.293400  0.035200  0.223100  1.0  0.2603
  C  C138  1  0.349600  0.013700  0.269700  1.0  -0.3672
  C  C139  1  0.378050  0.251600  0.984800  1.0  0.6918
  C  C140  1  0.441020  0.122500  0.992150  1.0  -0.2645
  C  C141  1  0.442390  0.930700  0.026600  1.0  -0.1152
  C  C142  1  0.500700  0.808200  0.034900  1.0  0.2669
  C  C143  1  0.684900  0.057300  0.384500  1.0  0.1833
  C  C144  1  0.674300  0.196600  0.334700  1.0  -0.1861
  C  C145  1  0.714200  0.379700  0.329490  1.0  -0.0139
  C  C146  1  0.764800  0.413100  0.375400  1.0  -0.1089
  C  C147  1  0.772300  0.265200  0.422850  1.0  0.1883
  C  C148  1  0.706600  0.535200  0.276900  1.0  0.2594
  C  C149  1  0.650400  0.513700  0.230300  1.0  -0.3664
  C  C150  1  0.621950  0.751600  0.515200  1.0  0.6922
  C  C151  1  0.558980  0.622500  0.507850  1.0  -0.263
  C  C152  1  0.557610  0.430700  0.473400  1.0  -0.1147
  C  C153  1  0.499300  0.308200  0.465100  1.0  0.2668
  C  C154  1  0.184900  0.557300  0.884500  1.0  0.1833
  C  C155  1  0.174300  0.696600  0.834700  1.0  -0.1861
  C  C156  1  0.214200  0.879700  0.829490  1.0  -0.0139
  C  C157  1  0.264800  0.913100  0.875400  1.0  -0.1089
  C  C158  1  0.272300  0.765200  0.922850  1.0  0.1883
  C  C159  1  0.206600  0.035200  0.776900  1.0  0.2594
  C  C160  1  0.150400  0.013700  0.730300  1.0  -0.3664
  C  C161  1  0.121950  0.251600  0.015200  1.0  0.6922
  C  C162  1  0.058980  0.122500  0.007850  1.0  -0.263
  C  C163  1  0.057610  0.930700  0.973400  1.0  -0.1147
  C  C164  1  0.999300  0.808200  0.965100  1.0  0.2668
  N  N165  1  0.233230  0.912000  0.427500  1.0  -0.3279
  N  N166  1  0.253700  0.322900  0.275100  1.0  -0.3176
  N  N167  1  0.733230  0.412000  0.927500  1.0  -0.3279
  N  N168  1  0.753700  0.822900  0.775100  1.0  -0.3176
  N  N169  1  0.266770  0.912000  0.572500  1.0  -0.3278
  N  N170  1  0.246300  0.322900  0.724900  1.0  -0.3178
  N  N171  1  0.766770  0.412000  0.072500  1.0  -0.3278
  N  N172  1  0.746300  0.822900  0.224900  1.0  -0.3178
  N  N173  1  0.766770  0.088000  0.572500  1.0  -0.3288
  N  N174  1  0.746300  0.677100  0.724900  1.0  -0.3176
  N  N175  1  0.266770  0.588000  0.072500  1.0  -0.3288
  N  N176  1  0.246300  0.177100  0.224900  1.0  -0.3176
  N  N177  1  0.733230  0.088000  0.427500  1.0  -0.328
  N  N178  1  0.753700  0.677100  0.275100  1.0  -0.3176
  N  N179  1  0.233230  0.588000  0.927500  1.0  -0.328
  N  N180  1  0.253700  0.177100  0.775100  1.0  -0.3176
  O  O181  1  0.173420  0.319500  0.490490  1.0  -0.588
  O  O182  1  0.122010  0.074300  0.544500  1.0  -0.6154
  O  O183  1  0.000700  0.877400  0.430100  1.0  -0.5029
  O  O184  1  0.673420  0.819500  0.990490  1.0  -0.588
  O  O185  1  0.622010  0.574300  0.044500  1.0  -0.6154
  O  O186  1  0.500700  0.377400  0.930100  1.0  -0.5029
  O  O187  1  0.326580  0.319500  0.509510  1.0  -0.5871
  O  O188  1  0.377990  0.074300  0.455500  1.0  -0.6152
  O  O189  1  0.499300  0.877400  0.569900  1.0  -0.5013
  O  O190  1  0.826580  0.819500  0.009510  1.0  -0.5871
  O  O191  1  0.877990  0.574300  0.955500  1.0  -0.6152
  O  O192  1  0.999300  0.377400  0.069900  1.0  -0.5013
  O  O193  1  0.826580  0.680500  0.509510  1.0  -0.5869
  O  O194  1  0.877990  0.925700  0.455500  1.0  -0.6145
  O  O195  1  0.999300  0.122600  0.569900  1.0  -0.5011
  O  O196  1  0.326580  0.180500  0.009510  1.0  -0.5869
  O  O197  1  0.377990  0.425700  0.955500  1.0  -0.6145
  O  O198  1  0.499300  0.622600  0.069900  1.0  -0.5011
  O  O199  1  0.673420  0.680500  0.490490  1.0  -0.5882
  O  O200  1  0.622010  0.925700  0.544500  1.0  -0.6152
  O  O201  1  0.500700  0.122600  0.430100  1.0  -0.5027
  O  O202  1  0.173420  0.180500  0.990490  1.0  -0.5882
  O  O203  1  0.122010  0.425700  0.044500  1.0  -0.6152
  O  O204  1  0.000700  0.622600  0.930100  1.0  -0.5027
