# generated using pymatgen
data_Ag2H36(C13S2)3
_symmetry_space_group_name_H-M   'P 1'
_cell_length_a   17.35000000
_cell_length_b   17.35000000
_cell_length_c   17.35000000
_cell_angle_alpha   90.00000000
_cell_angle_beta   90.00000000
_cell_angle_gamma   90.00000000
_symmetry_Int_Tables_number   1
_chemical_formula_structural   Ag2H36(C13S2)3
_chemical_formula_sum   'Ag8 H144 C156 S24'
_cell_volume   5222.74037500
_cell_formula_units_Z   4
loop_
 _symmetry_equiv_pos_site_id
 _symmetry_equiv_pos_as_xyz
  1  'x, y, z'
loop_
 _atom_site_type_symbol
 _atom_site_label
 _atom_site_symmetry_multiplicity
 _atom_site_fract_x
 _atom_site_fract_y
 _atom_site_fract_z
 _atom_site_occupancy
 _atom_site_charge
  Ag  Ag1  1  0.773580  0.226420  0.726420  1.0  0.0478
  Ag  Ag2  1  0.726420  0.773580  0.226420  1.0  0.0479
  Ag  Ag3  1  0.226420  0.726420  0.773580  1.0  0.0491
  Ag  Ag4  1  0.273580  0.273580  0.273580  1.0  0.0477
  Ag  Ag5  1  0.476420  0.523580  0.023580  1.0  0.0484
  Ag  Ag6  1  0.023580  0.476420  0.523580  1.0  0.0484
  Ag  Ag7  1  0.976420  0.976420  0.976420  1.0  0.0485
  Ag  Ag8  1  0.523580  0.023580  0.476420  1.0  0.0472
  H  H9  1  0.714600  0.036400  0.739200  1.0  0.0879
  H  H10  1  0.706800  0.946600  0.838000  1.0  0.09
  H  H11  1  0.619400  0.964200  0.937600  1.0  0.0854
  H  H12  1  0.539900  0.071700  0.938600  1.0  0.0806
  H  H13  1  0.547700  0.161500  0.839800  1.0  0.0957
  H  H14  1  0.671700  0.090400  0.616200  1.0  0.1844
  H  H15  1  0.785400  0.963600  0.239200  1.0  0.0875
  H  H16  1  0.793200  0.053400  0.338000  1.0  0.0904
  H  H17  1  0.880600  0.035800  0.437600  1.0  0.0852
  H  H18  1  0.960100  0.928300  0.438600  1.0  0.0811
  H  H19  1  0.952300  0.838500  0.339800  1.0  0.0958
  H  H20  1  0.828300  0.909600  0.116200  1.0  0.1856
  H  H21  1  0.285400  0.536400  0.760800  1.0  0.0875
  H  H22  1  0.293200  0.446600  0.662000  1.0  0.0899
  H  H23  1  0.380600  0.464200  0.562400  1.0  0.0841
  H  H24  1  0.460100  0.571700  0.561400  1.0  0.081
  H  H25  1  0.452300  0.661500  0.660200  1.0  0.0958
  H  H26  1  0.328300  0.590400  0.883800  1.0  0.1848
  H  H27  1  0.214600  0.463600  0.260800  1.0  0.0878
  H  H28  1  0.206800  0.553400  0.162000  1.0  0.0899
  H  H29  1  0.119400  0.535800  0.062400  1.0  0.0842
  H  H30  1  0.039900  0.428300  0.061400  1.0  0.0808
  H  H31  1  0.047700  0.338500  0.160200  1.0  0.0954
  H  H32  1  0.171700  0.409600  0.383800  1.0  0.1834
  H  H33  1  0.739200  0.714600  0.036400  1.0  0.088
  H  H34  1  0.838000  0.706800  0.946600  1.0  0.0907
  H  H35  1  0.937600  0.619400  0.964200  1.0  0.0841
  H  H36  1  0.938600  0.539900  0.071700  1.0  0.0815
  H  H37  1  0.839800  0.547700  0.161500  1.0  0.0941
  H  H38  1  0.616200  0.671700  0.090400  1.0  0.1839
  H  H39  1  0.239200  0.785400  0.963600  1.0  0.0882
  H  H40  1  0.338000  0.793200  0.053400  1.0  0.0912
  H  H41  1  0.437600  0.880600  0.035800  1.0  0.0848
  H  H42  1  0.438600  0.960100  0.928300  1.0  0.0811
  H  H43  1  0.339800  0.952300  0.838500  1.0  0.0943
  H  H44  1  0.116200  0.828300  0.909600  1.0  0.1853
  H  H45  1  0.760800  0.285400  0.536400  1.0  0.0886
  H  H46  1  0.662000  0.293200  0.446600  1.0  0.0909
  H  H47  1  0.562400  0.380600  0.464200  1.0  0.084
  H  H48  1  0.561400  0.460100  0.571700  1.0  0.081
  H  H49  1  0.660200  0.452300  0.661500  1.0  0.0943
  H  H50  1  0.883800  0.328300  0.590400  1.0  0.1849
  H  H51  1  0.260800  0.214600  0.463600  1.0  0.0885
  H  H52  1  0.162000  0.206800  0.553400  1.0  0.0909
  H  H53  1  0.062400  0.119400  0.535800  1.0  0.0845
  H  H54  1  0.061400  0.039900  0.428300  1.0  0.0805
  H  H55  1  0.160200  0.047700  0.338500  1.0  0.0945
  H  H56  1  0.383800  0.171700  0.409600  1.0  0.1829
  H  H57  1  0.036400  0.739200  0.714600  1.0  0.0885
  H  H58  1  0.946600  0.838000  0.706800  1.0  0.0899
  H  H59  1  0.964200  0.937600  0.619400  1.0  0.0842
  H  H60  1  0.071700  0.938600  0.539900  1.0  0.0821
  H  H61  1  0.161500  0.839800  0.547700  1.0  0.094
  H  H62  1  0.090400  0.616200  0.671700  1.0  0.1847
  H  H63  1  0.963600  0.239200  0.785400  1.0  0.0879
  H  H64  1  0.053400  0.338000  0.793200  1.0  0.0895
  H  H65  1  0.035800  0.437600  0.880600  1.0  0.0842
  H  H66  1  0.928300  0.438600  0.960100  1.0  0.0817
  H  H67  1  0.838500  0.339800  0.952300  1.0  0.0932
  H  H68  1  0.909600  0.116200  0.828300  1.0  0.1841
  H  H69  1  0.536400  0.760800  0.285400  1.0  0.0879
  H  H70  1  0.446600  0.662000  0.293200  1.0  0.0899
  H  H71  1  0.464200  0.562400  0.380600  1.0  0.0835
  H  H72  1  0.571700  0.561400  0.460100  1.0  0.0819
  H  H73  1  0.661500  0.660200  0.452300  1.0  0.0934
  H  H74  1  0.590400  0.883800  0.328300  1.0  0.1846
  H  H75  1  0.463600  0.260800  0.214600  1.0  0.088
  H  H76  1  0.553400  0.162000  0.206800  1.0  0.0895
  H  H77  1  0.535800  0.062400  0.119400  1.0  0.0842
  H  H78  1  0.428300  0.061400  0.039900  1.0  0.0815
  H  H79  1  0.338500  0.160200  0.047700  1.0  0.0933
  H  H80  1  0.409600  0.383800  0.171700  1.0  0.1841
  H  H81  1  0.286400  0.464600  0.010800  1.0  0.0871
  H  H82  1  0.196600  0.456800  0.912000  1.0  0.09
  H  H83  1  0.214200  0.369400  0.812400  1.0  0.0845
  H  H84  1  0.321700  0.289900  0.811400  1.0  0.0809
  H  H85  1  0.411500  0.297700  0.910200  1.0  0.0945
  H  H86  1  0.340400  0.421700  0.133800  1.0  0.1832
  H  H87  1  0.213600  0.535400  0.510800  1.0  0.0876
  H  H88  1  0.303400  0.543200  0.412000  1.0  0.0897
  H  H89  1  0.285800  0.630600  0.312400  1.0  0.0844
  H  H90  1  0.178300  0.710100  0.311400  1.0  0.0807
  H  H91  1  0.088500  0.702300  0.410200  1.0  0.0943
  H  H92  1  0.159600  0.578300  0.633800  1.0  0.1846
  H  H93  1  0.786400  0.035400  0.989200  1.0  0.0872
  H  H94  1  0.696600  0.043200  0.088000  1.0  0.0894
  H  H95  1  0.714200  0.130600  0.187600  1.0  0.0851
  H  H96  1  0.821700  0.210100  0.188600  1.0  0.0803
  H  H97  1  0.911500  0.202300  0.089800  1.0  0.0944
  H  H98  1  0.840400  0.078300  0.866200  1.0  0.1846
  H  H99  1  0.713600  0.964600  0.489200  1.0  0.0873
  H  H100  1  0.803400  0.956800  0.588000  1.0  0.0896
  H  H101  1  0.785800  0.869400  0.687600  1.0  0.0854
  H  H102  1  0.678300  0.789900  0.688600  1.0  0.0807
  H  H103  1  0.588500  0.797700  0.589800  1.0  0.0941
  H  H104  1  0.659600  0.921700  0.366200  1.0  0.1831
  H  H105  1  0.964600  0.489200  0.713600  1.0  0.0884
  H  H106  1  0.956800  0.588000  0.803400  1.0  0.0908
  H  H107  1  0.869400  0.687600  0.785800  1.0  0.085
  H  H108  1  0.789900  0.688600  0.678300  1.0  0.0811
  H  H109  1  0.797700  0.589800  0.588500  1.0  0.0947
  H  H110  1  0.921700  0.366200  0.659600  1.0  0.1838
  H  H111  1  0.035400  0.989200  0.786400  1.0  0.0877
  H  H112  1  0.043200  0.088000  0.696600  1.0  0.0907
  H  H113  1  0.130600  0.187600  0.714200  1.0  0.0844
  H  H114  1  0.210100  0.188600  0.821700  1.0  0.0813
  H  H115  1  0.202300  0.089800  0.911500  1.0  0.0946
  H  H116  1  0.078300  0.866200  0.840400  1.0  0.1846
  H  H117  1  0.535400  0.510800  0.213600  1.0  0.0882
  H  H118  1  0.543200  0.412000  0.303400  1.0  0.0909
  H  H119  1  0.630600  0.312400  0.285800  1.0  0.0848
  H  H120  1  0.710100  0.311400  0.178300  1.0  0.0812
  H  H121  1  0.702300  0.410200  0.088500  1.0  0.095
  H  H122  1  0.578300  0.633800  0.159600  1.0  0.1841
  H  H123  1  0.464600  0.010800  0.286400  1.0  0.0881
  H  H124  1  0.456800  0.912000  0.196600  1.0  0.0903
  H  H125  1  0.369400  0.812400  0.214200  1.0  0.084
  H  H126  1  0.289900  0.811400  0.321700  1.0  0.0812
  H  H127  1  0.297700  0.910200  0.411500  1.0  0.0945
  H  H128  1  0.421700  0.133800  0.340400  1.0  0.1837
  H  H129  1  0.989200  0.786400  0.035400  1.0  0.088
  H  H130  1  0.088000  0.696600  0.043200  1.0  0.0902
  H  H131  1  0.187600  0.714200  0.130600  1.0  0.0838
  H  H132  1  0.188600  0.821700  0.210100  1.0  0.082
  H  H133  1  0.089800  0.911500  0.202300  1.0  0.0938
  H  H134  1  0.866200  0.840400  0.078300  1.0  0.1855
  H  H135  1  0.489200  0.713600  0.964600  1.0  0.0884
  H  H136  1  0.588000  0.803400  0.956800  1.0  0.0901
  H  H137  1  0.687600  0.785800  0.869400  1.0  0.0837
  H  H138  1  0.688600  0.678300  0.789900  1.0  0.082
  H  H139  1  0.589800  0.588500  0.797700  1.0  0.0937
  H  H140  1  0.366200  0.659600  0.921700  1.0  0.1848
  H  H141  1  0.010800  0.286400  0.464600  1.0  0.0892
  H  H142  1  0.912000  0.196600  0.456800  1.0  0.0905
  H  H143  1  0.812400  0.214200  0.369400  1.0  0.0833
  H  H144  1  0.811400  0.321700  0.289900  1.0  0.0818
  H  H145  1  0.910200  0.411500  0.297700  1.0  0.0946
  H  H146  1  0.133800  0.340400  0.421700  1.0  0.1854
  H  H147  1  0.510800  0.213600  0.535400  1.0  0.0884
  H  H148  1  0.412000  0.303400  0.543200  1.0  0.0903
  H  H149  1  0.312400  0.285800  0.630600  1.0  0.0838
  H  H150  1  0.311400  0.178300  0.710100  1.0  0.0819
  H  H151  1  0.410200  0.088500  0.702300  1.0  0.094
  H  H152  1  0.633800  0.159600  0.578300  1.0  0.185
  C  C153  1  0.632000  0.107900  0.779800  1.0  -0.0911
  C  C154  1  0.679600  0.043500  0.779200  1.0  -0.0678
  C  C155  1  0.674900  0.989700  0.838300  1.0  -0.0777
  C  C156  1  0.622600  0.000200  0.898100  1.0  -0.0781
  C  C157  1  0.574900  0.064600  0.898600  1.0  -0.1368
  C  C158  1  0.579600  0.118500  0.839500  1.0  -0.0888
  C  C159  1  0.868000  0.892100  0.279800  1.0  -0.0893
  C  C160  1  0.820400  0.956500  0.279200  1.0  -0.0681
  C  C161  1  0.825100  0.010300  0.338300  1.0  -0.0788
  C  C162  1  0.877400  0.999800  0.398100  1.0  -0.0772
  C  C163  1  0.925100  0.935400  0.398600  1.0  -0.1367
  C  C164  1  0.920400  0.881500  0.339500  1.0  -0.0894
  C  C165  1  0.368000  0.607900  0.720200  1.0  -0.0884
  C  C166  1  0.320400  0.543500  0.720800  1.0  -0.0675
  C  C167  1  0.325100  0.489700  0.661700  1.0  -0.0786
  C  C168  1  0.377400  0.500200  0.601900  1.0  -0.079
  C  C169  1  0.425100  0.564600  0.601400  1.0  -0.136
  C  C170  1  0.420400  0.618500  0.660500  1.0  -0.0884
  C  C171  1  0.132000  0.392100  0.220200  1.0  -0.0892
  C  C172  1  0.179600  0.456500  0.220800  1.0  -0.0675
  C  C173  1  0.174900  0.510300  0.161700  1.0  -0.0779
  C  C174  1  0.122600  0.499800  0.101900  1.0  -0.0784
  C  C175  1  0.074900  0.435400  0.101400  1.0  -0.1361
  C  C176  1  0.079600  0.381500  0.160500  1.0  -0.089
  C  C177  1  0.779800  0.632000  0.107900  1.0  -0.0891
  C  C178  1  0.779200  0.679600  0.043500  1.0  -0.0689
  C  C179  1  0.838300  0.674900  0.989700  1.0  -0.0788
  C  C180  1  0.898100  0.622600  0.000200  1.0  -0.0822
  C  C181  1  0.898600  0.574900  0.064600  1.0  -0.1374
  C  C182  1  0.839500  0.579600  0.118500  1.0  -0.0868
  C  C183  1  0.279800  0.868000  0.892100  1.0  -0.0922
  C  C184  1  0.279200  0.820400  0.956500  1.0  -0.0686
  C  C185  1  0.338300  0.825100  0.010300  1.0  -0.0777
  C  C186  1  0.398100  0.877400  0.999800  1.0  -0.0813
  C  C187  1  0.398600  0.925100  0.935400  1.0  -0.1377
  C  C188  1  0.339500  0.920400  0.881500  1.0  -0.087
  C  C189  1  0.720200  0.368000  0.607900  1.0  -0.0886
  C  C190  1  0.720800  0.320400  0.543500  1.0  -0.0689
  C  C191  1  0.661700  0.325100  0.489700  1.0  -0.0796
  C  C192  1  0.601900  0.377400  0.500200  1.0  -0.0818
  C  C193  1  0.601400  0.425100  0.564600  1.0  -0.1376
  C  C194  1  0.660500  0.420400  0.618500  1.0  -0.0871
  C  C195  1  0.220200  0.132000  0.392100  1.0  -0.091
  C  C196  1  0.220800  0.179600  0.456500  1.0  -0.0694
  C  C197  1  0.161700  0.174900  0.510300  1.0  -0.0771
  C  C198  1  0.101900  0.122600  0.499800  1.0  -0.0807
  C  C199  1  0.101400  0.074900  0.435400  1.0  -0.1371
  C  C200  1  0.160500  0.079600  0.381500  1.0  -0.0853
  C  C201  1  0.107900  0.779800  0.632000  1.0  -0.0901
  C  C202  1  0.043500  0.779200  0.679600  1.0  -0.0691
  C  C203  1  0.989700  0.838300  0.674900  1.0  -0.0807
  C  C204  1  0.000200  0.898100  0.622600  1.0  -0.0807
  C  C205  1  0.064600  0.898600  0.574900  1.0  -0.138
  C  C206  1  0.118500  0.839500  0.579600  1.0  -0.0895
  C  C207  1  0.892100  0.279800  0.868000  1.0  -0.0911
  C  C208  1  0.956500  0.279200  0.820400  1.0  -0.0688
  C  C209  1  0.010300  0.338300  0.825100  1.0  -0.081
  C  C210  1  0.999800  0.398100  0.877400  1.0  -0.0819
  C  C211  1  0.935400  0.398600  0.925100  1.0  -0.1377
  C  C212  1  0.881500  0.339500  0.920400  1.0  -0.0907
  C  C213  1  0.607900  0.720200  0.368000  1.0  -0.0909
  C  C214  1  0.543500  0.720800  0.320400  1.0  -0.0685
  C  C215  1  0.489700  0.661700  0.325100  1.0  -0.0816
  C  C216  1  0.500200  0.601900  0.377400  1.0  -0.0806
  C  C217  1  0.564600  0.601400  0.425100  1.0  -0.139
  C  C218  1  0.618500  0.660500  0.420400  1.0  -0.0883
  C  C219  1  0.392100  0.220200  0.132000  1.0  -0.091
  C  C220  1  0.456500  0.220800  0.179600  1.0  -0.0682
  C  C221  1  0.510300  0.161700  0.174900  1.0  -0.0799
  C  C222  1  0.499800  0.101900  0.122600  1.0  -0.0812
  C  C223  1  0.435400  0.101400  0.074900  1.0  -0.1376
  C  C224  1  0.381500  0.160500  0.079600  1.0  -0.092
  C  C225  1  0.357900  0.382000  0.970200  1.0  -0.0898
  C  C226  1  0.293500  0.429600  0.970800  1.0  -0.0674
  C  C227  1  0.239700  0.424900  0.911700  1.0  -0.081
  C  C228  1  0.250200  0.372600  0.851900  1.0  -0.0813
  C  C229  1  0.314600  0.324900  0.851400  1.0  -0.1363
  C  C230  1  0.368500  0.329600  0.910500  1.0  -0.086
  C  C231  1  0.142100  0.618000  0.470200  1.0  -0.0906
  C  C232  1  0.206500  0.570400  0.470800  1.0  -0.0672
  C  C233  1  0.260300  0.575100  0.411700  1.0  -0.0808
  C  C234  1  0.249800  0.627400  0.351900  1.0  -0.0822
  C  C235  1  0.185400  0.675100  0.351400  1.0  -0.1363
  C  C236  1  0.131500  0.670400  0.410500  1.0  -0.0892
  C  C237  1  0.857900  0.118000  0.029800  1.0  -0.0909
  C  C238  1  0.793500  0.070400  0.029200  1.0  -0.0678
  C  C239  1  0.739700  0.075100  0.088300  1.0  -0.0816
  C  C240  1  0.750200  0.127400  0.148100  1.0  -0.0805
  C  C241  1  0.814600  0.175100  0.148600  1.0  -0.1375
  C  C242  1  0.868500  0.170400  0.089500  1.0  -0.0869
  C  C243  1  0.642100  0.882000  0.529800  1.0  -0.092
  C  C244  1  0.706500  0.929600  0.529200  1.0  -0.0677
  C  C245  1  0.760300  0.924900  0.588300  1.0  -0.0803
  C  C246  1  0.749800  0.872600  0.648100  1.0  -0.0816
  C  C247  1  0.685400  0.824900  0.648600  1.0  -0.137
  C  C248  1  0.631500  0.829600  0.589500  1.0  -0.088
  C  C249  1  0.882000  0.529800  0.642100  1.0  -0.0926
  C  C250  1  0.929600  0.529200  0.706500  1.0  -0.0688
  C  C251  1  0.924900  0.588300  0.760300  1.0  -0.0769
  C  C252  1  0.872600  0.648100  0.749800  1.0  -0.078
  C  C253  1  0.824900  0.648600  0.685400  1.0  -0.1391
  C  C254  1  0.829600  0.589500  0.631500  1.0  -0.0878
  C  C255  1  0.118000  0.029800  0.857900  1.0  -0.0896
  C  C256  1  0.070400  0.029200  0.793500  1.0  -0.0687
  C  C257  1  0.075100  0.088300  0.739700  1.0  -0.079
  C  C258  1  0.127400  0.148100  0.750200  1.0  -0.079
  C  C259  1  0.175100  0.148600  0.814600  1.0  -0.1395
  C  C260  1  0.170400  0.089500  0.868500  1.0  -0.0882
  C  C261  1  0.618000  0.470200  0.142100  1.0  -0.0932
  C  C262  1  0.570400  0.470800  0.206500  1.0  -0.0685
  C  C263  1  0.575100  0.411700  0.260300  1.0  -0.0776
  C  C264  1  0.627400  0.351900  0.249800  1.0  -0.078
  C  C265  1  0.675100  0.351400  0.185400  1.0  -0.1392
  C  C266  1  0.670400  0.410500  0.131500  1.0  -0.0886
  C  C267  1  0.382000  0.970200  0.357900  1.0  -0.0906
  C  C268  1  0.429600  0.970800  0.293500  1.0  -0.0682
  C  C269  1  0.424900  0.911700  0.239700  1.0  -0.0779
  C  C270  1  0.372600  0.851900  0.250200  1.0  -0.0791
  C  C271  1  0.324900  0.851400  0.314600  1.0  -0.1395
  C  C272  1  0.329600  0.910500  0.368500  1.0  -0.0892
  C  C273  1  0.029800  0.857900  0.118000  1.0  -0.0883
  C  C274  1  0.029200  0.793500  0.070400  1.0  -0.0689
  C  C275  1  0.088300  0.739700  0.075100  1.0  -0.0785
  C  C276  1  0.148100  0.750200  0.127400  1.0  -0.0818
  C  C277  1  0.148600  0.814600  0.175100  1.0  -0.1365
  C  C278  1  0.089500  0.868500  0.170400  1.0  -0.0897
  C  C279  1  0.529800  0.642100  0.882000  1.0  -0.0892
  C  C280  1  0.529200  0.706500  0.929600  1.0  -0.0692
  C  C281  1  0.588300  0.760300  0.924900  1.0  -0.0781
  C  C282  1  0.648100  0.749800  0.872600  1.0  -0.0804
  C  C283  1  0.648600  0.685400  0.824900  1.0  -0.1362
  C  C284  1  0.589500  0.631500  0.829600  1.0  -0.0915
  C  C285  1  0.970200  0.357900  0.382000  1.0  -0.088
  C  C286  1  0.970800  0.293500  0.429600  1.0  -0.069
  C  C287  1  0.911700  0.239700  0.424900  1.0  -0.0781
  C  C288  1  0.851900  0.250200  0.372600  1.0  -0.0807
  C  C289  1  0.851400  0.314600  0.324900  1.0  -0.1355
  C  C290  1  0.910500  0.368500  0.329600  1.0  -0.0896
  C  C291  1  0.470200  0.142100  0.618000  1.0  -0.0881
  C  C292  1  0.470800  0.206500  0.570400  1.0  -0.0694
  C  C293  1  0.411700  0.260300  0.575100  1.0  -0.0791
  C  C294  1  0.351900  0.249800  0.627400  1.0  -0.0805
  C  C295  1  0.351400  0.185400  0.675100  1.0  -0.1362
  C  C296  1  0.410500  0.131500  0.670400  1.0  -0.0891
  C  C297  1  0.628600  0.125000  0.621400  1.0  -0.1585
  C  C298  1  0.871400  0.875000  0.121400  1.0  -0.1591
  C  C299  1  0.371400  0.625000  0.878600  1.0  -0.1609
  C  C300  1  0.128600  0.375000  0.378600  1.0  -0.1593
  C  C301  1  0.621400  0.628600  0.125000  1.0  -0.1601
  C  C302  1  0.121400  0.871400  0.875000  1.0  -0.1597
  C  C303  1  0.878600  0.371400  0.625000  1.0  -0.1581
  C  C304  1  0.378600  0.128600  0.375000  1.0  -0.1594
  C  C305  1  0.125000  0.621400  0.628600  1.0  -0.161
  C  C306  1  0.875000  0.121400  0.871400  1.0  -0.1591
  C  C307  1  0.625000  0.878600  0.371400  1.0  -0.1604
  C  C308  1  0.375000  0.378600  0.128600  1.0  -0.1611
  S  S309  1  0.635290  0.179920  0.709240  1.0  -0.0089
  S  S310  1  0.864710  0.820080  0.209240  1.0  -0.01
  S  S311  1  0.364710  0.679920  0.790760  1.0  -0.0095
  S  S312  1  0.135290  0.320080  0.290760  1.0  -0.0106
  S  S313  1  0.709240  0.635290  0.179920  1.0  -0.0184
  S  S314  1  0.209240  0.864710  0.820080  1.0  -0.018
  S  S315  1  0.790760  0.364710  0.679920  1.0  -0.018
  S  S316  1  0.290760  0.135290  0.320080  1.0  -0.0169
  S  S317  1  0.179920  0.709240  0.635290  1.0  -0.0156
  S  S318  1  0.820080  0.209240  0.864710  1.0  -0.0171
  S  S319  1  0.679920  0.790760  0.364710  1.0  -0.0166
  S  S320  1  0.320080  0.290760  0.135290  1.0  -0.0182
  S  S321  1  0.429920  0.385290  0.040760  1.0  -0.0159
  S  S322  1  0.070080  0.614710  0.540760  1.0  -0.0173
  S  S323  1  0.929920  0.114710  0.959240  1.0  -0.0151
  S  S324  1  0.570080  0.885290  0.459240  1.0  -0.0164
  S  S325  1  0.885290  0.459240  0.570080  1.0  -0.0164
  S  S326  1  0.114710  0.959240  0.929920  1.0  -0.0165
  S  S327  1  0.614710  0.540760  0.070080  1.0  -0.017
  S  S328  1  0.385290  0.040760  0.429920  1.0  -0.017
  S  S329  1  0.959240  0.929920  0.114710  1.0  -0.0119
  S  S330  1  0.459240  0.570080  0.885290  1.0  -0.0124
  S  S331  1  0.040760  0.429920  0.385290  1.0  -0.011
  S  S332  1  0.540760  0.070080  0.614710  1.0  -0.0123
