# generated using pymatgen
data_Zn4H18C36O13
_symmetry_space_group_name_H-M   'P 1'
_cell_length_a   17.67200000
_cell_length_b   19.85000000
_cell_length_c   20.91500000
_cell_angle_alpha   72.38300000
_cell_angle_beta   70.94700000
_cell_angle_gamma   69.72400000
_symmetry_Int_Tables_number   1
_chemical_formula_structural   Zn4H18C36O13
_chemical_formula_sum   'Zn16 H72 C144 O52'
_cell_volume   6354.75172807
_cell_formula_units_Z   4
loop_
 _symmetry_equiv_pos_site_id
 _symmetry_equiv_pos_as_xyz
  1  'x, y, z'
loop_
 _atom_site_type_symbol
 _atom_site_label
 _atom_site_symmetry_multiplicity
 _atom_site_fract_x
 _atom_site_fract_y
 _atom_site_fract_z
 _atom_site_occupancy
 _atom_site_charge
  Zn  Zn1  1  0.041750  0.724880  0.543520  1.0  1.0934
  Zn  Zn2  1  0.190240  0.578780  0.542100  1.0  1.0483
  Zn  Zn3  1  0.193330  0.706180  0.413560  1.0  1.0555
  Zn  Zn4  1  0.228130  0.724420  0.547350  1.0  1.0815
  Zn  Zn5  1  0.782950  0.146360  0.980690  1.0  1.0255
  Zn  Zn6  1  0.632620  0.287830  0.986010  1.0  1.091
  Zn  Zn7  1  0.606670  0.140840  0.978670  1.0  1.0606
  Zn  Zn8  1  0.632850  0.158230  0.120300  1.0  1.0704
  Zn  Zn9  1  0.958250  0.275120  0.456480  1.0  1.0935
  Zn  Zn10  1  0.809760  0.421220  0.457900  1.0  1.049
  Zn  Zn11  1  0.806670  0.293820  0.586440  1.0  1.0559
  Zn  Zn12  1  0.771870  0.275580  0.452650  1.0  1.0785
  Zn  Zn13  1  0.217050  0.853640  0.019310  1.0  1.0252
  Zn  Zn14  1  0.367380  0.712170  0.013990  1.0  1.0907
  Zn  Zn15  1  0.393330  0.859160  0.021330  1.0  1.0606
  Zn  Zn16  1  0.367150  0.841770  0.879700  1.0  1.071
  H  H17  1  0.309300  0.406500  0.431700  1.0  0.1117
  H  H18  1  0.388600  0.321900  0.361200  1.0  0.1396
  H  H19  1  0.467300  0.300200  0.243500  1.0  0.1236
  H  H20  1  0.469900  0.474700  0.077300  1.0  0.1249
  H  H21  1  0.385400  0.553200  0.148200  1.0  0.1069
  H  H22  1  0.311800  0.576100  0.267300  1.0  0.1156
  H  H23  1  0.764700  0.436100  0.856400  1.0  0.1087
  H  H24  1  0.782700  0.554900  0.779800  1.0  0.0881
  H  H25  1  0.848800  0.620500  0.685800  1.0  0.131
  H  H26  1  0.053700  0.446700  0.682200  1.0  0.1216
  H  H27  1  0.045800  0.325800  0.763200  1.0  0.1392
  H  H28  1  0.962500  0.257000  0.850300  1.0  0.1051
  H  H29  1  0.484700  0.423700  0.855100  1.0  0.0966
  H  H30  1  0.432800  0.543800  0.779200  1.0  0.0989
  H  H31  1  0.354800  0.612300  0.700100  1.0  0.1279
  H  H32  1  0.284500  0.432000  0.709700  1.0  0.1281
  H  H33  1  0.334900  0.316000  0.787500  1.0  0.1369
  H  H34  1  0.417200  0.248100  0.863300  1.0  0.1035
  H  H35  1  0.513500  0.950400  0.080900  1.0  0.122
  H  H36  1  0.454300  0.859500  0.155600  1.0  0.1151
  H  H37  1  0.364500  0.817100  0.270200  1.0  0.1205
  H  H38  1  0.290100  0.929900  0.421800  1.0  0.1227
  H  H39  1  0.371200  0.005500  0.354700  1.0  0.1163
  H  H40  1  0.450200  0.058400  0.236900  1.0  0.1258
  H  H41  1  0.960600  0.962200  0.073200  1.0  0.1217
  H  H42  1  0.038200  0.872200  0.148100  1.0  0.1012
  H  H43  1  0.054700  0.812900  0.269400  1.0  0.122
  H  H44  1  0.851900  0.848000  0.429500  1.0  0.1216
  H  H45  1  0.774900  0.927800  0.357100  1.0  0.1306
  H  H46  1  0.758300  0.990300  0.235400  1.0  0.1249
  H  H47  1  0.703800  0.989900  0.845200  1.0  0.1004
  H  H48  1  0.765700  0.924400  0.757100  1.0  0.1244
  H  H49  1  0.900300  0.857800  0.681500  1.0  0.1177
  H  H50  1  0.114600  0.897600  0.661400  1.0  0.1065
  H  H51  1  0.049100  0.978800  0.738900  1.0  0.1277
  H  H52  1  0.919400  0.037800  0.817700  1.0  0.1208
  H  H53  1  0.690700  0.593500  0.568300  1.0  0.1121
  H  H54  1  0.611400  0.678100  0.638800  1.0  0.1404
  H  H55  1  0.532700  0.699800  0.756500  1.0  0.1233
  H  H56  1  0.530100  0.525300  0.922700  1.0  0.1244
  H  H57  1  0.614600  0.446800  0.851800  1.0  0.1078
  H  H58  1  0.688200  0.423900  0.732700  1.0  0.116
  H  H59  1  0.235300  0.563900  0.143600  1.0  0.1077
  H  H60  1  0.217300  0.445100  0.220200  1.0  0.0881
  H  H61  1  0.151200  0.379500  0.314200  1.0  0.1305
  H  H62  1  0.946300  0.553300  0.317800  1.0  0.121
  H  H63  1  0.954200  0.674200  0.236800  1.0  0.1389
  H  H64  1  0.037500  0.743000  0.149700  1.0  0.1034
  H  H65  1  0.515300  0.576300  0.144900  1.0  0.097
  H  H66  1  0.567200  0.456200  0.220800  1.0  0.0995
  H  H67  1  0.645200  0.387700  0.299900  1.0  0.1274
  H  H68  1  0.715500  0.568000  0.290300  1.0  0.1286
  H  H69  1  0.665100  0.684000  0.212500  1.0  0.137
  H  H70  1  0.582800  0.751900  0.136700  1.0  0.1038
  H  H71  1  0.486500  0.049600  0.919100  1.0  0.1221
  H  H72  1  0.545700  0.140500  0.844400  1.0  0.1153
  H  H73  1  0.635500  0.182900  0.729800  1.0  0.1206
  H  H74  1  0.709900  0.070100  0.578200  1.0  0.1229
  H  H75  1  0.628800  0.994500  0.645300  1.0  0.1158
  H  H76  1  0.549800  0.941600  0.763100  1.0  0.1251
  H  H77  1  0.039400  0.037800  0.926800  1.0  0.1217
  H  H78  1  0.961800  0.127800  0.851900  1.0  0.1011
  H  H79  1  0.945300  0.187100  0.730600  1.0  0.1211
  H  H80  1  0.148100  0.152000  0.570500  1.0  0.1219
  H  H81  1  0.225100  0.072200  0.642900  1.0  0.1303
  H  H82  1  0.241700  0.009700  0.764600  1.0  0.1253
  H  H83  1  0.296200  0.010100  0.154800  1.0  0.1
  H  H84  1  0.234300  0.075600  0.242900  1.0  0.1252
  H  H85  1  0.099700  0.142200  0.318500  1.0  0.1176
  H  H86  1  0.885400  0.102400  0.338600  1.0  0.1068
  H  H87  1  0.950900  0.021200  0.261100  1.0  0.1271
  H  H88  1  0.080600  0.962200  0.182300  1.0  0.1206
  C  C89  1  0.256500  0.555100  0.401900  1.0  0.6247
  C  C90  1  0.306000  0.499100  0.356000  1.0  -0.1091
  C  C91  1  0.327400  0.423800  0.383200  1.0  -0.0336
  C  C92  1  0.374300  0.373100  0.341700  1.0  -0.1338
  C  C93  1  0.400100  0.399800  0.269800  1.0  0.0422
  C  C94  1  0.451200  0.351600  0.225100  1.0  -0.1236
  C  C95  1  0.477900  0.378200  0.155200  1.0  -0.1042
  C  C96  1  0.452000  0.456400  0.125700  1.0  -0.0538
  C  C97  1  0.402700  0.502100  0.167500  1.0  -0.101
  C  C98  1  0.375100  0.476500  0.240400  1.0  0.0439
  C  C99  1  0.328300  0.524700  0.285800  1.0  -0.1357
  C  C100  1  0.534500  0.326000  0.108200  1.0  0.7292
  C  C101  1  0.015100  0.782700  0.403600  1.0  0.7072
  C  C102  1  0.013300  0.584100  0.619100  1.0  0.6982
  C  C103  1  0.257000  0.574200  0.643200  1.0  0.697
  C  C104  1  0.272300  0.807400  0.396700  1.0  0.7057
  C  C105  1  0.058300  0.814900  0.618500  1.0  0.6901
  C  C106  1  0.800400  0.294600  0.911600  1.0  0.6946
  C  C107  1  0.854700  0.339100  0.859300  1.0  -0.1748
  C  C108  1  0.820800  0.414000  0.835100  1.0  -0.1217
  C  C109  1  0.865300  0.458200  0.781300  1.0  0.0048
  C  C110  1  0.837000  0.530900  0.756600  1.0  0.0079
  C  C111  1  0.876400  0.571400  0.704200  1.0  -0.1406
  C  C112  1  0.960100  0.540600  0.675900  1.0  -0.187
  C  C113  1  0.996400  0.467700  0.701300  1.0  -0.0648
  C  C114  1  0.951100  0.424000  0.754100  1.0  0.04
  C  C115  1  0.988400  0.348000  0.780700  1.0  -0.1084
  C  C116  1  0.938600  0.307500  0.832600  1.0  -0.0463
  C  C117  1  0.520200  0.284400  0.909000  1.0  0.763
  C  C118  1  0.463900  0.328800  0.863500  1.0  -0.1617
  C  C119  1  0.456500  0.401700  0.839000  1.0  -0.0885
  C  C120  1  0.410300  0.445800  0.792100  1.0  -0.0052
  C  C121  1  0.403900  0.520800  0.764900  1.0  -0.1368
  C  C122  1  0.357200  0.561700  0.718300  1.0  -0.0618
  C  C123  1  0.311300  0.527800  0.696800  1.0  -0.129
  C  C124  1  0.313700  0.454600  0.724100  1.0  -0.0702
  C  C125  1  0.361000  0.413500  0.774200  1.0  0.0399
  C  C126  1  0.365700  0.338400  0.800400  1.0  -0.1841
  C  C127  1  0.415300  0.298500  0.844500  1.0  -0.0443
  C  C128  1  0.532900  0.068000  0.106000  1.0  0.703
  C  C129  1  0.489200  0.010600  0.154300  1.0  -0.1146
  C  C130  1  0.488500  0.952600  0.128200  1.0  -0.0408
  C  C131  1  0.451800  0.900400  0.171600  1.0  -0.1331
  C  C132  1  0.408700  0.906500  0.242300  1.0  -0.0146
  C  C133  1  0.364400  0.857300  0.285900  1.0  -0.069
  C  C134  1  0.319900  0.866300  0.352700  1.0  -0.1369
  C  C135  1  0.321300  0.923300  0.376500  1.0  -0.0615
  C  C136  1  0.366600  0.969700  0.335700  1.0  -0.0771
  C  C137  1  0.406700  0.967300  0.267500  1.0  0.0101
  C  C138  1  0.449100  0.018400  0.221600  1.0  -0.1227
  C  C139  1  0.796500  0.042400  0.101300  1.0  0.7005
  C  C140  1  0.851700  0.983000  0.148000  1.0  -0.1082
  C  C141  1  0.935600  0.949900  0.121300  1.0  -0.0411
  C  C142  1  0.982500  0.898000  0.166500  1.0  -0.0703
  C  C143  1  0.948100  0.883600  0.239200  1.0  0.001
  C  C144  1  0.997700  0.836600  0.286400  1.0  -0.1024
  C  C145  1  0.962800  0.826000  0.355700  1.0  -0.1309
  C  C146  1  0.876700  0.858700  0.381200  1.0  -0.0501
  C  C147  1  0.831200  0.903300  0.338900  1.0  -0.0707
  C  C148  1  0.865500  0.915600  0.264900  1.0  -0.0349
  C  C149  1  0.815500  0.967400  0.217900  1.0  -0.04
  C  C150  1  0.764300  0.072800  0.884700  1.0  0.7227
  C  C151  1  0.805500  0.024500  0.834900  1.0  -0.1277
  C  C152  1  0.760300  0.986300  0.820700  1.0  -0.0288
  C  C153  1  0.798000  0.943900  0.771500  1.0  -0.1144
  C  C154  1  0.884600  0.929600  0.742500  1.0  0.0291
  C  C155  1  0.929900  0.881300  0.694500  1.0  -0.0669
  C  C156  1  0.014300  0.868500  0.667100  1.0  -0.1155
  C  C157  1  0.056800  0.905100  0.682700  1.0  -0.026
  C  C158  1  0.018000  0.953900  0.729500  1.0  -0.1033
  C  C159  1  0.930900  0.964200  0.761700  1.0  0.0183
  C  C160  1  0.889400  0.013000  0.806800  1.0  -0.1497
  C  C161  1  0.743500  0.444900  0.598100  1.0  0.625
  C  C162  1  0.694000  0.500900  0.644000  1.0  -0.1117
  C  C163  1  0.672600  0.576200  0.616800  1.0  -0.034
  C  C164  1  0.625700  0.626900  0.658300  1.0  -0.1342
  C  C165  1  0.599900  0.600200  0.730200  1.0  0.0433
  C  C166  1  0.548800  0.648400  0.774900  1.0  -0.1218
  C  C167  1  0.522100  0.621800  0.844800  1.0  -0.103
  C  C168  1  0.548000  0.543600  0.874300  1.0  -0.0564
  C  C169  1  0.597300  0.497900  0.832500  1.0  -0.1023
  C  C170  1  0.624900  0.523500  0.759600  1.0  0.044
  C  C171  1  0.671700  0.475300  0.714200  1.0  -0.1334
  C  C172  1  0.465500  0.674000  0.891800  1.0  0.7284
  C  C173  1  0.984900  0.217300  0.596400  1.0  0.7069
  C  C174  1  0.986700  0.415900  0.380900  1.0  0.6972
  C  C175  1  0.743000  0.425800  0.356800  1.0  0.6966
  C  C176  1  0.727700  0.192600  0.603300  1.0  0.7045
  C  C177  1  0.941700  0.185100  0.381500  1.0  0.6905
  C  C178  1  0.199600  0.705400  0.088400  1.0  0.6958
  C  C179  1  0.145300  0.660900  0.140700  1.0  -0.1766
  C  C180  1  0.179200  0.586000  0.164900  1.0  -0.1198
  C  C181  1  0.134700  0.541800  0.218700  1.0  0.0042
  C  C182  1  0.163000  0.469100  0.243400  1.0  0.0079
  C  C183  1  0.123600  0.428600  0.295800  1.0  -0.1409
  C  C184  1  0.039900  0.459400  0.324100  1.0  -0.189
  C  C185  1  0.003600  0.532300  0.298700  1.0  -0.0655
  C  C186  1  0.048900  0.576000  0.245900  1.0  0.0394
  C  C187  1  0.011600  0.652000  0.219300  1.0  -0.1083
  C  C188  1  0.061400  0.692500  0.167400  1.0  -0.0484
  C  C189  1  0.479800  0.715600  0.091000  1.0  0.7627
  C  C190  1  0.536100  0.671200  0.136500  1.0  -0.1601
  C  C191  1  0.543500  0.598300  0.161000  1.0  -0.0886
  C  C192  1  0.589700  0.554200  0.207900  1.0  -0.0042
  C  C193  1  0.596100  0.479200  0.235100  1.0  -0.1372
  C  C194  1  0.642800  0.438300  0.281700  1.0  -0.0586
  C  C195  1  0.688700  0.472200  0.303200  1.0  -0.1299
  C  C196  1  0.686300  0.545400  0.275900  1.0  -0.0701
  C  C197  1  0.639000  0.586500  0.225800  1.0  0.0391
  C  C198  1  0.634300  0.661600  0.199600  1.0  -0.1824
  C  C199  1  0.584700  0.701500  0.155500  1.0  -0.0446
  C  C200  1  0.467100  0.932000  0.894000  1.0  0.704
  C  C201  1  0.510800  0.989400  0.845700  1.0  -0.114
  C  C202  1  0.511500  0.047400  0.871800  1.0  -0.042
  C  C203  1  0.548200  0.099600  0.828400  1.0  -0.1332
  C  C204  1  0.591300  0.093500  0.757700  1.0  -0.0168
  C  C205  1  0.635600  0.142700  0.714100  1.0  -0.0678
  C  C206  1  0.680100  0.133700  0.647300  1.0  -0.1372
  C  C207  1  0.678700  0.076700  0.623500  1.0  -0.0606
  C  C208  1  0.633400  0.030300  0.664300  1.0  -0.0766
  C  C209  1  0.593300  0.032700  0.732500  1.0  0.0094
  C  C210  1  0.550900  0.981600  0.778400  1.0  -0.1216
  C  C211  1  0.203500  0.957600  0.898700  1.0  0.6985
  C  C212  1  0.148300  0.017000  0.852000  1.0  -0.1078
  C  C213  1  0.064400  0.050100  0.878700  1.0  -0.0408
  C  C214  1  0.017500  0.102000  0.833500  1.0  -0.0705
  C  C215  1  0.051900  0.116400  0.760800  1.0  0.0021
  C  C216  1  0.002300  0.163400  0.713600  1.0  -0.1058
  C  C217  1  0.037200  0.174000  0.644300  1.0  -0.1311
  C  C218  1  0.123300  0.141300  0.618800  1.0  -0.0477
  C  C219  1  0.168800  0.096700  0.661100  1.0  -0.0726
  C  C220  1  0.134500  0.084400  0.735100  1.0  -0.0374
  C  C221  1  0.184500  0.032600  0.782100  1.0  -0.0402
  C  C222  1  0.235700  0.927200  0.115300  1.0  0.7229
  C  C223  1  0.194500  0.975500  0.165100  1.0  -0.1289
  C  C224  1  0.239700  0.013700  0.179300  1.0  -0.0272
  C  C225  1  0.202000  0.056100  0.228500  1.0  -0.1134
  C  C226  1  0.115400  0.070400  0.257500  1.0  0.0287
  C  C227  1  0.070100  0.118700  0.305500  1.0  -0.0661
  C  C228  1  0.985700  0.131500  0.332900  1.0  -0.1147
  C  C229  1  0.943200  0.094900  0.317300  1.0  -0.0272
  C  C230  1  0.982000  0.046100  0.270500  1.0  -0.1045
  C  C231  1  0.069100  0.035800  0.238300  1.0  0.0182
  C  C232  1  0.110600  0.987000  0.193200  1.0  -0.1505
  O  O233  1  0.240900  0.525200  0.467500  1.0  -0.6041
  O  O234  1  0.240900  0.620200  0.373800  1.0  -0.5703
  O  O235  1  0.542900  0.258900  0.134500  1.0  -0.6424
  O  O236  1  0.569300  0.352700  0.048100  1.0  -0.573
  O  O237  1  0.984600  0.773900  0.467600  1.0  -0.5793
  O  O238  1  0.095000  0.756900  0.376800  1.0  -0.6392
  O  O239  1  0.980400  0.653700  0.603800  1.0  -0.5797
  O  O240  1  0.086200  0.549200  0.589500  1.0  -0.6087
  O  O241  1  0.252500  0.535100  0.609200  1.0  -0.5749
  O  O242  1  0.239900  0.641700  0.635300  1.0  -0.6047
  O  O243  1  0.242600  0.811800  0.459600  1.0  -0.6568
  O  O244  1  0.266400  0.766900  0.368000  1.0  -0.5636
  O  O245  1  0.008800  0.797100  0.598600  1.0  -0.5744
  O  O246  1  0.134600  0.796400  0.603500  1.0  -0.5825
  O  O247  1  0.727500  0.324800  0.930800  1.0  -0.5684
  O  O248  1  0.838400  0.224500  0.931600  1.0  -0.595
  O  O249  1  0.559700  0.316000  0.922100  1.0  -0.5888
  O  O250  1  0.525800  0.215300  0.930300  1.0  -0.5848
  O  O251  1  0.535500  0.117600  0.128800  1.0  -0.6124
  O  O252  1  0.554500  0.067600  0.041500  1.0  -0.6035
  O  O253  1  0.722700  0.056500  0.123800  1.0  -0.5712
  O  O254  1  0.841300  0.069500  0.042800  1.0  -0.5802
  O  O255  1  0.807600  0.096300  0.905100  1.0  -0.5973
  O  O256  1  0.683800  0.085300  0.908300  1.0  -0.6091
  O  O257  1  0.161200  0.684700  0.513300  1.0  -1.2481
  O  O258  1  0.663800  0.182700  0.016000  1.0  -1.2544
  O  O259  1  0.759100  0.474800  0.532500  1.0  -0.603
  O  O260  1  0.759100  0.379800  0.626200  1.0  -0.5709
  O  O261  1  0.457100  0.741100  0.865500  1.0  -0.6422
  O  O262  1  0.430700  0.647300  0.951900  1.0  -0.5719
  O  O263  1  0.015400  0.226100  0.532400  1.0  -0.5805
  O  O264  1  0.905000  0.243100  0.623200  1.0  -0.6427
  O  O265  1  0.019600  0.346300  0.396200  1.0  -0.5791
  O  O266  1  0.913800  0.450800  0.410500  1.0  -0.6102
  O  O267  1  0.747500  0.464900  0.390800  1.0  -0.5728
  O  O268  1  0.760100  0.358300  0.364700  1.0  -0.6059
  O  O269  1  0.757400  0.188200  0.540400  1.0  -0.6587
  O  O270  1  0.733600  0.233100  0.632000  1.0  -0.5656
  O  O271  1  0.991200  0.202900  0.401400  1.0  -0.5742
  O  O272  1  0.865400  0.203600  0.396500  1.0  -0.5805
  O  O273  1  0.272500  0.675200  0.069200  1.0  -0.5693
  O  O274  1  0.161600  0.775500  0.068400  1.0  -0.5945
  O  O275  1  0.440300  0.684000  0.077900  1.0  -0.5884
  O  O276  1  0.474200  0.784700  0.069700  1.0  -0.5848
  O  O277  1  0.464500  0.882400  0.871200  1.0  -0.6125
  O  O278  1  0.445500  0.932400  0.958500  1.0  -0.6036
  O  O279  1  0.277300  0.943500  0.876200  1.0  -0.5726
  O  O280  1  0.158700  0.930500  0.957200  1.0  -0.58
  O  O281  1  0.192400  0.903700  0.094900  1.0  -0.598
  O  O282  1  0.316200  0.914700  0.091700  1.0  -0.6099
  O  O283  1  0.838800  0.315300  0.486700  1.0  -1.2478
  O  O284  1  0.336200  0.817300  0.984000  1.0  -1.2548
