# generated using pymatgen
data_BaH8C14SO6
_symmetry_space_group_name_H-M   'P 1'
_cell_length_a   14.06520000
_cell_length_b   5.86010000
_cell_length_c   21.26800000
_cell_angle_alpha   90.00000000
_cell_angle_beta   95.21300000
_cell_angle_gamma   90.00000000
_symmetry_Int_Tables_number   1
_chemical_formula_structural   BaH8C14SO6
_chemical_formula_sum   'Ba4 H32 C56 S4 O24'
_cell_volume   1745.73187073
_cell_formula_units_Z   4
loop_
 _symmetry_equiv_pos_site_id
 _symmetry_equiv_pos_as_xyz
  1  'x, y, z'
loop_
 _atom_site_type_symbol
 _atom_site_label
 _atom_site_symmetry_multiplicity
 _atom_site_fract_x
 _atom_site_fract_y
 _atom_site_fract_z
 _atom_site_occupancy
 _atom_site_charge
  Ba  Ba1  1  0.121660  0.232770  0.753970  1.0  1.6374
  Ba  Ba2  1  0.378340  0.732770  0.746030  1.0  1.6371
  Ba  Ba3  1  0.878340  0.767230  0.246030  1.0  1.6358
  Ba  Ba4  1  0.621660  0.267230  0.253970  1.0  1.6355
  H  H5  1  0.900600  0.103100  0.836100  1.0  0.1069
  H  H6  1  0.754600  0.201000  0.870600  1.0  0.1402
  H  H7  1  0.803900  0.482100  0.788400  1.0  0.0973
  H  H8  1  0.657300  0.573000  0.818500  1.0  0.1234
  H  H9  1  0.689000  0.154700  0.089200  1.0  0.1213
  H  H10  1  0.650400  0.229400  0.984000  1.0  0.1257
  H  H11  1  0.565500  0.578300  0.955800  1.0  0.1186
  H  H12  1  0.604000  0.508300  0.063100  1.0  0.1035
  H  H13  1  0.599400  0.603100  0.663900  1.0  0.1077
  H  H14  1  0.745400  0.701000  0.629400  1.0  0.1407
  H  H15  1  0.696100  0.982100  0.711600  1.0  0.0974
  H  H16  1  0.842700  0.073000  0.681500  1.0  0.1228
  H  H17  1  0.811000  0.654700  0.410800  1.0  0.121
  H  H18  1  0.849600  0.729400  0.516000  1.0  0.1245
  H  H19  1  0.934500  0.078300  0.544200  1.0  0.1195
  H  H20  1  0.896000  0.008300  0.436900  1.0  0.1025
  H  H21  1  0.099400  0.896900  0.163900  1.0  0.1073
  H  H22  1  0.245400  0.799000  0.129400  1.0  0.1404
  H  H23  1  0.196100  0.517900  0.211600  1.0  0.0978
  H  H24  1  0.342700  0.427000  0.181500  1.0  0.1226
  H  H25  1  0.311000  0.845300  0.910800  1.0  0.1206
  H  H26  1  0.349600  0.770600  0.016000  1.0  0.1246
  H  H27  1  0.434500  0.421700  0.044200  1.0  0.119
  H  H28  1  0.396000  0.491700  0.936900  1.0  0.1028
  H  H29  1  0.400600  0.396900  0.336100  1.0  0.1073
  H  H30  1  0.254600  0.299000  0.370600  1.0  0.1403
  H  H31  1  0.303900  0.017900  0.288400  1.0  0.0972
  H  H32  1  0.157300  0.927000  0.318500  1.0  0.1233
  H  H33  1  0.189000  0.345300  0.589200  1.0  0.1218
  H  H34  1  0.150400  0.270600  0.484000  1.0  0.1257
  H  H35  1  0.065500  0.921700  0.455800  1.0  0.1188
  H  H36  1  0.104000  0.991700  0.563100  1.0  0.1033
  C  C37  1  0.964000  0.718100  0.789600  1.0  0.7501
  C  C38  1  0.867100  0.781200  0.810100  1.0  -0.1631
  C  C39  1  0.851400  0.996600  0.833800  1.0  -0.0036
  C  C40  1  0.764700  0.057100  0.854000  1.0  -0.0874
  C  C41  1  0.793600  0.626100  0.804800  1.0  -0.0454
  C  C42  1  0.706900  0.678400  0.823000  1.0  -0.0601
  C  C43  1  0.692700  0.893400  0.848600  1.0  -0.2447
  C  C44  1  0.682800  0.765900  0.154900  1.0  0.6724
  C  C45  1  0.652200  0.821900  0.086000  1.0  -0.1606
  C  C46  1  0.664700  0.039100  0.062400  1.0  -0.0197
  C  C47  1  0.641300  0.084000  0.000000  1.0  -0.0705
  C  C48  1  0.604000  0.911100  0.960200  1.0  -0.214
  C  C49  1  0.590000  0.693600  0.982600  1.0  -0.0911
  C  C50  1  0.614000  0.652500  0.046700  1.0  -0.1051
  C  C51  1  0.536000  0.218100  0.710400  1.0  0.7471
  C  C52  1  0.632900  0.281200  0.689900  1.0  -0.1637
  C  C53  1  0.648600  0.496600  0.666200  1.0  -0.0061
  C  C54  1  0.735300  0.557100  0.646000  1.0  -0.0869
  C  C55  1  0.706400  0.126100  0.695200  1.0  -0.0446
  C  C56  1  0.793100  0.178400  0.677000  1.0  -0.0595
  C  C57  1  0.807300  0.393400  0.651400  1.0  -0.2436
  C  C58  1  0.817200  0.265900  0.345100  1.0  0.6743
  C  C59  1  0.847800  0.321900  0.414000  1.0  -0.1592
  C  C60  1  0.835300  0.539100  0.437600  1.0  -0.0211
  C  C61  1  0.858700  0.584000  0.500000  1.0  -0.0721
  C  C62  1  0.896000  0.411100  0.539800  1.0  -0.2127
  C  C63  1  0.910000  0.193600  0.517400  1.0  -0.0919
  C  C64  1  0.886000  0.152500  0.453300  1.0  -0.1046
  C  C65  1  0.036000  0.281900  0.210400  1.0  0.748
  C  C66  1  0.132900  0.218800  0.189900  1.0  -0.1629
  C  C67  1  0.148600  0.003400  0.166200  1.0  -0.0047
  C  C68  1  0.235300  0.942900  0.146000  1.0  -0.0871
  C  C69  1  0.206400  0.373900  0.195200  1.0  -0.043
  C  C70  1  0.293100  0.321600  0.177000  1.0  -0.06
  C  C71  1  0.307300  0.106600  0.151400  1.0  -0.2436
  C  C72  1  0.317200  0.234100  0.845100  1.0  0.6748
  C  C73  1  0.347800  0.178100  0.914000  1.0  -0.1584
  C  C74  1  0.335300  0.960900  0.937600  1.0  -0.0208
  C  C75  1  0.358700  0.916000  0.000000  1.0  -0.0724
  C  C76  1  0.396000  0.088900  0.039800  1.0  -0.2126
  C  C77  1  0.410000  0.306400  0.017400  1.0  -0.0918
  C  C78  1  0.386000  0.347500  0.953300  1.0  -0.1038
  C  C79  1  0.464000  0.781900  0.289600  1.0  0.751
  C  C80  1  0.367100  0.718800  0.310100  1.0  -0.1629
  C  C81  1  0.351400  0.503400  0.333800  1.0  -0.004
  C  C82  1  0.264700  0.442900  0.354000  1.0  -0.0866
  C  C83  1  0.293600  0.873900  0.304800  1.0  -0.0447
  C  C84  1  0.206900  0.821600  0.323000  1.0  -0.0606
  C  C85  1  0.192700  0.606600  0.348600  1.0  -0.2445
  C  C86  1  0.182800  0.734100  0.654900  1.0  0.6727
  C  C87  1  0.152200  0.678100  0.586000  1.0  -0.1605
  C  C88  1  0.164700  0.460900  0.562400  1.0  -0.0203
  C  C89  1  0.141300  0.416000  0.500000  1.0  -0.0707
  C  C90  1  0.104000  0.588900  0.460200  1.0  -0.214
  C  C91  1  0.090000  0.806400  0.482600  1.0  -0.0917
  C  C92  1  0.114000  0.847500  0.546700  1.0  -0.1044
  S  S93  1  0.581640  0.966100  0.878300  1.0  1.1162
  S  S94  1  0.918360  0.466100  0.621700  1.0  1.1158
  S  S95  1  0.418360  0.033900  0.121700  1.0  1.1156
  S  S96  1  0.081640  0.533900  0.378300  1.0  1.1161
  O  O97  1  0.977000  0.511600  0.779000  1.0  -0.6183
  O  O98  1  0.706300  0.937100  0.190300  1.0  -0.7437
  O  O99  1  0.510300  0.804100  0.853700  1.0  -0.6727
  O  O100  1  0.024200  0.876600  0.787000  1.0  -0.6569
  O  O101  1  0.690600  0.564900  0.171500  1.0  -0.6268
  O  O102  1  0.566500  0.206000  0.869900  1.0  -0.5284
  O  O103  1  0.523000  0.011600  0.721000  1.0  -0.6168
  O  O104  1  0.793700  0.437100  0.309700  1.0  -0.7442
  O  O105  1  0.989700  0.304100  0.646300  1.0  -0.6734
  O  O106  1  0.475800  0.376600  0.713000  1.0  -0.6566
  O  O107  1  0.809400  0.064900  0.328500  1.0  -0.6283
  O  O108  1  0.933500  0.706000  0.630100  1.0  -0.5288
  O  O109  1  0.023000  0.488400  0.221000  1.0  -0.6165
  O  O110  1  0.293700  0.062900  0.809700  1.0  -0.7447
  O  O111  1  0.489700  0.195900  0.146300  1.0  -0.6736
  O  O112  1  0.975800  0.123400  0.213000  1.0  -0.6572
  O  O113  1  0.309400  0.435100  0.828500  1.0  -0.6281
  O  O114  1  0.433500  0.794000  0.130100  1.0  -0.529
  O  O115  1  0.477000  0.988400  0.279000  1.0  -0.6165
  O  O116  1  0.206300  0.562900  0.690300  1.0  -0.7435
  O  O117  1  0.010300  0.695900  0.353700  1.0  -0.6733
  O  O118  1  0.524200  0.623400  0.287000  1.0  -0.6566
  O  O119  1  0.190600  0.935100  0.671500  1.0  -0.6265
  O  O120  1  0.066500  0.294000  0.369900  1.0  -0.5282
