# generated using pymatgen
data_Nd2Cu7H28C42I6(NO2)7
_symmetry_space_group_name_H-M   'P 1'
_cell_length_a   7.02750000
_cell_length_b   18.13900000
_cell_length_c   24.70400000
_cell_angle_alpha   90.00000000
_cell_angle_beta   90.00000000
_cell_angle_gamma   99.86000000
_symmetry_Int_Tables_number   1
_chemical_formula_structural   Nd2Cu7H28C42I6(NO2)7
_chemical_formula_sum   'Nd4 Cu14 H56 C84 I12 N14 O28'
_cell_volume   3102.54944301
_cell_formula_units_Z   2
loop_
 _symmetry_equiv_pos_site_id
 _symmetry_equiv_pos_as_xyz
  1  'x, y, z'
loop_
 _atom_site_type_symbol
 _atom_site_label
 _atom_site_symmetry_multiplicity
 _atom_site_fract_x
 _atom_site_fract_y
 _atom_site_fract_z
 _atom_site_occupancy
 _atom_site_charge
  Nd  Nd1  1  0.278330  0.484000  0.599130  1.0  2.2577
  Nd  Nd2  1  0.721670  0.516000  0.099130  1.0  2.2578
  Nd  Nd3  1  0.721670  0.516000  0.400870  1.0  2.2578
  Nd  Nd4  1  0.278330  0.484000  0.900870  1.0  2.2583
  Cu  Cu5  1  0.120830  0.955960  0.507570  1.0  0.1333
  Cu  Cu6  1  0.672910  0.939550  0.580610  1.0  0.1611
  Cu  Cu7  1  0.749590  0.053350  0.684220  1.0  0.131
  Cu  Cu8  1  0.879170  0.044040  0.007570  1.0  0.1331
  Cu  Cu9  1  0.327090  0.060450  0.080610  1.0  0.1612
  Cu  Cu10  1  0.250410  0.946650  0.184220  1.0  0.1314
  Cu  Cu11  1  0.879170  0.044040  0.492430  1.0  0.1333
  Cu  Cu12  1  0.327090  0.060450  0.419390  1.0  0.1611
  Cu  Cu13  1  0.250410  0.946650  0.315780  1.0  0.1316
  Cu  Cu14  1  0.120830  0.955960  0.992430  1.0  0.1334
  Cu  Cu15  1  0.672910  0.939550  0.919390  1.0  0.1608
  Cu  Cu16  1  0.749590  0.053350  0.815780  1.0  0.1312
  Cu  Cu17  1  0.728380  0.934340  0.750000  1.0  0.1062
  Cu  Cu18  1  0.271620  0.065660  0.250000  1.0  0.1085
  H  H19  1  0.084800  0.858200  0.604700  1.0  0.07
  H  H20  1  0.101100  0.736200  0.628400  1.0  0.1261
  H  H21  1  0.202200  0.695100  0.472200  1.0  0.1187
  H  H22  1  0.177900  0.817000  0.452300  1.0  0.079
  H  H23  1  0.605300  0.792500  0.637400  1.0  0.0703
  H  H24  1  0.594500  0.667600  0.621100  1.0  0.1255
  H  H25  1  0.694500  0.718000  0.464200  1.0  0.1116
  H  H26  1  0.692800  0.841300  0.484600  1.0  0.0664
  H  H27  1  0.392800  0.105200  0.653300  1.0  0.0552
  H  H28  1  0.273400  0.213600  0.638400  1.0  0.1134
  H  H29  1  0.806300  0.329600  0.661800  1.0  0.1255
  H  H30  1  0.905900  0.218100  0.679600  1.0  0.0714
  H  H31  1  0.915200  0.141800  0.104700  1.0  0.0707
  H  H32  1  0.898900  0.263800  0.128400  1.0  0.1256
  H  H33  1  0.797800  0.304900  0.972200  1.0  0.119
  H  H34  1  0.822100  0.183000  0.952300  1.0  0.0797
  H  H35  1  0.394700  0.207500  0.137400  1.0  0.0705
  H  H36  1  0.405500  0.332400  0.121100  1.0  0.1252
  H  H37  1  0.305500  0.282000  0.964200  1.0  0.1115
  H  H38  1  0.307200  0.158700  0.984600  1.0  0.0663
  H  H39  1  0.607200  0.894800  0.153300  1.0  0.055
  H  H40  1  0.726600  0.786400  0.138400  1.0  0.1125
  H  H41  1  0.193700  0.670400  0.161800  1.0  0.1254
  H  H42  1  0.094100  0.781900  0.179600  1.0  0.0717
  H  H43  1  0.915200  0.141800  0.395300  1.0  0.0704
  H  H44  1  0.898900  0.263800  0.371600  1.0  0.1255
  H  H45  1  0.797800  0.304900  0.527800  1.0  0.1191
  H  H46  1  0.822100  0.183000  0.547700  1.0  0.0791
  H  H47  1  0.394700  0.207500  0.362600  1.0  0.0709
  H  H48  1  0.405500  0.332400  0.378900  1.0  0.1257
  H  H49  1  0.305500  0.282000  0.535800  1.0  0.1108
  H  H50  1  0.307200  0.158700  0.515400  1.0  0.0665
  H  H51  1  0.607200  0.894800  0.346700  1.0  0.0549
  H  H52  1  0.726600  0.786400  0.361600  1.0  0.1122
  H  H53  1  0.193700  0.670400  0.338200  1.0  0.1253
  H  H54  1  0.094100  0.781900  0.320400  1.0  0.0719
  H  H55  1  0.084800  0.858200  0.895300  1.0  0.0699
  H  H56  1  0.101100  0.736200  0.871600  1.0  0.1263
  H  H57  1  0.202200  0.695100  0.027800  1.0  0.1187
  H  H58  1  0.177900  0.817000  0.047700  1.0  0.0791
  H  H59  1  0.605300  0.792500  0.862600  1.0  0.0707
  H  H60  1  0.594500  0.667600  0.878900  1.0  0.126
  H  H61  1  0.694500  0.718000  0.035800  1.0  0.1111
  H  H62  1  0.692800  0.841300  0.015400  1.0  0.0662
  H  H63  1  0.392800  0.105200  0.846700  1.0  0.055
  H  H64  1  0.273400  0.213600  0.861600  1.0  0.1137
  H  H65  1  0.806300  0.329600  0.838200  1.0  0.1254
  H  H66  1  0.905900  0.218100  0.820400  1.0  0.0708
  H  H67  1  0.116800  0.894200  0.750000  1.0  0.0558
  H  H68  1  0.270200  0.791700  0.750000  1.0  0.11
  H  H69  1  0.750300  0.660000  0.750000  1.0  0.1263
  H  H70  1  0.614200  0.765700  0.750000  1.0  0.0744
  H  H71  1  0.883200  0.105800  0.250000  1.0  0.0558
  H  H72  1  0.729800  0.208300  0.250000  1.0  0.1095
  H  H73  1  0.249700  0.340000  0.250000  1.0  0.1261
  H  H74  1  0.385800  0.234300  0.250000  1.0  0.0744
  C  C75  1  0.106600  0.824600  0.577860  1.0  0.1274
  C  C76  1  0.117600  0.751600  0.592570  1.0  -0.1173
  C  C77  1  0.153700  0.702200  0.552640  1.0  -0.041
  C  C78  1  0.177000  0.727300  0.499540  1.0  -0.1172
  C  C79  1  0.162400  0.800300  0.487900  1.0  0.12
  C  C80  1  0.171100  0.623300  0.567700  1.0  0.6399
  C  C81  1  0.622000  0.776900  0.602130  1.0  0.1395
  C  C82  1  0.616800  0.701900  0.592850  1.0  -0.1187
  C  C83  1  0.645400  0.678300  0.540310  1.0  -0.101
  C  C84  1  0.674800  0.731900  0.499750  1.0  -0.1181
  C  C85  1  0.674800  0.806100  0.512340  1.0  0.1304
  C  C86  1  0.642900  0.596700  0.527660  1.0  0.809
  C  C87  1  0.476300  0.150800  0.655600  1.0  0.1433
  C  C88  1  0.403700  0.215900  0.646340  1.0  -0.1352
  C  C89  1  0.524800  0.284500  0.648880  1.0  -0.0336
  C  C90  1  0.718600  0.285000  0.660600  1.0  -0.1434
  C  C91  1  0.777200  0.217200  0.670400  1.0  0.1263
  C  C92  1  0.447600  0.355600  0.638090  1.0  0.6723
  C  C93  1  0.893400  0.175400  0.077860  1.0  0.1285
  C  C94  1  0.882400  0.248400  0.092570  1.0  -0.1171
  C  C95  1  0.846300  0.297800  0.052640  1.0  -0.0403
  C  C96  1  0.823000  0.272700  0.999540  1.0  -0.1178
  C  C97  1  0.837600  0.199700  0.987900  1.0  0.1209
  C  C98  1  0.828900  0.376700  0.067700  1.0  0.6421
  C  C99  1  0.378000  0.223100  0.102130  1.0  0.141
  C  C100  1  0.383200  0.298100  0.092850  1.0  -0.1187
  C  C101  1  0.354600  0.321700  0.040310  1.0  -0.1008
  C  C102  1  0.325200  0.268100  0.999750  1.0  -0.119
  C  C103  1  0.325200  0.193900  0.012340  1.0  0.128
  C  C104  1  0.357100  0.403300  0.027660  1.0  0.8104
  C  C105  1  0.523700  0.849200  0.155600  1.0  0.1427
  C  C106  1  0.596300  0.784100  0.146340  1.0  -0.1322
  C  C107  1  0.475200  0.715500  0.148880  1.0  -0.033
  C  C108  1  0.281400  0.715000  0.160600  1.0  -0.1423
  C  C109  1  0.222800  0.782800  0.170400  1.0  0.1244
  C  C110  1  0.552400  0.644400  0.138090  1.0  0.6723
  C  C111  1  0.893400  0.175400  0.422140  1.0  0.1281
  C  C112  1  0.882400  0.248400  0.407430  1.0  -0.1181
  C  C113  1  0.846300  0.297800  0.447360  1.0  -0.04
  C  C114  1  0.823000  0.272700  0.500460  1.0  -0.1179
  C  C115  1  0.837600  0.199700  0.512100  1.0  0.1189
  C  C116  1  0.828900  0.376700  0.432300  1.0  0.6429
  C  C117  1  0.378000  0.223100  0.397870  1.0  0.1412
  C  C118  1  0.383200  0.298100  0.407150  1.0  -0.1199
  C  C119  1  0.354600  0.321700  0.459690  1.0  -0.1007
  C  C120  1  0.325200  0.268100  0.500250  1.0  -0.1188
  C  C121  1  0.325200  0.193900  0.487660  1.0  0.1285
  C  C122  1  0.357100  0.403300  0.472340  1.0  0.8107
  C  C123  1  0.523700  0.849200  0.344400  1.0  0.1422
  C  C124  1  0.596300  0.784100  0.353660  1.0  -0.1318
  C  C125  1  0.475200  0.715500  0.351120  1.0  -0.0333
  C  C126  1  0.281400  0.715000  0.339400  1.0  -0.1422
  C  C127  1  0.222800  0.782800  0.329600  1.0  0.1237
  C  C128  1  0.552400  0.644400  0.361910  1.0  0.6719
  C  C129  1  0.106600  0.824600  0.922140  1.0  0.1279
  C  C130  1  0.117600  0.751600  0.907430  1.0  -0.1173
  C  C131  1  0.153700  0.702200  0.947360  1.0  -0.0407
  C  C132  1  0.177000  0.727300  0.000460  1.0  -0.1165
  C  C133  1  0.162400  0.800300  0.012100  1.0  0.1192
  C  C134  1  0.171100  0.623300  0.932300  1.0  0.639
  C  C135  1  0.622000  0.776900  0.897870  1.0  0.1403
  C  C136  1  0.616800  0.701900  0.907150  1.0  -0.1198
  C  C137  1  0.645400  0.678300  0.959690  1.0  -0.1009
  C  C138  1  0.674800  0.731900  0.000250  1.0  -0.118
  C  C139  1  0.674800  0.806100  0.987660  1.0  0.1305
  C  C140  1  0.642900  0.596700  0.972340  1.0  0.8095
  C  C141  1  0.476300  0.150800  0.844400  1.0  0.1431
  C  C142  1  0.403700  0.215900  0.853660  1.0  -0.1352
  C  C143  1  0.524800  0.284500  0.851120  1.0  -0.0327
  C  C144  1  0.718600  0.285000  0.839400  1.0  -0.143
  C  C145  1  0.777200  0.217200  0.829600  1.0  0.1256
  C  C146  1  0.447600  0.355600  0.861910  1.0  0.6736
  C  C147  1  0.042200  0.846600  0.750000  1.0  0.1295
  C  C148  1  0.136000  0.784800  0.750000  1.0  -0.1609
  C  C149  1  0.029000  0.713000  0.750000  1.0  -0.0093
  C  C150  1  0.828700  0.706800  0.750000  1.0  -0.1483
  C  C151  1  0.748200  0.771100  0.750000  1.0  0.1398
  C  C152  1  0.130400  0.645300  0.750000  1.0  0.6648
  C  C153  1  0.957800  0.153400  0.250000  1.0  0.129
  C  C154  1  0.864000  0.215200  0.250000  1.0  -0.1628
  C  C155  1  0.971000  0.287000  0.250000  1.0  -0.0081
  C  C156  1  0.171300  0.293200  0.250000  1.0  -0.1487
  C  C157  1  0.251800  0.228900  0.250000  1.0  0.1426
  C  C158  1  0.869600  0.354700  0.250000  1.0  0.6647
  I  I159  1  0.010260  0.029460  0.589930  1.0  -0.191
  I  I160  1  0.476290  0.942680  0.670200  1.0  -0.1919
  I  I161  1  0.989740  0.970540  0.089930  1.0  -0.1911
  I  I162  1  0.523710  0.057320  0.170200  1.0  -0.1914
  I  I163  1  0.989740  0.970540  0.410070  1.0  -0.1907
  I  I164  1  0.523710  0.057320  0.329800  1.0  -0.1912
  I  I165  1  0.010260  0.029460  0.910070  1.0  -0.1907
  I  I166  1  0.476290  0.942680  0.829800  1.0  -0.1917
  I  I167  1  0.500000  0.000000  0.500000  1.0  -0.2788
  I  I168  1  0.500000  0.000000  0.000000  1.0  -0.2788
  I  I169  1  0.030920  0.058250  0.750000  1.0  -0.2204
  I  I170  1  0.969080  0.941750  0.250000  1.0  -0.2195
  N  N171  1  0.126100  0.848640  0.526810  1.0  -0.221
  N  N172  1  0.650000  0.829270  0.562880  1.0  -0.244
  N  N173  1  0.662300  0.150700  0.667700  1.0  -0.2164
  N  N174  1  0.873900  0.151360  0.026810  1.0  -0.219
  N  N175  1  0.350000  0.170730  0.062880  1.0  -0.2395
  N  N176  1  0.337700  0.849300  0.167700  1.0  -0.2186
  N  N177  1  0.873900  0.151360  0.473190  1.0  -0.2192
  N  N178  1  0.350000  0.170730  0.437120  1.0  -0.2396
  N  N179  1  0.337700  0.849300  0.332300  1.0  -0.2194
  N  N180  1  0.126100  0.848640  0.973190  1.0  -0.2198
  N  N181  1  0.650000  0.829270  0.937120  1.0  -0.2445
  N  N182  1  0.662300  0.150700  0.832300  1.0  -0.2166
  N  N183  1  0.850300  0.840600  0.750000  1.0  -0.2395
  N  N184  1  0.149700  0.159400  0.250000  1.0  -0.2403
  O  O185  1  0.199500  0.578360  0.530350  1.0  -0.6771
  O  O186  1  0.166500  0.605120  0.616760  1.0  -0.6838
  O  O187  1  0.578500  0.549370  0.562850  1.0  -0.7229
  O  O188  1  0.710300  0.583090  0.482260  1.0  -0.7561
  O  O189  1  0.563000  0.416060  0.630990  1.0  -0.6697
  O  O190  1  0.268900  0.352460  0.635960  1.0  -0.7327
  O  O191  1  0.800500  0.421640  0.030350  1.0  -0.6768
  O  O192  1  0.833500  0.394880  0.116760  1.0  -0.6824
  O  O193  1  0.421500  0.450630  0.062850  1.0  -0.7239
  O  O194  1  0.289700  0.416910  0.982260  1.0  -0.7555
  O  O195  1  0.437000  0.583940  0.130990  1.0  -0.6709
  O  O196  1  0.731100  0.647540  0.135960  1.0  -0.7286
  O  O197  1  0.800500  0.421640  0.469650  1.0  -0.6779
  O  O198  1  0.833500  0.394880  0.383240  1.0  -0.6823
  O  O199  1  0.421500  0.450630  0.437150  1.0  -0.724
  O  O200  1  0.289700  0.416910  0.517740  1.0  -0.755
  O  O201  1  0.437000  0.583940  0.369010  1.0  -0.6719
  O  O202  1  0.731100  0.647540  0.364040  1.0  -0.7293
  O  O203  1  0.199500  0.578360  0.969650  1.0  -0.6776
  O  O204  1  0.166500  0.605120  0.883240  1.0  -0.6818
  O  O205  1  0.578500  0.549370  0.937150  1.0  -0.7245
  O  O206  1  0.710300  0.583090  0.017740  1.0  -0.7543
  O  O207  1  0.563000  0.416060  0.869010  1.0  -0.6708
  O  O208  1  0.268900  0.352460  0.864040  1.0  -0.7316
  O  O209  1  0.310400  0.656200  0.750000  1.0  -0.6437
  O  O210  1  0.022600  0.581700  0.750000  1.0  -0.6975
  O  O211  1  0.689600  0.343800  0.250000  1.0  -0.6575
  O  O212  1  0.977400  0.418300  0.250000  1.0  -0.702
