# generated using pymatgen
data_Ag3P2H12C8S6(OF)4
_symmetry_space_group_name_H-M   'P 1'
_cell_length_a   10.18830000
_cell_length_b   12.01580000
_cell_length_c   19.20590000
_cell_angle_alpha   92.79000000
_cell_angle_beta   90.00000000
_cell_angle_gamma   90.00000000
_symmetry_Int_Tables_number   1
_chemical_formula_structural   Ag3P2H12C8S6(OF)4
_chemical_formula_sum   'Ag12 P8 H48 C32 S24 O16 F16'
_cell_volume   2348.41032768
_cell_formula_units_Z   4
loop_
 _symmetry_equiv_pos_site_id
 _symmetry_equiv_pos_as_xyz
  1  'x, y, z'
loop_
 _atom_site_type_symbol
 _atom_site_label
 _atom_site_symmetry_multiplicity
 _atom_site_fract_x
 _atom_site_fract_y
 _atom_site_fract_z
 _atom_site_occupancy
 _atom_site_charge
  Ag  Ag1  1  0.578950  0.244340  0.602210  1.0  0.1933
  Ag  Ag2  1  0.296130  0.487600  0.863680  1.0  0.2784
  Ag  Ag3  1  0.424320  0.730430  0.590490  1.0  0.2612
  Ag  Ag4  1  0.078950  0.255660  0.897790  1.0  0.1957
  Ag  Ag5  1  0.796130  0.012400  0.636320  1.0  0.2767
  Ag  Ag6  1  0.924320  0.769570  0.909510  1.0  0.2615
  Ag  Ag7  1  0.421050  0.755660  0.397790  1.0  0.1946
  Ag  Ag8  1  0.703870  0.512400  0.136320  1.0  0.2775
  Ag  Ag9  1  0.575680  0.269570  0.409510  1.0  0.2612
  Ag  Ag10  1  0.921050  0.744340  0.102210  1.0  0.1925
  Ag  Ag11  1  0.203870  0.987600  0.363680  1.0  0.279
  Ag  Ag12  1  0.075680  0.230430  0.090490  1.0  0.2607
  P  P13  1  0.325810  0.151020  0.495670  1.0  1.5917
  P  P14  1  0.464600  0.004290  0.681540  1.0  1.6039
  P  P15  1  0.825810  0.348980  0.004330  1.0  1.5912
  P  P16  1  0.964600  0.495710  0.818460  1.0  1.604
  P  P17  1  0.674190  0.848980  0.504330  1.0  1.5954
  P  P18  1  0.535400  0.995710  0.318460  1.0  1.6037
  P  P19  1  0.174190  0.651020  0.995670  1.0  1.5927
  P  P20  1  0.035400  0.504290  0.181540  1.0  1.6035
  H  H21  1  0.732700  0.468800  0.557200  1.0  0.1168
  H  H22  1  0.813600  0.543600  0.613500  1.0  0.1486
  H  H23  1  0.712700  0.601100  0.562500  1.0  0.1436
  H  H24  1  0.481400  0.279100  0.827500  1.0  0.127
  H  H25  1  0.635700  0.297200  0.817700  1.0  0.1424
  H  H26  1  0.555600  0.220500  0.762100  1.0  0.1369
  H  H27  1  0.567500  0.738200  0.831800  1.0  0.1316
  H  H28  1  0.413300  0.719800  0.842300  1.0  0.1505
  H  H29  1  0.464800  0.794200  0.781100  1.0  0.1386
  H  H30  1  0.143500  0.464000  0.655200  1.0  0.1447
  H  H31  1  0.219400  0.407700  0.589600  1.0  0.1505
  H  H32  1  0.196600  0.539700  0.594900  1.0  0.1275
  H  H33  1  0.232700  0.031200  0.942800  1.0  0.1165
  H  H34  1  0.313600  0.956400  0.886500  1.0  0.1488
  H  H35  1  0.212700  0.898900  0.937500  1.0  0.1434
  H  H36  1  0.981400  0.220900  0.672500  1.0  0.125
  H  H37  1  0.135700  0.202800  0.682300  1.0  0.1418
  H  H38  1  0.055600  0.279500  0.737900  1.0  0.137
  H  H39  1  0.067500  0.761800  0.668200  1.0  0.1328
  H  H40  1  0.913300  0.780200  0.657700  1.0  0.1507
  H  H41  1  0.964800  0.705800  0.718900  1.0  0.1392
  H  H42  1  0.643500  0.036000  0.844800  1.0  0.1456
  H  H43  1  0.719400  0.092300  0.910400  1.0  0.1503
  H  H44  1  0.696600  0.960300  0.905100  1.0  0.1277
  H  H45  1  0.267300  0.531200  0.442800  1.0  0.1162
  H  H46  1  0.186400  0.456400  0.386500  1.0  0.1496
  H  H47  1  0.287300  0.398900  0.437500  1.0  0.1432
  H  H48  1  0.518600  0.720900  0.172500  1.0  0.1252
  H  H49  1  0.364300  0.702800  0.182300  1.0  0.1417
  H  H50  1  0.444400  0.779500  0.237900  1.0  0.1374
  H  H51  1  0.432500  0.261800  0.168200  1.0  0.1315
  H  H52  1  0.586700  0.280200  0.157700  1.0  0.1504
  H  H53  1  0.535200  0.205800  0.218900  1.0  0.1395
  H  H54  1  0.856500  0.536000  0.344800  1.0  0.145
  H  H55  1  0.780600  0.592300  0.410400  1.0  0.1498
  H  H56  1  0.803400  0.460300  0.405100  1.0  0.1277
  H  H57  1  0.767300  0.968800  0.057200  1.0  0.1163
  H  H58  1  0.686400  0.043600  0.113500  1.0  0.1486
  H  H59  1  0.787300  0.101100  0.062500  1.0  0.143
  H  H60  1  0.018600  0.779100  0.327500  1.0  0.1253
  H  H61  1  0.864300  0.797200  0.317700  1.0  0.1418
  H  H62  1  0.944400  0.720500  0.262100  1.0  0.1372
  H  H63  1  0.932500  0.238200  0.331800  1.0  0.1331
  H  H64  1  0.086700  0.219800  0.342300  1.0  0.1509
  H  H65  1  0.035200  0.294200  0.281100  1.0  0.1387
  H  H66  1  0.356500  0.964000  0.155200  1.0  0.145
  H  H67  1  0.280600  0.907700  0.089600  1.0  0.1505
  H  H68  1  0.303400  0.039700  0.094900  1.0  0.1274
  C  C69  1  0.729500  0.535000  0.589100  1.0  -0.3456
  C  C70  1  0.619500  0.521800  0.642300  1.0  0.0927
  C  C71  1  0.551700  0.287300  0.793300  1.0  -0.3537
  C  C72  1  0.524100  0.389300  0.750700  1.0  0.0983
  C  C73  1  0.483000  0.728600  0.807800  1.0  -0.3558
  C  C74  1  0.488400  0.624500  0.758300  1.0  0.1025
  C  C75  1  0.214300  0.473700  0.621500  1.0  -0.3377
  C  C76  1  0.344700  0.488900  0.660300  1.0  0.1057
  C  C77  1  0.229500  0.965000  0.910900  1.0  -0.345
  C  C78  1  0.119500  0.978200  0.857700  1.0  0.0926
  C  C79  1  0.051700  0.212700  0.706700  1.0  -0.3535
  C  C80  1  0.024100  0.110700  0.749300  1.0  0.097
  C  C81  1  0.983000  0.771400  0.692200  1.0  -0.3561
  C  C82  1  0.988400  0.875500  0.741700  1.0  0.1023
  C  C83  1  0.714300  0.026300  0.878500  1.0  -0.3376
  C  C84  1  0.844700  0.011100  0.839700  1.0  0.1055
  C  C85  1  0.270500  0.465000  0.410900  1.0  -0.3428
  C  C86  1  0.380500  0.478200  0.357700  1.0  0.0927
  C  C87  1  0.448300  0.712700  0.206700  1.0  -0.3538
  C  C88  1  0.475900  0.610700  0.249300  1.0  0.0965
  C  C89  1  0.517000  0.271400  0.192200  1.0  -0.3563
  C  C90  1  0.511600  0.375500  0.241700  1.0  0.1019
  C  C91  1  0.785700  0.526300  0.378500  1.0  -0.3396
  C  C92  1  0.655300  0.511100  0.339700  1.0  0.1042
  C  C93  1  0.770500  0.035000  0.089100  1.0  -0.3429
  C  C94  1  0.880500  0.021800  0.142300  1.0  0.0931
  C  C95  1  0.948300  0.787300  0.293300  1.0  -0.3532
  C  C96  1  0.975900  0.889300  0.250700  1.0  0.098
  C  C97  1  0.017000  0.228600  0.307800  1.0  -0.3558
  C  C98  1  0.011600  0.124500  0.258300  1.0  0.1023
  C  C99  1  0.285700  0.973700  0.121500  1.0  -0.3402
  C  C100  1  0.155300  0.988900  0.160300  1.0  0.1041
  S  S101  1  0.621840  0.647790  0.698380  1.0  -0.011
  S  S102  1  0.467970  0.506100  0.592510  1.0  -0.0432
  S  S103  1  0.327970  0.613820  0.716890  1.0  -0.0469
  S  S104  1  0.659440  0.397710  0.688860  1.0  -0.0189
  S  S105  1  0.522480  0.508530  0.813290  1.0  -0.0004
  S  S106  1  0.368640  0.363730  0.707660  1.0  -0.0364
  S  S107  1  0.121840  0.852210  0.801620  1.0  -0.0105
  S  S108  1  0.967970  0.993900  0.907490  1.0  -0.0434
  S  S109  1  0.827970  0.886180  0.783110  1.0  -0.0469
  S  S110  1  0.159440  0.102290  0.811140  1.0  -0.0164
  S  S111  1  0.022480  0.991470  0.686710  1.0  -0.0011
  S  S112  1  0.868640  0.136270  0.792340  1.0  -0.0368
  S  S113  1  0.378160  0.352210  0.301620  1.0  -0.0098
  S  S114  1  0.532030  0.493900  0.407490  1.0  -0.0434
  S  S115  1  0.672030  0.386180  0.283110  1.0  -0.047
  S  S116  1  0.340560  0.602290  0.311140  1.0  -0.0174
  S  S117  1  0.477520  0.491470  0.186710  1.0  -0.0004
  S  S118  1  0.631360  0.636270  0.292340  1.0  -0.0378
  S  S119  1  0.878160  0.147790  0.198380  1.0  -0.0103
  S  S120  1  0.032030  0.006100  0.092510  1.0  -0.0431
  S  S121  1  0.172030  0.113820  0.216890  1.0  -0.047
  S  S122  1  0.840560  0.897710  0.188860  1.0  -0.0202
  S  S123  1  0.977520  0.008530  0.313290  1.0  -0.0002
  S  S124  1  0.131360  0.863730  0.207660  1.0  -0.0369
  O  O125  1  0.444500  0.219400  0.508140  1.0  -0.7598
  O  O126  1  0.258000  0.151100  0.428380  1.0  -0.7728
  O  O127  1  0.440800  0.889200  0.660200  1.0  -0.7846
  O  O128  1  0.577700  0.068200  0.657440  1.0  -0.7774
  O  O129  1  0.944500  0.280600  0.991860  1.0  -0.7605
  O  O130  1  0.758000  0.348900  0.071620  1.0  -0.7734
  O  O131  1  0.940800  0.610800  0.839800  1.0  -0.7845
  O  O132  1  0.077700  0.431800  0.842560  1.0  -0.7777
  O  O133  1  0.555500  0.780600  0.491860  1.0  -0.7601
  O  O134  1  0.742000  0.848900  0.571620  1.0  -0.7738
  O  O135  1  0.559200  0.110800  0.339800  1.0  -0.7849
  O  O136  1  0.422300  0.931800  0.342560  1.0  -0.777
  O  O137  1  0.055500  0.719400  0.008140  1.0  -0.7597
  O  O138  1  0.242000  0.651100  0.928380  1.0  -0.7728
  O  O139  1  0.059200  0.389200  0.160200  1.0  -0.7851
  O  O140  1  0.922300  0.568200  0.157440  1.0  -0.7768
  F  F141  1  0.355100  0.031200  0.515310  1.0  -0.3199
  F  F142  1  0.227500  0.182500  0.554460  1.0  -0.3358
  F  F143  1  0.464900  0.013900  0.762530  1.0  -0.3457
  F  F144  1  0.341500  0.074900  0.669860  1.0  -0.3394
  F  F145  1  0.855100  0.468800  0.984690  1.0  -0.3198
  F  F146  1  0.727500  0.317500  0.945540  1.0  -0.3354
  F  F147  1  0.964900  0.486100  0.737470  1.0  -0.345
  F  F148  1  0.841500  0.425100  0.830140  1.0  -0.339
  F  F149  1  0.644900  0.968800  0.484690  1.0  -0.3197
  F  F150  1  0.772500  0.817500  0.445540  1.0  -0.3358
  F  F151  1  0.535100  0.986100  0.237470  1.0  -0.345
  F  F152  1  0.658500  0.925100  0.330140  1.0  -0.3405
  F  F153  1  0.144900  0.531200  0.015310  1.0  -0.3201
  F  F154  1  0.272500  0.682500  0.054460  1.0  -0.3367
  F  F155  1  0.035100  0.513900  0.262530  1.0  -0.3458
  F  F156  1  0.158500  0.574900  0.169860  1.0  -0.3402
