# generated using pymatgen
data_Al4P4O17
_symmetry_space_group_name_H-M   'P 1'
_cell_length_a   8.70100000
_cell_length_b   9.21000000
_cell_length_c   12.38500000
_cell_angle_alpha   111.11000000
_cell_angle_beta   101.42000000
_cell_angle_gamma   102.08000000
_symmetry_Int_Tables_number   1
_chemical_formula_structural   Al4P4O17
_chemical_formula_sum   'Al8 P8 O34'
_cell_volume   863.76964811
_cell_formula_units_Z   2
loop_
 _symmetry_equiv_pos_site_id
 _symmetry_equiv_pos_as_xyz
  1  'x, y, z'
loop_
 _atom_site_type_symbol
 _atom_site_label
 _atom_site_symmetry_multiplicity
 _atom_site_fract_x
 _atom_site_fract_y
 _atom_site_fract_z
 _atom_site_occupancy
 _atom_site_charge
  Al  Al1  1  0.698500  0.209600  0.624100  1.0  2.0037
  Al  Al2  1  0.649400  0.782300  0.144300  1.0  1.907
  Al  Al3  1  0.980200  0.669400  0.942800  1.0  1.9854
  Al  Al4  1  0.505100  0.206700  0.146200  1.0  1.9044
  Al  Al5  1  0.301500  0.790400  0.375900  1.0  2.0047
  Al  Al6  1  0.350600  0.217700  0.855700  1.0  1.9058
  Al  Al7  1  0.019800  0.330600  0.057200  1.0  1.9869
  Al  Al8  1  0.494900  0.793300  0.853800  1.0  1.9051
  P  P9  1  0.599000  0.484000  0.801100  1.0  2.048
  P  P10  1  0.557100  0.054900  0.343300  1.0  2.0351
  P  P11  1  0.779400  0.051700  0.067800  1.0  1.9227
  P  P12  1  0.036300  0.343200  0.819300  1.0  1.9696
  P  P13  1  0.401000  0.516000  0.198900  1.0  2.0485
  P  P14  1  0.442900  0.945100  0.656700  1.0  2.0328
  P  P15  1  0.220600  0.948300  0.932200  1.0  1.9212
  P  P16  1  0.963700  0.656800  0.180700  1.0  1.9703
  O  O17  1  0.673200  0.159900  0.472300  1.0  -0.9609
  O  O18  1  0.516400  0.164300  0.283500  1.0  -0.9072
  O  O19  1  0.909400  0.259400  0.693500  1.0  -0.9673
  O  O20  1  0.511600  0.748100  0.998400  1.0  -0.7174
  O  O21  1  0.636700  0.934800  0.276800  1.0  -1.0029
  O  O22  1  0.508500  0.595000  0.770000  1.0  -0.8701
  O  O23  1  0.512100  0.386200  0.857800  1.0  -0.9269
  O  O24  1  0.394700  0.960100  0.354000  1.0  -0.9755
  O  O25  1  0.623400  0.371200  0.684000  1.0  -0.9818
  O  O26  1  0.071500  0.528400  0.867800  1.0  -0.9325
  O  O27  1  0.769500  0.591800  0.890300  1.0  -1.0507
  O  O28  1  0.194500  0.304300  0.813000  1.0  -0.9938
  O  O29  1  0.692800  0.165200  0.134700  1.0  -0.9982
  O  O30  1  0.950400  0.155700  0.078700  1.0  -0.8943
  O  O31  1  0.809500  0.934400  0.124200  1.0  -0.8055
  O  O32  1  0.683600  0.958200  0.932900  1.0  -0.8816
  O  O33  1  0.958000  0.283100  0.902600  1.0  -0.9081
  O  O34  1  0.326800  0.840100  0.527700  1.0  -0.961
  O  O35  1  0.483600  0.835700  0.716500  1.0  -0.9052
  O  O36  1  0.090600  0.740600  0.306500  1.0  -0.9701
  O  O37  1  0.488400  0.251900  0.001600  1.0  -0.717
  O  O38  1  0.363300  0.065200  0.723200  1.0  -0.9981
  O  O39  1  0.491500  0.405000  0.230000  1.0  -0.8706
  O  O40  1  0.487900  0.613800  0.142200  1.0  -0.9258
  O  O41  1  0.605300  0.039900  0.646000  1.0  -0.9752
  O  O42  1  0.376600  0.628800  0.316000  1.0  -0.9847
  O  O43  1  0.928500  0.471600  0.132200  1.0  -0.9363
  O  O44  1  0.230500  0.408200  0.109700  1.0  -1.0521
  O  O45  1  0.805500  0.695700  0.187000  1.0  -0.996
  O  O46  1  0.307200  0.834800  0.865300  1.0  -0.9975
  O  O47  1  0.049600  0.844300  0.921300  1.0  -0.8925
  O  O48  1  0.190500  0.065600  0.875800  1.0  -0.8051
  O  O49  1  0.316400  0.041800  0.067100  1.0  -0.8832
  O  O50  1  0.042000  0.716900  0.097400  1.0  -0.9062
