# generated using pymatgen
data_Fe5P7(O7F)4
_symmetry_space_group_name_H-M   'P 1'
_cell_length_a   9.86360000
_cell_length_b   9.86360000
_cell_length_c   30.35290000
_cell_angle_alpha   90.00000000
_cell_angle_beta   90.00000000
_cell_angle_gamma   90.00000000
_symmetry_Int_Tables_number   1
_chemical_formula_structural   Fe5P7(O7F)4
_chemical_formula_sum   'Fe20 P28 O112 F16'
_cell_volume   2953.05200329
_cell_formula_units_Z   4
loop_
 _symmetry_equiv_pos_site_id
 _symmetry_equiv_pos_as_xyz
  1  'x, y, z'
loop_
 _atom_site_type_symbol
 _atom_site_label
 _atom_site_symmetry_multiplicity
 _atom_site_fract_x
 _atom_site_fract_y
 _atom_site_fract_z
 _atom_site_occupancy
 _atom_site_charge
  Fe  Fe1  1  0.229700  0.420600  0.090800  1.0  1.5537
  Fe  Fe2  1  0.407200  0.950100  0.988700  1.0  1.5351
  Fe  Fe3  1  0.770300  0.579400  0.590800  1.0  1.555
  Fe  Fe4  1  0.592800  0.049900  0.488700  1.0  1.5343
  Fe  Fe5  1  0.079400  0.729700  0.840800  1.0  1.556
  Fe  Fe6  1  0.549900  0.907200  0.738700  1.0  1.5344
  Fe  Fe7  1  0.920600  0.270300  0.340800  1.0  1.5543
  Fe  Fe8  1  0.450100  0.092800  0.238700  1.0  1.5341
  Fe  Fe9  1  0.270300  0.920600  0.659200  1.0  1.5577
  Fe  Fe10  1  0.092800  0.450100  0.761300  1.0  1.5349
  Fe  Fe11  1  0.729700  0.079400  0.159200  1.0  1.5582
  Fe  Fe12  1  0.907200  0.549900  0.261300  1.0  1.5353
  Fe  Fe13  1  0.420600  0.229700  0.909200  1.0  1.5573
  Fe  Fe14  1  0.950100  0.407200  0.011300  1.0  1.5349
  Fe  Fe15  1  0.579400  0.770300  0.409200  1.0  1.5599
  Fe  Fe16  1  0.049900  0.592800  0.511300  1.0  1.5345
  Fe  Fe17  1  0.688800  0.688800  0.000000  1.0  1.5079
  Fe  Fe18  1  0.311200  0.311200  0.500000  1.0  1.5105
  Fe  Fe19  1  0.811200  0.188800  0.750000  1.0  1.5116
  Fe  Fe20  1  0.188800  0.811200  0.250000  1.0  1.507
  P  P21  1  0.444400  0.221900  0.140200  1.0  1.5576
  P  P22  1  0.970200  0.675800  0.944300  1.0  1.6138
  P  P23  1  0.378200  0.655200  0.030600  1.0  1.5675
  P  P24  1  0.555600  0.778100  0.640200  1.0  1.5574
  P  P25  1  0.029800  0.324200  0.444300  1.0  1.614
  P  P26  1  0.621800  0.344800  0.530600  1.0  1.5682
  P  P27  1  0.278100  0.944400  0.890200  1.0  1.5572
  P  P28  1  0.824200  0.470200  0.694300  1.0  1.6138
  P  P29  1  0.844800  0.878200  0.780600  1.0  1.5652
  P  P30  1  0.721900  0.055600  0.390200  1.0  1.5561
  P  P31  1  0.175800  0.529800  0.194300  1.0  1.6141
  P  P32  1  0.155200  0.121800  0.280600  1.0  1.5663
  P  P33  1  0.055600  0.721900  0.609800  1.0  1.5566
  P  P34  1  0.529800  0.175800  0.805700  1.0  1.6139
  P  P35  1  0.121800  0.155200  0.719400  1.0  1.5681
  P  P36  1  0.944400  0.278100  0.109800  1.0  1.5567
  P  P37  1  0.470200  0.824200  0.305700  1.0  1.6132
  P  P38  1  0.878200  0.844800  0.219400  1.0  1.5681
  P  P39  1  0.221900  0.444400  0.859800  1.0  1.5553
  P  P40  1  0.675800  0.970200  0.055700  1.0  1.6141
  P  P41  1  0.655200  0.378200  0.969400  1.0  1.5668
  P  P42  1  0.778100  0.555600  0.359800  1.0  1.5564
  P  P43  1  0.324200  0.029800  0.555700  1.0  1.6132
  P  P44  1  0.344800  0.621800  0.469400  1.0  1.5654
  P  P45  1  0.237000  0.237000  0.000000  1.0  1.7521
  P  P46  1  0.763000  0.763000  0.500000  1.0  1.7528
  P  P47  1  0.263000  0.737000  0.750000  1.0  1.7527
  P  P48  1  0.737000  0.263000  0.250000  1.0  1.7524
  O  O49  1  0.294200  0.314400  0.039800  1.0  -0.7368
  O  O50  1  0.310800  0.593500  0.070700  1.0  -0.6354
  O  O51  1  0.392300  0.357400  0.122800  1.0  -0.6445
  O  O52  1  0.977900  0.671400  0.894500  1.0  -0.6748
  O  O53  1  0.599700  0.228400  0.142000  1.0  -0.6807
  O  O54  1  0.331000  0.802500  0.024000  1.0  -0.6152
  O  O55  1  0.000800  0.533400  0.962700  1.0  -0.701
  O  O56  1  0.082500  0.263600  0.995300  1.0  -0.6979
  O  O57  1  0.377800  0.192600  0.185400  1.0  -0.6267
  O  O58  1  0.835200  0.736300  0.959300  1.0  -0.6414
  O  O59  1  0.531800  0.644600  0.036900  1.0  -0.6704
  O  O60  1  0.395400  0.101700  0.110200  1.0  -0.3696
  O  O61  1  0.076000  0.778900  0.964100  1.0  -0.3817
  O  O62  1  0.334500  0.579800  0.986800  1.0  -0.4015
  O  O63  1  0.705800  0.685600  0.539800  1.0  -0.7381
  O  O64  1  0.689200  0.406500  0.570700  1.0  -0.6352
  O  O65  1  0.607700  0.642600  0.622800  1.0  -0.6467
  O  O66  1  0.022100  0.328600  0.394500  1.0  -0.6742
  O  O67  1  0.400300  0.771600  0.642000  1.0  -0.6806
  O  O68  1  0.669000  0.197500  0.524000  1.0  -0.6166
  O  O69  1  0.999200  0.466600  0.462700  1.0  -0.6989
  O  O70  1  0.917500  0.736400  0.495300  1.0  -0.6965
  O  O71  1  0.622200  0.807400  0.685400  1.0  -0.6287
  O  O72  1  0.164800  0.263700  0.459300  1.0  -0.6411
  O  O73  1  0.468200  0.355400  0.536900  1.0  -0.6728
  O  O74  1  0.604600  0.898300  0.610200  1.0  -0.3699
  O  O75  1  0.924000  0.221100  0.464100  1.0  -0.3817
  O  O76  1  0.665500  0.420200  0.486800  1.0  -0.4014
  O  O77  1  0.185600  0.794200  0.789800  1.0  -0.7383
  O  O78  1  0.906500  0.810800  0.820700  1.0  -0.6367
  O  O79  1  0.142600  0.892300  0.872800  1.0  -0.6453
  O  O80  1  0.828600  0.477900  0.644500  1.0  -0.6745
  O  O81  1  0.271600  0.099700  0.892000  1.0  -0.679
  O  O82  1  0.697500  0.831000  0.774000  1.0  -0.6159
  O  O83  1  0.966600  0.500800  0.712700  1.0  -0.6977
  O  O84  1  0.236400  0.582500  0.745300  1.0  -0.6995
  O  O85  1  0.307400  0.877800  0.935400  1.0  -0.6296
  O  O86  1  0.763700  0.335200  0.709300  1.0  -0.6413
  O  O87  1  0.855400  0.031800  0.786900  1.0  -0.671
  O  O88  1  0.398300  0.895400  0.860200  1.0  -0.3688
  O  O89  1  0.721100  0.576000  0.714100  1.0  -0.3803
  O  O90  1  0.920200  0.834500  0.736800  1.0  -0.4017
  O  O91  1  0.814400  0.205800  0.289800  1.0  -0.7389
  O  O92  1  0.093500  0.189200  0.320700  1.0  -0.6356
  O  O93  1  0.857400  0.107700  0.372800  1.0  -0.6447
  O  O94  1  0.171400  0.522100  0.144500  1.0  -0.6748
  O  O95  1  0.728400  0.900300  0.392000  1.0  -0.6793
  O  O96  1  0.302500  0.169000  0.274000  1.0  -0.6147
  O  O97  1  0.033400  0.499200  0.212700  1.0  -0.6996
  O  O98  1  0.763600  0.417500  0.245300  1.0  -0.6978
  O  O99  1  0.692600  0.122200  0.435400  1.0  -0.6308
  O  O100  1  0.236300  0.664800  0.209300  1.0  -0.6433
  O  O101  1  0.144600  0.968200  0.286900  1.0  -0.6714
  O  O102  1  0.601700  0.104600  0.360200  1.0  -0.3693
  O  O103  1  0.278900  0.424000  0.214100  1.0  -0.3809
  O  O104  1  0.079800  0.165500  0.236800  1.0  -0.4014
  O  O105  1  0.205800  0.814400  0.710200  1.0  -0.7372
  O  O106  1  0.189200  0.093500  0.679300  1.0  -0.6361
  O  O107  1  0.107700  0.857400  0.627200  1.0  -0.6455
  O  O108  1  0.522100  0.171400  0.855500  1.0  -0.6762
  O  O109  1  0.900300  0.728400  0.608000  1.0  -0.6826
  O  O110  1  0.169000  0.302500  0.726000  1.0  -0.6147
  O  O111  1  0.499200  0.033400  0.787300  1.0  -0.7006
  O  O112  1  0.417500  0.763600  0.754700  1.0  -0.6978
  O  O113  1  0.122200  0.692600  0.564600  1.0  -0.6296
  O  O114  1  0.664800  0.236300  0.790700  1.0  -0.6408
  O  O115  1  0.968200  0.144600  0.713100  1.0  -0.6764
  O  O116  1  0.104600  0.601700  0.639800  1.0  -0.3703
  O  O117  1  0.424000  0.278900  0.785900  1.0  -0.3826
  O  O118  1  0.165500  0.079800  0.763200  1.0  -0.4046
  O  O119  1  0.794200  0.185600  0.210200  1.0  -0.7375
  O  O120  1  0.810800  0.906500  0.179300  1.0  -0.6354
  O  O121  1  0.892300  0.142600  0.127200  1.0  -0.6465
  O  O122  1  0.477900  0.828600  0.355500  1.0  -0.6758
  O  O123  1  0.099700  0.271600  0.108000  1.0  -0.6831
  O  O124  1  0.831000  0.697500  0.226000  1.0  -0.6161
  O  O125  1  0.500800  0.966600  0.287300  1.0  -0.7009
  O  O126  1  0.582500  0.236400  0.254700  1.0  -0.6964
  O  O127  1  0.877800  0.307400  0.064600  1.0  -0.6275
  O  O128  1  0.335200  0.763700  0.290700  1.0  -0.6382
  O  O129  1  0.031800  0.855400  0.213100  1.0  -0.674
  O  O130  1  0.895400  0.398300  0.139800  1.0  -0.3701
  O  O131  1  0.576000  0.721100  0.285900  1.0  -0.3833
  O  O132  1  0.834500  0.920200  0.263200  1.0  -0.4042
  O  O133  1  0.314400  0.294200  0.960200  1.0  -0.7385
  O  O134  1  0.593500  0.310800  0.929300  1.0  -0.6359
  O  O135  1  0.357400  0.392300  0.877200  1.0  -0.6433
  O  O136  1  0.671400  0.977900  0.105500  1.0  -0.6748
  O  O137  1  0.228400  0.599700  0.858000  1.0  -0.6811
  O  O138  1  0.802500  0.331000  0.976000  1.0  -0.6162
  O  O139  1  0.533400  0.000800  0.037300  1.0  -0.6999
  O  O140  1  0.263600  0.082500  0.004700  1.0  -0.6983
  O  O141  1  0.192600  0.377800  0.814600  1.0  -0.63
  O  O142  1  0.736300  0.835200  0.040700  1.0  -0.6414
  O  O143  1  0.644600  0.531800  0.963100  1.0  -0.6752
  O  O144  1  0.101700  0.395400  0.889800  1.0  -0.3703
  O  O145  1  0.778900  0.076000  0.035900  1.0  -0.381
  O  O146  1  0.579800  0.334500  0.013200  1.0  -0.4042
  O  O147  1  0.685600  0.705800  0.460200  1.0  -0.7384
  O  O148  1  0.406500  0.689200  0.429300  1.0  -0.6372
  O  O149  1  0.642600  0.607700  0.377200  1.0  -0.6467
  O  O150  1  0.328600  0.022100  0.605500  1.0  -0.6771
  O  O151  1  0.771600  0.400300  0.358000  1.0  -0.6816
  O  O152  1  0.197500  0.669000  0.476000  1.0  -0.6146
  O  O153  1  0.466600  0.999200  0.537300  1.0  -0.6994
  O  O154  1  0.736400  0.917500  0.504700  1.0  -0.6967
  O  O155  1  0.807400  0.622200  0.314600  1.0  -0.6328
  O  O156  1  0.263700  0.164800  0.540700  1.0  -0.6395
  O  O157  1  0.355400  0.468200  0.463100  1.0  -0.6749
  O  O158  1  0.898300  0.604600  0.389800  1.0  -0.3686
  O  O159  1  0.221100  0.924000  0.535900  1.0  -0.3824
  O  O160  1  0.420200  0.665500  0.513200  1.0  -0.4042
  F  F161  1  0.073100  0.492900  0.053500  1.0  -0.4884
  F  F162  1  0.817000  0.565000  0.032300  1.0  -0.4832
  F  F163  1  0.926900  0.507100  0.553500  1.0  -0.4903
  F  F164  1  0.183000  0.435000  0.532300  1.0  -0.484
  F  F165  1  0.007100  0.573100  0.803500  1.0  -0.4878
  F  F166  1  0.935000  0.317000  0.782300  1.0  -0.4841
  F  F167  1  0.992900  0.426900  0.303500  1.0  -0.4877
  F  F168  1  0.065000  0.683000  0.282300  1.0  -0.4839
  F  F169  1  0.426900  0.992900  0.696500  1.0  -0.4887
  F  F170  1  0.683000  0.065000  0.717700  1.0  -0.4848
  F  F171  1  0.573100  0.007100  0.196500  1.0  -0.4907
  F  F172  1  0.317000  0.935000  0.217700  1.0  -0.4852
  F  F173  1  0.492900  0.073100  0.946500  1.0  -0.488
  F  F174  1  0.565000  0.817000  0.967700  1.0  -0.4853
  F  F175  1  0.507100  0.926900  0.446500  1.0  -0.4876
  F  F176  1  0.435000  0.183000  0.467700  1.0  -0.4855
