# generated using pymatgen
data_V4(PO4)5
_symmetry_space_group_name_H-M   'P 1'
_cell_length_a   9.64480000
_cell_length_b   8.87700000
_cell_length_c   14.81300000
_cell_angle_alpha   90.00000000
_cell_angle_beta   91.93600000
_cell_angle_gamma   90.00000000
_symmetry_Int_Tables_number   1
_chemical_formula_structural   V4(PO4)5
_chemical_formula_sum   'V8 P10 O40'
_cell_volume   1267.51905561
_cell_formula_units_Z   2
loop_
 _symmetry_equiv_pos_site_id
 _symmetry_equiv_pos_as_xyz
  1  'x, y, z'
loop_
 _atom_site_type_symbol
 _atom_site_label
 _atom_site_symmetry_multiplicity
 _atom_site_fract_x
 _atom_site_fract_y
 _atom_site_fract_z
 _atom_site_occupancy
 _atom_site_charge
  V  V1  1  0.935500  0.997900  0.151300  1.0  1.3509
  V  V2  1  0.168500  0.499800  0.893200  1.0  1.4421
  V  V3  1  0.564500  0.997900  0.348700  1.0  1.3507
  V  V4  1  0.331500  0.499800  0.606800  1.0  1.4421
  V  V5  1  0.064500  0.002100  0.848700  1.0  1.3509
  V  V6  1  0.831500  0.500200  0.106800  1.0  1.4422
  V  V7  1  0.435500  0.002100  0.651300  1.0  1.3512
  V  V8  1  0.668500  0.500200  0.393200  1.0  1.4423
  P  P9  1  0.008000  0.747300  0.004700  1.0  1.8533
  P  P10  1  0.492000  0.747300  0.495300  1.0  1.8538
  P  P11  1  0.992000  0.252700  0.995300  1.0  1.8533
  P  P12  1  0.508000  0.252700  0.504700  1.0  1.8526
  P  P13  1  0.750000  0.253100  0.250000  1.0  1.8191
  P  P14  1  0.750000  0.752300  0.250000  1.0  1.8426
  P  P15  1  0.250000  0.746900  0.750000  1.0  1.8183
  P  P16  1  0.250000  0.247700  0.750000  1.0  1.8424
  P  P17  1  0.250000  0.104600  0.250000  1.0  1.6973
  P  P18  1  0.750000  0.895400  0.750000  1.0  1.6978
  O  O19  1  0.046900  0.838300  0.088200  1.0  -0.7241
  O  O20  1  0.135700  0.649600  0.983300  1.0  -0.737
  O  O21  1  0.965100  0.842700  0.922200  1.0  -0.7605
  O  O22  1  0.881800  0.845500  0.243700  1.0  -0.7163
  O  O23  1  0.880300  0.160700  0.238300  1.0  -0.7728
  O  O24  1  0.729000  0.650200  0.165400  1.0  -0.7771
  O  O25  1  0.720300  0.355200  0.166200  1.0  -0.749
  O  O26  1  0.881400  0.643900  0.019800  1.0  -0.7952
  O  O27  1  0.121400  0.011000  0.240100  1.0  -0.7471
  O  O28  1  0.259400  0.211400  0.165900  1.0  -0.5449
  O  O29  1  0.453100  0.838300  0.411800  1.0  -0.7233
  O  O30  1  0.364300  0.649600  0.516700  1.0  -0.7356
  O  O31  1  0.534900  0.842700  0.577800  1.0  -0.7601
  O  O32  1  0.618200  0.845500  0.256300  1.0  -0.718
  O  O33  1  0.619700  0.160700  0.261700  1.0  -0.7717
  O  O34  1  0.771000  0.650200  0.334600  1.0  -0.7773
  O  O35  1  0.779700  0.355200  0.333800  1.0  -0.7496
  O  O36  1  0.618600  0.643900  0.480200  1.0  -0.7956
  O  O37  1  0.378600  0.011000  0.259900  1.0  -0.7491
  O  O38  1  0.240600  0.211400  0.334100  1.0  -0.5482
  O  O39  1  0.953100  0.161700  0.911800  1.0  -0.7235
  O  O40  1  0.864300  0.350400  0.016700  1.0  -0.7355
  O  O41  1  0.034900  0.157300  0.077800  1.0  -0.7604
  O  O42  1  0.118200  0.154500  0.756300  1.0  -0.7172
  O  O43  1  0.119700  0.839300  0.761700  1.0  -0.7719
  O  O44  1  0.271000  0.349800  0.834600  1.0  -0.7773
  O  O45  1  0.279700  0.644800  0.833800  1.0  -0.7496
  O  O46  1  0.118600  0.356100  0.980200  1.0  -0.7951
  O  O47  1  0.878600  0.989000  0.759900  1.0  -0.7487
  O  O48  1  0.740600  0.788600  0.834100  1.0  -0.5472
  O  O49  1  0.546900  0.161700  0.588200  1.0  -0.7245
  O  O50  1  0.635700  0.350400  0.483300  1.0  -0.737
  O  O51  1  0.465100  0.157300  0.422200  1.0  -0.7606
  O  O52  1  0.381800  0.154500  0.743700  1.0  -0.7171
  O  O53  1  0.380300  0.839300  0.738300  1.0  -0.772
  O  O54  1  0.229000  0.349800  0.665400  1.0  -0.7772
  O  O55  1  0.220300  0.644800  0.666200  1.0  -0.7493
  O  O56  1  0.381400  0.356100  0.519800  1.0  -0.7951
  O  O57  1  0.621400  0.989000  0.740100  1.0  -0.7475
  O  O58  1  0.759400  0.788600  0.665900  1.0  -0.5434
