# generated using pymatgen
data_Na7Mo5P2H26C20(N2O5)5
_symmetry_space_group_name_H-M   'P 1'
_cell_length_a   16.05170000
_cell_length_b   16.05170000
_cell_length_c   42.80820000
_cell_angle_alpha   90.00000000
_cell_angle_beta   90.00000000
_cell_angle_gamma   120.00000000
_symmetry_Int_Tables_number   1
_chemical_formula_structural   Na7Mo5P2H26C20(N2O5)5
_chemical_formula_sum   'Na42 Mo30 P12 H156 C120 N60 O150'
_cell_volume   9552.11774922
_cell_formula_units_Z   6
loop_
 _symmetry_equiv_pos_site_id
 _symmetry_equiv_pos_as_xyz
  1  'x, y, z'
loop_
 _atom_site_type_symbol
 _atom_site_label
 _atom_site_symmetry_multiplicity
 _atom_site_fract_x
 _atom_site_fract_y
 _atom_site_fract_z
 _atom_site_occupancy
 _atom_site_charge
  Na  Na1  1  0.325900  0.721800  0.998400  1.0  0.9063
  Na  Na2  1  0.064000  0.685000  0.014800  1.0  0.8479
  Na  Na3  1  0.976000  0.455700  0.040900  1.0  0.9002
  Na  Na4  1  0.278200  0.604100  0.665070  1.0  0.9069
  Na  Na5  1  0.315000  0.379000  0.681470  1.0  0.8007
  Na  Na6  1  0.544300  0.520300  0.707570  1.0  0.9027
  Na  Na7  1  0.395900  0.674100  0.331730  1.0  0.9066
  Na  Na8  1  0.621000  0.936000  0.348130  1.0  0.8038
  Na  Na9  1  0.479700  0.024000  0.374230  1.0  0.8556
  Na  Na10  1  0.674100  0.278200  0.498400  1.0  0.9065
  Na  Na11  1  0.936000  0.315000  0.514800  1.0  0.8012
  Na  Na12  1  0.024000  0.544300  0.540900  1.0  0.8538
  Na  Na13  1  0.721800  0.395900  0.165070  1.0  0.9058
  Na  Na14  1  0.685000  0.621000  0.181470  1.0  0.846
  Na  Na15  1  0.455700  0.479700  0.207570  1.0  0.8507
  Na  Na16  1  0.604100  0.325900  0.831730  1.0  0.9062
  Na  Na17  1  0.379000  0.064000  0.848130  1.0  0.8039
  Na  Na18  1  0.520300  0.976000  0.874230  1.0  0.9006
  Na  Na19  1  0.721800  0.325900  0.668270  1.0  0.9071
  Na  Na20  1  0.685000  0.064000  0.651870  1.0  0.8039
  Na  Na21  1  0.455700  0.976000  0.625770  1.0  0.8567
  Na  Na22  1  0.604100  0.278200  0.001600  1.0  0.9067
  Na  Na23  1  0.379000  0.315000  0.985200  1.0  0.8483
  Na  Na24  1  0.520300  0.544300  0.959100  1.0  0.9027
  Na  Na25  1  0.674100  0.395900  0.334930  1.0  0.9075
  Na  Na26  1  0.936000  0.621000  0.318530  1.0  0.8029
  Na  Na27  1  0.024000  0.479700  0.292430  1.0  0.9022
  Na  Na28  1  0.278200  0.674100  0.168270  1.0  0.9071
  Na  Na29  1  0.315000  0.936000  0.151870  1.0  0.8047
  Na  Na30  1  0.544300  0.024000  0.125770  1.0  0.9032
  Na  Na31  1  0.395900  0.721800  0.501600  1.0  0.9077
  Na  Na32  1  0.621000  0.685000  0.485200  1.0  0.8032
  Na  Na33  1  0.479700  0.455700  0.459100  1.0  0.8547
  Na  Na34  1  0.325900  0.604100  0.834930  1.0  0.9064
  Na  Na35  1  0.064000  0.379000  0.818530  1.0  0.8465
  Na  Na36  1  0.976000  0.520300  0.792430  1.0  0.8548
  Na  Na37  1  0.849900  0.150100  0.083330  1.0  0.9328
  Na  Na38  1  0.849900  0.699800  0.750000  1.0  0.9389
  Na  Na39  1  0.300200  0.150100  0.416670  1.0  0.9277
  Na  Na40  1  0.150100  0.849900  0.583330  1.0  0.9281
  Na  Na41  1  0.150100  0.300200  0.250000  1.0  0.935
  Na  Na42  1  0.699800  0.849900  0.916670  1.0  0.9341
  Mo  Mo43  1  0.550980  0.683630  0.036020  1.0  0.6681
  Mo  Mo44  1  0.607740  0.509580  0.046260  1.0  1.3145
  Mo  Mo45  1  0.316370  0.867350  0.702690  1.0  0.6675
  Mo  Mo46  1  0.490420  0.098160  0.712930  1.0  1.3147
  Mo  Mo47  1  0.132650  0.449020  0.369350  1.0  0.6648
  Mo  Mo48  1  0.901840  0.392260  0.379590  1.0  1.3146
  Mo  Mo49  1  0.449020  0.316370  0.536020  1.0  0.6691
  Mo  Mo50  1  0.392260  0.490420  0.546260  1.0  1.3128
  Mo  Mo51  1  0.683630  0.132650  0.202690  1.0  0.6651
  Mo  Mo52  1  0.509580  0.901840  0.212930  1.0  1.3128
  Mo  Mo53  1  0.867350  0.550980  0.869350  1.0  0.6671
  Mo  Mo54  1  0.098160  0.607740  0.879590  1.0  1.3124
  Mo  Mo55  1  0.683630  0.550980  0.630650  1.0  0.6669
  Mo  Mo56  1  0.509580  0.607740  0.620410  1.0  1.3124
  Mo  Mo57  1  0.867350  0.316370  0.963980  1.0  0.6688
  Mo  Mo58  1  0.098160  0.490420  0.953740  1.0  1.3127
  Mo  Mo59  1  0.449020  0.132650  0.297310  1.0  0.6693
  Mo  Mo60  1  0.392260  0.901840  0.287070  1.0  1.3144
  Mo  Mo61  1  0.316370  0.449020  0.130650  1.0  0.6666
  Mo  Mo62  1  0.490420  0.392260  0.120410  1.0  1.3143
  Mo  Mo63  1  0.132650  0.683630  0.463980  1.0  0.6694
  Mo  Mo64  1  0.901840  0.509580  0.453740  1.0  1.3151
  Mo  Mo65  1  0.550980  0.867350  0.797310  1.0  0.6641
  Mo  Mo66  1  0.607740  0.098160  0.787070  1.0  1.3131
  Mo  Mo67  1  0.365520  0.634480  0.083330  1.0  0.7066
  Mo  Mo68  1  0.365520  0.731040  0.750000  1.0  0.7059
  Mo  Mo69  1  0.268960  0.634480  0.416670  1.0  0.7087
  Mo  Mo70  1  0.634480  0.365520  0.583330  1.0  0.7085
  Mo  Mo71  1  0.634480  0.268960  0.250000  1.0  0.7052
  Mo  Mo72  1  0.731040  0.365520  0.916670  1.0  0.7076
  P  P73  1  0.380200  0.443400  0.055020  1.0  1.6318
  P  P74  1  0.556600  0.936800  0.721690  1.0  1.632
  P  P75  1  0.063200  0.619800  0.388350  1.0  1.6339
  P  P76  1  0.619800  0.556600  0.555020  1.0  1.6309
  P  P77  1  0.443400  0.063200  0.221690  1.0  1.6327
  P  P78  1  0.936800  0.380200  0.888350  1.0  1.6354
  P  P79  1  0.443400  0.380200  0.611650  1.0  1.6351
  P  P80  1  0.936800  0.556600  0.944980  1.0  1.6319
  P  P81  1  0.619800  0.063200  0.278310  1.0  1.6317
  P  P82  1  0.556600  0.619800  0.111650  1.0  1.6348
  P  P83  1  0.063200  0.443400  0.444980  1.0  1.6317
  P  P84  1  0.380200  0.936800  0.778310  1.0  1.633
  H  H85  1  0.250800  0.402800  0.001900  1.0  0.0852
  H  H86  1  0.232400  0.461000  0.029100  1.0  0.0841
  H  H87  1  0.078100  0.335800  0.010400  1.0  0.0782
  H  H88  1  0.118800  0.364800  0.069900  1.0  0.073
  H  H89  1  0.988300  0.116200  0.036000  1.0  0.0882
  H  H90  1  0.962300  0.323600  0.044100  1.0  0.3117
  H  H91  1  0.146100  0.241300  0.076900  1.0  0.1075
  H  H92  1  0.024700  0.144200  0.110700  1.0  0.1533
  H  H93  1  0.247100  0.192900  0.036600  1.0  0.0883
  H  H94  1  0.269300  0.061000  0.034900  1.0  0.2579
  H  H95  1  0.981700  0.753400  0.052600  1.0  0.2032
  H  H96  1  0.795700  0.801000  0.053600  1.0  0.2798
  H  H97  1  0.823100  0.722900  0.055600  1.0  0.3104
  H  H98  1  0.597200  0.848000  0.668570  1.0  0.0843
  H  H99  1  0.539000  0.771400  0.695770  1.0  0.0833
  H  H100  1  0.664200  0.742300  0.677070  1.0  0.0787
  H  H101  1  0.635200  0.754000  0.736570  1.0  0.0739
  H  H102  1  0.883800  0.872100  0.702670  1.0  0.0879
  H  H103  1  0.676400  0.638700  0.710770  1.0  0.308
  H  H104  1  0.758700  0.904800  0.743570  1.0  0.1089
  H  H105  1  0.855800  0.880500  0.777370  1.0  0.1524
  H  H106  1  0.807100  0.054200  0.703270  1.0  0.0899
  H  H107  1  0.939000  0.208300  0.701570  1.0  0.2533
  H  H108  1  0.246600  0.228300  0.719270  1.0  0.2023
  H  H109  1  0.199000  0.994700  0.720270  1.0  0.2798
  H  H110  1  0.277100  0.100200  0.722270  1.0  0.3129
  H  H111  1  0.152000  0.749200  0.335230  1.0  0.0861
  H  H112  1  0.228600  0.767600  0.362430  1.0  0.0823
  H  H113  1  0.257700  0.921900  0.343730  1.0  0.0779
  H  H114  1  0.246000  0.881200  0.403230  1.0  0.0732
  H  H115  1  0.127900  0.011700  0.369330  1.0  0.0881
  H  H116  1  0.361300  0.037700  0.377430  1.0  0.3084
  H  H117  1  0.095200  0.853900  0.410230  1.0  0.1084
  H  H118  1  0.119500  0.975300  0.444030  1.0  0.1528
  H  H119  1  0.945800  0.752900  0.369930  1.0  0.0864
  H  H120  1  0.791700  0.730700  0.368230  1.0  0.2556
  H  H121  1  0.771700  0.018300  0.385930  1.0  0.2022
  H  H122  1  0.005300  0.204300  0.386930  1.0  0.2784
  H  H123  1  0.899800  0.176900  0.388930  1.0  0.3126
  H  H124  1  0.749200  0.597200  0.501900  1.0  0.0845
  H  H125  1  0.767600  0.539000  0.529100  1.0  0.0803
  H  H126  1  0.921900  0.664200  0.510400  1.0  0.0787
  H  H127  1  0.881200  0.635200  0.569900  1.0  0.074
  H  H128  1  0.011700  0.883800  0.536000  1.0  0.0869
  H  H129  1  0.037700  0.676400  0.544100  1.0  0.3134
  H  H130  1  0.853900  0.758700  0.576900  1.0  0.1066
  H  H131  1  0.975300  0.855800  0.610700  1.0  0.1518
  H  H132  1  0.752900  0.807100  0.536600  1.0  0.0875
  H  H133  1  0.730700  0.939000  0.534900  1.0  0.2594
  H  H134  1  0.018300  0.246600  0.552600  1.0  0.2012
  H  H135  1  0.204300  0.199000  0.553600  1.0  0.2837
  H  H136  1  0.176900  0.277100  0.555600  1.0  0.3103
  H  H137  1  0.402800  0.152000  0.168570  1.0  0.086
  H  H138  1  0.461000  0.228600  0.195770  1.0  0.082
  H  H139  1  0.335800  0.257700  0.177070  1.0  0.0773
  H  H140  1  0.364800  0.246000  0.236570  1.0  0.0728
  H  H141  1  0.116200  0.127900  0.202670  1.0  0.0888
  H  H142  1  0.323600  0.361300  0.210770  1.0  0.3095
  H  H143  1  0.241300  0.095200  0.243570  1.0  0.1088
  H  H144  1  0.144200  0.119500  0.277370  1.0  0.1532
  H  H145  1  0.192900  0.945800  0.203270  1.0  0.0886
  H  H146  1  0.061000  0.791700  0.201570  1.0  0.2553
  H  H147  1  0.753400  0.771700  0.219270  1.0  0.2031
  H  H148  1  0.801000  0.005300  0.220270  1.0  0.281
  H  H149  1  0.722900  0.899800  0.222270  1.0  0.3143
  H  H150  1  0.848000  0.250800  0.835230  1.0  0.0844
  H  H151  1  0.771400  0.232400  0.862430  1.0  0.0852
  H  H152  1  0.742300  0.078100  0.843730  1.0  0.0775
  H  H153  1  0.754000  0.118800  0.903230  1.0  0.0726
  H  H154  1  0.872100  0.988300  0.869330  1.0  0.0883
  H  H155  1  0.638700  0.962300  0.877430  1.0  0.3095
  H  H156  1  0.904800  0.146100  0.910230  1.0  0.1079
  H  H157  1  0.880500  0.024700  0.944030  1.0  0.1559
  H  H158  1  0.054200  0.247100  0.869930  1.0  0.0882
  H  H159  1  0.208300  0.269300  0.868230  1.0  0.2537
  H  H160  1  0.228300  0.981700  0.885930  1.0  0.2042
  H  H161  1  0.994700  0.795700  0.886930  1.0  0.279
  H  H162  1  0.100200  0.823100  0.888930  1.0  0.3137
  H  H163  1  0.402800  0.250800  0.664770  1.0  0.0832
  H  H164  1  0.461000  0.232400  0.637570  1.0  0.0823
  H  H165  1  0.335800  0.078100  0.656270  1.0  0.0768
  H  H166  1  0.364800  0.118800  0.596770  1.0  0.0727
  H  H167  1  0.116200  0.988300  0.630670  1.0  0.0879
  H  H168  1  0.323600  0.962300  0.622570  1.0  0.3103
  H  H169  1  0.241300  0.146100  0.589770  1.0  0.1042
  H  H170  1  0.144200  0.024700  0.555970  1.0  0.1541
  H  H171  1  0.192900  0.247100  0.630070  1.0  0.0875
  H  H172  1  0.061000  0.269300  0.631770  1.0  0.2529
  H  H173  1  0.753400  0.981700  0.614070  1.0  0.2028
  H  H174  1  0.801000  0.795700  0.613070  1.0  0.2796
  H  H175  1  0.722900  0.823100  0.611070  1.0  0.3115
  H  H176  1  0.848000  0.597200  0.998100  1.0  0.0847
  H  H177  1  0.771400  0.539000  0.970900  1.0  0.08
  H  H178  1  0.742300  0.664200  0.989600  1.0  0.0779
  H  H179  1  0.754000  0.635200  0.930100  1.0  0.0727
  H  H180  1  0.872100  0.883800  0.964000  1.0  0.0879
  H  H181  1  0.638700  0.676400  0.955900  1.0  0.3112
  H  H182  1  0.904800  0.758700  0.923100  1.0  0.1026
  H  H183  1  0.880500  0.855800  0.889300  1.0  0.1529
  H  H184  1  0.054200  0.807100  0.963400  1.0  0.0885
  H  H185  1  0.208300  0.939000  0.965100  1.0  0.2577
  H  H186  1  0.228300  0.246600  0.947400  1.0  0.2012
  H  H187  1  0.994700  0.199000  0.946400  1.0  0.2802
  H  H188  1  0.100200  0.277100  0.944400  1.0  0.3096
  H  H189  1  0.749200  0.152000  0.331430  1.0  0.0843
  H  H190  1  0.767600  0.228600  0.304230  1.0  0.0834
  H  H191  1  0.921900  0.257700  0.322930  1.0  0.0763
  H  H192  1  0.881200  0.246000  0.263430  1.0  0.0722
  H  H193  1  0.011700  0.127900  0.297330  1.0  0.0878
  H  H194  1  0.037700  0.361300  0.289230  1.0  0.309
  H  H195  1  0.853900  0.095200  0.256430  1.0  0.1047
  H  H196  1  0.975300  0.119500  0.222630  1.0  0.1537
  H  H197  1  0.752900  0.945800  0.296730  1.0  0.0897
  H  H198  1  0.730700  0.791700  0.298430  1.0  0.2545
  H  H199  1  0.018300  0.771700  0.280730  1.0  0.2027
  H  H200  1  0.204300  0.005300  0.279730  1.0  0.2798
  H  H201  1  0.176900  0.899800  0.277730  1.0  0.3129
  H  H202  1  0.597200  0.749200  0.164770  1.0  0.0857
  H  H203  1  0.539000  0.767600  0.137570  1.0  0.0859
  H  H204  1  0.664200  0.921900  0.156270  1.0  0.0773
  H  H205  1  0.635200  0.881200  0.096770  1.0  0.072
  H  H206  1  0.883800  0.011700  0.130670  1.0  0.0883
  H  H207  1  0.676400  0.037700  0.122570  1.0  0.3062
  H  H208  1  0.758700  0.853900  0.089770  1.0  0.1047
  H  H209  1  0.855800  0.975300  0.055970  1.0  0.1558
  H  H210  1  0.807100  0.752900  0.130070  1.0  0.0864
  H  H211  1  0.939000  0.730700  0.131770  1.0  0.2556
  H  H212  1  0.246600  0.018300  0.114070  1.0  0.2038
  H  H213  1  0.199000  0.204300  0.113070  1.0  0.2762
  H  H214  1  0.277100  0.176900  0.111070  1.0  0.3126
  H  H215  1  0.152000  0.402800  0.498100  1.0  0.084
  H  H216  1  0.228600  0.461000  0.470900  1.0  0.0836
  H  H217  1  0.257700  0.335800  0.489600  1.0  0.0772
  H  H218  1  0.246000  0.364800  0.430100  1.0  0.073
  H  H219  1  0.127900  0.116200  0.464000  1.0  0.0868
  H  H220  1  0.361300  0.323600  0.455900  1.0  0.3133
  H  H221  1  0.095200  0.241300  0.423100  1.0  0.1038
  H  H222  1  0.119500  0.144200  0.389300  1.0  0.1531
  H  H223  1  0.945800  0.192900  0.463400  1.0  0.0885
  H  H224  1  0.791700  0.061000  0.465100  1.0  0.2594
  H  H225  1  0.771700  0.753400  0.447400  1.0  0.2025
  H  H226  1  0.005300  0.801000  0.446400  1.0  0.2827
  H  H227  1  0.899800  0.722900  0.444400  1.0  0.3101
  H  H228  1  0.250800  0.848000  0.831430  1.0  0.0834
  H  H229  1  0.232400  0.771400  0.804230  1.0  0.0826
  H  H230  1  0.078100  0.742300  0.822930  1.0  0.0781
  H  H231  1  0.118800  0.754000  0.763430  1.0  0.0728
  H  H232  1  0.988300  0.872100  0.797330  1.0  0.0883
  H  H233  1  0.962300  0.638700  0.789230  1.0  0.3081
  H  H234  1  0.146100  0.904800  0.756430  1.0  0.1056
  H  H235  1  0.024700  0.880500  0.722630  1.0  0.1519
  H  H236  1  0.247100  0.054200  0.796730  1.0  0.0882
  H  H237  1  0.269300  0.208300  0.798430  1.0  0.2532
  H  H238  1  0.981700  0.228300  0.780730  1.0  0.2032
  H  H239  1  0.795700  0.994700  0.779730  1.0  0.2792
  H  H240  1  0.823100  0.100200  0.777730  1.0  0.3135
  C  C241  1  0.224900  0.397900  0.023300  1.0  0.024
  C  C242  1  0.116000  0.317500  0.024600  1.0  0.0689
  C  C243  1  0.078200  0.306400  0.057000  1.0  0.0217
  C  C244  1  0.059300  0.156300  0.039400  1.0  -0.0508
  C  C245  1  0.080300  0.221300  0.068800  1.0  0.039
  C  C246  1  0.198000  0.127300  0.037200  1.0  0.1592
  C  C247  1  0.054100  0.000300  0.041900  1.0  0.2042
  C  C248  1  0.124600  0.973700  0.040600  1.0  0.1088
  C  C249  1  0.933900  0.851200  0.048800  1.0  0.1939
  C  C250  1  0.105700  0.876800  0.042800  1.0  0.3689
  C  C251  1  0.602100  0.827000  0.689970  1.0  0.021
  C  C252  1  0.682500  0.798500  0.691270  1.0  0.069
  C  C253  1  0.693600  0.771800  0.723670  1.0  0.026
  C  C254  1  0.843700  0.903000  0.706070  1.0  -0.0524
  C  C255  1  0.778700  0.859000  0.735470  1.0  0.0413
  C  C256  1  0.872700  0.070700  0.703870  1.0  0.1579
  C  C257  1  0.999700  0.053800  0.708570  1.0  0.2045
  C  C258  1  0.026300  0.150900  0.707270  1.0  0.1123
  C  C259  1  0.148800  0.082700  0.715470  1.0  0.193
  C  C260  1  0.123200  0.228900  0.709470  1.0  0.3694
  C  C261  1  0.173000  0.775100  0.356630  1.0  0.0218
  C  C262  1  0.201500  0.884000  0.357930  1.0  0.0692
  C  C263  1  0.228200  0.921800  0.390330  1.0  0.023
  C  C264  1  0.097000  0.940700  0.372730  1.0  -0.0497
  C  C265  1  0.141000  0.919700  0.402130  1.0  0.0423
  C  C266  1  0.929300  0.802000  0.370530  1.0  0.1586
  C  C267  1  0.946200  0.945900  0.375230  1.0  0.2041
  C  C268  1  0.849100  0.875400  0.373930  1.0  0.1086
  C  C269  1  0.917300  0.066100  0.382130  1.0  0.1947
  C  C270  1  0.771100  0.894300  0.376130  1.0  0.3683
  C  C271  1  0.775100  0.602100  0.523300  1.0  0.0245
  C  C272  1  0.884000  0.682500  0.524600  1.0  0.0695
  C  C273  1  0.921800  0.693600  0.557000  1.0  0.0237
  C  C274  1  0.940700  0.843700  0.539400  1.0  -0.0497
  C  C275  1  0.919700  0.778700  0.568800  1.0  0.0417
  C  C276  1  0.802000  0.872700  0.537200  1.0  0.1571
  C  C277  1  0.945900  0.999700  0.541900  1.0  0.2033
  C  C278  1  0.875400  0.026300  0.540600  1.0  0.1079
  C  C279  1  0.066100  0.148800  0.548800  1.0  0.1934
  C  C280  1  0.894300  0.123200  0.542800  1.0  0.3706
  C  C281  1  0.397900  0.173000  0.189970  1.0  0.0191
  C  C282  1  0.317500  0.201500  0.191270  1.0  0.0682
  C  C283  1  0.306400  0.228200  0.223670  1.0  0.0251
  C  C284  1  0.156300  0.097000  0.206070  1.0  -0.0519
  C  C285  1  0.221300  0.141000  0.235470  1.0  0.0406
  C  C286  1  0.127300  0.929300  0.203870  1.0  0.1581
  C  C287  1  0.000300  0.946200  0.208570  1.0  0.2057
  C  C288  1  0.973700  0.849100  0.207270  1.0  0.1114
  C  C289  1  0.851200  0.917300  0.215470  1.0  0.1944
  C  C290  1  0.876800  0.771100  0.209470  1.0  0.3711
  C  C291  1  0.827000  0.224900  0.856630  1.0  0.0226
  C  C292  1  0.798500  0.116000  0.857930  1.0  0.0696
  C  C293  1  0.771800  0.078200  0.890330  1.0  0.0221
  C  C294  1  0.903000  0.059300  0.872730  1.0  -0.0504
  C  C295  1  0.859000  0.080300  0.902130  1.0  0.0422
  C  C296  1  0.070700  0.198000  0.870530  1.0  0.1618
  C  C297  1  0.053800  0.054100  0.875230  1.0  0.2038
  C  C298  1  0.150900  0.124600  0.873930  1.0  0.111
  C  C299  1  0.082700  0.933900  0.882130  1.0  0.1947
  C  C300  1  0.228900  0.105700  0.876130  1.0  0.3678
  C  C301  1  0.397900  0.224900  0.643370  1.0  0.0241
  C  C302  1  0.317500  0.116000  0.642070  1.0  0.07
  C  C303  1  0.306400  0.078200  0.609670  1.0  0.021
  C  C304  1  0.156300  0.059300  0.627270  1.0  -0.0489
  C  C305  1  0.221300  0.080300  0.597870  1.0  0.0422
  C  C306  1  0.127300  0.198000  0.629470  1.0  0.1606
  C  C307  1  0.000300  0.054100  0.624770  1.0  0.2039
  C  C308  1  0.973700  0.124600  0.626070  1.0  0.1092
  C  C309  1  0.851200  0.933900  0.617870  1.0  0.1951
  C  C310  1  0.876800  0.105700  0.623870  1.0  0.3691
  C  C311  1  0.827000  0.602100  0.976700  1.0  0.0255
  C  C312  1  0.798500  0.682500  0.975400  1.0  0.0688
  C  C313  1  0.771800  0.693600  0.943000  1.0  0.0217
  C  C314  1  0.903000  0.843700  0.960600  1.0  -0.0502
  C  C315  1  0.859000  0.778700  0.931200  1.0  0.0402
  C  C316  1  0.070700  0.872700  0.962800  1.0  0.1585
  C  C317  1  0.053800  0.999700  0.958100  1.0  0.2042
  C  C318  1  0.150900  0.026300  0.959400  1.0  0.1092
  C  C319  1  0.082700  0.148800  0.951200  1.0  0.1937
  C  C320  1  0.228900  0.123200  0.957200  1.0  0.3691
  C  C321  1  0.775100  0.173000  0.310030  1.0  0.0224
  C  C322  1  0.884000  0.201500  0.308730  1.0  0.0688
  C  C323  1  0.921800  0.228200  0.276330  1.0  0.0252
  C  C324  1  0.940700  0.097000  0.293930  1.0  -0.0519
  C  C325  1  0.919700  0.141000  0.264530  1.0  0.0409
  C  C326  1  0.802000  0.929300  0.296130  1.0  0.1574
  C  C327  1  0.945900  0.946200  0.291430  1.0  0.2052
  C  C328  1  0.875400  0.849100  0.292730  1.0  0.1125
  C  C329  1  0.066100  0.917300  0.284530  1.0  0.1937
  C  C330  1  0.894300  0.771100  0.290530  1.0  0.3709
  C  C331  1  0.602100  0.775100  0.143370  1.0  0.0239
  C  C332  1  0.682500  0.884000  0.142070  1.0  0.069
  C  C333  1  0.693600  0.921800  0.109670  1.0  0.0227
  C  C334  1  0.843700  0.940700  0.127270  1.0  -0.0497
  C  C335  1  0.778700  0.919700  0.097870  1.0  0.0419
  C  C336  1  0.872700  0.802000  0.129470  1.0  0.1609
  C  C337  1  0.999700  0.945900  0.124770  1.0  0.2044
  C  C338  1  0.026300  0.875400  0.126070  1.0  0.1108
  C  C339  1  0.148800  0.066100  0.117870  1.0  0.195
  C  C340  1  0.123200  0.894300  0.123870  1.0  0.3687
  C  C341  1  0.173000  0.397900  0.476700  1.0  0.0259
  C  C342  1  0.201500  0.317500  0.475400  1.0  0.0689
  C  C343  1  0.228200  0.306400  0.443000  1.0  0.0242
  C  C344  1  0.097000  0.156300  0.460600  1.0  -0.0496
  C  C345  1  0.141000  0.221300  0.431200  1.0  0.0413
  C  C346  1  0.929300  0.127300  0.462800  1.0  0.1575
  C  C347  1  0.946200  0.000300  0.458100  1.0  0.2039
  C  C348  1  0.849100  0.973700  0.459400  1.0  0.107
  C  C349  1  0.917300  0.851200  0.451200  1.0  0.1939
  C  C350  1  0.771100  0.876800  0.457200  1.0  0.3697
  C  C351  1  0.224900  0.827000  0.810030  1.0  0.0219
  C  C352  1  0.116000  0.798500  0.808730  1.0  0.0683
  C  C353  1  0.078200  0.771800  0.776330  1.0  0.0255
  C  C354  1  0.059300  0.903000  0.793930  1.0  -0.0517
  C  C355  1  0.080300  0.859000  0.764530  1.0  0.0418
  C  C356  1  0.198000  0.070700  0.796130  1.0  0.1598
  C  C357  1  0.054100  0.053800  0.791430  1.0  0.2054
  C  C358  1  0.124600  0.150900  0.792730  1.0  0.1113
  C  C359  1  0.933900  0.082700  0.784530  1.0  0.1937
  C  C360  1  0.105700  0.228900  0.790530  1.0  0.3693
  N  N361  1  0.103000  0.096800  0.038570  1.0  0.0662
  N  N362  1  0.213100  0.057500  0.037000  1.0  -0.2309
  N  N363  1  0.956900  0.941600  0.045220  1.0  -0.4517
  N  N364  1  0.003600  0.814800  0.048800  1.0  -0.3959
  N  N365  1  0.839800  0.783700  0.053200  1.0  -0.6504
  N  N366  1  0.903200  0.006200  0.705240  1.0  0.066
  N  N367  1  0.942500  0.155600  0.703670  1.0  -0.2248
  N  N368  1  0.058400  0.015300  0.711890  1.0  -0.4535
  N  N369  1  0.185200  0.188800  0.715470  1.0  -0.3965
  N  N370  1  0.216300  0.056100  0.719870  1.0  -0.6498
  N  N371  1  0.993800  0.897000  0.371900  1.0  0.0679
  N  N372  1  0.844400  0.786900  0.370330  1.0  -0.2273
  N  N373  1  0.984700  0.043100  0.378550  1.0  -0.4548
  N  N374  1  0.811200  0.996400  0.382130  1.0  -0.3976
  N  N375  1  0.943900  0.160200  0.386530  1.0  -0.6529
  N  N376  1  0.897000  0.903200  0.538570  1.0  0.0674
  N  N377  1  0.786900  0.942500  0.537000  1.0  -0.2291
  N  N378  1  0.043100  0.058400  0.545220  1.0  -0.4534
  N  N379  1  0.996400  0.185200  0.548800  1.0  -0.3933
  N  N380  1  0.160200  0.216300  0.553200  1.0  -0.6513
  N  N381  1  0.096800  0.993800  0.205240  1.0  0.0664
  N  N382  1  0.057500  0.844400  0.203670  1.0  -0.2293
  N  N383  1  0.941600  0.984700  0.211890  1.0  -0.4524
  N  N384  1  0.814800  0.811200  0.215470  1.0  -0.397
  N  N385  1  0.783700  0.943900  0.219870  1.0  -0.6505
  N  N386  1  0.006200  0.103000  0.871900  1.0  0.0667
  N  N387  1  0.155600  0.213100  0.870330  1.0  -0.2267
  N  N388  1  0.015300  0.956900  0.878550  1.0  -0.4545
  N  N389  1  0.188800  0.003600  0.882130  1.0  -0.3979
  N  N390  1  0.056100  0.839800  0.886530  1.0  -0.6513
  N  N391  1  0.096800  0.103000  0.628100  1.0  0.0676
  N  N392  1  0.057500  0.213100  0.629670  1.0  -0.2246
  N  N393  1  0.941600  0.956900  0.621450  1.0  -0.4536
  N  N394  1  0.814800  0.003600  0.617870  1.0  -0.3979
  N  N395  1  0.783700  0.839800  0.613470  1.0  -0.6511
  N  N396  1  0.006200  0.903200  0.961430  1.0  0.0671
  N  N397  1  0.155600  0.942500  0.963000  1.0  -0.2313
  N  N398  1  0.015300  0.058400  0.954780  1.0  -0.4504
  N  N399  1  0.188800  0.185200  0.951200  1.0  -0.3945
  N  N400  1  0.056100  0.216300  0.946800  1.0  -0.6513
  N  N401  1  0.897000  0.993800  0.294760  1.0  0.0667
  N  N402  1  0.786900  0.844400  0.296330  1.0  -0.2292
  N  N403  1  0.043100  0.984700  0.288110  1.0  -0.4528
  N  N404  1  0.996400  0.811200  0.284530  1.0  -0.3973
  N  N405  1  0.160200  0.943900  0.280130  1.0  -0.6499
  N  N406  1  0.903200  0.897000  0.128100  1.0  0.0675
  N  N407  1  0.942500  0.786900  0.129670  1.0  -0.2298
  N  N408  1  0.058400  0.043100  0.121450  1.0  -0.4534
  N  N409  1  0.185200  0.996400  0.117870  1.0  -0.397
  N  N410  1  0.216300  0.160200  0.113470  1.0  -0.654
  N  N411  1  0.993800  0.096800  0.461430  1.0  0.067
  N  N412  1  0.844400  0.057500  0.463000  1.0  -0.2288
  N  N413  1  0.984700  0.941600  0.454780  1.0  -0.4521
  N  N414  1  0.811200  0.814800  0.451200  1.0  -0.395
  N  N415  1  0.943900  0.783700  0.446800  1.0  -0.6511
  N  N416  1  0.103000  0.006200  0.794760  1.0  0.0666
  N  N417  1  0.213100  0.155600  0.796330  1.0  -0.2256
  N  N418  1  0.956900  0.015300  0.788110  1.0  -0.4511
  N  N419  1  0.003600  0.188800  0.784530  1.0  -0.3981
  N  N420  1  0.839800  0.056100  0.780130  1.0  -0.6503
  O  O421  1  0.401600  0.546800  0.050060  1.0  -0.9183
  O  O422  1  0.580200  0.617200  0.077210  1.0  -0.9071
  O  O423  1  0.491500  0.722700  0.067530  1.0  -0.6834
  O  O424  1  0.588200  0.593100  0.020090  1.0  -0.7413
  O  O425  1  0.446200  0.422100  0.037310  1.0  -0.8676
  O  O426  1  0.274400  0.371300  0.044800  1.0  -0.3921
  O  O427  1  0.618500  0.434700  0.019370  1.0  -0.8226
  O  O428  1  0.101900  0.225900  0.015150  1.0  -0.3743
  O  O429  1  0.977700  0.283400  0.056100  1.0  -0.6292
  O  O430  1  0.010300  0.169300  0.092720  1.0  -0.5912
  O  O431  1  0.159600  0.843700  0.042000  1.0  -0.5892
  O  O432  1  0.185100  0.749800  0.995400  1.0  -0.769
  O  O433  1  0.453200  0.854800  0.716730  1.0  -0.9193
  O  O434  1  0.382800  0.963000  0.743880  1.0  -0.9074
  O  O435  1  0.277300  0.768800  0.734200  1.0  -0.677
  O  O436  1  0.406900  0.995100  0.686760  1.0  -0.7409
  O  O437  1  0.577900  0.024100  0.703980  1.0  -0.8701
  O  O438  1  0.628700  0.903100  0.711470  1.0  -0.3921
  O  O439  1  0.565300  0.183800  0.686040  1.0  -0.8222
  O  O440  1  0.774100  0.876000  0.681820  1.0  -0.3742
  O  O441  1  0.716600  0.694300  0.722770  1.0  -0.631
  O  O442  1  0.830700  0.841000  0.759390  1.0  -0.5898
  O  O443  1  0.156300  0.315900  0.708670  1.0  -0.5955
  O  O444  1  0.250200  0.435300  0.662070  1.0  -0.7786
  O  O445  1  0.145200  0.598400  0.383390  1.0  -0.9176
  O  O446  1  0.037000  0.419800  0.410540  1.0  -0.9077
  O  O447  1  0.231200  0.508500  0.400860  1.0  -0.6756
  O  O448  1  0.004900  0.411800  0.353420  1.0  -0.7414
  O  O449  1  0.975900  0.553800  0.370640  1.0  -0.868
  O  O450  1  0.096900  0.725600  0.378130  1.0  -0.3959
  O  O451  1  0.816200  0.381500  0.352700  1.0  -0.8189
  O  O452  1  0.124000  0.898100  0.348480  1.0  -0.3736
  O  O453  1  0.305700  0.022300  0.389430  1.0  -0.6331
  O  O454  1  0.159000  0.989700  0.426050  1.0  -0.589
  O  O455  1  0.684100  0.840400  0.375330  1.0  -0.5904
  O  O456  1  0.564700  0.814900  0.328730  1.0  -0.7771
  O  O457  1  0.598400  0.453200  0.550060  1.0  -0.9197
  O  O458  1  0.419800  0.382800  0.577210  1.0  -0.9068
  O  O459  1  0.508500  0.277300  0.567530  1.0  -0.6784
  O  O460  1  0.411800  0.406900  0.520090  1.0  -0.7417
  O  O461  1  0.553800  0.577900  0.537310  1.0  -0.8682
  O  O462  1  0.725600  0.628700  0.544800  1.0  -0.3919
  O  O463  1  0.381500  0.565300  0.519370  1.0  -0.8215
  O  O464  1  0.898100  0.774100  0.515150  1.0  -0.3737
  O  O465  1  0.022300  0.716600  0.556100  1.0  -0.6283
  O  O466  1  0.989700  0.830700  0.592720  1.0  -0.5892
  O  O467  1  0.840400  0.156300  0.542000  1.0  -0.5898
  O  O468  1  0.814900  0.250200  0.495400  1.0  -0.7719
  O  O469  1  0.546800  0.145200  0.216730  1.0  -0.9182
  O  O470  1  0.617200  0.037000  0.243880  1.0  -0.9083
  O  O471  1  0.722700  0.231200  0.234200  1.0  -0.6727
  O  O472  1  0.593100  0.004900  0.186760  1.0  -0.7418
  O  O473  1  0.422100  0.975900  0.203980  1.0  -0.8695
  O  O474  1  0.371300  0.096900  0.211470  1.0  -0.3932
  O  O475  1  0.434700  0.816200  0.186040  1.0  -0.8251
  O  O476  1  0.225900  0.124000  0.181820  1.0  -0.3742
  O  O477  1  0.283400  0.305700  0.222770  1.0  -0.6327
  O  O478  1  0.169300  0.159000  0.259390  1.0  -0.5905
  O  O479  1  0.843700  0.684100  0.208670  1.0  -0.5988
  O  O480  1  0.749800  0.564700  0.162070  1.0  -0.7744
  O  O481  1  0.854800  0.401600  0.883390  1.0  -0.9139
  O  O482  1  0.963000  0.580200  0.910540  1.0  -0.9069
  O  O483  1  0.768800  0.491500  0.900860  1.0  -0.6772
  O  O484  1  0.995100  0.588200  0.853420  1.0  -0.7412
  O  O485  1  0.024100  0.446200  0.870640  1.0  -0.8665
  O  O486  1  0.903100  0.274400  0.878130  1.0  -0.3935
  O  O487  1  0.183800  0.618500  0.852700  1.0  -0.8176
  O  O488  1  0.876000  0.101900  0.848480  1.0  -0.3749
  O  O489  1  0.694300  0.977700  0.889430  1.0  -0.632
  O  O490  1  0.841000  0.010300  0.926050  1.0  -0.5908
  O  O491  1  0.315900  0.159600  0.875330  1.0  -0.5901
  O  O492  1  0.435300  0.185100  0.828730  1.0  -0.777
  O  O493  1  0.546800  0.401600  0.616610  1.0  -0.9165
  O  O494  1  0.617200  0.580200  0.589460  1.0  -0.9078
  O  O495  1  0.722700  0.491500  0.599140  1.0  -0.675
  O  O496  1  0.593100  0.588200  0.646580  1.0  -0.741
  O  O497  1  0.422100  0.446200  0.629360  1.0  -0.8684
  O  O498  1  0.371300  0.274400  0.621870  1.0  -0.3944
  O  O499  1  0.434700  0.618500  0.647300  1.0  -0.8195
  O  O500  1  0.225900  0.101900  0.651520  1.0  -0.3757
  O  O501  1  0.283400  0.977700  0.610570  1.0  -0.6336
  O  O502  1  0.169300  0.010300  0.573950  1.0  -0.5877
  O  O503  1  0.843700  0.159600  0.624670  1.0  -0.5903
  O  O504  1  0.749800  0.185100  0.671270  1.0  -0.7788
  O  O505  1  0.854800  0.453200  0.949940  1.0  -0.9186
  O  O506  1  0.963000  0.382800  0.922790  1.0  -0.9074
  O  O507  1  0.768800  0.277300  0.932470  1.0  -0.6804
  O  O508  1  0.995100  0.406900  0.979910  1.0  -0.7413
  O  O509  1  0.024100  0.577900  0.962690  1.0  -0.8688
  O  O510  1  0.903100  0.628700  0.955200  1.0  -0.3917
  O  O511  1  0.183800  0.565300  0.980630  1.0  -0.8217
  O  O512  1  0.876000  0.774100  0.984850  1.0  -0.3761
  O  O513  1  0.694300  0.716600  0.943900  1.0  -0.6303
  O  O514  1  0.841000  0.830700  0.907280  1.0  -0.5888
  O  O515  1  0.315900  0.156300  0.958000  1.0  -0.5891
  O  O516  1  0.435300  0.250200  0.004600  1.0  -0.77
  O  O517  1  0.598400  0.145200  0.283270  1.0  -0.9173
  O  O518  1  0.419800  0.037000  0.256120  1.0  -0.9078
  O  O519  1  0.508500  0.231200  0.265800  1.0  -0.6706
  O  O520  1  0.411800  0.004900  0.313240  1.0  -0.7413
  O  O521  1  0.553800  0.975900  0.296020  1.0  -0.8699
  O  O522  1  0.725600  0.096900  0.288530  1.0  -0.3923
  O  O523  1  0.381500  0.816200  0.313960  1.0  -0.8261
  O  O524  1  0.898100  0.124000  0.318180  1.0  -0.3757
  O  O525  1  0.022300  0.305700  0.277230  1.0  -0.6338
  O  O526  1  0.989700  0.159000  0.240610  1.0  -0.5871
  O  O527  1  0.840400  0.684100  0.291330  1.0  -0.5981
  O  O528  1  0.814900  0.564700  0.337930  1.0  -0.7783
  O  O529  1  0.453200  0.598400  0.116610  1.0  -0.9133
  O  O530  1  0.382800  0.419800  0.089460  1.0  -0.9075
  O  O531  1  0.277300  0.508500  0.099140  1.0  -0.6759
  O  O532  1  0.406900  0.411800  0.146580  1.0  -0.7416
  O  O533  1  0.577900  0.553800  0.129360  1.0  -0.8676
  O  O534  1  0.628700  0.725600  0.121870  1.0  -0.3948
  O  O535  1  0.565300  0.381500  0.147300  1.0  -0.8189
  O  O536  1  0.774100  0.898100  0.151520  1.0  -0.3762
  O  O537  1  0.716600  0.022300  0.110570  1.0  -0.6329
  O  O538  1  0.830700  0.989700  0.073950  1.0  -0.5868
  O  O539  1  0.156300  0.840400  0.124670  1.0  -0.5907
  O  O540  1  0.250200  0.814900  0.171270  1.0  -0.777
  O  O541  1  0.145200  0.546800  0.449940  1.0  -0.9182
  O  O542  1  0.037000  0.617200  0.422790  1.0  -0.9066
  O  O543  1  0.231200  0.722700  0.432470  1.0  -0.6799
  O  O544  1  0.004900  0.593100  0.479910  1.0  -0.7408
  O  O545  1  0.975900  0.422100  0.462690  1.0  -0.8681
  O  O546  1  0.096900  0.371300  0.455200  1.0  -0.3917
  O  O547  1  0.816200  0.434700  0.480630  1.0  -0.8244
  O  O548  1  0.124000  0.225900  0.484850  1.0  -0.3754
  O  O549  1  0.305700  0.283400  0.443900  1.0  -0.6327
  O  O550  1  0.159000  0.169300  0.407280  1.0  -0.585
  O  O551  1  0.684100  0.843700  0.458000  1.0  -0.5893
  O  O552  1  0.564700  0.749800  0.504600  1.0  -0.7723
  O  O553  1  0.401600  0.854800  0.783270  1.0  -0.9191
  O  O554  1  0.580200  0.963000  0.756120  1.0  -0.9084
  O  O555  1  0.491500  0.768800  0.765800  1.0  -0.6793
  O  O556  1  0.588200  0.995100  0.813240  1.0  -0.741
  O  O557  1  0.446200  0.024100  0.796020  1.0  -0.8704
  O  O558  1  0.274400  0.903100  0.788530  1.0  -0.3937
  O  O559  1  0.618500  0.183800  0.813960  1.0  -0.8236
  O  O560  1  0.101900  0.876000  0.818180  1.0  -0.377
  O  O561  1  0.977700  0.694300  0.777230  1.0  -0.6343
  O  O562  1  0.010300  0.841000  0.740610  1.0  -0.5884
  O  O563  1  0.159600  0.315900  0.791330  1.0  -0.596
  O  O564  1  0.185100  0.435300  0.837930  1.0  -0.7758
  O  O565  1  0.568000  0.432000  0.083330  1.0  -0.6823
  O  O566  1  0.568000  0.136000  0.750000  1.0  -0.68
  O  O567  1  0.864000  0.432000  0.416670  1.0  -0.6851
  O  O568  1  0.432000  0.568000  0.583330  1.0  -0.6862
  O  O569  1  0.432000  0.864000  0.250000  1.0  -0.6856
  O  O570  1  0.136000  0.568000  0.916670  1.0  -0.6828
