# generated using pymatgen
data_FeH3(CO2)3
_symmetry_space_group_name_H-M   'P 1'
_cell_length_a   7.32360000
_cell_length_b   7.32360000
_cell_length_c   8.31800000
_cell_angle_alpha   90.00000000
_cell_angle_beta   90.00000000
_cell_angle_gamma   120.00000000
_symmetry_Int_Tables_number   1
_chemical_formula_structural   FeH3(CO2)3
_chemical_formula_sum   'Fe2 H6 C6 O12'
_cell_volume   386.36589145
_cell_formula_units_Z   2
loop_
 _symmetry_equiv_pos_site_id
 _symmetry_equiv_pos_as_xyz
  1  'x, y, z'
loop_
 _atom_site_type_symbol
 _atom_site_label
 _atom_site_symmetry_multiplicity
 _atom_site_fract_x
 _atom_site_fract_y
 _atom_site_fract_z
 _atom_site_occupancy
 _atom_site_charge
  Fe  Fe1  1  0.333333  0.666667  0.250000  1.0  0.7814
  Fe  Fe2  1  0.666667  0.333333  0.750000  1.0  0.7814
  H  H3  1  0.000000  0.411000  0.000000  1.0  0.1447
  H  H4  1  0.589000  0.589000  0.000000  1.0  0.1442
  H  H5  1  0.411000  0.000000  0.000000  1.0  0.1438
  H  H6  1  0.000000  0.589000  0.500000  1.0  0.144
  H  H7  1  0.411000  0.411000  0.500000  1.0  0.1446
  H  H8  1  0.589000  0.000000  0.500000  1.0  0.1437
  C  C9  1  0.000000  0.564500  0.000000  1.0  0.6753
  C  C10  1  0.435500  0.435500  0.000000  1.0  0.6754
  C  C11  1  0.564500  0.000000  0.000000  1.0  0.6754
  C  C12  1  0.000000  0.435500  0.500000  1.0  0.675
  C  C13  1  0.564500  0.564500  0.500000  1.0  0.6749
  C  C14  1  0.435500  0.000000  0.500000  1.0  0.6747
  O  O15  1  0.108270  0.694470  0.104440  1.0  -0.5409
  O  O16  1  0.305530  0.413800  0.104440  1.0  -0.5388
  O  O17  1  0.586200  0.891730  0.104440  1.0  -0.5395
  O  O18  1  0.891730  0.305530  0.604440  1.0  -0.5399
  O  O19  1  0.694470  0.586200  0.604440  1.0  -0.5401
  O  O20  1  0.413800  0.108270  0.604440  1.0  -0.5393
  O  O21  1  0.694470  0.108270  0.895560  1.0  -0.5397
  O  O22  1  0.413800  0.305530  0.895560  1.0  -0.5415
  O  O23  1  0.891730  0.586200  0.895560  1.0  -0.5401
  O  O24  1  0.305530  0.891730  0.395560  1.0  -0.5389
  O  O25  1  0.586200  0.694470  0.395560  1.0  -0.5403
  O  O26  1  0.108270  0.413800  0.395560  1.0  -0.5393
