# generated using pymatgen
data_FeH3(CO2)3
_symmetry_space_group_name_H-M   'P 1'
_cell_length_a   7.32920000
_cell_length_b   7.32920000
_cell_length_c   8.31590000
_cell_angle_alpha   90.00000000
_cell_angle_beta   90.00000000
_cell_angle_gamma   120.00000000
_symmetry_Int_Tables_number   1
_chemical_formula_structural   FeH3(CO2)3
_chemical_formula_sum   'Fe2 H6 C6 O12'
_cell_volume   386.85929478
_cell_formula_units_Z   2
loop_
 _symmetry_equiv_pos_site_id
 _symmetry_equiv_pos_as_xyz
  1  'x, y, z'
loop_
 _atom_site_type_symbol
 _atom_site_label
 _atom_site_symmetry_multiplicity
 _atom_site_fract_x
 _atom_site_fract_y
 _atom_site_fract_z
 _atom_site_occupancy
 _atom_site_charge
  Fe  Fe1  1  0.333333  0.666667  0.750000  1.0  0.7916
  Fe  Fe2  1  0.666667  0.333333  0.250000  1.0  0.7916
  H  H3  1  0.562100  0.000000  0.000000  1.0  0.0681
  H  H4  1  0.000000  0.562100  0.000000  1.0  0.0685
  H  H5  1  0.437900  0.437900  0.000000  1.0  0.068
  H  H6  1  0.437900  0.000000  0.500000  1.0  0.0682
  H  H7  1  0.000000  0.437900  0.500000  1.0  0.0687
  H  H8  1  0.562100  0.562100  0.500000  1.0  0.0687
  C  C9  1  0.435200  0.000000  0.000000  1.0  0.774
  C  C10  1  0.000000  0.435200  0.000000  1.0  0.7723
  C  C11  1  0.564800  0.564800  0.000000  1.0  0.773
  C  C12  1  0.564800  0.000000  0.500000  1.0  0.7742
  C  C13  1  0.000000  0.564800  0.500000  1.0  0.7728
  C  C14  1  0.435200  0.435200  0.500000  1.0  0.7719
  O  O15  1  0.305900  0.892100  0.895600  1.0  -0.5522
  O  O16  1  0.107900  0.413800  0.895600  1.0  -0.5528
  O  O17  1  0.586200  0.694100  0.895600  1.0  -0.5535
  O  O18  1  0.694100  0.107900  0.395600  1.0  -0.5527
  O  O19  1  0.892100  0.586200  0.395600  1.0  -0.5515
  O  O20  1  0.413800  0.305900  0.395600  1.0  -0.5535
  O  O21  1  0.892100  0.305900  0.104400  1.0  -0.5522
  O  O22  1  0.413800  0.107900  0.104400  1.0  -0.552
  O  O23  1  0.694100  0.586200  0.104400  1.0  -0.5529
  O  O24  1  0.107900  0.694100  0.604400  1.0  -0.554
  O  O25  1  0.586200  0.892100  0.604400  1.0  -0.5529
  O  O26  1  0.305900  0.413800  0.604400  1.0  -0.5515
