# generated using pymatgen
data_FeH3(CO2)3
_symmetry_space_group_name_H-M   'P 1'
_cell_length_a   7.33370000
_cell_length_b   7.33370000
_cell_length_c   8.31900000
_cell_angle_alpha   90.00000000
_cell_angle_beta   90.00000000
_cell_angle_gamma   120.00000000
_symmetry_Int_Tables_number   1
_chemical_formula_structural   FeH3(CO2)3
_chemical_formula_sum   'Fe2 H6 C6 O12'
_cell_volume   387.47888073
_cell_formula_units_Z   2
loop_
 _symmetry_equiv_pos_site_id
 _symmetry_equiv_pos_as_xyz
  1  'x, y, z'
loop_
 _atom_site_type_symbol
 _atom_site_label
 _atom_site_symmetry_multiplicity
 _atom_site_fract_x
 _atom_site_fract_y
 _atom_site_fract_z
 _atom_site_occupancy
 _atom_site_charge
  Fe  Fe1  1  0.333333  0.666667  0.750000  1.0  0.7912
  Fe  Fe2  1  0.666667  0.333333  0.250000  1.0  0.7912
  H  H3  1  0.561100  0.000000  0.000000  1.0  0.065
  H  H4  1  0.000000  0.561100  0.000000  1.0  0.0649
  H  H5  1  0.438900  0.438900  0.000000  1.0  0.0648
  H  H6  1  0.438900  0.000000  0.500000  1.0  0.0649
  H  H7  1  0.000000  0.438900  0.500000  1.0  0.0654
  H  H8  1  0.561100  0.561100  0.500000  1.0  0.065
  C  C9  1  0.434200  0.000000  0.000000  1.0  0.7716
  C  C10  1  0.000000  0.434200  0.000000  1.0  0.77
  C  C11  1  0.565800  0.565800  0.000000  1.0  0.7705
  C  C12  1  0.565800  0.000000  0.500000  1.0  0.7717
  C  C13  1  0.000000  0.565800  0.500000  1.0  0.77
  C  C14  1  0.434200  0.434200  0.500000  1.0  0.7692
  O  O15  1  0.305800  0.892500  0.895600  1.0  -0.5495
  O  O16  1  0.107500  0.413300  0.895600  1.0  -0.5501
  O  O17  1  0.586700  0.694200  0.895600  1.0  -0.55
  O  O18  1  0.694200  0.107500  0.395600  1.0  -0.5495
  O  O19  1  0.892500  0.586700  0.395600  1.0  -0.5488
  O  O20  1  0.413300  0.305800  0.395600  1.0  -0.5504
  O  O21  1  0.892500  0.305800  0.104400  1.0  -0.549
  O  O22  1  0.413300  0.107500  0.104400  1.0  -0.549
  O  O23  1  0.694200  0.586700  0.104400  1.0  -0.5501
  O  O24  1  0.107500  0.694200  0.604400  1.0  -0.5507
  O  O25  1  0.586700  0.892500  0.604400  1.0  -0.5496
  O  O26  1  0.305800  0.413300  0.604400  1.0  -0.5487
