# generated using pymatgen
data_Cd3H18C33(N2O3)4
_symmetry_space_group_name_H-M   'P 1'
_cell_length_a   9.03560000
_cell_length_b   16.66440000
_cell_length_c   17.24190000
_cell_angle_alpha   117.19400000
_cell_angle_beta   98.94800000
_cell_angle_gamma   93.94700000
_symmetry_Int_Tables_number   1
_chemical_formula_structural   Cd3H18C33(N2O3)4
_chemical_formula_sum   'Cd6 H36 C66 N16 O24'
_cell_volume   2251.98296609
_cell_formula_units_Z   2
loop_
 _symmetry_equiv_pos_site_id
 _symmetry_equiv_pos_as_xyz
  1  'x, y, z'
loop_
 _atom_site_type_symbol
 _atom_site_label
 _atom_site_symmetry_multiplicity
 _atom_site_fract_x
 _atom_site_fract_y
 _atom_site_fract_z
 _atom_site_occupancy
 _atom_site_charge
  Cd  Cd1  1  0.868650  0.014310  0.304620  1.0  0.9467
  Cd  Cd2  1  0.309560  0.670300  0.682150  1.0  0.9332
  Cd  Cd3  1  0.945600  0.286480  0.937720  1.0  1.0225
  Cd  Cd4  1  0.131350  0.985690  0.695380  1.0  0.9468
  Cd  Cd5  1  0.690440  0.329700  0.317850  1.0  0.934
  Cd  Cd6  1  0.054400  0.713520  0.062280  1.0  1.0223
  H  H7  1  0.561600  0.845700  0.217200  1.0  0.1027
  H  H8  1  0.837200  0.917100  0.440700  1.0  0.0961
  H  H9  1  0.342800  0.753100  0.236500  1.0  0.1429
  H  H10  1  0.355000  0.768600  0.334400  1.0  0.1153
  H  H11  1  0.519600  0.358900  0.118900  1.0  0.1301
  H  H12  1  0.647800  0.264500  0.018200  1.0  0.0779
  H  H13  1  0.785800  0.458600  0.967800  1.0  0.0844
  H  H14  1  0.662200  0.558700  0.068200  1.0  0.1313
  H  H15  1  0.525200  0.742200  0.454600  1.0  0.1324
  H  H16  1  0.472700  0.763200  0.587500  1.0  0.094
  H  H17  1  0.166400  0.545900  0.469400  1.0  0.0864
  H  H18  1  0.214100  0.517100  0.332900  1.0  0.1355
  H  H19  1  0.593400  0.862600  0.986400  1.0  0.1155
  H  H20  1  0.613900  0.977000  0.827100  1.0  0.1159
  H  H21  1  0.870600  0.099300  0.074100  1.0  0.1165
  H  H22  1  0.938400  0.196600  0.634600  1.0  0.1143
  H  H23  1  0.103300  0.463700  0.776500  1.0  0.109
  H  H24  1  0.101300  0.329100  0.515000  1.0  0.1127
  H  H25  1  0.438400  0.154300  0.782800  1.0  0.1035
  H  H26  1  0.162800  0.082900  0.559300  1.0  0.0958
  H  H27  1  0.657200  0.246900  0.763500  1.0  0.1424
  H  H28  1  0.645000  0.231400  0.665600  1.0  0.1143
  H  H29  1  0.480400  0.641100  0.881100  1.0  0.1289
  H  H30  1  0.352200  0.735500  0.981800  1.0  0.0785
  H  H31  1  0.214200  0.541400  0.032200  1.0  0.0841
  H  H32  1  0.337800  0.441300  0.931800  1.0  0.1306
  H  H33  1  0.474800  0.257800  0.545400  1.0  0.1318
  H  H34  1  0.527300  0.236800  0.412500  1.0  0.0938
  H  H35  1  0.833600  0.454100  0.530600  1.0  0.0863
  H  H36  1  0.785900  0.482900  0.667100  1.0  0.1348
  H  H37  1  0.406600  0.137400  0.013600  1.0  0.1161
  H  H38  1  0.386100  0.023000  0.172900  1.0  0.1152
  H  H39  1  0.129400  0.900700  0.925900  1.0  0.1159
  H  H40  1  0.061600  0.803400  0.365400  1.0  0.1135
  H  H41  1  0.896700  0.536300  0.223500  1.0  0.1089
  H  H42  1  0.898700  0.670900  0.485000  1.0  0.1127
  C  C43  1  0.606700  0.852100  0.272500  1.0  0.1441
  C  C44  1  0.753700  0.889200  0.393400  1.0  0.281
  C  C45  1  0.407600  0.750600  0.285500  1.0  0.0574
  C  C46  1  0.509900  0.535200  0.176100  1.0  0.341
  C  C47  1  0.579200  0.470100  0.106400  1.0  -0.0606
  C  C48  1  0.574900  0.381000  0.089500  1.0  -0.175
  C  C49  1  0.652400  0.324800  0.029100  1.0  0.1824
  C  C50  1  0.733400  0.438600  0.999700  1.0  0.1783
  C  C51  1  0.658800  0.499200  0.059500  1.0  -0.1877
  C  C52  1  0.424100  0.601500  0.293200  1.0  0.284
  C  C53  1  0.377200  0.624700  0.378700  1.0  0.0331
  C  C54  1  0.453300  0.700500  0.456100  1.0  -0.2344
  C  C55  1  0.419900  0.712700  0.535300  1.0  0.1817
  C  C56  1  0.240800  0.585200  0.466600  1.0  0.1671
  C  C57  1  0.269000  0.567700  0.384300  1.0  -0.1382
  C  C58  1  0.794000  0.983100  0.132200  1.0  0.6746
  C  C59  1  0.475200  0.827700  0.822900  1.0  0.6845
  C  C60  1  0.816700  0.126700  0.934900  1.0  0.6867
  C  C61  1  0.742400  0.981600  0.044100  1.0  -0.1383
  C  C62  1  0.633500  0.909400  0.976800  1.0  0.0197
  C  C63  1  0.585900  0.908300  0.895200  1.0  -0.1494
  C  C64  1  0.645700  0.978100  0.881600  1.0  0.0064
  C  C65  1  0.753200  0.050100  0.948500  1.0  -0.141
  C  C66  1  0.799600  0.051000  0.029100  1.0  0.0387
  C  C67  1  0.971800  0.162400  0.473200  1.0  0.6847
  C  C68  1  0.981700  0.328900  0.800900  1.0  0.695
  C  C69  1  0.183900  0.496200  0.649500  1.0  0.6952
  C  C70  1  0.012700  0.249200  0.560700  1.0  -0.1629
  C  C71  1  0.982300  0.250200  0.637400  1.0  -0.0058
  C  C72  1  0.016100  0.330100  0.718300  1.0  -0.1418
  C  C73  1  0.081800  0.409800  0.722500  1.0  -0.0109
  C  C74  1  0.116300  0.410100  0.646300  1.0  -0.1649
  C  C75  1  0.080000  0.329400  0.566200  1.0  0.0412
  C  C76  1  0.393300  0.147900  0.727500  1.0  0.1467
  C  C77  1  0.246300  0.110800  0.606600  1.0  0.2801
  C  C78  1  0.592400  0.249400  0.714500  1.0  0.0568
  C  C79  1  0.490100  0.464800  0.823900  1.0  0.3398
  C  C80  1  0.420800  0.529900  0.893600  1.0  -0.0596
  C  C81  1  0.425100  0.619000  0.910500  1.0  -0.1742
  C  C82  1  0.347600  0.675200  0.970900  1.0  0.1816
  C  C83  1  0.266600  0.561400  0.000300  1.0  0.1783
  C  C84  1  0.341200  0.500800  0.940500  1.0  -0.1867
  C  C85  1  0.575900  0.398500  0.706800  1.0  0.2829
  C  C86  1  0.622800  0.375300  0.621300  1.0  0.0311
  C  C87  1  0.546700  0.299500  0.543900  1.0  -0.2339
  C  C88  1  0.580100  0.287300  0.464700  1.0  0.1824
  C  C89  1  0.759200  0.414800  0.533400  1.0  0.1685
  C  C90  1  0.731000  0.432300  0.615700  1.0  -0.1372
  C  C91  1  0.206000  0.016900  0.867800  1.0  0.6768
  C  C92  1  0.524800  0.172300  0.177100  1.0  0.6823
  C  C93  1  0.183300  0.873300  0.065100  1.0  0.6871
  C  C94  1  0.257600  0.018400  0.955900  1.0  -0.1371
  C  C95  1  0.366500  0.090600  0.023200  1.0  0.0212
  C  C96  1  0.414100  0.091700  0.104800  1.0  -0.149
  C  C97  1  0.354300  0.021900  0.118400  1.0  0.0055
  C  C98  1  0.246800  0.949900  0.051500  1.0  -0.141
  C  C99  1  0.200400  0.949000  0.970900  1.0  0.0387
  C  C100  1  0.028200  0.837600  0.526800  1.0  0.6823
  C  C101  1  0.018300  0.671100  0.199100  1.0  0.6955
  C  C102  1  0.816100  0.503800  0.350500  1.0  0.6956
  C  C103  1  0.987300  0.750800  0.439300  1.0  -0.1626
  C  C104  1  0.017700  0.749800  0.362600  1.0  -0.0062
  C  C105  1  0.983900  0.669900  0.281700  1.0  -0.1424
  C  C106  1  0.918200  0.590200  0.277500  1.0  -0.012
  C  C107  1  0.883700  0.589900  0.353700  1.0  -0.1677
  C  C108  1  0.920000  0.670600  0.433800  1.0  0.0406
  N  N109  1  0.739200  0.902700  0.320800  1.0  -0.4122
  N  N110  1  0.642500  0.834500  0.391800  1.0  -0.3621
  N  N111  1  0.548100  0.812300  0.313500  1.0  0.1832
  N  N112  1  0.438600  0.658500  0.257400  1.0  0.1635
  N  N113  1  0.495100  0.616000  0.182300  1.0  -0.3621
  N  N114  1  0.465200  0.522700  0.242400  1.0  -0.3951
  N  N115  1  0.734800  0.352700  0.984800  1.0  -0.3398
  N  N116  1  0.317100  0.656900  0.542200  1.0  -0.3546
  N  N117  1  0.260800  0.097300  0.679200  1.0  -0.4128
  N  N118  1  0.357500  0.165500  0.608200  1.0  -0.3594
  N  N119  1  0.451900  0.187700  0.686500  1.0  0.1821
  N  N120  1  0.561400  0.341500  0.742600  1.0  0.162
  N  N121  1  0.504900  0.384000  0.817700  1.0  -0.3629
  N  N122  1  0.534800  0.477300  0.757600  1.0  -0.396
  N  N123  1  0.265200  0.647300  0.015200  1.0  -0.3403
  N  N124  1  0.682900  0.343100  0.457800  1.0  -0.3559
  O  O125  1  0.749600  0.917400  0.142800  1.0  -0.5965
  O  O126  1  0.878300  0.053600  0.194400  1.0  -0.5828
  O  O127  1  0.904100  0.193900  0.999800  1.0  -0.5787
  O  O128  1  0.779000  0.125600  0.860500  1.0  -0.6447
  O  O129  1  0.456500  0.816800  0.743900  1.0  -0.6642
  O  O130  1  0.409900  0.771400  0.839100  1.0  -0.5892
  O  O131  1  0.991100  0.165700  0.403300  1.0  -0.6427
  O  O132  1  0.920600  0.090600  0.471300  1.0  -0.6345
  O  O133  1  0.952300  0.251600  0.796900  1.0  -0.6069
  O  O134  1  0.982100  0.401200  0.869300  1.0  -0.6357
  O  O135  1  0.200100  0.570600  0.720400  1.0  -0.5897
  O  O136  1  0.223800  0.492400  0.582200  1.0  -0.6271
  O  O137  1  0.250400  0.082600  0.857200  1.0  -0.5986
  O  O138  1  0.121700  0.946400  0.805600  1.0  -0.5825
  O  O139  1  0.095900  0.806100  0.000200  1.0  -0.5774
  O  O140  1  0.221000  0.874400  0.139500  1.0  -0.6477
  O  O141  1  0.543500  0.183200  0.256100  1.0  -0.6643
  O  O142  1  0.590100  0.228600  0.160900  1.0  -0.5875
  O  O143  1  0.008900  0.834300  0.596700  1.0  -0.6443
  O  O144  1  0.079400  0.909400  0.528700  1.0  -0.6345
  O  O145  1  0.047700  0.748400  0.203100  1.0  -0.6097
  O  O146  1  0.017900  0.598800  0.130700  1.0  -0.6363
  O  O147  1  0.799900  0.429400  0.279600  1.0  -0.589
  O  O148  1  0.776200  0.507600  0.417800  1.0  -0.6282
