# generated using pymatgen
data_Cu2H19C33(N2O5)2
_symmetry_space_group_name_H-M   'P 1'
_cell_length_a   18.16260000
_cell_length_b   18.16260000
_cell_length_c   30.85360000
_cell_angle_alpha   103.35100000
_cell_angle_beta   103.35100000
_cell_angle_gamma   102.44200000
_symmetry_Int_Tables_number   1
_chemical_formula_structural   Cu2H19C33(N2O5)2
_chemical_formula_sum   'Cu8 H76 C132 N16 O40'
_cell_volume   9238.78591564
_cell_formula_units_Z   4
loop_
 _symmetry_equiv_pos_site_id
 _symmetry_equiv_pos_as_xyz
  1  'x, y, z'
loop_
 _atom_site_type_symbol
 _atom_site_label
 _atom_site_symmetry_multiplicity
 _atom_site_fract_x
 _atom_site_fract_y
 _atom_site_fract_z
 _atom_site_occupancy
 _atom_site_charge
  Cu  Cu1  1  0.048550  0.485390  0.533940  1.0  0.9088
  Cu  Cu2  1  0.485390  0.048550  0.533940  1.0  0.9075
  Cu  Cu3  1  0.514610  0.951450  0.466060  1.0  0.9075
  Cu  Cu4  1  0.951450  0.514610  0.466060  1.0  0.9093
  Cu  Cu5  1  0.528690  0.528690  0.469440  1.0  0.9119
  Cu  Cu6  1  0.940750  0.940750  0.469440  1.0  0.9135
  Cu  Cu7  1  0.471310  0.471310  0.530560  1.0  0.9108
  Cu  Cu8  1  0.059250  0.059250  0.530560  1.0  0.9129
  H  H9  1  0.758400  0.507600  0.520000  1.0  0.0791
  H  H10  1  0.912000  0.489200  0.629000  1.0  0.1255
  H  H11  1  0.689000  0.496600  0.631200  1.0  0.1196
  H  H12  1  0.025000  0.508200  0.756600  1.0  0.1251
  H  H13  1  0.059900  0.514100  0.836000  1.0  0.1024
  H  H14  1  0.842500  0.518700  0.841400  1.0  0.1138
  H  H15  1  0.801800  0.506200  0.760400  1.0  0.1224
  H  H16  1  0.908600  0.573400  0.920800  1.0  0.0983
  H  H17  1  0.871500  0.479100  0.896600  1.0  0.0993
  H  H18  1  0.761600  0.012400  0.520000  1.0  0.0778
  H  H19  1  0.717000  0.139800  0.629000  1.0  0.1243
  H  H20  1  0.942200  0.134600  0.631200  1.0  0.1198
  H  H21  1  0.731600  0.248400  0.756600  1.0  0.1248
  H  H22  1  0.776100  0.321900  0.836000  1.0  0.1027
  H  H23  1  0.998900  0.322700  0.841400  1.0  0.1137
  H  H24  1  0.958600  0.254200  0.760400  1.0  0.1225
  H  H25  1  0.012200  0.347400  0.920800  1.0  0.1033
  H  H26  1  0.025100  0.417500  0.896600  1.0  0.0997
  H  H27  1  0.492400  0.241600  0.480000  1.0  0.0774
  H  H28  1  0.510800  0.088000  0.371000  1.0  0.1261
  H  H29  1  0.503400  0.311000  0.368800  1.0  0.1203
  H  H30  1  0.491800  0.975000  0.243400  1.0  0.1257
  H  H31  1  0.485900  0.940100  0.164000  1.0  0.1016
  H  H32  1  0.481300  0.157500  0.158600  1.0  0.1138
  H  H33  1  0.493800  0.198200  0.239600  1.0  0.1229
  H  H34  1  0.426600  0.091400  0.079200  1.0  0.098
  H  H35  1  0.520900  0.128500  0.103400  1.0  0.1003
  H  H36  1  0.987600  0.238400  0.480000  1.0  0.0759
  H  H37  1  0.860200  0.283000  0.371000  1.0  0.1246
  H  H38  1  0.865400  0.057800  0.368800  1.0  0.1196
  H  H39  1  0.751600  0.268400  0.243400  1.0  0.1238
  H  H40  1  0.678100  0.223900  0.164000  1.0  0.1054
  H  H41  1  0.677300  0.001100  0.158600  1.0  0.1137
  H  H42  1  0.745800  0.041400  0.239600  1.0  0.1225
  H  H43  1  0.652600  0.987800  0.079200  1.0  0.1057
  H  H44  1  0.582500  0.974900  0.103400  1.0  0.0992
  H  H45  1  0.241600  0.492400  0.480000  1.0  0.0781
  H  H46  1  0.088000  0.510800  0.371000  1.0  0.1252
  H  H47  1  0.311000  0.503400  0.368800  1.0  0.1202
  H  H48  1  0.975000  0.491800  0.243400  1.0  0.1247
  H  H49  1  0.940100  0.485900  0.164000  1.0  0.102
  H  H50  1  0.157500  0.481300  0.158600  1.0  0.1137
  H  H51  1  0.198200  0.493800  0.239600  1.0  0.1234
  H  H52  1  0.091400  0.426600  0.079200  1.0  0.0981
  H  H53  1  0.128500  0.520900  0.103400  1.0  0.0995
  H  H54  1  0.238400  0.987600  0.480000  1.0  0.0768
  H  H55  1  0.283000  0.860200  0.371000  1.0  0.1248
  H  H56  1  0.057800  0.865400  0.368800  1.0  0.1198
  H  H57  1  0.268400  0.751600  0.243400  1.0  0.1257
  H  H58  1  0.223900  0.678100  0.164000  1.0  0.1024
  H  H59  1  0.001100  0.677300  0.158600  1.0  0.1133
  H  H60  1  0.041400  0.745800  0.239600  1.0  0.1223
  H  H61  1  0.987800  0.652600  0.079200  1.0  0.1017
  H  H62  1  0.974900  0.582500  0.103400  1.0  0.0992
  H  H63  1  0.507600  0.758400  0.520000  1.0  0.0789
  H  H64  1  0.489200  0.912000  0.629000  1.0  0.1257
  H  H65  1  0.496600  0.689000  0.631200  1.0  0.1197
  H  H66  1  0.508200  0.025000  0.756600  1.0  0.1252
  H  H67  1  0.514100  0.059900  0.836000  1.0  0.1012
  H  H68  1  0.518700  0.842500  0.841400  1.0  0.1132
  H  H69  1  0.506200  0.801800  0.760400  1.0  0.123
  H  H70  1  0.573400  0.908600  0.920800  1.0  0.103
  H  H71  1  0.479100  0.871500  0.896600  1.0  0.0982
  H  H72  1  0.012400  0.761600  0.520000  1.0  0.0773
  H  H73  1  0.139800  0.717000  0.629000  1.0  0.1247
  H  H74  1  0.134600  0.942200  0.631200  1.0  0.1195
  H  H75  1  0.248400  0.731600  0.756600  1.0  0.1249
  H  H76  1  0.321900  0.776100  0.836000  1.0  0.1047
  H  H77  1  0.322700  0.998900  0.841400  1.0  0.1136
  H  H78  1  0.254200  0.958600  0.760400  1.0  0.123
  H  H79  1  0.347400  0.012200  0.920800  1.0  0.0987
  H  H80  1  0.417500  0.025100  0.896600  1.0  0.0994
  H  H81  1  0.936200  0.599000  0.000000  1.0  0.1266
  H  H82  1  0.063800  0.401000  0.000000  1.0  0.1266
  H  H83  1  0.401000  0.063800  0.000000  1.0  0.1254
  H  H84  1  0.599000  0.936200  0.000000  1.0  0.1256
  C  C85  1  0.897700  0.490100  0.542400  1.0  0.6777
  C  C86  1  0.631000  0.504200  0.547400  1.0  0.6754
  C  C87  1  0.767980  0.500580  0.550160  1.0  -0.0114
  C  C88  1  0.840400  0.492800  0.569200  1.0  -0.1577
  C  C89  1  0.860540  0.491140  0.614480  1.0  -0.0523
  C  C90  1  0.804100  0.492100  0.639400  1.0  0.0977
  C  C91  1  0.728080  0.496080  0.615360  1.0  -0.0517
  C  C92  1  0.709540  0.499540  0.569280  1.0  -0.0287
  C  C93  1  0.910200  0.505200  0.753600  1.0  0.1581
  C  C94  1  0.987700  0.508700  0.773600  1.0  -0.1387
  C  C95  1  0.007500  0.513300  0.821200  1.0  -0.1548
  C  C96  1  0.956500  0.516900  0.847800  1.0  0.2518
  C  C97  1  0.879300  0.515100  0.824000  1.0  -0.1776
  C  C98  1  0.854300  0.508300  0.776000  1.0  -0.0551
  C  C99  1  0.920300  0.521900  0.915000  1.0  -0.0105
  C  C100  1  0.960670  0.507670  0.958140  1.0  0.1962
  C  C101  1  0.644700  0.052300  0.542400  1.0  0.6791
  C  C102  1  0.916400  0.043200  0.547400  1.0  0.6758
  C  C103  1  0.782180  0.049580  0.550160  1.0  -0.0081
  C  C104  1  0.728800  0.076400  0.569200  1.0  -0.1597
  C  C105  1  0.753940  0.123340  0.614480  1.0  -0.0541
  C  C106  1  0.835300  0.147300  0.639400  1.0  0.096
  C  C107  1  0.887280  0.119280  0.615360  1.0  -0.0532
  C  C108  1  0.859740  0.069740  0.569280  1.0  -0.0273
  C  C109  1  0.843400  0.248400  0.753600  1.0  0.1409
  C  C110  1  0.785900  0.264900  0.773600  1.0  -0.1327
  C  C111  1  0.813700  0.307900  0.821200  1.0  -0.1534
  C  C112  1  0.891300  0.330900  0.847800  1.0  0.2531
  C  C113  1  0.944700  0.308900  0.824000  1.0  -0.1782
  C  C114  1  0.921700  0.267700  0.776000  1.0  -0.0617
  C  C115  1  0.994700  0.393100  0.915000  1.0  -0.013
  C  C116  1  0.997470  0.450470  0.958140  1.0  0.196
  C  C117  1  0.509900  0.102300  0.457600  1.0  0.6773
  C  C118  1  0.495800  0.369000  0.452600  1.0  0.6754
  C  C119  1  0.499420  0.232020  0.449840  1.0  -0.011
  C  C120  1  0.507200  0.159600  0.430800  1.0  -0.1591
  C  C121  1  0.508860  0.139460  0.385520  1.0  -0.0541
  C  C122  1  0.507900  0.195900  0.360600  1.0  0.0983
  C  C123  1  0.503920  0.271920  0.384640  1.0  -0.0522
  C  C124  1  0.500460  0.290460  0.430720  1.0  -0.0282
  C  C125  1  0.494800  0.089800  0.246400  1.0  0.1575
  C  C126  1  0.491300  0.012300  0.226400  1.0  -0.1402
  C  C127  1  0.486700  0.992500  0.178800  1.0  -0.1576
  C  C128  1  0.483100  0.043500  0.152200  1.0  0.2508
  C  C129  1  0.484900  0.120700  0.176000  1.0  -0.1802
  C  C130  1  0.491700  0.145700  0.224000  1.0  -0.057
  C  C131  1  0.478100  0.079700  0.085000  1.0  -0.0138
  C  C132  1  0.492330  0.039330  0.041860  1.0  0.1977
  C  C133  1  0.947700  0.355300  0.457600  1.0  0.6793
  C  C134  1  0.956800  0.083600  0.452600  1.0  0.6755
  C  C135  1  0.950420  0.217820  0.449840  1.0  -0.0088
  C  C136  1  0.923600  0.271200  0.430800  1.0  -0.1611
  C  C137  1  0.876660  0.246060  0.385520  1.0  -0.0534
  C  C138  1  0.852700  0.164700  0.360600  1.0  0.0967
  C  C139  1  0.880720  0.112720  0.384640  1.0  -0.056
  C  C140  1  0.930260  0.140260  0.430720  1.0  -0.0276
  C  C141  1  0.751600  0.156600  0.246400  1.0  0.1393
  C  C142  1  0.735100  0.214100  0.226400  1.0  -0.1301
  C  C143  1  0.692100  0.186300  0.178800  1.0  -0.1552
  C  C144  1  0.669100  0.108700  0.152200  1.0  0.2535
  C  C145  1  0.691100  0.055300  0.176000  1.0  -0.1778
  C  C146  1  0.732300  0.078300  0.224000  1.0  -0.0621
  C  C147  1  0.606900  0.005300  0.085000  1.0  -0.016
  C  C148  1  0.549530  0.002530  0.041860  1.0  0.1965
  C  C149  1  0.102300  0.509900  0.457600  1.0  0.6774
  C  C150  1  0.369000  0.495800  0.452600  1.0  0.6753
  C  C151  1  0.232020  0.499420  0.449840  1.0  -0.0099
  C  C152  1  0.159600  0.507200  0.430800  1.0  -0.1583
  C  C153  1  0.139460  0.508860  0.385520  1.0  -0.0505
  C  C154  1  0.195900  0.507900  0.360600  1.0  0.0984
  C  C155  1  0.271920  0.503920  0.384640  1.0  -0.0529
  C  C156  1  0.290460  0.500460  0.430720  1.0  -0.0287
  C  C157  1  0.089800  0.494800  0.246400  1.0  0.1566
  C  C158  1  0.012300  0.491300  0.226400  1.0  -0.1401
  C  C159  1  0.992500  0.486700  0.178800  1.0  -0.154
  C  C160  1  0.043500  0.483100  0.152200  1.0  0.2507
  C  C161  1  0.120700  0.484900  0.176000  1.0  -0.1778
  C  C162  1  0.145700  0.491700  0.224000  1.0  -0.0542
  C  C163  1  0.079700  0.478100  0.085000  1.0  -0.0114
  C  C164  1  0.039330  0.492330  0.041860  1.0  0.1975
  C  C165  1  0.355300  0.947700  0.457600  1.0  0.6796
  C  C166  1  0.083600  0.956800  0.452600  1.0  0.6753
  C  C167  1  0.217820  0.950420  0.449840  1.0  -0.0083
  C  C168  1  0.271200  0.923600  0.430800  1.0  -0.1597
  C  C169  1  0.246060  0.876660  0.385520  1.0  -0.0542
  C  C170  1  0.164700  0.852700  0.360600  1.0  0.0966
  C  C171  1  0.112720  0.880720  0.384640  1.0  -0.0542
  C  C172  1  0.140260  0.930260  0.430720  1.0  -0.0273
  C  C173  1  0.156600  0.751600  0.246400  1.0  0.1392
  C  C174  1  0.214100  0.735100  0.226400  1.0  -0.1332
  C  C175  1  0.186300  0.692100  0.178800  1.0  -0.1553
  C  C176  1  0.108700  0.669100  0.152200  1.0  0.2533
  C  C177  1  0.055300  0.691100  0.176000  1.0  -0.1786
  C  C178  1  0.078300  0.732300  0.224000  1.0  -0.0646
  C  C179  1  0.005300  0.606900  0.085000  1.0  -0.0138
  C  C180  1  0.002530  0.549530  0.041860  1.0  0.1959
  C  C181  1  0.490100  0.897700  0.542400  1.0  0.6772
  C  C182  1  0.504200  0.631000  0.547400  1.0  0.6748
  C  C183  1  0.500580  0.767980  0.550160  1.0  -0.0125
  C  C184  1  0.492800  0.840400  0.569200  1.0  -0.158
  C  C185  1  0.491140  0.860540  0.614480  1.0  -0.0538
  C  C186  1  0.492100  0.804100  0.639400  1.0  0.0979
  C  C187  1  0.496080  0.728080  0.615360  1.0  -0.0515
  C  C188  1  0.499540  0.709540  0.569280  1.0  -0.0294
  C  C189  1  0.505200  0.910200  0.753600  1.0  0.1572
  C  C190  1  0.508700  0.987700  0.773600  1.0  -0.1417
  C  C191  1  0.513300  0.007500  0.821200  1.0  -0.1577
  C  C192  1  0.516900  0.956500  0.847800  1.0  0.2515
  C  C193  1  0.515100  0.879300  0.824000  1.0  -0.1822
  C  C194  1  0.508300  0.854300  0.776000  1.0  -0.0559
  C  C195  1  0.521900  0.920300  0.915000  1.0  -0.0146
  C  C196  1  0.507670  0.960670  0.958140  1.0  0.1965
  C  C197  1  0.052300  0.644700  0.542400  1.0  0.6784
  C  C198  1  0.043200  0.916400  0.547400  1.0  0.6764
  C  C199  1  0.049580  0.782180  0.550160  1.0  -0.0095
  C  C200  1  0.076400  0.728800  0.569200  1.0  -0.161
  C  C201  1  0.123340  0.753940  0.614480  1.0  -0.0541
  C  C202  1  0.147300  0.835300  0.639400  1.0  0.0969
  C  C203  1  0.119280  0.887280  0.615360  1.0  -0.0555
  C  C204  1  0.069740  0.859740  0.569280  1.0  -0.0274
  C  C205  1  0.248400  0.843400  0.753600  1.0  0.1391
  C  C206  1  0.264900  0.785900  0.773600  1.0  -0.1329
  C  C207  1  0.307900  0.813700  0.821200  1.0  -0.1549
  C  C208  1  0.330900  0.891300  0.847800  1.0  0.253
  C  C209  1  0.308900  0.944700  0.824000  1.0  -0.1753
  C  C210  1  0.267700  0.921700  0.776000  1.0  -0.0637
  C  C211  1  0.393100  0.994700  0.915000  1.0  -0.0116
  C  C212  1  0.450470  0.997470  0.958140  1.0  0.1947
  C  C213  1  0.962200  0.558800  0.000000  1.0  -0.2244
  C  C214  1  0.037800  0.441200  0.000000  1.0  -0.22
  C  C215  1  0.441200  0.037800  0.000000  1.0  -0.2215
  C  C216  1  0.558800  0.962200  0.000000  1.0  -0.2181
  N  N217  1  0.813500  0.489700  0.687200  1.0  -0.2616
  N  N218  1  0.884600  0.498000  0.704200  1.0  -0.1906
  N  N219  1  0.873700  0.197500  0.687200  1.0  -0.2624
  N  N220  1  0.819600  0.206200  0.704200  1.0  -0.1887
  N  N221  1  0.510300  0.186500  0.312800  1.0  -0.2611
  N  N222  1  0.502000  0.115400  0.295800  1.0  -0.1923
  N  N223  1  0.802500  0.126300  0.312800  1.0  -0.2617
  N  N224  1  0.793800  0.180400  0.295800  1.0  -0.1877
  N  N225  1  0.186500  0.510300  0.312800  1.0  -0.2613
  N  N226  1  0.115400  0.502000  0.295800  1.0  -0.1916
  N  N227  1  0.126300  0.802500  0.312800  1.0  -0.2622
  N  N228  1  0.180400  0.793800  0.295800  1.0  -0.1885
  N  N229  1  0.489700  0.813500  0.687200  1.0  -0.261
  N  N230  1  0.498000  0.884600  0.704200  1.0  -0.1921
  N  N231  1  0.197500  0.873700  0.687200  1.0  -0.2636
  N  N232  1  0.206200  0.819600  0.704200  1.0  -0.1891
  O  O233  1  0.965390  0.481330  0.564120  1.0  -0.5579
  O  O234  1  0.998290  0.376790  0.494880  1.0  -0.5416
  O  O235  1  0.627590  0.527330  0.511320  1.0  -0.5895
  O  O236  1  0.576470  0.480930  0.564200  1.0  -0.5696
  O  O237  1  0.984200  0.521000  0.893600  1.0  -0.3496
  O  O238  1  0.598730  0.082790  0.564120  1.0  -0.5614
  O  O239  1  0.496590  0.118090  0.494880  1.0  -0.5448
  O  O240  1  0.883730  0.983990  0.511320  1.0  -0.5788
  O  O241  1  0.987730  0.083270  0.564200  1.0  -0.5706
  O  O242  1  0.909400  0.372600  0.893600  1.0  -0.3404
  O  O243  1  0.518670  0.034610  0.435880  1.0  -0.5607
  O  O244  1  0.623210  0.001710  0.505120  1.0  -0.5428
  O  O245  1  0.472670  0.372410  0.488680  1.0  -0.5873
  O  O246  1  0.519070  0.423530  0.435800  1.0  -0.5699
  O  O247  1  0.479000  0.015800  0.106400  1.0  -0.3398
  O  O248  1  0.917210  0.401270  0.435880  1.0  -0.5601
  O  O249  1  0.881910  0.503410  0.505120  1.0  -0.5431
  O  O250  1  0.016010  0.116270  0.488680  1.0  -0.5793
  O  O251  1  0.916730  0.012270  0.435800  1.0  -0.5711
  O  O252  1  0.627400  0.090600  0.106400  1.0  -0.3413
  O  O253  1  0.034610  0.518670  0.435880  1.0  -0.5584
  O  O254  1  0.001710  0.623210  0.505120  1.0  -0.5413
  O  O255  1  0.372410  0.472670  0.488680  1.0  -0.5879
  O  O256  1  0.423530  0.519070  0.435800  1.0  -0.5693
  O  O257  1  0.015800  0.479000  0.106400  1.0  -0.3442
  O  O258  1  0.401270  0.917210  0.435880  1.0  -0.5611
  O  O259  1  0.503410  0.881910  0.505120  1.0  -0.5447
  O  O260  1  0.116270  0.016010  0.488680  1.0  -0.5775
  O  O261  1  0.012270  0.916730  0.435800  1.0  -0.5708
  O  O262  1  0.090600  0.627400  0.106400  1.0  -0.341
  O  O263  1  0.481330  0.965390  0.564120  1.0  -0.5591
  O  O264  1  0.376790  0.998290  0.494880  1.0  -0.5438
  O  O265  1  0.527330  0.627590  0.511320  1.0  -0.5884
  O  O266  1  0.480930  0.576470  0.564200  1.0  -0.571
  O  O267  1  0.521000  0.984200  0.893600  1.0  -0.3472
  O  O268  1  0.082790  0.598730  0.564120  1.0  -0.5597
  O  O269  1  0.118090  0.496590  0.494880  1.0  -0.544
  O  O270  1  0.983990  0.883730  0.511320  1.0  -0.5789
  O  O271  1  0.083270  0.987730  0.564200  1.0  -0.5716
  O  O272  1  0.372600  0.909400  0.893600  1.0  -0.3364
