# generated using pymatgen
data_Cu2H11C21O10
_symmetry_space_group_name_H-M   'P 1'
_cell_length_a   18.34890000
_cell_length_b   18.34900000
_cell_length_c   19.86640000
_cell_angle_alpha   64.52750000
_cell_angle_beta   64.52770000
_cell_angle_gamma   93.93990000
_symmetry_Int_Tables_number   1
_chemical_formula_structural   Cu2H11C21O10
_chemical_formula_sum   'Cu8 H44 C84 O40'
_cell_volume   5180.74017900
_cell_formula_units_Z   4
loop_
 _symmetry_equiv_pos_site_id
 _symmetry_equiv_pos_as_xyz
  1  'x, y, z'
loop_
 _atom_site_type_symbol
 _atom_site_label
 _atom_site_symmetry_multiplicity
 _atom_site_fract_x
 _atom_site_fract_y
 _atom_site_fract_z
 _atom_site_occupancy
 _atom_site_charge
  Cu  Cu1  1  0.434760  0.003020  0.562220  1.0  0.896
  Cu  Cu2  1  0.003020  0.434760  0.562220  1.0  0.8965
  Cu  Cu3  1  0.996980  0.565240  0.437780  1.0  0.8968
  Cu  Cu4  1  0.565240  0.996980  0.437780  1.0  0.8956
  Cu  Cu5  1  0.991070  0.991070  0.440560  1.0  0.9
  Cu  Cu6  1  0.568370  0.568370  0.440560  1.0  0.901
  Cu  Cu7  1  0.008930  0.008930  0.559440  1.0  0.9009
  Cu  Cu8  1  0.431630  0.431630  0.559440  1.0  0.9
  H  H9  1  0.750200  0.982400  0.729600  1.0  0.119
  H  H10  1  0.539000  0.990800  0.723000  1.0  0.0846
  H  H11  1  0.732900  0.979300  0.531800  1.0  0.1057
  H  H12  1  0.488400  0.963800  0.853200  1.0  0.0633
  H  H13  1  0.539000  0.063800  0.798000  1.0  0.075
  H  H14  1  0.520200  0.288000  0.729600  1.0  0.1192
  H  H15  1  0.738000  0.286200  0.723000  1.0  0.0837
  H  H16  1  0.735300  0.488900  0.531800  1.0  0.1068
  H  H17  1  0.658400  0.183000  0.853200  1.0  0.0603
  H  H18  1  0.663000  0.138200  0.798000  1.0  0.0743
  H  H19  1  0.017600  0.249800  0.270400  1.0  0.1192
  H  H20  1  0.009200  0.461000  0.277000  1.0  0.0827
  H  H21  1  0.020700  0.267100  0.468200  1.0  0.1045
  H  H22  1  0.036200  0.511600  0.146800  1.0  0.0628
  H  H23  1  0.936200  0.461000  0.202000  1.0  0.0678
  H  H24  1  0.712000  0.479800  0.270400  1.0  0.1189
  H  H25  1  0.713800  0.262000  0.277000  1.0  0.0828
  H  H26  1  0.511100  0.264700  0.468200  1.0  0.1051
  H  H27  1  0.817000  0.341600  0.146800  1.0  0.0589
  H  H28  1  0.861800  0.337000  0.202000  1.0  0.0756
  H  H29  1  0.249800  0.017600  0.270400  1.0  0.1194
  H  H30  1  0.461000  0.009200  0.277000  1.0  0.0824
  H  H31  1  0.267100  0.020700  0.468200  1.0  0.1055
  H  H32  1  0.511600  0.036200  0.146800  1.0  0.0644
  H  H33  1  0.461000  0.936200  0.202000  1.0  0.0755
  H  H34  1  0.479800  0.712000  0.270400  1.0  0.1189
  H  H35  1  0.262000  0.713800  0.277000  1.0  0.0843
  H  H36  1  0.264700  0.511100  0.468200  1.0  0.107
  H  H37  1  0.341600  0.817000  0.146800  1.0  0.0597
  H  H38  1  0.337000  0.861800  0.202000  1.0  0.0748
  H  H39  1  0.982400  0.750200  0.729600  1.0  0.1191
  H  H40  1  0.990800  0.539000  0.723000  1.0  0.0825
  H  H41  1  0.979300  0.732900  0.531800  1.0  0.1052
  H  H42  1  0.963800  0.488400  0.853200  1.0  0.0624
  H  H43  1  0.063800  0.539000  0.798000  1.0  0.0618
  H  H44  1  0.288000  0.520200  0.729600  1.0  0.119
  H  H45  1  0.286200  0.738000  0.723000  1.0  0.0833
  H  H46  1  0.488900  0.735300  0.531800  1.0  0.1047
  H  H47  1  0.183000  0.658400  0.853200  1.0  0.0594
  H  H48  1  0.138200  0.663000  0.798000  1.0  0.0742
  H  H49  1  0.436200  0.886600  0.000000  1.0  0.0971
  H  H50  1  0.563800  0.113400  0.000000  1.0  0.0984
  H  H51  1  0.113400  0.563800  0.000000  1.0  0.0974
  H  H52  1  0.886600  0.436200  0.000000  1.0  0.0969
  C  C53  1  0.848700  0.983100  0.580400  1.0  0.6546
  C  C54  1  0.757220  0.980220  0.621960  1.0  -0.1359
  C  C55  1  0.719200  0.983400  0.701400  1.0  -0.0661
  C  C56  1  0.639060  0.987660  0.734480  1.0  0.3114
  C  C57  1  0.595090  0.987890  0.697620  1.0  -0.1403
  C  C58  1  0.628320  0.983920  0.620960  1.0  -0.1643
  C  C59  1  0.709350  0.980950  0.583900  1.0  -0.0098
  C  C60  1  0.534900  0.007300  0.840600  1.0  0.0389
  C  C61  1  0.519520  0.004920  0.921960  1.0  0.0806
  C  C62  1  0.577400  0.987200  0.578400  1.0  0.7055
  C  C63  1  0.570900  0.436500  0.580400  1.0  0.6546
  C  C64  1  0.620820  0.397820  0.621960  1.0  -0.1363
  C  C65  1  0.579400  0.315200  0.701400  1.0  -0.0639
  C  C66  1  0.626460  0.277860  0.734480  1.0  0.3034
  C  C67  1  0.707290  0.314490  0.697620  1.0  -0.1366
  C  C68  1  0.750720  0.395120  0.620960  1.0  -0.1581
  C  C69  1  0.706750  0.435150  0.583900  1.0  -0.0105
  C  C70  1  0.624500  0.152100  0.840600  1.0  0.0359
  C  C71  1  0.558520  0.073120  0.921960  1.0  0.0834
  C  C72  1  0.844200  0.434400  0.578400  1.0  0.7005
  C  C73  1  0.016900  0.151300  0.419600  1.0  0.6551
  C  C74  1  0.019780  0.242780  0.378040  1.0  -0.1334
  C  C75  1  0.016600  0.280800  0.298600  1.0  -0.0626
  C  C76  1  0.012340  0.360940  0.265520  1.0  0.3025
  C  C77  1  0.012110  0.404910  0.302380  1.0  -0.1376
  C  C78  1  0.016080  0.371680  0.379040  1.0  -0.1571
  C  C79  1  0.019050  0.290650  0.416100  1.0  -0.0169
  C  C80  1  0.992700  0.465100  0.159400  1.0  0.0385
  C  C81  1  0.995080  0.480480  0.078040  1.0  0.0839
  C  C82  1  0.012800  0.422600  0.421600  1.0  0.7032
  C  C83  1  0.563500  0.429100  0.419600  1.0  0.6541
  C  C84  1  0.602180  0.379180  0.378040  1.0  -0.1327
  C  C85  1  0.684800  0.420600  0.298600  1.0  -0.0634
  C  C86  1  0.722140  0.373540  0.265520  1.0  0.3038
  C  C87  1  0.685510  0.292710  0.302380  1.0  -0.1361
  C  C88  1  0.604880  0.249280  0.379040  1.0  -0.162
  C  C89  1  0.564850  0.293250  0.416100  1.0  -0.0097
  C  C90  1  0.847900  0.375500  0.159400  1.0  0.0355
  C  C91  1  0.926880  0.441480  0.078040  1.0  0.0818
  C  C92  1  0.565600  0.155800  0.421600  1.0  0.7036
  C  C93  1  0.151300  0.016900  0.419600  1.0  0.6548
  C  C94  1  0.242780  0.019780  0.378040  1.0  -0.1354
  C  C95  1  0.280800  0.016600  0.298600  1.0  -0.0662
  C  C96  1  0.360940  0.012340  0.265520  1.0  0.3126
  C  C97  1  0.404910  0.012110  0.302380  1.0  -0.1426
  C  C98  1  0.371680  0.016080  0.379040  1.0  -0.1641
  C  C99  1  0.290650  0.019050  0.416100  1.0  -0.0109
  C  C100  1  0.465100  0.992700  0.159400  1.0  0.0383
  C  C101  1  0.480480  0.995080  0.078040  1.0  0.0838
  C  C102  1  0.422600  0.012800  0.421600  1.0  0.7048
  C  C103  1  0.429100  0.563500  0.419600  1.0  0.6551
  C  C104  1  0.379180  0.602180  0.378040  1.0  -0.1359
  C  C105  1  0.420600  0.684800  0.298600  1.0  -0.064
  C  C106  1  0.373540  0.722140  0.265520  1.0  0.3036
  C  C107  1  0.292710  0.685510  0.302380  1.0  -0.1366
  C  C108  1  0.249280  0.604880  0.379040  1.0  -0.1574
  C  C109  1  0.293250  0.564850  0.416100  1.0  -0.0108
  C  C110  1  0.375500  0.847900  0.159400  1.0  0.0376
  C  C111  1  0.441480  0.926880  0.078040  1.0  0.083
  C  C112  1  0.155800  0.565600  0.421600  1.0  0.7011
  C  C113  1  0.983100  0.848700  0.580400  1.0  0.6553
  C  C114  1  0.980220  0.757220  0.621960  1.0  -0.1343
  C  C115  1  0.983400  0.719200  0.701400  1.0  -0.0637
  C  C116  1  0.987660  0.639060  0.734480  1.0  0.3031
  C  C117  1  0.987890  0.595090  0.697620  1.0  -0.1381
  C  C118  1  0.983920  0.628320  0.620960  1.0  -0.1574
  C  C119  1  0.980950  0.709350  0.583900  1.0  -0.016
  C  C120  1  0.007300  0.534900  0.840600  1.0  0.0373
  C  C121  1  0.004920  0.519520  0.921960  1.0  0.0811
  C  C122  1  0.987200  0.577400  0.578400  1.0  0.7022
  C  C123  1  0.436500  0.570900  0.580400  1.0  0.654
  C  C124  1  0.397820  0.620820  0.621960  1.0  -0.1328
  C  C125  1  0.315200  0.579400  0.701400  1.0  -0.0653
  C  C126  1  0.277860  0.626460  0.734480  1.0  0.3019
  C  C127  1  0.314490  0.707290  0.697620  1.0  -0.1353
  C  C128  1  0.395120  0.750720  0.620960  1.0  -0.1627
  C  C129  1  0.435150  0.706750  0.583900  1.0  -0.0087
  C  C130  1  0.152100  0.624500  0.840600  1.0  0.0369
  C  C131  1  0.073120  0.558520  0.921960  1.0  0.0829
  C  C132  1  0.434400  0.844200  0.578400  1.0  0.704
  C  C133  1  0.462200  0.933200  0.000000  1.0  -0.192
  C  C134  1  0.537800  0.066800  0.000000  1.0  -0.1919
  C  C135  1  0.066800  0.537800  0.000000  1.0  -0.1914
  C  C136  1  0.933200  0.462200  0.000000  1.0  -0.194
  O  O137  1  0.874100  0.974680  0.513720  1.0  -0.5736
  O  O138  1  0.504470  0.989950  0.614180  1.0  -0.5736
  O  O139  1  0.888760  0.988800  0.615520  1.0  -0.5679
  O  O140  1  0.615170  0.985190  0.509240  1.0  -0.5753
  O  O141  1  0.610440  0.990380  0.810080  1.0  -0.2756
  O  O142  1  0.612180  0.511600  0.513720  1.0  -0.573
  O  O143  1  0.881350  0.395870  0.614180  1.0  -0.5707
  O  O144  1  0.495720  0.395680  0.615520  1.0  -0.5696
  O  O145  1  0.875590  0.505570  0.509240  1.0  -0.5746
  O  O146  1  0.579480  0.199540  0.810080  1.0  -0.2799
  O  O147  1  0.025320  0.125900  0.486280  1.0  -0.5765
  O  O148  1  0.010050  0.495530  0.385820  1.0  -0.5683
  O  O149  1  0.011200  0.111240  0.384480  1.0  -0.5681
  O  O150  1  0.014810  0.384830  0.490760  1.0  -0.5794
  O  O151  1  0.009620  0.389560  0.189920  1.0  -0.2771
  O  O152  1  0.488400  0.387820  0.486280  1.0  -0.5749
  O  O153  1  0.604130  0.118650  0.385820  1.0  -0.5687
  O  O154  1  0.604320  0.504280  0.384480  1.0  -0.568
  O  O155  1  0.494430  0.124410  0.490760  1.0  -0.5735
  O  O156  1  0.800460  0.420520  0.189920  1.0  -0.2807
  O  O157  1  0.125900  0.025320  0.486280  1.0  -0.5741
  O  O158  1  0.495530  0.010050  0.385820  1.0  -0.573
  O  O159  1  0.111240  0.011200  0.384480  1.0  -0.5681
  O  O160  1  0.384830  0.014810  0.490760  1.0  -0.5745
  O  O161  1  0.389560  0.009620  0.189920  1.0  -0.2781
  O  O162  1  0.387820  0.488400  0.486280  1.0  -0.5734
  O  O163  1  0.118650  0.604130  0.385820  1.0  -0.5707
  O  O164  1  0.504280  0.604320  0.384480  1.0  -0.5694
  O  O165  1  0.124410  0.494430  0.490760  1.0  -0.5754
  O  O166  1  0.420520  0.800460  0.189920  1.0  -0.278
  O  O167  1  0.974680  0.874100  0.513720  1.0  -0.5769
  O  O168  1  0.989950  0.504470  0.614180  1.0  -0.5676
  O  O169  1  0.988800  0.888760  0.615520  1.0  -0.5678
  O  O170  1  0.985190  0.615170  0.509240  1.0  -0.5797
  O  O171  1  0.990380  0.610440  0.810080  1.0  -0.2743
  O  O172  1  0.511600  0.612180  0.513720  1.0  -0.5745
  O  O173  1  0.395870  0.881350  0.614180  1.0  -0.5687
  O  O174  1  0.395680  0.495720  0.615520  1.0  -0.5681
  O  O175  1  0.505570  0.875590  0.509240  1.0  -0.5734
  O  O176  1  0.199540  0.579480  0.810080  1.0  -0.2783
