# generated using pymatgen
data_InH24C32NO8
_symmetry_space_group_name_H-M   'P 1'
_cell_length_a   9.84800000
_cell_length_b   9.84800000
_cell_length_c   35.05880000
_cell_angle_alpha   90.00000000
_cell_angle_beta   90.00000000
_cell_angle_gamma   90.00000000
_symmetry_Int_Tables_number   1
_chemical_formula_structural   InH24C32NO8
_chemical_formula_sum   'In4 H96 C128 N4 O32'
_cell_volume   3400.11124652
_cell_formula_units_Z   4
loop_
 _symmetry_equiv_pos_site_id
 _symmetry_equiv_pos_as_xyz
  1  'x, y, z'
loop_
 _atom_site_type_symbol
 _atom_site_label
 _atom_site_symmetry_multiplicity
 _atom_site_fract_x
 _atom_site_fract_y
 _atom_site_fract_z
 _atom_site_occupancy
 _atom_site_charge
  In  In1  1  0.848690  0.769370  0.064170  1.0  1.5026
  In  In2  1  0.151310  0.230630  0.564170  1.0  1.5021
  In  In3  1  0.230630  0.848690  0.814170  1.0  1.4993
  In  In4  1  0.769370  0.151310  0.314170  1.0  1.4998
  H  H5  1  0.848100  0.277500  0.065000  1.0  0.1279
  H  H6  1  0.751100  0.071200  0.968200  1.0  0.1137
  H  H7  1  0.789700  0.475000  0.964100  1.0  0.1236
  H  H8  1  0.447900  0.253300  0.667800  1.0  0.1132
  H  H9  1  0.859200  0.248700  0.664200  1.0  0.1115
  H  H10  1  0.643500  0.236700  0.567600  1.0  0.119
  H  H11  1  0.831400  0.371100  0.718000  1.0  0.1103
  H  H12  1  0.491700  0.178700  0.793500  1.0  0.1323
  H  H13  1  0.489400  0.162700  0.727200  1.0  0.1065
  H  H14  1  0.596600  0.118600  0.916200  1.0  0.109
  H  H15  1  0.555700  0.123700  0.850300  1.0  0.118
  H  H16  1  0.872200  0.422500  0.905000  1.0  0.1073
  H  H17  1  0.811800  0.538200  0.823700  1.0  0.1294
  H  H18  1  0.950100  0.487300  0.843100  1.0  0.1097
  H  H19  1  0.953500  0.456100  0.775200  1.0  0.1277
  H  H20  1  0.973600  0.314800  0.797300  1.0  0.1293
  H  H21  1  0.151900  0.722500  0.565000  1.0  0.1287
  H  H22  1  0.248900  0.928800  0.468200  1.0  0.114
  H  H23  1  0.210300  0.525000  0.464100  1.0  0.1231
  H  H24  1  0.552100  0.746700  0.167800  1.0  0.113
  H  H25  1  0.140800  0.751300  0.164200  1.0  0.1113
  H  H26  1  0.356500  0.763300  0.067600  1.0  0.1195
  H  H27  1  0.168600  0.628900  0.218000  1.0  0.1105
  H  H28  1  0.508300  0.821300  0.293500  1.0  0.1326
  H  H29  1  0.510600  0.837300  0.227200  1.0  0.1061
  H  H30  1  0.403400  0.881400  0.416200  1.0  0.1093
  H  H31  1  0.444300  0.876300  0.350300  1.0  0.1185
  H  H32  1  0.127800  0.577500  0.405000  1.0  0.1078
  H  H33  1  0.188200  0.461800  0.323700  1.0  0.1299
  H  H34  1  0.049900  0.512700  0.343100  1.0  0.1097
  H  H35  1  0.046500  0.543900  0.275200  1.0  0.1289
  H  H36  1  0.026400  0.685200  0.297300  1.0  0.1289
  H  H37  1  0.722500  0.848100  0.815000  1.0  0.1289
  H  H38  1  0.928800  0.751100  0.718200  1.0  0.1124
  H  H39  1  0.525000  0.789700  0.714100  1.0  0.1232
  H  H40  1  0.746700  0.447900  0.417800  1.0  0.1137
  H  H41  1  0.751300  0.859200  0.414200  1.0  0.112
  H  H42  1  0.763300  0.643500  0.317600  1.0  0.1193
  H  H43  1  0.628900  0.831400  0.468000  1.0  0.1103
  H  H44  1  0.821300  0.491700  0.543500  1.0  0.1327
  H  H45  1  0.837300  0.489400  0.477200  1.0  0.1067
  H  H46  1  0.881400  0.596600  0.666200  1.0  0.1088
  H  H47  1  0.876300  0.555700  0.600300  1.0  0.1185
  H  H48  1  0.577500  0.872200  0.655000  1.0  0.108
  H  H49  1  0.461800  0.811800  0.573700  1.0  0.1274
  H  H50  1  0.512700  0.950100  0.593100  1.0  0.11
  H  H51  1  0.543900  0.953500  0.525200  1.0  0.1285
  H  H52  1  0.685200  0.973600  0.547300  1.0  0.1281
  H  H53  1  0.277500  0.151900  0.315000  1.0  0.1289
  H  H54  1  0.071200  0.248900  0.218200  1.0  0.1132
  H  H55  1  0.475000  0.210300  0.214100  1.0  0.1233
  H  H56  1  0.253300  0.552100  0.917800  1.0  0.1138
  H  H57  1  0.248700  0.140800  0.914200  1.0  0.1125
  H  H58  1  0.236700  0.356500  0.817600  1.0  0.1193
  H  H59  1  0.371100  0.168600  0.968000  1.0  0.1098
  H  H60  1  0.178700  0.508300  0.043500  1.0  0.1324
  H  H61  1  0.162700  0.510600  0.977200  1.0  0.1064
  H  H62  1  0.118600  0.403400  0.166200  1.0  0.1086
  H  H63  1  0.123700  0.444300  0.100300  1.0  0.1185
  H  H64  1  0.422500  0.127800  0.155000  1.0  0.1081
  H  H65  1  0.538200  0.188200  0.073700  1.0  0.1279
  H  H66  1  0.487300  0.049900  0.093100  1.0  0.1107
  H  H67  1  0.456100  0.046500  0.025200  1.0  0.1275
  H  H68  1  0.314800  0.026400  0.047300  1.0  0.1277
  H  H69  1  0.095100  0.839300  0.899400  1.0  0.1514
  H  H70  1  0.074700  0.848900  0.941200  1.0  0.1766
  H  H71  1  0.014200  0.033900  0.913100  1.0  0.0964
  H  H72  1  0.906000  0.947900  0.889000  1.0  0.1082
  H  H73  1  0.889600  0.962000  0.934300  1.0  0.1059
  H  H74  1  0.023400  0.646100  0.922200  1.0  0.1038
  H  H75  1  0.891100  0.722000  0.937900  1.0  0.1038
  H  H76  1  0.916200  0.709800  0.892900  1.0  0.1084
  H  H77  1  0.904900  0.160700  0.399400  1.0  0.1556
  H  H78  1  0.925300  0.151100  0.441200  1.0  0.1783
  H  H79  1  0.985800  0.966100  0.413100  1.0  0.097
  H  H80  1  0.094000  0.052100  0.389000  1.0  0.1106
  H  H81  1  0.110400  0.038000  0.434300  1.0  0.104
  H  H82  1  0.976600  0.353900  0.422200  1.0  0.1035
  H  H83  1  0.108900  0.278000  0.437900  1.0  0.1042
  H  H84  1  0.083800  0.290200  0.392900  1.0  0.1075
  H  H85  1  0.160700  0.095100  0.649400  1.0  0.1656
  H  H86  1  0.151100  0.074700  0.691200  1.0  0.175
  H  H87  1  0.966100  0.014200  0.663100  1.0  0.0987
  H  H88  1  0.052100  0.906000  0.639000  1.0  0.109
  H  H89  1  0.038000  0.889600  0.684300  1.0  0.1048
  H  H90  1  0.353900  0.023400  0.672200  1.0  0.1003
  H  H91  1  0.278000  0.891100  0.687900  1.0  0.1051
  H  H92  1  0.290200  0.916200  0.642900  1.0  0.1066
  H  H93  1  0.839300  0.904900  0.149400  1.0  0.1662
  H  H94  1  0.848900  0.925300  0.191200  1.0  0.1765
  H  H95  1  0.033900  0.985800  0.163100  1.0  0.0965
  H  H96  1  0.947900  0.094000  0.139000  1.0  0.1091
  H  H97  1  0.962000  0.110400  0.184300  1.0  0.104
  H  H98  1  0.646100  0.976600  0.172200  1.0  0.102
  H  H99  1  0.722000  0.108900  0.187900  1.0  0.1042
  H  H100  1  0.709800  0.083800  0.142900  1.0  0.1066
  C  C101  1  0.821500  0.394200  0.017100  1.0  -0.1012
  C  C102  1  0.828600  0.276300  0.038500  1.0  -0.0876
  C  C103  1  0.805000  0.153800  0.018500  1.0  -0.1309
  C  C104  1  0.770500  0.155200  0.980400  1.0  -0.1501
  C  C105  1  0.763200  0.268900  0.959800  1.0  0.0969
  C  C106  1  0.791300  0.392500  0.978100  1.0  -0.1171
  C  C107  1  0.527600  0.246800  0.615200  1.0  -0.1179
  C  C108  1  0.530900  0.253200  0.654000  1.0  -0.0756
  C  C109  1  0.654700  0.259700  0.674100  1.0  0.0545
  C  C110  1  0.773500  0.249800  0.651800  1.0  -0.1159
  C  C111  1  0.768900  0.241800  0.612800  1.0  -0.0969
  C  C112  1  0.646700  0.241100  0.594700  1.0  -0.0502
  C  C113  1  0.660600  0.265700  0.716100  1.0  0.0423
  C  C114  1  0.764600  0.327900  0.733300  1.0  -0.1175
  C  C115  1  0.778800  0.331700  0.772400  1.0  0.0542
  C  C116  1  0.680400  0.268900  0.795500  1.0  -0.0283
  C  C117  1  0.565000  0.212500  0.778600  1.0  -0.1926
  C  C118  1  0.563000  0.208200  0.739100  1.0  -0.0789
  C  C119  1  0.737700  0.269400  0.918000  1.0  0.0405
  C  C120  1  0.645200  0.181300  0.900800  1.0  -0.0909
  C  C121  1  0.621800  0.182700  0.861100  1.0  -0.1129
  C  C122  1  0.697500  0.273000  0.836800  1.0  -0.0696
  C  C123  1  0.788900  0.361300  0.853900  1.0  0.0674
  C  C124  1  0.809300  0.360600  0.894000  1.0  -0.0774
  C  C125  1  0.390200  0.236200  0.596000  1.0  0.645
  C  C126  1  0.843800  0.522700  0.035800  1.0  0.6607
  C  C127  1  0.822000  0.023800  0.038200  1.0  0.6738
  C  C128  1  0.901300  0.235100  0.591500  1.0  0.6571
  C  C129  1  0.867800  0.457100  0.829300  1.0  -0.2805
  C  C130  1  0.908700  0.389300  0.792100  1.0  -0.2933
  C  C131  1  0.178500  0.605800  0.517100  1.0  -0.1007
  C  C132  1  0.171400  0.723700  0.538500  1.0  -0.0881
  C  C133  1  0.195000  0.846200  0.518500  1.0  -0.1311
  C  C134  1  0.229500  0.844800  0.480400  1.0  -0.1492
  C  C135  1  0.236800  0.731100  0.459800  1.0  0.0978
  C  C136  1  0.208700  0.607500  0.478100  1.0  -0.1166
  C  C137  1  0.472400  0.753200  0.115200  1.0  -0.1155
  C  C138  1  0.469100  0.746800  0.154000  1.0  -0.0744
  C  C139  1  0.345300  0.740300  0.174100  1.0  0.054
  C  C140  1  0.226500  0.750200  0.151800  1.0  -0.1168
  C  C141  1  0.231100  0.758200  0.112800  1.0  -0.0971
  C  C142  1  0.353300  0.758900  0.094700  1.0  -0.0502
  C  C143  1  0.339400  0.734300  0.216100  1.0  0.0426
  C  C144  1  0.235400  0.672100  0.233300  1.0  -0.1166
  C  C145  1  0.221200  0.668300  0.272400  1.0  0.0538
  C  C146  1  0.319600  0.731100  0.295500  1.0  -0.0286
  C  C147  1  0.435000  0.787500  0.278600  1.0  -0.1922
  C  C148  1  0.437000  0.791800  0.239100  1.0  -0.0811
  C  C149  1  0.262300  0.730600  0.418000  1.0  0.041
  C  C150  1  0.354800  0.818700  0.400800  1.0  -0.0924
  C  C151  1  0.378200  0.817300  0.361100  1.0  -0.1146
  C  C152  1  0.302500  0.727000  0.336800  1.0  -0.0694
  C  C153  1  0.211100  0.638700  0.353900  1.0  0.0676
  C  C154  1  0.190700  0.639400  0.394000  1.0  -0.078
  C  C155  1  0.609800  0.763800  0.096000  1.0  0.6478
  C  C156  1  0.156200  0.477300  0.535800  1.0  0.6604
  C  C157  1  0.178000  0.976200  0.538200  1.0  0.6732
  C  C158  1  0.098700  0.764900  0.091500  1.0  0.6557
  C  C159  1  0.132200  0.542900  0.329300  1.0  -0.2795
  C  C160  1  0.091300  0.610700  0.292100  1.0  -0.295
  C  C161  1  0.605800  0.821500  0.767100  1.0  -0.102
  C  C162  1  0.723700  0.828600  0.788500  1.0  -0.0873
  C  C163  1  0.846200  0.805000  0.768500  1.0  -0.132
  C  C164  1  0.844800  0.770500  0.730400  1.0  -0.1489
  C  C165  1  0.731100  0.763200  0.709800  1.0  0.0968
  C  C166  1  0.607500  0.791300  0.728100  1.0  -0.1164
  C  C167  1  0.753200  0.527600  0.365200  1.0  -0.1182
  C  C168  1  0.746800  0.530900  0.404000  1.0  -0.0739
  C  C169  1  0.740300  0.654700  0.424100  1.0  0.0548
  C  C170  1  0.750200  0.773500  0.401800  1.0  -0.1167
  C  C171  1  0.758200  0.768900  0.362800  1.0  -0.0995
  C  C172  1  0.758900  0.646700  0.344700  1.0  -0.05
  C  C173  1  0.734300  0.660600  0.466100  1.0  0.0428
  C  C174  1  0.672100  0.764600  0.483300  1.0  -0.1186
  C  C175  1  0.668300  0.778800  0.522400  1.0  0.0542
  C  C176  1  0.731100  0.680400  0.545500  1.0  -0.0272
  C  C177  1  0.787500  0.565000  0.528600  1.0  -0.1926
  C  C178  1  0.791800  0.563000  0.489100  1.0  -0.0809
  C  C179  1  0.730600  0.737700  0.668000  1.0  0.0409
  C  C180  1  0.818700  0.645200  0.650800  1.0  -0.0921
  C  C181  1  0.817300  0.621800  0.611100  1.0  -0.113
  C  C182  1  0.727000  0.697500  0.586800  1.0  -0.0693
  C  C183  1  0.638700  0.788900  0.603900  1.0  0.0662
  C  C184  1  0.639400  0.809300  0.644000  1.0  -0.0794
  C  C185  1  0.763800  0.390200  0.346000  1.0  0.6494
  C  C186  1  0.477300  0.843800  0.785800  1.0  0.659
  C  C187  1  0.976200  0.822000  0.788200  1.0  0.6719
  C  C188  1  0.764900  0.901300  0.341500  1.0  0.6601
  C  C189  1  0.542900  0.867800  0.579300  1.0  -0.2749
  C  C190  1  0.610700  0.908700  0.542100  1.0  -0.297
  C  C191  1  0.394200  0.178500  0.267100  1.0  -0.1007
  C  C192  1  0.276300  0.171400  0.288500  1.0  -0.088
  C  C193  1  0.153800  0.195000  0.268500  1.0  -0.1311
  C  C194  1  0.155200  0.229500  0.230400  1.0  -0.1492
  C  C195  1  0.268900  0.236800  0.209800  1.0  0.0977
  C  C196  1  0.392500  0.208700  0.228100  1.0  -0.1164
  C  C197  1  0.246800  0.472400  0.865200  1.0  -0.1157
  C  C198  1  0.253200  0.469100  0.904000  1.0  -0.0746
  C  C199  1  0.259700  0.345300  0.924100  1.0  0.0544
  C  C200  1  0.249800  0.226500  0.901800  1.0  -0.1158
  C  C201  1  0.241800  0.231100  0.862800  1.0  -0.0988
  C  C202  1  0.241100  0.353300  0.844700  1.0  -0.051
  C  C203  1  0.265700  0.339400  0.966100  1.0  0.043
  C  C204  1  0.327900  0.235400  0.983300  1.0  -0.1195
  C  C205  1  0.331700  0.221200  0.022400  1.0  0.0541
  C  C206  1  0.268900  0.319600  0.045500  1.0  -0.0273
  C  C207  1  0.212500  0.435000  0.028600  1.0  -0.192
  C  C208  1  0.208200  0.437000  0.989100  1.0  -0.0814
  C  C209  1  0.269400  0.262300  0.168000  1.0  0.0419
  C  C210  1  0.181300  0.354800  0.150800  1.0  -0.0935
  C  C211  1  0.182700  0.378200  0.111100  1.0  -0.115
  C  C212  1  0.273000  0.302500  0.086800  1.0  -0.0685
  C  C213  1  0.361300  0.211100  0.103900  1.0  0.0674
  C  C214  1  0.360600  0.190700  0.144000  1.0  -0.0787
  C  C215  1  0.236200  0.609800  0.846000  1.0  0.6515
  C  C216  1  0.522700  0.156200  0.285800  1.0  0.659
  C  C217  1  0.023800  0.178000  0.288200  1.0  0.6707
  C  C218  1  0.235100  0.098700  0.841500  1.0  0.66
  C  C219  1  0.457100  0.132200  0.079300  1.0  -0.2715
  C  C220  1  0.389300  0.091300  0.042100  1.0  -0.2962
  C  C221  1  0.954900  0.954000  0.913300  1.0  -0.0871
  C  C222  1  0.960000  0.721000  0.917800  1.0  -0.1354
  C  C223  1  0.045100  0.046000  0.413300  1.0  -0.0869
  C  C224  1  0.040000  0.279000  0.417800  1.0  -0.1354
  C  C225  1  0.046000  0.954900  0.663300  1.0  -0.0906
  C  C226  1  0.279000  0.960000  0.667800  1.0  -0.1332
  C  C227  1  0.954000  0.045100  0.163300  1.0  -0.0864
  C  C228  1  0.721000  0.040000  0.167800  1.0  -0.1367
  N  N229  1  0.030200  0.841900  0.918300  1.0  -0.0509
  N  N230  1  0.969800  0.158100  0.418300  1.0  -0.0523
  N  N231  1  0.158100  0.030200  0.668300  1.0  -0.0511
  N  N232  1  0.841900  0.969800  0.168300  1.0  -0.053
  O  O233  1  0.852000  0.537500  0.071940  1.0  -0.5819
  O  O234  1  0.006800  0.220300  0.611020  1.0  -0.6055
  O  O235  1  0.284500  0.236200  0.616120  1.0  -0.607
  O  O236  1  0.837000  0.915600  0.017820  1.0  -0.5808
  O  O237  1  0.850400  0.631100  0.014400  1.0  -0.5719
  O  O238  1  0.905900  0.231000  0.556300  1.0  -0.5944
  O  O239  1  0.382300  0.248900  0.560900  1.0  -0.5559
  O  O240  1  0.830900  0.011100  0.073270  1.0  -0.5899
  O  O241  1  0.148000  0.462500  0.571940  1.0  -0.582
  O  O242  1  0.993200  0.779700  0.111020  1.0  -0.6048
  O  O243  1  0.715500  0.763800  0.116120  1.0  -0.6071
  O  O244  1  0.163000  0.084400  0.517820  1.0  -0.5789
  O  O245  1  0.149600  0.368900  0.514400  1.0  -0.5717
  O  O246  1  0.094100  0.769000  0.056300  1.0  -0.5938
  O  O247  1  0.617700  0.751100  0.060900  1.0  -0.5558
  O  O248  1  0.169100  0.988900  0.573270  1.0  -0.5905
  O  O249  1  0.462500  0.852000  0.821940  1.0  -0.5819
  O  O250  1  0.779700  0.006800  0.361020  1.0  -0.6069
  O  O251  1  0.763800  0.284500  0.366120  1.0  -0.6041
  O  O252  1  0.084400  0.837000  0.767820  1.0  -0.5806
  O  O253  1  0.368900  0.850400  0.764400  1.0  -0.5716
  O  O254  1  0.769000  0.905900  0.306300  1.0  -0.5943
  O  O255  1  0.751100  0.382300  0.310900  1.0  -0.5564
  O  O256  1  0.988900  0.830900  0.823270  1.0  -0.5887
  O  O257  1  0.537500  0.148000  0.321940  1.0  -0.5821
  O  O258  1  0.220300  0.993200  0.861020  1.0  -0.6066
  O  O259  1  0.236200  0.715500  0.866120  1.0  -0.6053
  O  O260  1  0.915600  0.163000  0.267820  1.0  -0.5813
  O  O261  1  0.631100  0.149600  0.264400  1.0  -0.5711
  O  O262  1  0.231000  0.094100  0.806300  1.0  -0.5943
  O  O263  1  0.248900  0.617700  0.810900  1.0  -0.5571
  O  O264  1  0.011100  0.169100  0.323270  1.0  -0.5879
