# generated using pymatgen
data_LiInH21C34O9
_symmetry_space_group_name_H-M   'P 1'
_cell_length_a   23.11850000
_cell_length_b   23.11850000
_cell_length_c   9.94400000
_cell_angle_alpha   101.77870000
_cell_angle_beta   101.77870000
_cell_angle_gamma   24.31620000
_symmetry_Int_Tables_number   1
_chemical_formula_structural   LiInH21C34O9
_chemical_formula_sum   'Li2 In2 H42 C68 O18'
_cell_volume   2140.20873451
_cell_formula_units_Z   2
loop_
 _symmetry_equiv_pos_site_id
 _symmetry_equiv_pos_as_xyz
  1  'x, y, z'
loop_
 _atom_site_type_symbol
 _atom_site_label
 _atom_site_symmetry_multiplicity
 _atom_site_fract_x
 _atom_site_fract_y
 _atom_site_fract_z
 _atom_site_occupancy
 _atom_site_charge
  Li  Li1  1  0.966560  0.981280  0.563460  1.0  0.858
  Li  Li2  1  0.036180  0.015510  0.437730  1.0  0.8681
  In  In3  1  0.905840  0.923950  0.545280  1.0  1.5897
  In  In4  1  0.096960  0.072780  0.455770  1.0  1.5892
  H  H5  1  0.266800  0.726700  0.653940  1.0  0.1155
  H  H6  1  0.318900  0.760040  0.808130  1.0  0.1119
  H  H7  1  0.371370  0.817270  0.852540  1.0  0.1151
  H  H8  1  0.418760  0.852760  0.726140  1.0  0.1162
  H  H9  1  0.471210  0.910900  0.772930  1.0  0.119
  H  H10  1  0.833960  0.635710  0.082030  1.0  0.1242
  H  H11  1  0.898310  0.679810  0.127880  1.0  0.1185
  H  H12  1  0.660560  0.919170  0.761780  1.0  0.1256
  H  H13  1  0.604520  0.864680  0.709810  1.0  0.1271
  H  H14  1  0.298260  0.709460  0.286930  1.0  0.1195
  H  H15  1  0.262510  0.656600  0.333190  1.0  0.1229
  H  H16  1  0.210840  0.599300  0.284020  1.0  0.1202
  H  H17  1  0.177990  0.546440  0.095180  1.0  0.1171
  H  H18  1  0.122430  0.492630  0.055080  1.0  0.1087
  H  H19  1  0.735900  0.270060  0.346770  1.0  0.1126
  H  H20  1  0.683370  0.237230  0.192200  1.0  0.1165
  H  H21  1  0.630970  0.179900  0.147650  1.0  0.1142
  H  H22  1  0.584070  0.143860  0.274000  1.0  0.1181
  H  H23  1  0.531460  0.085890  0.227240  1.0  0.1187
  H  H24  1  0.167450  0.362400  0.919580  1.0  0.1248
  H  H25  1  0.103310  0.318100  0.873660  1.0  0.1163
  H  H26  1  0.342560  0.077240  0.238850  1.0  0.1243
  H  H27  1  0.398460  0.131850  0.290920  1.0  0.1285
  H  H28  1  0.704260  0.287540  0.714770  1.0  0.1171
  H  H29  1  0.740200  0.340180  0.668320  1.0  0.12
  H  H30  1  0.791910  0.397460  0.717530  1.0  0.1208
  H  H31  1  0.824050  0.451060  0.906740  1.0  0.1193
  H  H32  1  0.879440  0.505060  0.947020  1.0  0.1092
  H  H33  1  0.403570  0.421860  0.569430  1.0  0.1273
  H  H34  1  0.812670  0.846950  0.204380  1.0  0.1174
  H  H35  1  0.914910  0.917020  0.094450  1.0  0.114
  H  H36  1  0.825440  0.845230  0.775670  1.0  0.1153
  H  H37  1  0.599130  0.574950  0.431530  1.0  0.1259
  H  H38  1  0.189330  0.150620  0.796610  1.0  0.1173
  H  H39  1  0.088750  0.078810  0.906550  1.0  0.1162
  H  H40  1  0.177330  0.151450  0.225350  1.0  0.1162
  H  H41  1  0.947540  0.115260  0.825550  1.0  0.2263
  H  H42  1  0.055470  0.995440  0.711770  1.0  0.243
  H  H43  1  0.064410  0.963640  0.848770  1.0  0.2038
  H  H44  1  0.974610  0.981080  0.304220  1.0  0.2334
  H  H45  1  0.977900  0.017480  0.193470  1.0  0.2564
  H  H46  1  0.065850  0.879160  0.175440  1.0  0.2104
  C  C47  1  0.316010  0.590090  0.618320  1.0  -0.0908
  C  C48  1  0.350580  0.618820  0.654780  1.0  -0.1135
  C  C49  1  0.421830  0.679990  0.784630  1.0  -0.1386
  C  C50  1  0.451750  0.713320  0.811150  1.0  -0.1027
  C  C51  1  0.518800  0.777240  0.776050  1.0  -0.1418
  C  C52  1  0.550010  0.809330  0.800730  1.0  -0.1204
  C  C53  1  0.797420  0.695270  0.009180  1.0  -0.1391
  C  C54  1  0.832760  0.722850  0.036660  1.0  -0.1202
  C  C55  1  0.701420  0.854790  0.830950  1.0  -0.0859
  C  C56  1  0.667200  0.825500  0.802380  1.0  -0.1131
  C  C57  1  0.162650  0.714090  0.587790  1.0  0.5416
  C  C58  1  0.432130  0.661530  0.366500  1.0  -0.075
  C  C59  1  0.405440  0.625520  0.316960  1.0  -0.0916
  C  C60  1  0.344310  0.552640  0.290620  1.0  -0.1079
  C  C61  1  0.314220  0.519640  0.262890  1.0  -0.1109
  C  C62  1  0.255430  0.446250  0.126160  1.0  -0.1178
  C  C63  1  0.224000  0.414670  0.102160  1.0  -0.133
  C  C64  1  0.306090  0.816310  0.392380  1.0  0.5702
  C  C65  1  0.686730  0.406650  0.382790  1.0  -0.0945
  C  C66  1  0.652130  0.377970  0.346160  1.0  -0.1077
  C  C67  1  0.580580  0.317100  0.215980  1.0  -0.1286
  C  C68  1  0.550670  0.283750  0.189420  1.0  -0.1053
  C  C69  1  0.483830  0.219610  0.224430  1.0  -0.1381
  C  C70  1  0.452510  0.187630  0.199860  1.0  -0.1185
  C  C71  1  0.204400  0.302440  0.992220  1.0  -0.1387
  C  C72  1  0.169120  0.274790  0.964720  1.0  -0.1202
  C  C73  1  0.301300  0.142010  0.169920  1.0  -0.1021
  C  C74  1  0.335470  0.171350  0.198530  1.0  -0.1086
  C  C75  1  0.840130  0.282620  0.413280  1.0  0.5454
  C  C76  1  0.570580  0.335270  0.634690  1.0  -0.0909
  C  C77  1  0.597170  0.371390  0.684390  1.0  -0.0875
  C  C78  1  0.658320  0.444250  0.710630  1.0  -0.1242
  C  C79  1  0.688420  0.477220  0.738360  1.0  -0.1205
  C  C80  1  0.746780  0.551070  0.875310  1.0  -0.1184
  C  C81  1  0.778100  0.582760  0.899450  1.0  -0.1267
  C  C82  1  0.696650  0.180470  0.608770  1.0  0.5714
  C  C83  1  0.427540  0.446530  0.605500  1.0  -0.0629
  C  C84  1  0.489780  0.511650  0.691310  1.0  0.0145
  C  C85  1  0.523830  0.545450  0.730610  1.0  0.0098
  C  C86  1  0.584910  0.612700  0.787050  1.0  0.0633
  C  C87  1  0.616800  0.647890  0.813430  1.0  0.0589
  C  C88  1  0.680470  0.712190  0.862640  1.0  0.0538
  C  C89  1  0.714790  0.745340  0.891460  1.0  0.0587
  C  C90  1  0.784760  0.803870  0.948890  1.0  0.0335
  C  C91  1  0.818220  0.838080  0.985040  1.0  0.0329
  C  C92  1  0.832850  0.852720  0.124710  1.0  -0.1322
  C  C93  1  0.869540  0.878870  0.163930  1.0  -0.1019
  C  C94  1  0.887810  0.895320  0.062850  1.0  -0.1291
  C  C95  1  0.869220  0.886710  0.922270  1.0  -0.0704
  C  C96  1  0.836040  0.856080  0.883680  1.0  -0.068
  C  C97  1  0.884440  0.894050  0.310560  1.0  0.5727
  C  C98  1  0.884560  0.910960  0.819630  1.0  0.5956
  C  C99  1  0.575200  0.550240  0.395620  1.0  -0.0577
  C  C100  1  0.512850  0.485230  0.309740  1.0  0.0128
  C  C101  1  0.478730  0.451500  0.270370  1.0  0.0123
  C  C102  1  0.417620  0.384270  0.213900  1.0  0.0638
  C  C103  1  0.385690  0.349130  0.187500  1.0  0.0588
  C  C104  1  0.321810  0.285040  0.138480  1.0  0.0536
  C  C105  1  0.287430  0.251940  0.109700  1.0  0.06
  C  C106  1  0.217590  0.193300  0.052210  1.0  0.0318
  C  C107  1  0.184260  0.158950  0.016010  1.0  0.0342
  C  C108  1  0.169510  0.144470  0.876320  1.0  -0.1291
  C  C109  1  0.133200  0.117940  0.837070  1.0  -0.1033
  C  C110  1  0.115370  0.101010  0.938140  1.0  -0.1156
  C  C111  1  0.133820  0.109730  0.078720  1.0  -0.0718
  C  C112  1  0.166720  0.140640  0.117320  1.0  -0.0706
  C  C113  1  0.118320  0.102790  0.690440  1.0  0.5726
  C  C114  1  0.118550  0.085400  0.181380  1.0  0.5952
  O  O115  1  0.097340  0.739030  0.637980  1.0  -0.5905
  O  O116  1  0.074270  0.819200  0.501980  1.0  -0.6976
  O  O117  1  0.308170  0.863940  0.460100  1.0  -0.5544
  O  O118  1  0.169870  0.925930  0.345330  1.0  -0.6831
  O  O119  1  0.905430  0.257620  0.362890  1.0  -0.5943
  O  O120  1  0.928530  0.177540  0.499220  1.0  -0.7018
  O  O121  1  0.694600  0.132830  0.540900  1.0  -0.5526
  O  O122  1  0.832870  0.070820  0.655860  1.0  -0.6971
  O  O123  1  0.883180  0.868530  0.409190  1.0  -0.5611
  O  O124  1  0.898780  0.935740  0.350130  1.0  -0.5662
  O  O125  1  0.905820  0.944440  0.860910  1.0  -0.5093
  O  O126  1  0.876110  0.895070  0.677490  1.0  -0.5785
  O  O127  1  0.119550  0.128330  0.591790  1.0  -0.5619
  O  O128  1  0.104030  0.061060  0.650860  1.0  -0.5701
  O  O129  1  0.097700  0.051520  0.140150  1.0  -0.5038
  O  O130  1  0.126520  0.101800  0.323480  1.0  -0.5792
  O  O131  1  0.996570  0.034920  0.778220  1.0  -0.7504
  O  O132  1  0.973220  0.980090  0.203670  1.0  -0.7699
