# generated using pymatgen
data_GdH12(C5O2)3
_symmetry_space_group_name_H-M   'P 1'
_cell_length_a   10.11000000
_cell_length_b   21.83500000
_cell_length_c   13.98700000
_cell_angle_alpha   91.62000000
_cell_angle_beta   90.00000000
_cell_angle_gamma   90.00000000
_symmetry_Int_Tables_number   1
_chemical_formula_structural   GdH12(C5O2)3
_chemical_formula_sum   'Gd8 H96 C120 O48'
_cell_volume   3086.42201342
_cell_formula_units_Z   8
loop_
 _symmetry_equiv_pos_site_id
 _symmetry_equiv_pos_as_xyz
  1  'x, y, z'
loop_
 _atom_site_type_symbol
 _atom_site_label
 _atom_site_symmetry_multiplicity
 _atom_site_fract_x
 _atom_site_fract_y
 _atom_site_fract_z
 _atom_site_occupancy
 _atom_site_charge
  Gd  Gd1  1  0.436660  0.759750  0.768720  1.0  2.1184
  Gd  Gd2  1  0.250150  0.748680  0.027000  1.0  2.246
  Gd  Gd3  1  0.936660  0.240250  0.731280  1.0  2.1186
  Gd  Gd4  1  0.750150  0.251320  0.473000  1.0  2.2453
  Gd  Gd5  1  0.563340  0.240250  0.231280  1.0  2.1193
  Gd  Gd6  1  0.749850  0.251320  0.973000  1.0  2.2453
  Gd  Gd7  1  0.063340  0.759750  0.268720  1.0  2.1191
  Gd  Gd8  1  0.249850  0.748680  0.527000  1.0  2.246
  H  H9  1  0.712000  0.456700  0.810500  1.0  0.1034
  H  H10  1  0.141100  0.034900  0.866000  1.0  0.1073
  H  H11  1  0.117100  0.839300  0.721900  1.0  0.1436
  H  H12  1  0.984400  0.812900  0.762200  1.0  0.1455
  H  H13  1  0.823400  0.885400  0.818500  1.0  0.115
  H  H14  1  0.646700  0.547600  0.882600  1.0  0.1006
  H  H15  1  0.202400  0.938500  0.810200  1.0  0.1136
  H  H16  1  0.270800  0.493800  0.866000  1.0  0.0968
  H  H17  1  0.458100  0.596000  0.988200  1.0  0.1536
  H  H18  1  0.315100  0.585700  0.948300  1.0  0.1554
  H  H19  1  0.764700  0.982300  0.873500  1.0  0.0956
  H  H20  1  0.336800  0.403300  0.791300  1.0  0.1067
  H  H21  1  0.902200  0.571400  0.904800  1.0  0.0994
  H  H22  1  0.038500  0.522600  0.160000  1.0  0.0957
  H  H23  1  0.850000  0.633500  0.050000  1.0  0.1576
  H  H24  1  0.913100  0.616100  0.147800  1.0  0.1396
  H  H25  1  0.501700  0.341700  0.712800  1.0  0.1447
  H  H26  1  0.641500  0.370500  0.695700  1.0  0.1406
  H  H27  1  0.962800  0.090100  0.972000  1.0  0.1498
  H  H28  1  0.816600  0.076900  0.941400  1.0  0.1553
  H  H29  1  0.698400  0.876300  0.988900  1.0  0.138
  H  H30  1  0.631400  0.871800  0.089700  1.0  0.1301
  H  H31  1  0.583300  0.972200  0.146000  1.0  0.0913
  H  H32  1  0.501100  0.931100  0.872200  1.0  0.1128
  H  H33  1  0.212000  0.543300  0.689500  1.0  0.1032
  H  H34  1  0.641100  0.965100  0.634000  1.0  0.1075
  H  H35  1  0.617100  0.160700  0.778100  1.0  0.1446
  H  H36  1  0.484400  0.187100  0.737800  1.0  0.146
  H  H37  1  0.323400  0.114600  0.681500  1.0  0.1161
  H  H38  1  0.146700  0.452400  0.617400  1.0  0.1015
  H  H39  1  0.702400  0.061500  0.689800  1.0  0.1136
  H  H40  1  0.770800  0.506200  0.634000  1.0  0.0966
  H  H41  1  0.958100  0.404000  0.511800  1.0  0.1525
  H  H42  1  0.815100  0.414300  0.551700  1.0  0.1553
  H  H43  1  0.264700  0.017700  0.626500  1.0  0.0954
  H  H44  1  0.836800  0.596700  0.708700  1.0  0.1077
  H  H45  1  0.402200  0.428600  0.595200  1.0  0.0999
  H  H46  1  0.538500  0.477400  0.340000  1.0  0.0965
  H  H47  1  0.350000  0.366500  0.450000  1.0  0.158
  H  H48  1  0.413100  0.383900  0.352200  1.0  0.1381
  H  H49  1  0.001700  0.658300  0.787200  1.0  0.1448
  H  H50  1  0.141500  0.629500  0.804300  1.0  0.1424
  H  H51  1  0.462800  0.909900  0.528000  1.0  0.1492
  H  H52  1  0.316600  0.923100  0.558600  1.0  0.1555
  H  H53  1  0.198400  0.123700  0.511100  1.0  0.138
  H  H54  1  0.131400  0.128200  0.410300  1.0  0.1308
  H  H55  1  0.083300  0.027800  0.354000  1.0  0.0917
  H  H56  1  0.001100  0.068900  0.627800  1.0  0.1133
  H  H57  1  0.288000  0.543300  0.189500  1.0  0.1033
  H  H58  1  0.858900  0.965100  0.134000  1.0  0.1074
  H  H59  1  0.882900  0.160700  0.278100  1.0  0.146
  H  H60  1  0.015600  0.187100  0.237800  1.0  0.1457
  H  H61  1  0.176600  0.114600  0.181500  1.0  0.1163
  H  H62  1  0.353300  0.452400  0.117400  1.0  0.1012
  H  H63  1  0.797600  0.061500  0.189800  1.0  0.1136
  H  H64  1  0.729200  0.506200  0.134000  1.0  0.097
  H  H65  1  0.541900  0.404000  0.011800  1.0  0.1517
  H  H66  1  0.684900  0.414300  0.051700  1.0  0.1565
  H  H67  1  0.235300  0.017700  0.126500  1.0  0.0958
  H  H68  1  0.663200  0.596700  0.208700  1.0  0.1075
  H  H69  1  0.097800  0.428600  0.095200  1.0  0.1
  H  H70  1  0.961500  0.477400  0.840000  1.0  0.0967
  H  H71  1  0.150000  0.366500  0.950000  1.0  0.1566
  H  H72  1  0.086900  0.383900  0.852200  1.0  0.1384
  H  H73  1  0.498300  0.658300  0.287200  1.0  0.1436
  H  H74  1  0.358500  0.629500  0.304300  1.0  0.1411
  H  H75  1  0.037200  0.909900  0.028000  1.0  0.1499
  H  H76  1  0.183400  0.923100  0.058600  1.0  0.1558
  H  H77  1  0.301600  0.123700  0.011100  1.0  0.1401
  H  H78  1  0.368600  0.128200  0.910300  1.0  0.1305
  H  H79  1  0.416700  0.027800  0.854000  1.0  0.0917
  H  H80  1  0.498900  0.068900  0.127800  1.0  0.1131
  H  H81  1  0.788000  0.456700  0.310500  1.0  0.1035
  H  H82  1  0.358900  0.034900  0.366000  1.0  0.1074
  H  H83  1  0.382900  0.839300  0.221900  1.0  0.145
  H  H84  1  0.515600  0.812900  0.262200  1.0  0.1449
  H  H85  1  0.676600  0.885400  0.318500  1.0  0.1162
  H  H86  1  0.853300  0.547600  0.382600  1.0  0.1007
  H  H87  1  0.297600  0.938500  0.310200  1.0  0.1133
  H  H88  1  0.229200  0.493800  0.366000  1.0  0.0972
  H  H89  1  0.041900  0.596000  0.488200  1.0  0.153
  H  H90  1  0.184900  0.585700  0.448300  1.0  0.1574
  H  H91  1  0.735300  0.982300  0.373500  1.0  0.0958
  H  H92  1  0.163200  0.403300  0.291300  1.0  0.1073
  H  H93  1  0.597800  0.571400  0.404800  1.0  0.0993
  H  H94  1  0.461500  0.522600  0.660000  1.0  0.0957
  H  H95  1  0.650000  0.633500  0.550000  1.0  0.1571
  H  H96  1  0.586900  0.616100  0.647800  1.0  0.1398
  H  H97  1  0.998300  0.341700  0.212800  1.0  0.1435
  H  H98  1  0.858500  0.370500  0.195700  1.0  0.1426
  H  H99  1  0.537200  0.090100  0.472000  1.0  0.1505
  H  H100  1  0.683400  0.076900  0.441400  1.0  0.1557
  H  H101  1  0.801600  0.876300  0.488900  1.0  0.1399
  H  H102  1  0.868600  0.871800  0.589700  1.0  0.1302
  H  H103  1  0.916700  0.972200  0.646000  1.0  0.0912
  H  H104  1  0.998900  0.931100  0.372200  1.0  0.1127
  C  C105  1  0.137600  0.807450  0.857600  1.0  0.7893
  C  C106  1  0.419800  0.647370  0.872100  1.0  0.811
  C  C107  1  0.451100  0.531280  0.881100  1.0  0.1129
  C  C108  1  0.531400  0.420500  0.792400  1.0  0.1133
  C  C109  1  0.622400  0.464050  0.820800  1.0  -0.1392
  C  C110  1  0.076900  0.004740  0.857000  1.0  -0.1171
  C  C111  1  0.061900  0.837190  0.778500  1.0  -0.3861
  C  C112  1  0.020000  0.901160  0.810700  1.0  0.1076
  C  C113  1  0.888200  0.915080  0.828600  1.0  -0.1403
  C  C114  1  0.583100  0.518740  0.864300  1.0  -0.1179
  C  C115  1  0.947300  0.018380  0.876800  1.0  0.1084
  C  C116  1  0.114100  0.946740  0.823700  1.0  -0.1332
  C  C117  1  0.360200  0.486940  0.854200  1.0  -0.1343
  C  C118  1  0.407000  0.590160  0.929900  1.0  -0.41
  C  C119  1  0.853200  0.973380  0.861500  1.0  -0.1289
  C  C120  1  0.399900  0.432260  0.809700  1.0  -0.1352
  C  C121  1  0.636000  0.317980  0.813700  1.0  0.795
  C  C122  1  0.941600  0.542630  0.943400  1.0  -0.1306
  C  C123  1  0.963700  0.557140  0.039400  1.0  0.1152
  C  C124  1  0.037600  0.666060  0.066300  1.0  0.7982
  C  C125  1  0.022700  0.513720  0.095600  1.0  -0.1348
  C  C126  1  0.930500  0.619290  0.080000  1.0  -0.3975
  C  C127  1  0.911500  0.132910  0.850900  1.0  0.8146
  C  C128  1  0.576600  0.361360  0.744300  1.0  -0.381
  C  C129  1  0.906400  0.080250  0.917600  1.0  -0.4066
  C  C130  1  0.523600  0.828570  0.983400  1.0  0.8457
  C  C131  1  0.614500  0.878390  0.022500  1.0  -0.3831
  C  C132  1  0.553800  0.941250  0.011100  1.0  0.1001
  C  C133  1  0.550300  0.983170  0.086800  1.0  -0.1221
  C  C134  1  0.501400  0.958790  0.923900  1.0  -0.1184
  C  C135  1  0.637600  0.192550  0.642400  1.0  0.7897
  C  C136  1  0.919800  0.352630  0.627900  1.0  0.8095
  C  C137  1  0.951100  0.468720  0.618900  1.0  0.1129
  C  C138  1  0.031400  0.579500  0.707600  1.0  0.1137
  C  C139  1  0.122400  0.535950  0.679200  1.0  -0.1392
  C  C140  1  0.576900  0.995260  0.643000  1.0  -0.117
  C  C141  1  0.561900  0.162810  0.721500  1.0  -0.3881
  C  C142  1  0.520000  0.098840  0.689300  1.0  0.1073
  C  C143  1  0.388200  0.084920  0.671400  1.0  -0.141
  C  C144  1  0.083100  0.481260  0.635700  1.0  -0.1182
  C  C145  1  0.447300  0.981620  0.623200  1.0  0.1091
  C  C146  1  0.614100  0.053260  0.676300  1.0  -0.1336
  C  C147  1  0.860200  0.513060  0.645800  1.0  -0.1341
  C  C148  1  0.907000  0.409840  0.570100  1.0  -0.409
  C  C149  1  0.353200  0.026620  0.638500  1.0  -0.1291
  C  C150  1  0.899900  0.567740  0.690300  1.0  -0.1365
  C  C151  1  0.136000  0.682020  0.686300  1.0  0.7962
  C  C152  1  0.441600  0.457370  0.556600  1.0  -0.1303
  C  C153  1  0.463700  0.442860  0.460600  1.0  0.1154
  C  C154  1  0.537600  0.333940  0.433700  1.0  0.799
  C  C155  1  0.522700  0.486280  0.404400  1.0  -0.1344
  C  C156  1  0.430500  0.380710  0.420000  1.0  -0.3981
  C  C157  1  0.411500  0.867090  0.649100  1.0  0.8123
  C  C158  1  0.076600  0.638640  0.755700  1.0  -0.3805
  C  C159  1  0.406400  0.919750  0.582400  1.0  -0.4052
  C  C160  1  0.023600  0.171430  0.516600  1.0  0.8466
  C  C161  1  0.114500  0.121610  0.477500  1.0  -0.384
  C  C162  1  0.053800  0.058750  0.488900  1.0  0.0999
  C  C163  1  0.050300  0.016830  0.413200  1.0  -0.1219
  C  C164  1  0.001400  0.041210  0.576100  1.0  -0.1198
  C  C165  1  0.862400  0.192550  0.142400  1.0  0.7903
  C  C166  1  0.580200  0.352630  0.127900  1.0  0.8103
  C  C167  1  0.548900  0.468720  0.118900  1.0  0.1121
  C  C168  1  0.468600  0.579500  0.207600  1.0  0.1138
  C  C169  1  0.377600  0.535950  0.179200  1.0  -0.139
  C  C170  1  0.923100  0.995260  0.143000  1.0  -0.1159
  C  C171  1  0.938100  0.162810  0.221500  1.0  -0.3863
  C  C172  1  0.980000  0.098840  0.189300  1.0  0.1071
  C  C173  1  0.111800  0.084920  0.171400  1.0  -0.1426
  C  C174  1  0.416900  0.481260  0.135700  1.0  -0.1157
  C  C175  1  0.052700  0.981620  0.123200  1.0  0.1089
  C  C176  1  0.885900  0.053260  0.176300  1.0  -0.1332
  C  C177  1  0.639800  0.513060  0.145800  1.0  -0.1347
  C  C178  1  0.593000  0.409840  0.070100  1.0  -0.4085
  C  C179  1  0.146800  0.026620  0.138500  1.0  -0.1303
  C  C180  1  0.600100  0.567740  0.190300  1.0  -0.1371
  C  C181  1  0.364000  0.682020  0.186300  1.0  0.7966
  C  C182  1  0.058400  0.457370  0.056600  1.0  -0.1307
  C  C183  1  0.036300  0.442860  0.960600  1.0  0.1155
  C  C184  1  0.962400  0.333940  0.933700  1.0  0.7992
  C  C185  1  0.977300  0.486280  0.904400  1.0  -0.1351
  C  C186  1  0.069500  0.380710  0.920000  1.0  -0.399
  C  C187  1  0.088500  0.867090  0.149100  1.0  0.8118
  C  C188  1  0.423400  0.638640  0.255700  1.0  -0.3796
  C  C189  1  0.093600  0.919750  0.082400  1.0  -0.4048
  C  C190  1  0.476400  0.171430  0.016600  1.0  0.8466
  C  C191  1  0.385500  0.121610  0.977500  1.0  -0.3851
  C  C192  1  0.446200  0.058750  0.988900  1.0  0.0999
  C  C193  1  0.449700  0.016830  0.913200  1.0  -0.1244
  C  C194  1  0.498600  0.041210  0.076100  1.0  -0.1198
  C  C195  1  0.362400  0.807450  0.357600  1.0  0.789
  C  C196  1  0.080200  0.647370  0.372100  1.0  0.8117
  C  C197  1  0.048900  0.531280  0.381100  1.0  0.1118
  C  C198  1  0.968600  0.420500  0.292400  1.0  0.1133
  C  C199  1  0.877600  0.464050  0.320800  1.0  -0.1389
  C  C200  1  0.423100  0.004740  0.357000  1.0  -0.1164
  C  C201  1  0.438100  0.837190  0.278500  1.0  -0.3851
  C  C202  1  0.480000  0.901160  0.310700  1.0  0.1072
  C  C203  1  0.611800  0.915080  0.328600  1.0  -0.1418
  C  C204  1  0.916900  0.518740  0.364300  1.0  -0.116
  C  C205  1  0.552700  0.018380  0.376800  1.0  0.1082
  C  C206  1  0.385900  0.946740  0.323700  1.0  -0.1331
  C  C207  1  0.139800  0.486940  0.354200  1.0  -0.1348
  C  C208  1  0.093000  0.590160  0.429900  1.0  -0.4089
  C  C209  1  0.646800  0.973380  0.361500  1.0  -0.1299
  C  C210  1  0.100100  0.432260  0.309700  1.0  -0.1354
  C  C211  1  0.864000  0.317980  0.313700  1.0  0.7953
  C  C212  1  0.558400  0.542630  0.443400  1.0  -0.1312
  C  C213  1  0.536300  0.557140  0.539400  1.0  0.1157
  C  C214  1  0.462400  0.666060  0.566300  1.0  0.7978
  C  C215  1  0.477300  0.513720  0.595600  1.0  -0.1352
  C  C216  1  0.569500  0.619290  0.580000  1.0  -0.3983
  C  C217  1  0.588500  0.132910  0.350900  1.0  0.8139
  C  C218  1  0.923400  0.361360  0.244300  1.0  -0.3807
  C  C219  1  0.593600  0.080250  0.417600  1.0  -0.4064
  C  C220  1  0.976400  0.828570  0.483400  1.0  0.8453
  C  C221  1  0.885500  0.878390  0.522500  1.0  -0.3836
  C  C222  1  0.946200  0.941250  0.511100  1.0  0.1004
  C  C223  1  0.949700  0.983170  0.586800  1.0  -0.1251
  C  C224  1  0.998600  0.958790  0.423900  1.0  -0.1184
  O  O225  1  0.365300  0.696500  0.903640  1.0  -0.8659
  O  O226  1  0.074200  0.782000  0.923030  1.0  -0.6791
  O  O227  1  0.831000  0.176450  0.865250  1.0  -0.8294
  O  O228  1  0.431000  0.812320  0.035840  1.0  -0.7411
  O  O229  1  0.029200  0.717950  0.109360  1.0  -0.8439
  O  O230  1  0.133100  0.654200  0.013430  1.0  -0.6644
  O  O231  1  0.991600  0.135550  0.783880  1.0  -0.6597
  O  O232  1  0.481300  0.649090  0.796040  1.0  -0.66
  O  O233  1  0.584700  0.313380  0.894500  1.0  -0.6577
  O  O234  1  0.261400  0.809140  0.861210  1.0  -0.7773
  O  O235  1  0.545700  0.806760  0.901340  1.0  -0.7621
  O  O236  1  0.735200  0.285240  0.792920  1.0  -0.8133
  O  O237  1  0.865300  0.303500  0.596360  1.0  -0.8642
  O  O238  1  0.574200  0.218000  0.576970  1.0  -0.6793
  O  O239  1  0.331000  0.823550  0.634750  1.0  -0.8293
  O  O240  1  0.931000  0.187680  0.464160  1.0  -0.7426
  O  O241  1  0.529200  0.282050  0.390640  1.0  -0.8422
  O  O242  1  0.633100  0.345800  0.486570  1.0  -0.6636
  O  O243  1  0.491600  0.864450  0.716120  1.0  -0.6613
  O  O244  1  0.981300  0.350910  0.703960  1.0  -0.6624
  O  O245  1  0.084700  0.686620  0.605500  1.0  -0.6592
  O  O246  1  0.761400  0.190860  0.638790  1.0  -0.7771
  O  O247  1  0.045700  0.193240  0.598660  1.0  -0.762
  O  O248  1  0.235200  0.714760  0.707080  1.0  -0.8135
  O  O249  1  0.634700  0.303500  0.096360  1.0  -0.8633
  O  O250  1  0.925800  0.218000  0.076970  1.0  -0.6796
  O  O251  1  0.169000  0.823550  0.134750  1.0  -0.8276
  O  O252  1  0.569000  0.187680  0.964160  1.0  -0.7422
  O  O253  1  0.970800  0.282050  0.890640  1.0  -0.8427
  O  O254  1  0.866900  0.345800  0.986570  1.0  -0.6624
  O  O255  1  0.008400  0.864450  0.216120  1.0  -0.6595
  O  O256  1  0.518700  0.350910  0.203960  1.0  -0.6611
  O  O257  1  0.415300  0.686620  0.105500  1.0  -0.6602
  O  O258  1  0.738600  0.190860  0.138790  1.0  -0.7774
  O  O259  1  0.454300  0.193240  0.098660  1.0  -0.7603
  O  O260  1  0.264800  0.714760  0.207080  1.0  -0.8151
  O  O261  1  0.134700  0.696500  0.403640  1.0  -0.8658
  O  O262  1  0.425800  0.782000  0.423030  1.0  -0.6804
  O  O263  1  0.669000  0.176450  0.365250  1.0  -0.8277
  O  O264  1  0.069000  0.812320  0.535840  1.0  -0.7406
  O  O265  1  0.470800  0.717950  0.609360  1.0  -0.842
  O  O266  1  0.366900  0.654200  0.513430  1.0  -0.6631
  O  O267  1  0.508400  0.135550  0.283880  1.0  -0.6595
  O  O268  1  0.018700  0.649090  0.296040  1.0  -0.66
  O  O269  1  0.915300  0.313380  0.394500  1.0  -0.6591
  O  O270  1  0.238600  0.809140  0.361210  1.0  -0.7774
  O  O271  1  0.954300  0.806760  0.401340  1.0  -0.7616
  O  O272  1  0.764800  0.285240  0.292920  1.0  -0.8155
