# generated using pymatgen
data_TbH12(C5O2)3
_symmetry_space_group_name_H-M   'P 1'
_cell_length_a   10.08200000
_cell_length_b   21.78700000
_cell_length_c   13.97700000
_cell_angle_alpha   91.59000000
_cell_angle_beta   90.00000000
_cell_angle_gamma   90.00000000
_symmetry_Int_Tables_number   1
_chemical_formula_structural   TbH12(C5O2)3
_chemical_formula_sum   'Tb8 H96 C120 O48'
_cell_volume   3068.95728935
_cell_formula_units_Z   8
loop_
 _symmetry_equiv_pos_site_id
 _symmetry_equiv_pos_as_xyz
  1  'x, y, z'
loop_
 _atom_site_type_symbol
 _atom_site_label
 _atom_site_symmetry_multiplicity
 _atom_site_fract_x
 _atom_site_fract_y
 _atom_site_fract_z
 _atom_site_occupancy
 _atom_site_charge
  Tb  Tb1  1  0.936000  0.240340  0.230540  1.0  2.2445
  Tb  Tb2  1  0.249220  0.748730  0.027380  1.0  2.2799
  Tb  Tb3  1  0.436000  0.759660  0.269460  1.0  2.2445
  Tb  Tb4  1  0.749220  0.251270  0.472620  1.0  2.2798
  Tb  Tb5  1  0.064000  0.759660  0.769460  1.0  2.2438
  Tb  Tb6  1  0.750780  0.251270  0.972620  1.0  2.2799
  Tb  Tb7  1  0.564000  0.240340  0.730540  1.0  2.2437
  Tb  Tb8  1  0.250780  0.748730  0.527380  1.0  2.28
  H  H9  1  0.598900  0.571700  0.904500  1.0  0.1018
  H  H10  1  0.869800  0.871400  0.090500  1.0  0.1234
  H  H11  1  0.800700  0.876100  0.990400  1.0  0.1312
  H  H12  1  0.584200  0.616100  0.149700  1.0  0.1268
  H  H13  1  0.650300  0.634000  0.052900  1.0  0.1446
  H  H14  1  0.917000  0.972200  0.146300  1.0  0.0824
  H  H15  1  0.211700  0.543400  0.190400  1.0  0.0972
  H  H16  1  0.000400  0.658600  0.288500  1.0  0.1316
  H  H17  1  0.139900  0.629000  0.305800  1.0  0.1256
  H  H18  1  0.834600  0.596100  0.208300  1.0  0.0952
  H  H19  1  0.999600  0.930800  0.871900  1.0  0.1016
  H  H20  1  0.642400  0.964600  0.136300  1.0  0.0994
  H  H21  1  0.317900  0.922500  0.057200  1.0  0.1381
  H  H22  1  0.464900  0.909200  0.028000  1.0  0.1436
  H  H23  1  0.702100  0.061100  0.190100  1.0  0.1032
  H  H24  1  0.322600  0.114400  0.180000  1.0  0.1056
  H  H25  1  0.264700  0.016500  0.126000  1.0  0.088
  H  H26  1  0.769600  0.505300  0.132900  1.0  0.0902
  H  H27  1  0.146800  0.452300  0.117700  1.0  0.092
  H  H28  1  0.959900  0.403700  0.011400  1.0  0.1358
  H  H29  1  0.816100  0.413700  0.050700  1.0  0.1454
  H  H30  1  0.615100  0.160900  0.277700  1.0  0.1242
  H  H31  1  0.482800  0.187200  0.236000  1.0  0.1367
  H  H32  1  0.459500  0.522800  0.159300  1.0  0.0849
  H  H33  1  0.098900  0.428300  0.595500  1.0  0.1031
  H  H34  1  0.369800  0.128600  0.409500  1.0  0.1234
  H  H35  1  0.300700  0.123900  0.509600  1.0  0.1317
  H  H36  1  0.084200  0.383900  0.350300  1.0  0.1252
  H  H37  1  0.150300  0.366000  0.447100  1.0  0.1444
  H  H38  1  0.417000  0.027800  0.353700  1.0  0.0831
  H  H39  1  0.711700  0.456600  0.309600  1.0  0.0973
  H  H40  1  0.500400  0.341400  0.211500  1.0  0.1315
  H  H41  1  0.639900  0.371000  0.194200  1.0  0.127
  H  H42  1  0.334600  0.403900  0.291700  1.0  0.0943
  H  H43  1  0.499600  0.069200  0.628100  1.0  0.1019
  H  H44  1  0.142400  0.035400  0.363700  1.0  0.0992
  H  H45  1  0.817900  0.077500  0.442800  1.0  0.1385
  H  H46  1  0.964900  0.090800  0.472000  1.0  0.1436
  H  H47  1  0.202100  0.938900  0.309900  1.0  0.1032
  H  H48  1  0.822600  0.885600  0.320000  1.0  0.1046
  H  H49  1  0.764700  0.983500  0.374000  1.0  0.0881
  H  H50  1  0.269600  0.494700  0.367100  1.0  0.0901
  H  H51  1  0.646800  0.547700  0.382300  1.0  0.0914
  H  H52  1  0.459900  0.596300  0.488600  1.0  0.136
  H  H53  1  0.316100  0.586300  0.449300  1.0  0.1454
  H  H54  1  0.115100  0.839100  0.222300  1.0  0.123
  H  H55  1  0.982800  0.812800  0.264000  1.0  0.136
  H  H56  1  0.959500  0.477200  0.340700  1.0  0.0855
  H  H57  1  0.401100  0.428300  0.095500  1.0  0.1028
  H  H58  1  0.130200  0.128600  0.909500  1.0  0.1241
  H  H59  1  0.199300  0.123900  0.009600  1.0  0.1302
  H  H60  1  0.415800  0.383900  0.850300  1.0  0.1244
  H  H61  1  0.349700  0.366000  0.947100  1.0  0.1458
  H  H62  1  0.083000  0.027800  0.853700  1.0  0.0829
  H  H63  1  0.788300  0.456600  0.809600  1.0  0.0969
  H  H64  1  0.999600  0.341400  0.711500  1.0  0.1304
  H  H65  1  0.860100  0.371000  0.694200  1.0  0.1256
  H  H66  1  0.165400  0.403900  0.791700  1.0  0.0947
  H  H67  1  0.000400  0.069200  0.128100  1.0  0.1021
  H  H68  1  0.357600  0.035400  0.863700  1.0  0.0993
  H  H69  1  0.682100  0.077500  0.942800  1.0  0.1388
  H  H70  1  0.535100  0.090800  0.972000  1.0  0.1441
  H  H71  1  0.297900  0.938900  0.809900  1.0  0.1033
  H  H72  1  0.677400  0.885600  0.820000  1.0  0.106
  H  H73  1  0.735300  0.983500  0.874000  1.0  0.0886
  H  H74  1  0.230400  0.494700  0.867100  1.0  0.0905
  H  H75  1  0.853200  0.547700  0.882300  1.0  0.0915
  H  H76  1  0.040100  0.596300  0.988600  1.0  0.1369
  H  H77  1  0.183900  0.586300  0.949300  1.0  0.1452
  H  H78  1  0.384900  0.839100  0.722300  1.0  0.1226
  H  H79  1  0.517200  0.812800  0.764000  1.0  0.1354
  H  H80  1  0.540500  0.477200  0.840700  1.0  0.0856
  H  H81  1  0.901100  0.571700  0.404500  1.0  0.1019
  H  H82  1  0.630200  0.871400  0.590500  1.0  0.1238
  H  H83  1  0.699300  0.876100  0.490400  1.0  0.13
  H  H84  1  0.915800  0.616100  0.649700  1.0  0.1263
  H  H85  1  0.849700  0.634000  0.552900  1.0  0.1454
  H  H86  1  0.583000  0.972200  0.646300  1.0  0.0824
  H  H87  1  0.288300  0.543400  0.690400  1.0  0.0968
  H  H88  1  0.499600  0.658600  0.788500  1.0  0.1305
  H  H89  1  0.360100  0.629000  0.805800  1.0  0.1273
  H  H90  1  0.665400  0.596100  0.708300  1.0  0.0948
  H  H91  1  0.500400  0.930800  0.371900  1.0  0.1018
  H  H92  1  0.857600  0.964600  0.636300  1.0  0.0994
  H  H93  1  0.182100  0.922500  0.557200  1.0  0.1387
  H  H94  1  0.035100  0.909200  0.528000  1.0  0.1441
  H  H95  1  0.797900  0.061100  0.690100  1.0  0.1035
  H  H96  1  0.177400  0.114400  0.680000  1.0  0.1062
  H  H97  1  0.235300  0.016500  0.626000  1.0  0.0887
  H  H98  1  0.730400  0.505300  0.632900  1.0  0.0907
  H  H99  1  0.353200  0.452300  0.617700  1.0  0.0917
  H  H100  1  0.540100  0.403700  0.511400  1.0  0.1366
  H  H101  1  0.683900  0.413700  0.550700  1.0  0.1447
  H  H102  1  0.884900  0.160900  0.777700  1.0  0.1235
  H  H103  1  0.017200  0.187200  0.736000  1.0  0.1365
  H  H104  1  0.040500  0.522800  0.659300  1.0  0.0852
  C  C105  1  0.559100  0.542900  0.943200  1.0  -0.1236
  C  C106  1  0.976100  0.828000  0.982800  1.0  0.8056
  C  C107  1  0.136500  0.682100  0.188200  1.0  0.7788
  C  C108  1  0.461200  0.666100  0.066400  1.0  0.7667
  C  C109  1  0.885500  0.878100  0.023100  1.0  -0.3917
  C  C110  1  0.535600  0.557300  0.039400  1.0  0.1146
  C  C111  1  0.568800  0.619600  0.081600  1.0  -0.399
  C  C112  1  0.946700  0.941000  0.011100  1.0  0.0918
  C  C113  1  0.949900  0.983300  0.087100  1.0  -0.1348
  C  C114  1  0.029100  0.579600  0.207200  1.0  0.0687
  C  C115  1  0.122100  0.535900  0.179500  1.0  -0.1365
  C  C116  1  0.075400  0.638700  0.257000  1.0  -0.3805
  C  C117  1  0.411000  0.866200  0.148700  1.0  0.7924
  C  C118  1  0.898500  0.567300  0.189900  1.0  -0.1363
  C  C119  1  0.999100  0.958600  0.923600  1.0  -0.1078
  C  C120  1  0.448000  0.980900  0.122900  1.0  0.1186
  C  C121  1  0.577800  0.994700  0.144000  1.0  -0.1245
  C  C122  1  0.407500  0.919100  0.081900  1.0  -0.4111
  C  C123  1  0.519400  0.098900  0.188700  1.0  0.1084
  C  C124  1  0.613600  0.052700  0.176300  1.0  -0.1131
  C  C125  1  0.387900  0.084700  0.170500  1.0  -0.1476
  C  C126  1  0.353300  0.025700  0.137900  1.0  -0.1302
  C  C127  1  0.859000  0.512400  0.145000  1.0  -0.1489
  C  C128  1  0.082900  0.481100  0.135800  1.0  -0.1365
  C  C129  1  0.951500  0.468500  0.118500  1.0  0.1104
  C  C130  1  0.908200  0.409400  0.069500  1.0  -0.4263
  C  C131  1  0.920800  0.352200  0.127000  1.0  0.7789
  C  C132  1  0.560700  0.162800  0.220600  1.0  -0.3975
  C  C133  1  0.638100  0.192400  0.141800  1.0  0.7784
  C  C134  1  0.476100  0.513800  0.095000  1.0  -0.1093
  C  C135  1  0.059100  0.457100  0.556800  1.0  -0.1231
  C  C136  1  0.476100  0.172000  0.517200  1.0  0.8072
  C  C137  1  0.636500  0.317900  0.311800  1.0  0.7775
  C  C138  1  0.961200  0.333900  0.433600  1.0  0.7676
  C  C139  1  0.385500  0.121900  0.476900  1.0  -0.3921
  C  C140  1  0.035600  0.442700  0.460600  1.0  0.1148
  C  C141  1  0.068800  0.380400  0.418400  1.0  -0.3997
  C  C142  1  0.446700  0.059000  0.488900  1.0  0.0913
  C  C143  1  0.449900  0.016700  0.412900  1.0  -0.1341
  C  C144  1  0.529100  0.420400  0.292800  1.0  0.0689
  C  C145  1  0.622100  0.464100  0.320500  1.0  -0.1364
  C  C146  1  0.575400  0.361300  0.243000  1.0  -0.3812
  C  C147  1  0.911000  0.133800  0.351300  1.0  0.7951
  C  C148  1  0.398500  0.432700  0.310100  1.0  -0.1352
  C  C149  1  0.499100  0.041400  0.576400  1.0  -0.1087
  C  C150  1  0.948000  0.019100  0.377100  1.0  0.118
  C  C151  1  0.077800  0.005300  0.356000  1.0  -0.1247
  C  C152  1  0.907500  0.080900  0.418100  1.0  -0.4111
  C  C153  1  0.019400  0.901100  0.311300  1.0  0.1086
  C  C154  1  0.113600  0.947300  0.323700  1.0  -0.113
  C  C155  1  0.887900  0.915300  0.329500  1.0  -0.147
  C  C156  1  0.853300  0.974300  0.362100  1.0  -0.1304
  C  C157  1  0.359000  0.487600  0.355000  1.0  -0.149
  C  C158  1  0.582900  0.518900  0.364200  1.0  -0.1372
  C  C159  1  0.451500  0.531500  0.381500  1.0  0.11
  C  C160  1  0.408200  0.590600  0.430500  1.0  -0.4284
  C  C161  1  0.420800  0.647800  0.373000  1.0  0.7793
  C  C162  1  0.060700  0.837200  0.279400  1.0  -0.3956
  C  C163  1  0.138100  0.807600  0.358200  1.0  0.7774
  C  C164  1  0.976100  0.486200  0.405000  1.0  -0.1101
  C  C165  1  0.440900  0.457100  0.056800  1.0  -0.1306
  C  C166  1  0.023900  0.172000  0.017200  1.0  0.8071
  C  C167  1  0.863500  0.317900  0.811800  1.0  0.7773
  C  C168  1  0.538800  0.333900  0.933600  1.0  0.7678
  C  C169  1  0.114500  0.121900  0.976900  1.0  -0.3927
  C  C170  1  0.464400  0.442700  0.960600  1.0  0.1148
  C  C171  1  0.431200  0.380400  0.918400  1.0  -0.3993
  C  C172  1  0.053300  0.059000  0.988900  1.0  0.0917
  C  C173  1  0.050100  0.016700  0.912900  1.0  -0.1232
  C  C174  1  0.970900  0.420400  0.792800  1.0  0.0687
  C  C175  1  0.877900  0.464100  0.820500  1.0  -0.1355
  C  C176  1  0.924600  0.361300  0.743000  1.0  -0.3812
  C  C177  1  0.589000  0.133800  0.851300  1.0  0.7944
  C  C178  1  0.101500  0.432700  0.810100  1.0  -0.1355
  C  C179  1  0.000900  0.041400  0.076400  1.0  -0.1087
  C  C180  1  0.552000  0.019100  0.877100  1.0  0.1179
  C  C181  1  0.422200  0.005300  0.856000  1.0  -0.1226
  C  C182  1  0.592500  0.080900  0.918100  1.0  -0.4123
  C  C183  1  0.480600  0.901100  0.811300  1.0  0.1086
  C  C184  1  0.386400  0.947300  0.823700  1.0  -0.1139
  C  C185  1  0.612100  0.915300  0.829500  1.0  -0.1471
  C  C186  1  0.646700  0.974300  0.862100  1.0  -0.1313
  C  C187  1  0.141000  0.487600  0.855000  1.0  -0.15
  C  C188  1  0.917100  0.518900  0.864200  1.0  -0.1366
  C  C189  1  0.048500  0.531500  0.881500  1.0  0.1093
  C  C190  1  0.091800  0.590600  0.930500  1.0  -0.4271
  C  C191  1  0.079200  0.647800  0.873000  1.0  0.7809
  C  C192  1  0.439300  0.837200  0.779400  1.0  -0.3945
  C  C193  1  0.361900  0.807600  0.858200  1.0  0.7771
  C  C194  1  0.523900  0.486200  0.905000  1.0  -0.1092
  C  C195  1  0.940900  0.542900  0.443200  1.0  -0.131
  C  C196  1  0.523900  0.828000  0.482800  1.0  0.8072
  C  C197  1  0.363500  0.682100  0.688200  1.0  0.7794
  C  C198  1  0.038800  0.666100  0.566400  1.0  0.7673
  C  C199  1  0.614500  0.878100  0.523100  1.0  -0.3924
  C  C200  1  0.964400  0.557300  0.539400  1.0  0.1142
  C  C201  1  0.931200  0.619600  0.581600  1.0  -0.3991
  C  C202  1  0.553300  0.941000  0.511100  1.0  0.0919
  C  C203  1  0.550100  0.983300  0.587100  1.0  -0.1233
  C  C204  1  0.470900  0.579600  0.707200  1.0  0.0687
  C  C205  1  0.377900  0.535900  0.679500  1.0  -0.1355
  C  C206  1  0.424600  0.638700  0.757000  1.0  -0.3799
  C  C207  1  0.089000  0.866200  0.648700  1.0  0.7916
  C  C208  1  0.601500  0.567300  0.689900  1.0  -0.1368
  C  C209  1  0.500900  0.958600  0.423600  1.0  -0.1079
  C  C210  1  0.052000  0.980900  0.622900  1.0  0.1183
  C  C211  1  0.922200  0.994700  0.644000  1.0  -0.1222
  C  C212  1  0.092500  0.919100  0.581900  1.0  -0.4121
  C  C213  1  0.980600  0.098900  0.688700  1.0  0.1086
  C  C214  1  0.886400  0.052700  0.676300  1.0  -0.1138
  C  C215  1  0.112100  0.084700  0.670500  1.0  -0.1477
  C  C216  1  0.146700  0.025700  0.637900  1.0  -0.1314
  C  C217  1  0.641000  0.512400  0.645000  1.0  -0.1498
  C  C218  1  0.417100  0.481100  0.635800  1.0  -0.1354
  C  C219  1  0.548500  0.468500  0.618500  1.0  0.11
  C  C220  1  0.591800  0.409400  0.569500  1.0  -0.425
  C  C221  1  0.579200  0.352200  0.627000  1.0  0.7787
  C  C222  1  0.939300  0.162800  0.720600  1.0  -0.3958
  C  C223  1  0.861900  0.192400  0.641800  1.0  0.7789
  C  C224  1  0.023900  0.513800  0.595000  1.0  -0.1085
  O  O225  1  0.328900  0.823330  0.134700  1.0  -0.7946
  O  O226  1  0.068400  0.811480  0.035400  1.0  -0.7111
  O  O227  1  0.087100  0.687400  0.107300  1.0  -0.6301
  O  O228  1  0.235300  0.714450  0.210100  1.0  -0.7515
  O  O229  1  0.469300  0.717870  0.111100  1.0  -0.8586
  O  O230  1  0.366600  0.654760  0.013000  1.0  -0.6179
  O  O231  1  0.491400  0.863400  0.215200  1.0  -0.6498
  O  O232  1  0.045500  0.192920  0.099900  1.0  -0.7542
  O  O233  1  0.981000  0.350800  0.203300  1.0  -0.6501
  O  O234  1  0.866300  0.302550  0.095000  1.0  -0.7907
  O  O235  1  0.762400  0.189990  0.139000  1.0  -0.7736
  O  O236  1  0.576000  0.217600  0.075300  1.0  -0.6565
  O  O237  1  0.828900  0.176670  0.365300  1.0  -0.7947
  O  O238  1  0.568400  0.188520  0.464600  1.0  -0.7121
  O  O239  1  0.587100  0.312600  0.392700  1.0  -0.629
  O  O240  1  0.735300  0.285550  0.289900  1.0  -0.7515
  O  O241  1  0.969300  0.282130  0.388900  1.0  -0.8598
  O  O242  1  0.866600  0.345240  0.487000  1.0  -0.6179
  O  O243  1  0.991400  0.136600  0.284800  1.0  -0.6489
  O  O244  1  0.545500  0.807080  0.400100  1.0  -0.7528
  O  O245  1  0.481000  0.649200  0.296700  1.0  -0.6476
  O  O246  1  0.366300  0.697450  0.405000  1.0  -0.792
  O  O247  1  0.262400  0.810010  0.361000  1.0  -0.7734
  O  O248  1  0.076000  0.782400  0.424700  1.0  -0.6551
  O  O249  1  0.671100  0.176670  0.865300  1.0  -0.7919
  O  O250  1  0.931600  0.188520  0.964600  1.0  -0.7116
  O  O251  1  0.912900  0.312600  0.892700  1.0  -0.6291
  O  O252  1  0.764700  0.285550  0.789900  1.0  -0.7524
  O  O253  1  0.530700  0.282130  0.888900  1.0  -0.8591
  O  O254  1  0.633400  0.345240  0.987000  1.0  -0.6199
  O  O255  1  0.508600  0.136600  0.784800  1.0  -0.6488
  O  O256  1  0.954500  0.807080  0.900100  1.0  -0.7525
  O  O257  1  0.019000  0.649200  0.796700  1.0  -0.6486
  O  O258  1  0.133700  0.697450  0.905000  1.0  -0.7913
  O  O259  1  0.237600  0.810010  0.861000  1.0  -0.7737
  O  O260  1  0.424000  0.782400  0.924700  1.0  -0.6546
  O  O261  1  0.171100  0.823330  0.634700  1.0  -0.7917
  O  O262  1  0.431600  0.811480  0.535400  1.0  -0.7104
  O  O263  1  0.412900  0.687400  0.607300  1.0  -0.6297
  O  O264  1  0.264700  0.714450  0.710100  1.0  -0.7517
  O  O265  1  0.030700  0.717870  0.611100  1.0  -0.8595
  O  O266  1  0.133400  0.654760  0.513000  1.0  -0.6198
  O  O267  1  0.008600  0.863400  0.715200  1.0  -0.6485
  O  O268  1  0.454500  0.192920  0.599900  1.0  -0.7517
  O  O269  1  0.519000  0.350800  0.703300  1.0  -0.6496
  O  O270  1  0.633700  0.302550  0.595000  1.0  -0.7889
  O  O271  1  0.737600  0.189990  0.639000  1.0  -0.7741
  O  O272  1  0.924000  0.217600  0.575300  1.0  -0.6557
