# generated using pymatgen
data_GdH12(C5O2)3
_symmetry_space_group_name_H-M   'P 1'
_cell_length_a   21.86300000
_cell_length_b   10.03500000
_cell_length_c   13.85400000
_cell_angle_alpha   90.00000000
_cell_angle_beta   91.53000000
_cell_angle_gamma   90.00000000
_symmetry_Int_Tables_number   1
_chemical_formula_structural   GdH12(C5O2)3
_chemical_formula_sum   'Gd8 H96 C120 O48'
_cell_volume   3038.41753236
_cell_formula_units_Z   8
loop_
 _symmetry_equiv_pos_site_id
 _symmetry_equiv_pos_as_xyz
  1  'x, y, z'
loop_
 _atom_site_type_symbol
 _atom_site_label
 _atom_site_symmetry_multiplicity
 _atom_site_fract_x
 _atom_site_fract_y
 _atom_site_fract_z
 _atom_site_occupancy
 _atom_site_charge
  Gd  Gd1  1  0.259520  0.560980  0.269620  1.0  2.1733
  Gd  Gd2  1  0.248550  0.749490  0.029030  1.0  2.2236
  Gd  Gd3  1  0.740480  0.060980  0.230380  1.0  2.1734
  Gd  Gd4  1  0.751450  0.249490  0.470970  1.0  2.2241
  Gd  Gd5  1  0.740480  0.439020  0.730380  1.0  2.1741
  Gd  Gd6  1  0.751450  0.250510  0.970970  1.0  2.2242
  Gd  Gd7  1  0.259520  0.939020  0.769620  1.0  2.1739
  Gd  Gd8  1  0.248550  0.750510  0.529030  1.0  2.2237
  H  H9  1  0.421300  0.673600  0.053800  1.0  0.1418
  H  H10  1  0.409100  0.524300  0.027500  1.0  0.1463
  H  H11  1  0.158100  0.999500  0.290200  1.0  0.1266
  H  H12  1  0.130600  0.856900  0.305800  1.0  0.1286
  H  H13  1  0.115700  0.406900  0.149200  1.0  0.122
  H  H14  1  0.133600  0.346400  0.049500  1.0  0.1425
  H  H15  1  0.516800  0.732000  0.121100  1.0  0.091
  H  H16  1  0.466300  0.349700  0.136800  1.0  0.1026
  H  H17  1  0.372200  0.129200  0.095500  1.0  0.1255
  H  H18  1  0.376100  0.202000  0.995500  1.0  0.1282
  H  H19  1  0.313100  0.481000  0.761500  1.0  0.1355
  H  H20  1  0.338000  0.615500  0.719700  1.0  0.1238
  H  H21  1  0.095900  0.963200  0.989900  1.0  0.1397
  H  H22  1  0.085800  0.818000  0.951700  1.0  0.1403
  H  H23  1  0.097000  0.164500  0.205800  1.0  0.1006
  H  H24  1  0.043600  0.784300  0.190000  1.0  0.0917
  H  H25  1  0.071900  0.402000  0.903000  1.0  0.103
  H  H26  1  0.022200  0.535600  0.162000  1.0  0.0913
  H  H27  1  0.614200  0.675000  0.176300  1.0  0.1026
  H  H28  1  0.563000  0.294300  0.193400  1.0  0.1024
  H  H29  1  0.006200  0.229800  0.131700  1.0  0.0886
  H  H30  1  0.952400  0.850100  0.117400  1.0  0.0971
  H  H31  1  0.474200  0.079000  0.149400  1.0  0.0873
  H  H32  1  0.430200  0.008000  0.872100  1.0  0.0993
  H  H33  1  0.578700  0.173600  0.446200  1.0  0.1413
  H  H34  1  0.590900  0.024300  0.472500  1.0  0.1466
  H  H35  1  0.841900  0.499500  0.209800  1.0  0.1281
  H  H36  1  0.869400  0.356900  0.194200  1.0  0.1287
  H  H37  1  0.884300  0.906900  0.350800  1.0  0.1216
  H  H38  1  0.866400  0.846400  0.450500  1.0  0.1424
  H  H39  1  0.483200  0.232000  0.378900  1.0  0.0911
  H  H40  1  0.533700  0.849700  0.363200  1.0  0.1026
  H  H41  1  0.627800  0.629200  0.404500  1.0  0.1253
  H  H42  1  0.623900  0.702000  0.504500  1.0  0.1283
  H  H43  1  0.686900  0.981000  0.738500  1.0  0.135
  H  H44  1  0.662000  0.115500  0.780300  1.0  0.1236
  H  H45  1  0.904100  0.463200  0.510100  1.0  0.14
  H  H46  1  0.914200  0.318000  0.548300  1.0  0.1394
  H  H47  1  0.903000  0.664500  0.294200  1.0  0.0998
  H  H48  1  0.956400  0.284300  0.310000  1.0  0.0923
  H  H49  1  0.928100  0.902000  0.597000  1.0  0.1036
  H  H50  1  0.977800  0.035600  0.338000  1.0  0.0924
  H  H51  1  0.385800  0.175000  0.323700  1.0  0.1019
  H  H52  1  0.437000  0.794300  0.306600  1.0  0.1026
  H  H53  1  0.993800  0.729800  0.368300  1.0  0.0882
  H  H54  1  0.047600  0.350100  0.382600  1.0  0.0974
  H  H55  1  0.525800  0.579000  0.350600  1.0  0.088
  H  H56  1  0.569800  0.508000  0.627900  1.0  0.1003
  H  H57  1  0.578700  0.326400  0.946200  1.0  0.1403
  H  H58  1  0.590900  0.475700  0.972500  1.0  0.1458
  H  H59  1  0.841900  0.000500  0.709800  1.0  0.1281
  H  H60  1  0.869400  0.143100  0.694200  1.0  0.1291
  H  H61  1  0.884300  0.593100  0.850800  1.0  0.1216
  H  H62  1  0.866400  0.653600  0.950500  1.0  0.1418
  H  H63  1  0.483200  0.268000  0.878900  1.0  0.0911
  H  H64  1  0.533700  0.650300  0.863200  1.0  0.1028
  H  H65  1  0.627800  0.870800  0.904500  1.0  0.125
  H  H66  1  0.623900  0.798000  0.004500  1.0  0.1291
  H  H67  1  0.686900  0.519000  0.238500  1.0  0.1347
  H  H68  1  0.662000  0.384500  0.280300  1.0  0.1238
  H  H69  1  0.904100  0.036800  0.010100  1.0  0.1384
  H  H70  1  0.914200  0.182000  0.048300  1.0  0.1403
  H  H71  1  0.903000  0.835500  0.794200  1.0  0.0995
  H  H72  1  0.956400  0.215700  0.810000  1.0  0.0921
  H  H73  1  0.928100  0.598000  0.097000  1.0  0.1031
  H  H74  1  0.977800  0.464400  0.838000  1.0  0.0923
  H  H75  1  0.385800  0.325000  0.823700  1.0  0.1012
  H  H76  1  0.437000  0.705700  0.806600  1.0  0.1026
  H  H77  1  0.993800  0.770200  0.868300  1.0  0.0878
  H  H78  1  0.047600  0.149900  0.882600  1.0  0.0968
  H  H79  1  0.525800  0.921000  0.850600  1.0  0.0878
  H  H80  1  0.569800  0.992000  0.127900  1.0  0.1004
  H  H81  1  0.421300  0.826400  0.553800  1.0  0.1404
  H  H82  1  0.409100  0.975700  0.527500  1.0  0.147
  H  H83  1  0.158100  0.500500  0.790200  1.0  0.1278
  H  H84  1  0.130600  0.643100  0.805800  1.0  0.1283
  H  H85  1  0.115700  0.093100  0.649200  1.0  0.1218
  H  H86  1  0.133600  0.153600  0.549500  1.0  0.1424
  H  H87  1  0.516800  0.768000  0.621100  1.0  0.0911
  H  H88  1  0.466300  0.150300  0.636800  1.0  0.103
  H  H89  1  0.372200  0.370800  0.595500  1.0  0.1254
  H  H90  1  0.376100  0.298000  0.495500  1.0  0.1282
  H  H91  1  0.313100  0.019000  0.261500  1.0  0.1367
  H  H92  1  0.338000  0.884500  0.219700  1.0  0.1236
  H  H93  1  0.095900  0.536800  0.489900  1.0  0.1379
  H  H94  1  0.085800  0.682000  0.451700  1.0  0.1398
  H  H95  1  0.097000  0.335500  0.705800  1.0  0.1008
  H  H96  1  0.043600  0.715700  0.690000  1.0  0.0916
  H  H97  1  0.071900  0.098000  0.403000  1.0  0.1032
  H  H98  1  0.022200  0.964400  0.662000  1.0  0.0913
  H  H99  1  0.614200  0.825000  0.676300  1.0  0.1023
  H  H100  1  0.563000  0.205700  0.693400  1.0  0.1025
  H  H101  1  0.006200  0.270200  0.631700  1.0  0.0882
  H  H102  1  0.952400  0.649900  0.617400  1.0  0.0972
  H  H103  1  0.474200  0.421000  0.649400  1.0  0.0875
  H  H104  1  0.430200  0.492000  0.372100  1.0  0.0995
  C  C105  1  0.367130  0.581100  0.149800  1.0  0.7964
  C  C106  1  0.182680  0.867700  0.185800  1.0  0.7841
  C  C107  1  0.165310  0.536200  0.068600  1.0  0.793
  C  C108  1  0.418920  0.584400  0.080500  1.0  -0.4089
  C  C109  1  0.139070  0.924100  0.257600  1.0  -0.3561
  C  C110  1  0.119160  0.426300  0.081000  1.0  -0.3891
  C  C111  1  0.481240  0.547600  0.121800  1.0  0.1002
  C  C112  1  0.329280  0.025300  0.985800  1.0  0.8042
  C  C113  1  0.306550  0.635900  0.856700  1.0  0.7871
  C  C114  1  0.147090  0.921700  0.873000  1.0  0.7723
  C  C115  1  0.079300  0.968600  0.209500  1.0  0.1112
  C  C116  1  0.056850  0.462400  0.039500  1.0  0.1186
  C  C117  1  0.525910  0.643400  0.134900  1.0  -0.1057
  C  C118  1  0.495810  0.415800  0.144500  1.0  -0.1214
  C  C119  1  0.378500  0.115900  0.027200  1.0  -0.38
  C  C120  1  0.336580  0.560400  0.777200  1.0  -0.3545
  C  C121  1  0.090190  0.910100  0.931800  1.0  -0.4029
  C  C122  1  0.067760  0.100700  0.189300  1.0  -0.114
  C  C123  1  0.035890  0.874500  0.180000  1.0  -0.1164
  C  C124  1  0.043130  0.441300  0.942200  1.0  -0.1142
  C  C125  1  0.013410  0.521200  0.096800  1.0  -0.1128
  C  C126  1  0.584530  0.609100  0.168500  1.0  -0.1179
  C  C127  1  0.554030  0.382600  0.178400  1.0  -0.1326
  C  C128  1  0.441520  0.055000  0.012800  1.0  0.097
  C  C129  1  0.400960  0.521800  0.809700  1.0  0.083
  C  C130  1  0.031410  0.953200  0.881300  1.0  0.1087
  C  C131  1  0.013100  0.140000  0.144500  1.0  -0.1295
  C  C132  1  0.981160  0.914200  0.135800  1.0  -0.1164
  C  C133  1  0.484510  0.047500  0.088800  1.0  -0.1252
  C  C134  1  0.458150  0.005400  0.923900  1.0  -0.1132
  C  C135  1  0.632870  0.081100  0.350200  1.0  0.7965
  C  C136  1  0.817320  0.367700  0.314200  1.0  0.783
  C  C137  1  0.834690  0.036200  0.431400  1.0  0.7945
  C  C138  1  0.581080  0.084400  0.419500  1.0  -0.4102
  C  C139  1  0.860930  0.424100  0.242400  1.0  -0.355
  C  C140  1  0.880840  0.926300  0.419000  1.0  -0.3901
  C  C141  1  0.518760  0.047600  0.378200  1.0  0.101
  C  C142  1  0.670720  0.525300  0.514200  1.0  0.7991
  C  C143  1  0.693450  0.135900  0.643300  1.0  0.7891
  C  C144  1  0.852910  0.421700  0.627000  1.0  0.7725
  C  C145  1  0.920700  0.468600  0.290500  1.0  0.1108
  C  C146  1  0.943150  0.962400  0.460500  1.0  0.1176
  C  C147  1  0.474090  0.143400  0.365100  1.0  -0.1062
  C  C148  1  0.504190  0.915800  0.355500  1.0  -0.1219
  C  C149  1  0.621500  0.615900  0.472800  1.0  -0.3805
  C  C150  1  0.663420  0.060400  0.722800  1.0  -0.3559
  C  C151  1  0.909810  0.410100  0.568200  1.0  -0.4005
  C  C152  1  0.932240  0.600700  0.310700  1.0  -0.1109
  C  C153  1  0.964110  0.374500  0.320000  1.0  -0.1173
  C  C154  1  0.956870  0.941300  0.557800  1.0  -0.1123
  C  C155  1  0.986590  0.021200  0.403200  1.0  -0.1153
  C  C156  1  0.415470  0.109100  0.331500  1.0  -0.1173
  C  C157  1  0.445970  0.882600  0.321600  1.0  -0.1335
  C  C158  1  0.558480  0.555000  0.487200  1.0  0.0982
  C  C159  1  0.599040  0.021800  0.690300  1.0  0.086
  C  C160  1  0.968590  0.453200  0.618700  1.0  0.1084
  C  C161  1  0.986900  0.640000  0.355500  1.0  -0.1294
  C  C162  1  0.018840  0.414200  0.364200  1.0  -0.1194
  C  C163  1  0.515490  0.547500  0.411200  1.0  -0.1226
  C  C164  1  0.541850  0.505400  0.576100  1.0  -0.1165
  C  C165  1  0.632870  0.418900  0.850200  1.0  0.7965
  C  C166  1  0.817320  0.132300  0.814200  1.0  0.7831
  C  C167  1  0.834690  0.463800  0.931400  1.0  0.7931
  C  C168  1  0.581080  0.415600  0.919500  1.0  -0.4101
  C  C169  1  0.860930  0.075900  0.742400  1.0  -0.3544
  C  C170  1  0.880840  0.573700  0.919000  1.0  -0.3902
  C  C171  1  0.518760  0.452400  0.878200  1.0  0.101
  C  C172  1  0.670720  0.974700  0.014200  1.0  0.7991
  C  C173  1  0.693450  0.364100  0.143300  1.0  0.7887
  C  C174  1  0.852910  0.078300  0.127000  1.0  0.7725
  C  C175  1  0.920700  0.031400  0.790500  1.0  0.1109
  C  C176  1  0.943150  0.537600  0.960500  1.0  0.1173
  C  C177  1  0.474090  0.356600  0.865100  1.0  -0.1064
  C  C178  1  0.504190  0.584200  0.855500  1.0  -0.1225
  C  C179  1  0.621500  0.884100  0.972800  1.0  -0.3807
  C  C180  1  0.663420  0.439600  0.222800  1.0  -0.3549
  C  C181  1  0.909810  0.089900  0.068200  1.0  -0.4006
  C  C182  1  0.932240  0.899300  0.810700  1.0  -0.1137
  C  C183  1  0.964110  0.125500  0.820000  1.0  -0.1182
  C  C184  1  0.956870  0.558700  0.057800  1.0  -0.1131
  C  C185  1  0.986590  0.478800  0.903200  1.0  -0.1057
  C  C186  1  0.415470  0.390900  0.831500  1.0  -0.1069
  C  C187  1  0.445970  0.617400  0.821600  1.0  -0.1229
  C  C188  1  0.558480  0.945000  0.987200  1.0  0.0984
  C  C189  1  0.599040  0.478200  0.190300  1.0  0.0858
  C  C190  1  0.968590  0.046800  0.118700  1.0  0.1082
  C  C191  1  0.986900  0.860000  0.855500  1.0  -0.1197
  C  C192  1  0.018840  0.085800  0.864200  1.0  -0.1085
  C  C193  1  0.515490  0.952500  0.911200  1.0  -0.1133
  C  C194  1  0.541850  0.994600  0.076100  1.0  -0.1163
  C  C195  1  0.367130  0.918900  0.649800  1.0  0.7964
  C  C196  1  0.182680  0.632300  0.685800  1.0  0.7847
  C  C197  1  0.165310  0.963800  0.568600  1.0  0.7917
  C  C198  1  0.418920  0.915600  0.580500  1.0  -0.4083
  C  C199  1  0.139070  0.575900  0.757600  1.0  -0.3566
  C  C200  1  0.119160  0.073700  0.581000  1.0  -0.3896
  C  C201  1  0.481240  0.952400  0.621800  1.0  0.1002
  C  C202  1  0.329280  0.474700  0.485800  1.0  0.8042
  C  C203  1  0.306550  0.864100  0.356700  1.0  0.7873
  C  C204  1  0.147090  0.578300  0.373000  1.0  0.7713
  C  C205  1  0.079300  0.531400  0.709500  1.0  0.1111
  C  C206  1  0.056850  0.037600  0.539500  1.0  0.1182
  C  C207  1  0.525910  0.856600  0.634900  1.0  -0.1063
  C  C208  1  0.495810  0.084200  0.644500  1.0  -0.1216
  C  C209  1  0.378500  0.384100  0.527200  1.0  -0.3798
  C  C210  1  0.336580  0.939600  0.277200  1.0  -0.3541
  C  C211  1  0.090190  0.589900  0.431800  1.0  -0.403
  C  C212  1  0.067760  0.399300  0.689300  1.0  -0.1162
  C  C213  1  0.035890  0.625500  0.680000  1.0  -0.1174
  C  C214  1  0.043130  0.058700  0.442200  1.0  -0.1154
  C  C215  1  0.013410  0.978800  0.596800  1.0  -0.1035
  C  C216  1  0.584530  0.890900  0.668500  1.0  -0.1082
  C  C217  1  0.554030  0.117400  0.678400  1.0  -0.1216
  C  C218  1  0.441520  0.445000  0.512800  1.0  0.0971
  C  C219  1  0.400960  0.978200  0.309700  1.0  0.0828
  C  C220  1  0.031410  0.546800  0.381300  1.0  0.1085
  C  C221  1  0.013100  0.360000  0.644500  1.0  -0.1196
  C  C222  1  0.981160  0.585800  0.635800  1.0  -0.1053
  C  C223  1  0.484510  0.452500  0.588800  1.0  -0.1155
  C  C224  1  0.458150  0.494600  0.423900  1.0  -0.113
  O  O225  1  0.363890  0.496100  0.215570  1.0  -0.6569
  O  O226  1  0.323900  0.665900  0.137390  1.0  -0.7628
  O  O227  1  0.214510  0.763800  0.205360  1.0  -0.8369
  O  O228  1  0.218290  0.525600  0.109400  1.0  -0.8757
  O  O229  1  0.187900  0.922700  0.105720  1.0  -0.6547
  O  O230  1  0.314540  0.928000  0.037140  1.0  -0.6897
  O  O231  1  0.152630  0.636100  0.017460  1.0  -0.6532
  O  O232  1  0.309340  0.762000  0.861110  1.0  -0.8173
  O  O233  1  0.280240  0.572300  0.922660  1.0  -0.6773
  O  O234  1  0.196430  0.863900  0.904270  1.0  -0.7984
  O  O235  1  0.306440  0.050800  0.903840  1.0  -0.7439
  O  O236  1  0.149380  0.982900  0.796200  1.0  -0.6546
  O  O237  1  0.636110  0.996100  0.284430  1.0  -0.6576
  O  O238  1  0.676100  0.165900  0.362610  1.0  -0.7614
  O  O239  1  0.785490  0.263800  0.294640  1.0  -0.8374
  O  O240  1  0.781710  0.025600  0.390600  1.0  -0.8756
  O  O241  1  0.812100  0.422700  0.394280  1.0  -0.6568
  O  O242  1  0.685460  0.428000  0.462860  1.0  -0.6887
  O  O243  1  0.847370  0.136100  0.482540  1.0  -0.6536
  O  O244  1  0.690660  0.262000  0.638890  1.0  -0.816
  O  O245  1  0.719760  0.072300  0.577340  1.0  -0.6777
  O  O246  1  0.803570  0.363900  0.595730  1.0  -0.8001
  O  O247  1  0.693560  0.550800  0.596160  1.0  -0.7448
  O  O248  1  0.850620  0.482900  0.703800  1.0  -0.6563
  O  O249  1  0.636110  0.503900  0.784430  1.0  -0.6563
  O  O250  1  0.676100  0.334100  0.862610  1.0  -0.7622
  O  O251  1  0.785490  0.236200  0.794640  1.0  -0.8377
  O  O252  1  0.781710  0.474400  0.890600  1.0  -0.8755
  O  O253  1  0.812100  0.077300  0.894280  1.0  -0.6561
  O  O254  1  0.685460  0.072000  0.962860  1.0  -0.6891
  O  O255  1  0.847370  0.363900  0.982540  1.0  -0.6533
  O  O256  1  0.690660  0.238000  0.138890  1.0  -0.8187
  O  O257  1  0.719760  0.427700  0.077340  1.0  -0.6771
  O  O258  1  0.803570  0.136100  0.095730  1.0  -0.7992
  O  O259  1  0.693560  0.949200  0.096160  1.0  -0.7442
  O  O260  1  0.850620  0.017100  0.203800  1.0  -0.6578
  O  O261  1  0.363890  0.003900  0.715570  1.0  -0.6596
  O  O262  1  0.323900  0.834100  0.637390  1.0  -0.7632
  O  O263  1  0.214510  0.736200  0.705360  1.0  -0.8373
  O  O264  1  0.218290  0.974400  0.609400  1.0  -0.8754
  O  O265  1  0.187900  0.577300  0.605720  1.0  -0.6558
  O  O266  1  0.314540  0.572000  0.537140  1.0  -0.6896
  O  O267  1  0.152630  0.863900  0.517460  1.0  -0.6529
  O  O268  1  0.309340  0.738000  0.361110  1.0  -0.818
  O  O269  1  0.280240  0.927700  0.422660  1.0  -0.6785
  O  O270  1  0.196430  0.636100  0.404270  1.0  -0.7976
  O  O271  1  0.306440  0.449200  0.403840  1.0  -0.7445
  O  O272  1  0.149380  0.517100  0.296200  1.0  -0.6568
