# generated using pymatgen
data_SmH2C7(NO3)2
_symmetry_space_group_name_H-M   'P 1'
_cell_length_a   7.98090000
_cell_length_b   9.74650000
_cell_length_c   15.92650000
_cell_angle_alpha   90.00000000
_cell_angle_beta   90.00000000
_cell_angle_gamma   96.21590000
_symmetry_Int_Tables_number   1
_chemical_formula_structural   SmH2C7(NO3)2
_chemical_formula_sum   'Sm4 H8 C28 N8 O24'
_cell_volume   1231.57291891
_cell_formula_units_Z   4
loop_
 _symmetry_equiv_pos_site_id
 _symmetry_equiv_pos_as_xyz
  1  'x, y, z'
loop_
 _atom_site_type_symbol
 _atom_site_label
 _atom_site_symmetry_multiplicity
 _atom_site_fract_x
 _atom_site_fract_y
 _atom_site_fract_z
 _atom_site_occupancy
 _atom_site_charge
  Sm  Sm1  1  0.919810  0.135100  0.326730  1.0  2.1594
  Sm  Sm2  1  0.580190  0.364900  0.826730  1.0  2.1587
  Sm  Sm3  1  0.080190  0.864900  0.673270  1.0  2.1642
  Sm  Sm4  1  0.419810  0.635100  0.173270  1.0  2.1651
  H  H5  1  0.968600  0.684960  0.387910  1.0  0.1506
  H  H6  1  0.617370  0.347070  0.251470  1.0  0.0505
  H  H7  1  0.531400  0.815040  0.887910  1.0  0.1514
  H  H8  1  0.882630  0.152930  0.751470  1.0  0.0495
  H  H9  1  0.031400  0.315040  0.612090  1.0  0.1511
  H  H10  1  0.382630  0.652930  0.748530  1.0  0.0499
  H  H11  1  0.468600  0.184960  0.112090  1.0  0.1505
  H  H12  1  0.117370  0.847070  0.248530  1.0  0.0509
  C  C13  1  0.913500  0.476300  0.368300  1.0  0.2662
  C  C14  1  0.742700  0.796300  0.285100  1.0  0.7084
  C  C15  1  0.895100  0.615600  0.359100  1.0  -0.1435
  C  C16  1  0.768300  0.648800  0.306800  1.0  0.1912
  C  C17  1  0.056700  0.425300  0.418300  1.0  0.606
  C  C18  1  0.688900  0.420500  0.281200  1.0  0.4707
  C  C19  1  0.910600  0.009200  0.515900  1.0  0.5866
  C  C20  1  0.586500  0.023700  0.868300  1.0  0.267
  C  C21  1  0.757300  0.703700  0.785100  1.0  0.7098
  C  C22  1  0.604900  0.884400  0.859100  1.0  -0.1461
  C  C23  1  0.731700  0.851200  0.806800  1.0  0.1909
  C  C24  1  0.443300  0.074700  0.918300  1.0  0.6049
  C  C25  1  0.811100  0.079500  0.781200  1.0  0.4687
  C  C26  1  0.589400  0.490800  0.015900  1.0  0.5848
  C  C27  1  0.086500  0.523700  0.631700  1.0  0.2671
  C  C28  1  0.257300  0.203700  0.714900  1.0  0.7084
  C  C29  1  0.104900  0.384400  0.640900  1.0  -0.1453
  C  C30  1  0.231700  0.351200  0.693200  1.0  0.1911
  C  C31  1  0.943300  0.574700  0.581700  1.0  0.6025
  C  C32  1  0.311100  0.579500  0.718800  1.0  0.4704
  C  C33  1  0.089400  0.990800  0.484100  1.0  0.5845
  C  C34  1  0.413500  0.976300  0.131700  1.0  0.2663
  C  C35  1  0.242700  0.296300  0.214900  1.0  0.7071
  C  C36  1  0.395100  0.115600  0.140900  1.0  -0.1434
  C  C37  1  0.268300  0.148800  0.193200  1.0  0.1915
  C  C38  1  0.556700  0.925300  0.081700  1.0  0.6034
  C  C39  1  0.188900  0.920500  0.218800  1.0  0.473
  C  C40  1  0.410600  0.509200  0.984100  1.0  0.5863
  N  N41  1  0.810500  0.379000  0.329400  1.0  -0.5768
  N  N42  1  0.662500  0.551500  0.268400  1.0  -0.5244
  N  N43  1  0.689500  0.121000  0.829400  1.0  -0.5777
  N  N44  1  0.837500  0.948500  0.768400  1.0  -0.5251
  N  N45  1  0.189500  0.621000  0.670600  1.0  -0.577
  N  N46  1  0.337500  0.448500  0.731600  1.0  -0.5237
  N  N47  1  0.310500  0.879000  0.170600  1.0  -0.5756
  N  N48  1  0.162500  0.051500  0.231600  1.0  -0.5234
  O  O49  1  0.049100  0.296400  0.428550  1.0  -0.6692
  O  O50  1  0.850000  0.888900  0.311360  1.0  -0.7198
  O  O51  1  0.812200  0.056500  0.464470  1.0  -0.6565
  O  O52  1  0.617600  0.813400  0.240570  1.0  -0.6997
  O  O53  1  0.875200  0.975300  0.590080  1.0  -0.6227
  O  O54  1  0.171100  0.512800  0.442460  1.0  -0.5742
  O  O55  1  0.450900  0.203600  0.928550  1.0  -0.67
  O  O56  1  0.650000  0.611100  0.811360  1.0  -0.7197
  O  O57  1  0.687800  0.443500  0.964470  1.0  -0.6583
  O  O58  1  0.882400  0.686600  0.740570  1.0  -0.7008
  O  O59  1  0.624800  0.524700  0.090080  1.0  -0.6236
  O  O60  1  0.328900  0.987200  0.942460  1.0  -0.5726
  O  O61  1  0.950900  0.703600  0.571450  1.0  -0.6702
  O  O62  1  0.150000  0.111100  0.688640  1.0  -0.7197
  O  O63  1  0.187800  0.943500  0.535530  1.0  -0.6584
  O  O64  1  0.382400  0.186600  0.759430  1.0  -0.7012
  O  O65  1  0.124800  0.024700  0.409920  1.0  -0.6243
  O  O66  1  0.828900  0.487200  0.557540  1.0  -0.5723
  O  O67  1  0.549100  0.796400  0.071450  1.0  -0.67
  O  O68  1  0.350000  0.388900  0.188640  1.0  -0.7197
  O  O69  1  0.312200  0.556500  0.035530  1.0  -0.6564
  O  O70  1  0.117600  0.313400  0.259430  1.0  -0.7
  O  O71  1  0.375200  0.475300  0.909920  1.0  -0.624
  O  O72  1  0.671100  0.012800  0.057540  1.0  -0.5736
