# generated using pymatgen
data_TbH2C7(NO3)2
_symmetry_space_group_name_H-M   'P 1'
_cell_length_a   7.95900000
_cell_length_b   9.66400000
_cell_length_c   15.84400000
_cell_angle_alpha   90.00000000
_cell_angle_beta   90.00000000
_cell_angle_gamma   96.48900000
_symmetry_Int_Tables_number   1
_chemical_formula_structural   TbH2C7(NO3)2
_chemical_formula_sum   'Tb4 H8 C28 N8 O24'
_cell_volume   1210.84633725
_cell_formula_units_Z   4
loop_
 _symmetry_equiv_pos_site_id
 _symmetry_equiv_pos_as_xyz
  1  'x, y, z'
loop_
 _atom_site_type_symbol
 _atom_site_label
 _atom_site_symmetry_multiplicity
 _atom_site_fract_x
 _atom_site_fract_y
 _atom_site_fract_z
 _atom_site_occupancy
 _atom_site_charge
  Tb  Tb1  1  0.922940  0.133320  0.327070  1.0  2.1464
  Tb  Tb2  1  0.577060  0.366680  0.827070  1.0  2.1458
  Tb  Tb3  1  0.077060  0.866680  0.672930  1.0  2.1489
  Tb  Tb4  1  0.422940  0.633320  0.172930  1.0  2.1501
  H  H5  1  0.968600  0.684960  0.387910  1.0  0.1465
  H  H6  1  0.617370  0.347070  0.251470  1.0  0.0435
  H  H7  1  0.531400  0.815040  0.887910  1.0  0.1476
  H  H8  1  0.882630  0.152930  0.751470  1.0  0.042
  H  H9  1  0.031400  0.315040  0.612090  1.0  0.1469
  H  H10  1  0.382630  0.652930  0.748530  1.0  0.0422
  H  H11  1  0.468600  0.184960  0.112090  1.0  0.1463
  H  H12  1  0.117370  0.847070  0.248530  1.0  0.0439
  C  C13  1  0.915000  0.473600  0.367780  1.0  0.2499
  C  C14  1  0.745000  0.795900  0.283780  1.0  0.7034
  C  C15  1  0.896700  0.614400  0.358630  1.0  -0.1487
  C  C16  1  0.770400  0.647300  0.305610  1.0  0.1825
  C  C17  1  0.058400  0.422900  0.418570  1.0  0.6066
  C  C18  1  0.691600  0.417700  0.279440  1.0  0.4449
  C  C19  1  0.909700  0.009600  0.515260  1.0  0.5941
  C  C20  1  0.585000  0.026400  0.867780  1.0  0.2501
  C  C21  1  0.755000  0.704100  0.783780  1.0  0.7004
  C  C22  1  0.603300  0.885600  0.858630  1.0  -0.149
  C  C23  1  0.729600  0.852700  0.805610  1.0  0.1818
  C  C24  1  0.441600  0.077100  0.918570  1.0  0.6056
  C  C25  1  0.808400  0.082300  0.779440  1.0  0.441
  C  C26  1  0.590300  0.490400  0.015260  1.0  0.593
  C  C27  1  0.085000  0.526400  0.632220  1.0  0.2492
  C  C28  1  0.255000  0.204100  0.716220  1.0  0.6988
  C  C29  1  0.103300  0.385600  0.641370  1.0  -0.1486
  C  C30  1  0.229600  0.352700  0.694390  1.0  0.1823
  C  C31  1  0.941600  0.577100  0.581430  1.0  0.6048
  C  C32  1  0.308400  0.582300  0.720560  1.0  0.4403
  C  C33  1  0.090300  0.990400  0.484740  1.0  0.5928
  C  C34  1  0.415000  0.973600  0.132220  1.0  0.2503
  C  C35  1  0.245000  0.295900  0.216220  1.0  0.7035
  C  C36  1  0.396700  0.114400  0.141370  1.0  -0.1482
  C  C37  1  0.270400  0.147300  0.194390  1.0  0.1826
  C  C38  1  0.558400  0.922900  0.081430  1.0  0.6062
  C  C39  1  0.191600  0.917700  0.220560  1.0  0.4451
  C  C40  1  0.409700  0.509600  0.984740  1.0  0.5938
  N  N41  1  0.813100  0.375700  0.328190  1.0  -0.5642
  N  N42  1  0.665300  0.549100  0.266610  1.0  -0.5266
  N  N43  1  0.686900  0.124300  0.828190  1.0  -0.5656
  N  N44  1  0.834700  0.950900  0.766610  1.0  -0.5245
  N  N45  1  0.186900  0.624300  0.671810  1.0  -0.5653
  N  N46  1  0.334700  0.450900  0.733390  1.0  -0.5234
  N  N47  1  0.313100  0.875700  0.171810  1.0  -0.5634
  N  N48  1  0.165300  0.049100  0.233390  1.0  -0.5252
  O  O49  1  0.049900  0.292870  0.429190  1.0  -0.641
  O  O50  1  0.851800  0.889910  0.310710  1.0  -0.7101
  O  O51  1  0.812500  0.056900  0.463680  1.0  -0.6539
  O  O52  1  0.619800  0.812600  0.238790  1.0  -0.6911
  O  O53  1  0.874500  0.976920  0.590350  1.0  -0.6144
  O  O54  1  0.172700  0.511400  0.443180  1.0  -0.5627
  O  O55  1  0.450100  0.207130  0.929190  1.0  -0.6433
  O  O56  1  0.648200  0.610090  0.810710  1.0  -0.7092
  O  O57  1  0.687500  0.443100  0.963680  1.0  -0.6558
  O  O58  1  0.880200  0.687400  0.738790  1.0  -0.6918
  O  O59  1  0.625500  0.523080  0.090350  1.0  -0.6137
  O  O60  1  0.327300  0.988600  0.943180  1.0  -0.5628
  O  O61  1  0.950100  0.707130  0.570810  1.0  -0.6423
  O  O62  1  0.148200  0.110090  0.689290  1.0  -0.7095
  O  O63  1  0.187500  0.943100  0.536320  1.0  -0.6552
  O  O64  1  0.380200  0.187400  0.761210  1.0  -0.6925
  O  O65  1  0.125500  0.023080  0.409650  1.0  -0.6132
  O  O66  1  0.827300  0.488600  0.556820  1.0  -0.5625
  O  O67  1  0.549900  0.792870  0.070810  1.0  -0.6408
  O  O68  1  0.351800  0.389910  0.189290  1.0  -0.7104
  O  O69  1  0.312500  0.556900  0.036320  1.0  -0.6532
  O  O70  1  0.119800  0.312600  0.261210  1.0  -0.6917
  O  O71  1  0.374500  0.476920  0.909650  1.0  -0.6173
  O  O72  1  0.672700  0.011400  0.056820  1.0  -0.5618
