# generated using pymatgen
data_GdH2C7(NO3)2
_symmetry_space_group_name_H-M   'P 1'
_cell_length_a   7.95500000
_cell_length_b   9.69300000
_cell_length_c   15.86900000
_cell_angle_alpha   90.00000000
_cell_angle_beta   90.00000000
_cell_angle_gamma   96.35600000
_symmetry_Int_Tables_number   1
_chemical_formula_structural   GdH2C7(NO3)2
_chemical_formula_sum   'Gd4 H8 C28 N8 O24'
_cell_volume   1216.10257915
_cell_formula_units_Z   4
loop_
 _symmetry_equiv_pos_site_id
 _symmetry_equiv_pos_as_xyz
  1  'x, y, z'
loop_
 _atom_site_type_symbol
 _atom_site_label
 _atom_site_symmetry_multiplicity
 _atom_site_fract_x
 _atom_site_fract_y
 _atom_site_fract_z
 _atom_site_occupancy
 _atom_site_charge
  Gd  Gd1  1  0.921450  0.133890  0.326920  1.0  2.0676
  Gd  Gd2  1  0.578550  0.366110  0.826920  1.0  2.0668
  Gd  Gd3  1  0.078550  0.866110  0.673080  1.0  2.0712
  Gd  Gd4  1  0.421450  0.633890  0.173080  1.0  2.0722
  H  H5  1  0.968600  0.684960  0.387910  1.0  0.1515
  H  H6  1  0.617370  0.347070  0.251470  1.0  0.0501
  H  H7  1  0.531400  0.815040  0.887910  1.0  0.1524
  H  H8  1  0.882630  0.152930  0.751470  1.0  0.0485
  H  H9  1  0.031400  0.315040  0.612090  1.0  0.1516
  H  H10  1  0.382630  0.652930  0.748530  1.0  0.0488
  H  H11  1  0.468600  0.184960  0.112090  1.0  0.1512
  H  H12  1  0.117370  0.847070  0.248530  1.0  0.0504
  C  C13  1  0.913900  0.474500  0.368170  1.0  0.2699
  C  C14  1  0.743800  0.795800  0.284000  1.0  0.7072
  C  C15  1  0.896100  0.615200  0.358870  1.0  -0.1491
  C  C16  1  0.769600  0.647800  0.306040  1.0  0.1922
  C  C17  1  0.057000  0.423600  0.418520  1.0  0.608
  C  C18  1  0.690200  0.418700  0.279900  1.0  0.4631
  C  C19  1  0.909900  0.009300  0.515490  1.0  0.5955
  C  C20  1  0.586100  0.025500  0.868170  1.0  0.2701
  C  C21  1  0.756200  0.704200  0.784000  1.0  0.7038
  C  C22  1  0.603900  0.884800  0.858870  1.0  -0.1485
  C  C23  1  0.730400  0.852200  0.806040  1.0  0.1923
  C  C24  1  0.443000  0.076400  0.918520  1.0  0.6062
  C  C25  1  0.809800  0.081300  0.779900  1.0  0.4598
  C  C26  1  0.590100  0.490700  0.015490  1.0  0.5943
  C  C27  1  0.086100  0.525500  0.631830  1.0  0.2692
  C  C28  1  0.256200  0.204200  0.716000  1.0  0.7026
  C  C29  1  0.103900  0.384800  0.641130  1.0  -0.1483
  C  C30  1  0.230400  0.352200  0.693960  1.0  0.192
  C  C31  1  0.943000  0.576400  0.581480  1.0  0.6057
  C  C32  1  0.309800  0.581300  0.720100  1.0  0.4594
  C  C33  1  0.090100  0.990700  0.484510  1.0  0.5942
  C  C34  1  0.413900  0.974500  0.131830  1.0  0.2704
  C  C35  1  0.243800  0.295800  0.216000  1.0  0.7047
  C  C36  1  0.396100  0.115200  0.141130  1.0  -0.1488
  C  C37  1  0.269600  0.147800  0.193960  1.0  0.1923
  C  C38  1  0.557000  0.923600  0.081480  1.0  0.6075
  C  C39  1  0.190200  0.918700  0.220100  1.0  0.4633
  C  C40  1  0.409900  0.509300  0.984510  1.0  0.5954
  N  N41  1  0.811600  0.377000  0.328500  1.0  -0.5608
  N  N42  1  0.663900  0.550000  0.266900  1.0  -0.517
  N  N43  1  0.688400  0.123000  0.828500  1.0  -0.5631
  N  N44  1  0.836100  0.950000  0.766900  1.0  -0.515
  N  N45  1  0.188400  0.623000  0.671500  1.0  -0.5627
  N  N46  1  0.336100  0.450000  0.733100  1.0  -0.5144
  N  N47  1  0.311600  0.877000  0.171500  1.0  -0.56
  N  N48  1  0.163900  0.050000  0.233100  1.0  -0.5157
  O  O49  1  0.048300  0.294200  0.429280  1.0  -0.6584
  O  O50  1  0.850900  0.889500  0.310830  1.0  -0.7125
  O  O51  1  0.812000  0.056500  0.464170  1.0  -0.6396
  O  O52  1  0.619200  0.813000  0.239000  1.0  -0.681
  O  O53  1  0.874900  0.976400  0.590180  1.0  -0.6206
  O  O54  1  0.171900  0.511600  0.442860  1.0  -0.5623
  O  O55  1  0.451700  0.205800  0.929280  1.0  -0.6593
  O  O56  1  0.649100  0.610500  0.810830  1.0  -0.7124
  O  O57  1  0.688000  0.443500  0.964170  1.0  -0.6402
  O  O58  1  0.880800  0.687000  0.739000  1.0  -0.682
  O  O59  1  0.625100  0.523600  0.090180  1.0  -0.6193
  O  O60  1  0.328100  0.988400  0.942860  1.0  -0.5616
  O  O61  1  0.951700  0.705800  0.570720  1.0  -0.6584
  O  O62  1  0.149100  0.110500  0.689170  1.0  -0.7125
  O  O63  1  0.188000  0.943500  0.535830  1.0  -0.6406
  O  O64  1  0.380800  0.187000  0.761000  1.0  -0.6824
  O  O65  1  0.125100  0.023600  0.409820  1.0  -0.6205
  O  O66  1  0.828100  0.488400  0.557140  1.0  -0.5615
  O  O67  1  0.548300  0.794200  0.070720  1.0  -0.6577
  O  O68  1  0.350900  0.389500  0.189170  1.0  -0.7124
  O  O69  1  0.312000  0.556500  0.035830  1.0  -0.6396
  O  O70  1  0.119200  0.313000  0.261000  1.0  -0.6814
  O  O71  1  0.374900  0.476400  0.909820  1.0  -0.6203
  O  O72  1  0.671900  0.011600  0.057140  1.0  -0.5614
