# generated using pymatgen
data_EuH2C7(NO3)2
_symmetry_space_group_name_H-M   'P 1'
_cell_length_a   7.98100000
_cell_length_b   9.72300000
_cell_length_c   15.90900000
_cell_angle_alpha   90.00000000
_cell_angle_beta   90.00000000
_cell_angle_gamma   96.29000000
_symmetry_Int_Tables_number   1
_chemical_formula_structural   EuH2C7(NO3)2
_chemical_formula_sum   'Eu4 H8 C28 N8 O24'
_cell_volume   1227.09493876
_cell_formula_units_Z   4
loop_
 _symmetry_equiv_pos_site_id
 _symmetry_equiv_pos_as_xyz
  1  'x, y, z'
loop_
 _atom_site_type_symbol
 _atom_site_label
 _atom_site_symmetry_multiplicity
 _atom_site_fract_x
 _atom_site_fract_y
 _atom_site_fract_z
 _atom_site_occupancy
 _atom_site_charge
  Eu  Eu1  1  0.921300  0.134460  0.326770  1.0  2.0452
  Eu  Eu2  1  0.578700  0.365540  0.826770  1.0  2.0447
  Eu  Eu3  1  0.078700  0.865540  0.673230  1.0  2.0502
  Eu  Eu4  1  0.421300  0.634460  0.173230  1.0  2.0509
  H  H5  1  0.968600  0.684960  0.387910  1.0  0.1529
  H  H6  1  0.617370  0.347070  0.251470  1.0  0.0605
  H  H7  1  0.531400  0.815040  0.887910  1.0  0.1537
  H  H8  1  0.882630  0.152930  0.751470  1.0  0.0591
  H  H9  1  0.031400  0.315040  0.612090  1.0  0.1534
  H  H10  1  0.382630  0.652930  0.748530  1.0  0.0597
  H  H11  1  0.468600  0.184960  0.112090  1.0  0.1529
  H  H12  1  0.117370  0.847070  0.248530  1.0  0.0612
  C  C13  1  0.914100  0.474900  0.368300  1.0  0.2469
  C  C14  1  0.743800  0.796000  0.284400  1.0  0.7026
  C  C15  1  0.896100  0.614900  0.359200  1.0  -0.1328
  C  C16  1  0.769200  0.648200  0.306300  1.0  0.1728
  C  C17  1  0.056800  0.424300  0.418500  1.0  0.6179
  C  C18  1  0.689700  0.419500  0.280900  1.0  0.4322
  C  C19  1  0.910100  0.009700  0.515900  1.0  0.5977
  C  C20  1  0.585900  0.025100  0.868300  1.0  0.2476
  C  C21  1  0.756200  0.704000  0.784400  1.0  0.703
  C  C22  1  0.603900  0.885100  0.859200  1.0  -0.1338
  C  C23  1  0.730800  0.851800  0.806300  1.0  0.1722
  C  C24  1  0.443200  0.075700  0.918500  1.0  0.6162
  C  C25  1  0.810300  0.080500  0.780900  1.0  0.4305
  C  C26  1  0.589900  0.490300  0.015900  1.0  0.5969
  C  C27  1  0.085900  0.525100  0.631700  1.0  0.2476
  C  C28  1  0.256200  0.204000  0.715600  1.0  0.7023
  C  C29  1  0.103900  0.385100  0.640800  1.0  -0.1335
  C  C30  1  0.230800  0.351800  0.693700  1.0  0.1724
  C  C31  1  0.943200  0.575700  0.581500  1.0  0.6141
  C  C32  1  0.310300  0.580500  0.719100  1.0  0.4322
  C  C33  1  0.089900  0.990300  0.484100  1.0  0.5968
  C  C34  1  0.414100  0.974900  0.131700  1.0  0.247
  C  C35  1  0.243800  0.296000  0.215600  1.0  0.7017
  C  C36  1  0.396100  0.114900  0.140800  1.0  -0.1328
  C  C37  1  0.269200  0.148200  0.193700  1.0  0.1729
  C  C38  1  0.556800  0.924300  0.081500  1.0  0.6157
  C  C39  1  0.189700  0.919500  0.219100  1.0  0.4347
  C  C40  1  0.410100  0.509700  0.984100  1.0  0.5975
  N  N41  1  0.811800  0.377900  0.329190  1.0  -0.5307
  N  N42  1  0.664200  0.550800  0.267740  1.0  -0.5191
  N  N43  1  0.688200  0.122100  0.829190  1.0  -0.533
  N  N44  1  0.835800  0.949200  0.767740  1.0  -0.5196
  N  N45  1  0.188200  0.622100  0.670810  1.0  -0.5323
  N  N46  1  0.335800  0.449200  0.732260  1.0  -0.5183
  N  N47  1  0.311800  0.877900  0.170810  1.0  -0.5295
  N  N48  1  0.164200  0.050800  0.232260  1.0  -0.5183
  O  O49  1  0.049600  0.295000  0.428820  1.0  -0.6545
  O  O50  1  0.851600  0.889200  0.310560  1.0  -0.7145
  O  O51  1  0.812300  0.056800  0.464250  1.0  -0.64
  O  O52  1  0.619200  0.813300  0.239660  1.0  -0.6865
  O  O53  1  0.875000  0.976400  0.589810  1.0  -0.5826
  O  O54  1  0.171800  0.512800  0.442910  1.0  -0.5659
  O  O55  1  0.450400  0.205000  0.928820  1.0  -0.6561
  O  O56  1  0.648400  0.610800  0.810560  1.0  -0.7147
  O  O57  1  0.687700  0.443200  0.964250  1.0  -0.6417
  O  O58  1  0.880800  0.686700  0.739660  1.0  -0.6872
  O  O59  1  0.625000  0.523600  0.089810  1.0  -0.5836
  O  O60  1  0.328200  0.987200  0.942910  1.0  -0.5638
  O  O61  1  0.950400  0.705000  0.571180  1.0  -0.6554
  O  O62  1  0.148400  0.110800  0.689440  1.0  -0.7144
  O  O63  1  0.187700  0.943200  0.535750  1.0  -0.6421
  O  O64  1  0.380800  0.186700  0.760340  1.0  -0.6875
  O  O65  1  0.125000  0.023600  0.410190  1.0  -0.5844
  O  O66  1  0.828200  0.487200  0.557090  1.0  -0.5631
  O  O67  1  0.549600  0.795000  0.071180  1.0  -0.6548
  O  O68  1  0.351600  0.389200  0.189440  1.0  -0.7141
  O  O69  1  0.312300  0.556800  0.035750  1.0  -0.6398
  O  O70  1  0.119200  0.313300  0.260340  1.0  -0.6867
  O  O71  1  0.375000  0.476400  0.910190  1.0  -0.5838
  O  O72  1  0.671800  0.012800  0.057090  1.0  -0.5648
