# generated using pymatgen
data_DyH2C7(NO3)2
_symmetry_space_group_name_H-M   'P 1'
_cell_length_a   7.95500000
_cell_length_b   9.65000000
_cell_length_c   15.84500000
_cell_angle_alpha   90.00000000
_cell_angle_beta   90.00000000
_cell_angle_gamma   96.55500000
_symmetry_Int_Tables_number   1
_chemical_formula_structural   DyH2C7(NO3)2
_chemical_formula_sum   'Dy4 H8 C28 N8 O24'
_cell_volume   1208.40167953
_cell_formula_units_Z   4
loop_
 _symmetry_equiv_pos_site_id
 _symmetry_equiv_pos_as_xyz
  1  'x, y, z'
loop_
 _atom_site_type_symbol
 _atom_site_label
 _atom_site_symmetry_multiplicity
 _atom_site_fract_x
 _atom_site_fract_y
 _atom_site_fract_z
 _atom_site_occupancy
 _atom_site_charge
  Dy  Dy1  1  0.924380  0.133100  0.327100  1.0  2.155
  Dy  Dy2  1  0.575620  0.366900  0.827100  1.0  2.1547
  Dy  Dy3  1  0.075620  0.866900  0.672900  1.0  2.1566
  Dy  Dy4  1  0.424380  0.633100  0.172900  1.0  2.1574
  H  H5  1  0.968600  0.684960  0.387910  1.0  0.1484
  H  H6  1  0.617370  0.347070  0.251470  1.0  0.0381
  H  H7  1  0.531400  0.815040  0.887910  1.0  0.1495
  H  H8  1  0.882630  0.152930  0.751470  1.0  0.037
  H  H9  1  0.031400  0.315040  0.612090  1.0  0.1493
  H  H10  1  0.382630  0.652930  0.748530  1.0  0.0372
  H  H11  1  0.468600  0.184960  0.112090  1.0  0.1487
  H  H12  1  0.117370  0.847070  0.248530  1.0  0.0386
  C  C13  1  0.916100  0.473300  0.368100  1.0  0.2709
  C  C14  1  0.746100  0.795200  0.283400  1.0  0.7059
  C  C15  1  0.897700  0.614200  0.358900  1.0  -0.1593
  C  C16  1  0.771800  0.647000  0.305400  1.0  0.188
  C  C17  1  0.058400  0.423100  0.418800  1.0  0.5947
  C  C18  1  0.692600  0.416800  0.279000  1.0  0.4913
  C  C19  1  0.910200  0.009600  0.515100  1.0  0.5913
  C  C20  1  0.583900  0.026700  0.868100  1.0  0.2712
  C  C21  1  0.753900  0.704800  0.783400  1.0  0.7064
  C  C22  1  0.602300  0.885800  0.858900  1.0  -0.16
  C  C23  1  0.728200  0.853000  0.805400  1.0  0.1875
  C  C24  1  0.441600  0.076900  0.918800  1.0  0.5939
  C  C25  1  0.807400  0.083200  0.779000  1.0  0.4884
  C  C26  1  0.589800  0.490400  0.015100  1.0  0.5902
  C  C27  1  0.083900  0.526700  0.631900  1.0  0.2715
  C  C28  1  0.253900  0.204800  0.716600  1.0  0.7058
  C  C29  1  0.102300  0.385800  0.641100  1.0  -0.1595
  C  C30  1  0.228200  0.353000  0.694600  1.0  0.1877
  C  C31  1  0.941600  0.576900  0.581200  1.0  0.5898
  C  C32  1  0.307400  0.583200  0.721000  1.0  0.4889
  C  C33  1  0.089800  0.990400  0.484900  1.0  0.5902
  C  C34  1  0.416100  0.973300  0.131900  1.0  0.2712
  C  C35  1  0.246100  0.295200  0.216600  1.0  0.7054
  C  C36  1  0.397700  0.114200  0.141100  1.0  -0.1589
  C  C37  1  0.271800  0.147000  0.194600  1.0  0.1882
  C  C38  1  0.558400  0.923100  0.081200  1.0  0.5905
  C  C39  1  0.192600  0.916800  0.221000  1.0  0.4921
  C  C40  1  0.410200  0.509600  0.984900  1.0  0.5912
  N  N41  1  0.813800  0.375000  0.327800  1.0  -0.5854
  N  N42  1  0.666500  0.548300  0.265900  1.0  -0.5252
  N  N43  1  0.686200  0.125000  0.827800  1.0  -0.5863
  N  N44  1  0.833500  0.951700  0.765900  1.0  -0.5255
  N  N45  1  0.186200  0.625000  0.672200  1.0  -0.5859
  N  N46  1  0.333500  0.451700  0.734100  1.0  -0.5238
  N  N47  1  0.313800  0.875000  0.172200  1.0  -0.5847
  N  N48  1  0.166500  0.048300  0.234100  1.0  -0.5246
  O  O49  1  0.050500  0.291800  0.429400  1.0  -0.6637
  O  O50  1  0.852700  0.890400  0.310500  1.0  -0.7259
  O  O51  1  0.812600  0.056700  0.463100  1.0  -0.6471
  O  O52  1  0.620700  0.812400  0.238300  1.0  -0.7026
  O  O53  1  0.873900  0.977100  0.590400  1.0  -0.6148
  O  O54  1  0.173400  0.510800  0.443500  1.0  -0.556
  O  O55  1  0.449500  0.208200  0.929400  1.0  -0.6633
  O  O56  1  0.647300  0.609600  0.810500  1.0  -0.7243
  O  O57  1  0.687400  0.443300  0.963100  1.0  -0.6494
  O  O58  1  0.879300  0.687600  0.738300  1.0  -0.7031
  O  O59  1  0.626100  0.522900  0.090400  1.0  -0.6166
  O  O60  1  0.326600  0.989200  0.943500  1.0  -0.5559
  O  O61  1  0.949500  0.708200  0.570600  1.0  -0.6622
  O  O62  1  0.147300  0.109600  0.689500  1.0  -0.7244
  O  O63  1  0.187400  0.943300  0.536900  1.0  -0.6498
  O  O64  1  0.379300  0.187600  0.761700  1.0  -0.7034
  O  O65  1  0.126100  0.022900  0.409600  1.0  -0.6161
  O  O66  1  0.826600  0.489200  0.556500  1.0  -0.5558
  O  O67  1  0.550500  0.791800  0.070600  1.0  -0.6638
  O  O68  1  0.352700  0.390400  0.189500  1.0  -0.726
  O  O69  1  0.312600  0.556700  0.036900  1.0  -0.6469
  O  O70  1  0.120700  0.312400  0.261700  1.0  -0.7028
  O  O71  1  0.373900  0.477100  0.909600  1.0  -0.615
  O  O72  1  0.673400  0.010800  0.056500  1.0  -0.5548
