# generated using pymatgen
data_ErH2C7(NO3)2
_symmetry_space_group_name_H-M   'P 1'
_cell_length_a   7.92300000
_cell_length_b   9.59260000
_cell_length_c   15.79380000
_cell_angle_alpha   90.00000000
_cell_angle_beta   90.00000000
_cell_angle_gamma   96.75900000
_symmetry_Int_Tables_number   1
_chemical_formula_structural   ErH2C7(NO3)2
_chemical_formula_sum   'Er4 H8 C28 N8 O24'
_cell_volume   1192.02052442
_cell_formula_units_Z   4
loop_
 _symmetry_equiv_pos_site_id
 _symmetry_equiv_pos_as_xyz
  1  'x, y, z'
loop_
 _atom_site_type_symbol
 _atom_site_label
 _atom_site_symmetry_multiplicity
 _atom_site_fract_x
 _atom_site_fract_y
 _atom_site_fract_z
 _atom_site_occupancy
 _atom_site_charge
  Er  Er1  1  0.928170  0.132780  0.327400  1.0  1.4076
  Er  Er2  1  0.571830  0.367220  0.827400  1.0  1.4073
  Er  Er3  1  0.071830  0.867220  0.672600  1.0  1.4076
  Er  Er4  1  0.428170  0.632780  0.172600  1.0  1.408
  H  H5  1  0.968600  0.684960  0.387910  1.0  0.1473
  H  H6  1  0.617370  0.347070  0.251470  1.0  0.0541
  H  H7  1  0.531400  0.815040  0.887910  1.0  0.1478
  H  H8  1  0.882630  0.152930  0.751470  1.0  0.0528
  H  H9  1  0.031400  0.315040  0.612090  1.0  0.1474
  H  H10  1  0.382630  0.652930  0.748530  1.0  0.053
  H  H11  1  0.468600  0.184960  0.112090  1.0  0.1475
  H  H12  1  0.117370  0.847070  0.248530  1.0  0.0543
  C  C13  1  0.918700  0.472600  0.367800  1.0  0.2459
  C  C14  1  0.749400  0.796300  0.282600  1.0  0.6716
  C  C15  1  0.899900  0.614200  0.359100  1.0  -0.1386
  C  C16  1  0.774400  0.646900  0.304900  1.0  0.1828
  C  C17  1  0.060100  0.422000  0.419300  1.0  0.5903
  C  C18  1  0.697000  0.415000  0.277400  1.0  0.4413
  C  C19  1  0.908800  0.009900  0.514900  1.0  0.5665
  C  C20  1  0.581300  0.027400  0.867800  1.0  0.2463
  C  C21  1  0.750600  0.703700  0.782600  1.0  0.6724
  C  C22  1  0.600100  0.885800  0.859100  1.0  -0.1403
  C  C23  1  0.725600  0.853100  0.804900  1.0  0.1825
  C  C24  1  0.439900  0.078000  0.919300  1.0  0.5877
  C  C25  1  0.803000  0.085000  0.777400  1.0  0.4401
  C  C26  1  0.591200  0.490100  0.014900  1.0  0.5668
  C  C27  1  0.081300  0.527400  0.632200  1.0  0.247
  C  C28  1  0.250600  0.203700  0.717400  1.0  0.671
  C  C29  1  0.100100  0.385800  0.640900  1.0  -0.1401
  C  C30  1  0.225600  0.353100  0.695100  1.0  0.1827
  C  C31  1  0.939900  0.578000  0.580700  1.0  0.5838
  C  C32  1  0.303000  0.585000  0.722600  1.0  0.4405
  C  C33  1  0.091200  0.990100  0.485100  1.0  0.5668
  C  C34  1  0.418700  0.972600  0.132200  1.0  0.2467
  C  C35  1  0.249400  0.296300  0.217400  1.0  0.6702
  C  C36  1  0.399900  0.114200  0.140900  1.0  -0.1383
  C  C37  1  0.274400  0.146900  0.195100  1.0  0.183
  C  C38  1  0.560100  0.922000  0.080700  1.0  0.5862
  C  C39  1  0.197000  0.915000  0.222600  1.0  0.4421
  C  C40  1  0.408800  0.509900  0.985100  1.0  0.5665
  N  N41  1  0.817300  0.373600  0.326700  1.0  -0.4565
  N  N42  1  0.669600  0.547900  0.264500  1.0  -0.4408
  N  N43  1  0.682700  0.126400  0.826700  1.0  -0.4603
  N  N44  1  0.830400  0.952100  0.764500  1.0  -0.4443
  N  N45  1  0.182700  0.626400  0.673300  1.0  -0.4601
  N  N46  1  0.330400  0.452100  0.735500  1.0  -0.4435
  N  N47  1  0.317300  0.873600  0.173300  1.0  -0.4555
  N  N48  1  0.169600  0.047900  0.235500  1.0  -0.4406
  O  O49  1  0.052700  0.290100  0.429500  1.0  -0.5662
  O  O50  1  0.855100  0.891200  0.310400  1.0  -0.6477
  O  O51  1  0.813300  0.056500  0.462300  1.0  -0.5001
  O  O52  1  0.624200  0.812800  0.236700  1.0  -0.6201
  O  O53  1  0.872200  0.977600  0.590100  1.0  -0.4987
  O  O54  1  0.175300  0.510800  0.444500  1.0  -0.4342
  O  O55  1  0.447300  0.209900  0.929500  1.0  -0.5665
  O  O56  1  0.644900  0.608800  0.810400  1.0  -0.6447
  O  O57  1  0.686700  0.443500  0.962300  1.0  -0.4975
  O  O58  1  0.875800  0.687200  0.736700  1.0  -0.6208
  O  O59  1  0.627800  0.522400  0.090100  1.0  -0.4979
  O  O60  1  0.324700  0.989200  0.944500  1.0  -0.433
  O  O61  1  0.947300  0.709900  0.570500  1.0  -0.5659
  O  O62  1  0.144900  0.108800  0.689600  1.0  -0.645
  O  O63  1  0.186700  0.943500  0.537700  1.0  -0.499
  O  O64  1  0.375800  0.187200  0.763300  1.0  -0.6211
  O  O65  1  0.127800  0.022400  0.409900  1.0  -0.4985
  O  O66  1  0.824700  0.489200  0.555500  1.0  -0.4316
  O  O67  1  0.552700  0.790100  0.070500  1.0  -0.5662
  O  O68  1  0.355100  0.391200  0.189600  1.0  -0.6482
  O  O69  1  0.313300  0.556500  0.037700  1.0  -0.5005
  O  O70  1  0.124200  0.312800  0.263300  1.0  -0.6202
  O  O71  1  0.372200  0.477600  0.909900  1.0  -0.4997
  O  O72  1  0.675300  0.010800  0.055500  1.0  -0.4331
