# generated using pymatgen
data_HoH2C7(NO3)2
_symmetry_space_group_name_H-M   'P 1'
_cell_length_a   7.93750000
_cell_length_b   9.62190000
_cell_length_c   15.82160000
_cell_angle_alpha   90.00000000
_cell_angle_beta   90.00000000
_cell_angle_gamma   96.62500000
_symmetry_Int_Tables_number   1
_chemical_formula_structural   HoH2C7(NO3)2
_chemical_formula_sum   'Ho4 H8 C28 N8 O24'
_cell_volume   1200.28743439
_cell_formula_units_Z   4
loop_
 _symmetry_equiv_pos_site_id
 _symmetry_equiv_pos_as_xyz
  1  'x, y, z'
loop_
 _atom_site_type_symbol
 _atom_site_label
 _atom_site_symmetry_multiplicity
 _atom_site_fract_x
 _atom_site_fract_y
 _atom_site_fract_z
 _atom_site_occupancy
 _atom_site_charge
  Ho  Ho1  1  0.927240  0.133080  0.327230  1.0  2.069
  Ho  Ho2  1  0.572760  0.366920  0.827230  1.0  2.0687
  Ho  Ho3  1  0.072760  0.866920  0.672770  1.0  2.0706
  Ho  Ho4  1  0.427240  0.633080  0.172770  1.0  2.0711
  H  H5  1  0.968600  0.684960  0.387910  1.0  0.1429
  H  H6  1  0.617370  0.347070  0.251470  1.0  0.044
  H  H7  1  0.531400  0.815040  0.887910  1.0  0.1435
  H  H8  1  0.882630  0.152930  0.751470  1.0  0.0429
  H  H9  1  0.031400  0.315040  0.612090  1.0  0.1434
  H  H10  1  0.382630  0.652930  0.748530  1.0  0.043
  H  H11  1  0.468600  0.184960  0.112090  1.0  0.1432
  H  H12  1  0.117370  0.847070  0.248530  1.0  0.0443
  C  C13  1  0.918100  0.472900  0.367900  1.0  0.2671
  C  C14  1  0.748700  0.795800  0.282900  1.0  0.6973
  C  C15  1  0.899500  0.613800  0.358600  1.0  -0.1553
  C  C16  1  0.774700  0.647300  0.305000  1.0  0.1803
  C  C17  1  0.060400  0.422600  0.418900  1.0  0.5943
  C  C18  1  0.696600  0.415500  0.278000  1.0  0.4736
  C  C19  1  0.908800  0.009900  0.515000  1.0  0.5762
  C  C20  1  0.581900  0.027100  0.867900  1.0  0.2672
  C  C21  1  0.751300  0.704200  0.782900  1.0  0.6969
  C  C22  1  0.600500  0.886200  0.858600  1.0  -0.1572
  C  C23  1  0.725300  0.852700  0.805000  1.0  0.1801
  C  C24  1  0.439600  0.077400  0.918900  1.0  0.5924
  C  C25  1  0.803400  0.084500  0.778000  1.0  0.47
  C  C26  1  0.591200  0.490100  0.015000  1.0  0.5756
  C  C27  1  0.081900  0.527100  0.632100  1.0  0.2675
  C  C28  1  0.251300  0.204200  0.717100  1.0  0.6965
  C  C29  1  0.100500  0.386200  0.641400  1.0  -0.1569
  C  C30  1  0.225300  0.352700  0.695000  1.0  0.1805
  C  C31  1  0.939600  0.577400  0.581100  1.0  0.5888
  C  C32  1  0.303400  0.584500  0.722000  1.0  0.4701
  C  C33  1  0.091200  0.990100  0.485000  1.0  0.5754
  C  C34  1  0.418100  0.972900  0.132100  1.0  0.2674
  C  C35  1  0.248700  0.295800  0.217100  1.0  0.6969
  C  C36  1  0.399500  0.113800  0.141400  1.0  -0.155
  C  C37  1  0.274700  0.147300  0.195000  1.0  0.1807
  C  C38  1  0.560400  0.922600  0.081100  1.0  0.5906
  C  C39  1  0.196600  0.915500  0.222000  1.0  0.4743
  C  C40  1  0.408800  0.509900  0.985000  1.0  0.576
  N  N41  1  0.817200  0.374300  0.327240  1.0  -0.5458
  N  N42  1  0.668800  0.547800  0.265020  1.0  -0.5146
  N  N43  1  0.682800  0.125700  0.827240  1.0  -0.5523
  N  N44  1  0.831200  0.952200  0.765020  1.0  -0.515
  N  N45  1  0.182800  0.625700  0.672760  1.0  -0.5516
  N  N46  1  0.331200  0.452200  0.734980  1.0  -0.5138
  N  N47  1  0.317200  0.874300  0.172760  1.0  -0.5444
  N  N48  1  0.168800  0.047800  0.234980  1.0  -0.5143
  O  O49  1  0.051500  0.291600  0.429310  1.0  -0.6561
  O  O50  1  0.856100  0.890900  0.310120  1.0  -0.7165
  O  O51  1  0.813000  0.056400  0.462270  1.0  -0.6281
  O  O52  1  0.623600  0.812600  0.237460  1.0  -0.6839
  O  O53  1  0.872700  0.977400  0.589740  1.0  -0.5985
  O  O54  1  0.175200  0.511400  0.444390  1.0  -0.5411
  O  O55  1  0.448500  0.208400  0.929310  1.0  -0.6554
  O  O56  1  0.643900  0.609100  0.810120  1.0  -0.715
  O  O57  1  0.687000  0.443600  0.962270  1.0  -0.6259
  O  O58  1  0.876400  0.687400  0.737460  1.0  -0.6846
  O  O59  1  0.627300  0.522600  0.089740  1.0  -0.5998
  O  O60  1  0.324800  0.988600  0.944390  1.0  -0.5407
  O  O61  1  0.948500  0.708400  0.570690  1.0  -0.6558
  O  O62  1  0.143900  0.109100  0.689880  1.0  -0.7152
  O  O63  1  0.187000  0.943600  0.537730  1.0  -0.6242
  O  O64  1  0.376400  0.187400  0.762540  1.0  -0.6846
  O  O65  1  0.127300  0.022600  0.410260  1.0  -0.5991
  O  O66  1  0.824800  0.488600  0.555610  1.0  -0.5399
  O  O67  1  0.551500  0.791600  0.070690  1.0  -0.6561
  O  O68  1  0.356100  0.390900  0.189880  1.0  -0.7167
  O  O69  1  0.313000  0.556400  0.037730  1.0  -0.6266
  O  O70  1  0.123600  0.312600  0.262540  1.0  -0.6839
  O  O71  1  0.372700  0.477400  0.910260  1.0  -0.5984
  O  O72  1  0.675200  0.011400  0.055610  1.0  -0.5401
