# generated using pymatgen
data_Y2H6C18(SO4)3
_symmetry_space_group_name_H-M   'P 1'
_cell_length_a   35.19600000
_cell_length_b   11.64720000
_cell_length_c   17.24040000
_cell_angle_alpha   90.00000000
_cell_angle_beta   99.00300000
_cell_angle_gamma   90.00000000
_symmetry_Int_Tables_number   1
_chemical_formula_structural   Y2H6C18(SO4)3
_chemical_formula_sum   'Y16 H48 C144 S24 O96'
_cell_volume   6980.37098633
_cell_formula_units_Z   8
loop_
 _symmetry_equiv_pos_site_id
 _symmetry_equiv_pos_as_xyz
  1  'x, y, z'
loop_
 _atom_site_type_symbol
 _atom_site_label
 _atom_site_symmetry_multiplicity
 _atom_site_fract_x
 _atom_site_fract_y
 _atom_site_fract_z
 _atom_site_occupancy
 _atom_site_charge
  Y  Y1  1  0.576150  0.063270  0.078100  1.0  2.0979
  Y  Y2  1  0.668370  0.881670  0.175830  1.0  2.0694
  Y  Y3  1  0.577100  0.551080  0.562360  1.0  2.0912
  Y  Y4  1  0.679390  0.413060  0.690980  1.0  2.0889
  Y  Y5  1  0.076150  0.563270  0.078100  1.0  2.0979
  Y  Y6  1  0.168370  0.381670  0.175830  1.0  2.0694
  Y  Y7  1  0.077100  0.051080  0.562360  1.0  2.0912
  Y  Y8  1  0.179390  0.913060  0.690980  1.0  2.0889
  Y  Y9  1  0.423850  0.063270  0.921900  1.0  2.0978
  Y  Y10  1  0.331630  0.881670  0.824170  1.0  2.0706
  Y  Y11  1  0.422900  0.551080  0.437640  1.0  2.09
  Y  Y12  1  0.320610  0.413060  0.309020  1.0  2.0892
  Y  Y13  1  0.923850  0.563270  0.921900  1.0  2.0978
  Y  Y14  1  0.831630  0.381670  0.824170  1.0  2.0706
  Y  Y15  1  0.922900  0.051080  0.437640  1.0  2.09
  Y  Y16  1  0.820610  0.913060  0.309020  1.0  2.0892
  H  H17  1  0.479300  0.240000  0.785700  1.0  0.1212
  H  H18  1  0.748700  0.113200  0.070700  1.0  0.1285
  H  H19  1  0.514100  0.352600  0.698300  1.0  0.1111
  H  H20  1  0.779300  0.218200  0.972900  1.0  0.1151
  H  H21  1  0.676800  0.143900  0.492400  1.0  0.1128
  H  H22  1  0.580100  0.836400  0.754200  1.0  0.12
  H  H23  1  0.467600  0.669400  0.265200  1.0  0.1116
  H  H24  1  0.746100  0.665800  0.572100  1.0  0.1269
  H  H25  1  0.670900  0.040200  0.366100  1.0  0.1052
  H  H26  1  0.582900  0.926800  0.882500  1.0  0.0976
  H  H27  1  0.495000  0.802400  0.174800  1.0  0.1126
  H  H28  1  0.774500  0.769600  0.474800  1.0  0.1013
  H  H29  1  0.979300  0.740000  0.785700  1.0  0.1213
  H  H30  1  0.248700  0.613200  0.070700  1.0  0.1285
  H  H31  1  0.014100  0.852600  0.698300  1.0  0.1111
  H  H32  1  0.279300  0.718200  0.972900  1.0  0.1151
  H  H33  1  0.176800  0.643900  0.492400  1.0  0.1128
  H  H34  1  0.080100  0.336400  0.754200  1.0  0.12
  H  H35  1  0.967600  0.169400  0.265200  1.0  0.1116
  H  H36  1  0.246100  0.165800  0.572100  1.0  0.1269
  H  H37  1  0.170900  0.540200  0.366100  1.0  0.1052
  H  H38  1  0.082900  0.426800  0.882500  1.0  0.0976
  H  H39  1  0.995000  0.302400  0.174800  1.0  0.1126
  H  H40  1  0.274500  0.269600  0.474800  1.0  0.1013
  H  H41  1  0.520700  0.240000  0.214300  1.0  0.122
  H  H42  1  0.251300  0.113200  0.929300  1.0  0.1281
  H  H43  1  0.485900  0.352600  0.301700  1.0  0.1118
  H  H44  1  0.220700  0.218200  0.027100  1.0  0.1142
  H  H45  1  0.323200  0.143900  0.507600  1.0  0.1119
  H  H46  1  0.419900  0.836400  0.245800  1.0  0.1194
  H  H47  1  0.532400  0.669400  0.734800  1.0  0.1119
  H  H48  1  0.253900  0.665800  0.427900  1.0  0.1264
  H  H49  1  0.329100  0.040200  0.633900  1.0  0.1059
  H  H50  1  0.417100  0.926800  0.117500  1.0  0.0974
  H  H51  1  0.505000  0.802400  0.825200  1.0  0.1162
  H  H52  1  0.225500  0.769600  0.525200  1.0  0.101
  H  H53  1  0.020700  0.740000  0.214300  1.0  0.122
  H  H54  1  0.751300  0.613200  0.929300  1.0  0.1281
  H  H55  1  0.985900  0.852600  0.301700  1.0  0.1119
  H  H56  1  0.720700  0.718200  0.027100  1.0  0.1142
  H  H57  1  0.823200  0.643900  0.507600  1.0  0.1119
  H  H58  1  0.919900  0.336400  0.245800  1.0  0.1194
  H  H59  1  0.032400  0.169400  0.734800  1.0  0.1119
  H  H60  1  0.753900  0.165800  0.427900  1.0  0.1264
  H  H61  1  0.829100  0.540200  0.633900  1.0  0.1059
  H  H62  1  0.917100  0.426800  0.117500  1.0  0.0974
  H  H63  1  0.005000  0.302400  0.825200  1.0  0.1162
  H  H64  1  0.725500  0.269600  0.525200  1.0  0.101
  C  C65  1  0.521600  0.095900  0.903300  1.0  0.7518
  C  C66  1  0.667600  0.117300  0.063300  1.0  0.7612
  C  C67  1  0.531800  0.174200  0.841400  1.0  -0.1941
  C  C68  1  0.695600  0.178100  0.020100  1.0  -0.1812
  C  C69  1  0.506500  0.239500  0.788200  1.0  -0.0631
  C  C70  1  0.735100  0.160800  0.030900  1.0  -0.0439
  C  C71  1  0.564800  0.292400  0.754100  1.0  -0.1444
  C  C72  1  0.526600  0.304400  0.738900  1.0  -0.0644
  C  C73  1  0.727700  0.289000  0.926700  1.0  -0.2017
  C  C74  1  0.752600  0.222600  0.975700  1.0  -0.0443
  C  C75  1  0.595000  0.346100  0.714500  1.0  0.7446
  C  C76  1  0.735700  0.357800  0.859600  1.0  0.7766
  C  C77  1  0.628900  0.324000  0.517600  1.0  0.7933
  C  C78  1  0.625800  0.640700  0.733300  1.0  0.7935
  C  C79  1  0.515700  0.572300  0.395300  1.0  0.7632
  C  C80  1  0.664200  0.619900  0.546200  1.0  0.7682
  C  C81  1  0.631800  0.243100  0.451800  1.0  -0.1849
  C  C82  1  0.622700  0.723600  0.799300  1.0  -0.2134
  C  C83  1  0.522500  0.644400  0.327300  1.0  -0.1884
  C  C84  1  0.691800  0.687700  0.507600  1.0  -0.2003
  C  C85  1  0.657500  0.161300  0.448900  1.0  -0.058
  C  C86  1  0.597100  0.812200  0.799600  1.0  -0.0408
  C  C87  1  0.494200  0.686800  0.269000  1.0  -0.0914
  C  C88  1  0.731500  0.698400  0.526400  1.0  -0.0746
  C  C89  1  0.624300  0.143500  0.324500  1.0  -0.1459
  C  C90  1  0.654500  0.101000  0.376700  1.0  -0.1022
  C  C91  1  0.624200  0.811500  0.929200  1.0  -0.1943
  C  C92  1  0.598300  0.863100  0.872800  1.0  -0.0308
  C  C93  1  0.549100  0.759600  0.230500  1.0  -0.1951
  C  C94  1  0.509900  0.759500  0.215500  1.0  -0.0979
  C  C95  1  0.721000  0.809200  0.414300  1.0  -0.2018
  C  C96  1  0.747500  0.761000  0.472400  1.0  -0.0447
  C  C97  1  0.612500  0.109500  0.241200  1.0  0.7074
  C  C98  1  0.632800  0.836800  0.014300  1.0  0.7785
  C  C99  1  0.575800  0.824400  0.186500  1.0  0.7994
  C  C100  1  0.726600  0.878900  0.346500  1.0  0.737
  C  C101  1  0.021600  0.595900  0.903300  1.0  0.7518
  C  C102  1  0.167600  0.617300  0.063300  1.0  0.7612
  C  C103  1  0.031800  0.674200  0.841400  1.0  -0.1925
  C  C104  1  0.195600  0.678100  0.020100  1.0  -0.1812
  C  C105  1  0.006500  0.739500  0.788200  1.0  -0.0631
  C  C106  1  0.235100  0.660800  0.030900  1.0  -0.0439
  C  C107  1  0.064800  0.792400  0.754100  1.0  -0.1444
  C  C108  1  0.026600  0.804400  0.738900  1.0  -0.0644
  C  C109  1  0.227700  0.789000  0.926700  1.0  -0.2017
  C  C110  1  0.252600  0.722600  0.975700  1.0  -0.0443
  C  C111  1  0.095000  0.846100  0.714500  1.0  0.7446
  C  C112  1  0.235700  0.857800  0.859600  1.0  0.7766
  C  C113  1  0.128900  0.824000  0.517600  1.0  0.7933
  C  C114  1  0.125800  0.140700  0.733300  1.0  0.7935
  C  C115  1  0.015700  0.072300  0.395300  1.0  0.7632
  C  C116  1  0.164200  0.119900  0.546200  1.0  0.7682
  C  C117  1  0.131800  0.743100  0.451800  1.0  -0.1849
  C  C118  1  0.122700  0.223600  0.799300  1.0  -0.2134
  C  C119  1  0.022500  0.144400  0.327300  1.0  -0.1843
  C  C120  1  0.191800  0.187700  0.507600  1.0  -0.2003
  C  C121  1  0.157500  0.661300  0.448900  1.0  -0.058
  C  C122  1  0.097100  0.312200  0.799600  1.0  -0.0408
  C  C123  1  0.994200  0.186800  0.269000  1.0  -0.0914
  C  C124  1  0.231500  0.198400  0.526400  1.0  -0.0746
  C  C125  1  0.124300  0.643500  0.324500  1.0  -0.1459
  C  C126  1  0.154500  0.601000  0.376700  1.0  -0.1022
  C  C127  1  0.124200  0.311500  0.929200  1.0  -0.1943
  C  C128  1  0.098300  0.363100  0.872800  1.0  -0.0308
  C  C129  1  0.049100  0.259600  0.230500  1.0  -0.1944
  C  C130  1  0.009900  0.259500  0.215500  1.0  -0.0979
  C  C131  1  0.221000  0.309200  0.414300  1.0  -0.2018
  C  C132  1  0.247500  0.261000  0.472400  1.0  -0.0447
  C  C133  1  0.112500  0.609500  0.241200  1.0  0.7074
  C  C134  1  0.132800  0.336800  0.014300  1.0  0.7785
  C  C135  1  0.075800  0.324400  0.186500  1.0  0.7994
  C  C136  1  0.226600  0.378900  0.346500  1.0  0.737
  C  C137  1  0.478400  0.095900  0.096700  1.0  0.7519
  C  C138  1  0.332400  0.117300  0.936700  1.0  0.7612
  C  C139  1  0.468200  0.174200  0.158600  1.0  -0.1969
  C  C140  1  0.304400  0.178100  0.979900  1.0  -0.1808
  C  C141  1  0.493500  0.239500  0.211800  1.0  -0.063
  C  C142  1  0.264900  0.160800  0.969100  1.0  -0.0447
  C  C143  1  0.435200  0.292400  0.245900  1.0  -0.147
  C  C144  1  0.473400  0.304400  0.261100  1.0  -0.0658
  C  C145  1  0.272300  0.289000  0.073300  1.0  -0.1981
  C  C146  1  0.247400  0.222600  0.024300  1.0  -0.0451
  C  C147  1  0.405000  0.346100  0.285500  1.0  0.7515
  C  C148  1  0.264300  0.357800  0.140400  1.0  0.7707
  C  C149  1  0.371100  0.324000  0.482400  1.0  0.7928
  C  C150  1  0.374200  0.640700  0.266700  1.0  0.7933
  C  C151  1  0.484300  0.572300  0.604700  1.0  0.7635
  C  C152  1  0.335800  0.619900  0.453800  1.0  0.7657
  C  C153  1  0.368200  0.243100  0.548200  1.0  -0.1879
  C  C154  1  0.377300  0.723600  0.200700  1.0  -0.2145
  C  C155  1  0.477500  0.644400  0.672700  1.0  -0.1885
  C  C156  1  0.308200  0.687700  0.492400  1.0  -0.201
  C  C157  1  0.342500  0.161300  0.551100  1.0  -0.0581
  C  C158  1  0.402900  0.812200  0.200400  1.0  -0.0424
  C  C159  1  0.505800  0.686800  0.731000  1.0  -0.0912
  C  C160  1  0.268500  0.698400  0.473600  1.0  -0.0734
  C  C161  1  0.375700  0.143500  0.675500  1.0  -0.1471
  C  C162  1  0.345500  0.101000  0.623300  1.0  -0.1029
  C  C163  1  0.375800  0.811500  0.070800  1.0  -0.1961
  C  C164  1  0.401700  0.863100  0.127200  1.0  -0.0307
  C  C165  1  0.450900  0.759600  0.769500  1.0  -0.1956
  C  C166  1  0.490100  0.759500  0.784500  1.0  -0.0968
  C  C167  1  0.279000  0.809200  0.585700  1.0  -0.2005
  C  C168  1  0.252500  0.761000  0.527600  1.0  -0.0449
  C  C169  1  0.387500  0.109500  0.758800  1.0  0.7029
  C  C170  1  0.367200  0.836800  0.985700  1.0  0.7885
  C  C171  1  0.424200  0.824400  0.813500  1.0  0.8003
  C  C172  1  0.273400  0.878900  0.653500  1.0  0.7363
  C  C173  1  0.978400  0.595900  0.096700  1.0  0.7519
  C  C174  1  0.832400  0.617300  0.936700  1.0  0.7612
  C  C175  1  0.968200  0.674200  0.158600  1.0  -0.1971
  C  C176  1  0.804400  0.678100  0.979900  1.0  -0.1808
  C  C177  1  0.993500  0.739500  0.211800  1.0  -0.063
  C  C178  1  0.764900  0.660800  0.969100  1.0  -0.0447
  C  C179  1  0.935200  0.792400  0.245900  1.0  -0.147
  C  C180  1  0.973400  0.804400  0.261100  1.0  -0.0634
  C  C181  1  0.772300  0.789000  0.073300  1.0  -0.1981
  C  C182  1  0.747400  0.722600  0.024300  1.0  -0.0451
  C  C183  1  0.905000  0.846100  0.285500  1.0  0.7515
  C  C184  1  0.764300  0.857800  0.140400  1.0  0.7707
  C  C185  1  0.871100  0.824000  0.482400  1.0  0.7928
  C  C186  1  0.874200  0.140700  0.266700  1.0  0.7933
  C  C187  1  0.984300  0.072300  0.604700  1.0  0.7635
  C  C188  1  0.835800  0.119900  0.453800  1.0  0.7657
  C  C189  1  0.868200  0.743100  0.548200  1.0  -0.1879
  C  C190  1  0.877300  0.223600  0.200700  1.0  -0.2145
  C  C191  1  0.977500  0.144400  0.672700  1.0  -0.1883
  C  C192  1  0.808200  0.187700  0.492400  1.0  -0.201
  C  C193  1  0.842500  0.661300  0.551100  1.0  -0.0581
  C  C194  1  0.902900  0.312200  0.200400  1.0  -0.0424
  C  C195  1  0.005800  0.186800  0.731000  1.0  -0.0915
  C  C196  1  0.768500  0.198400  0.473600  1.0  -0.0734
  C  C197  1  0.875700  0.643500  0.675500  1.0  -0.1471
  C  C198  1  0.845500  0.601000  0.623300  1.0  -0.1029
  C  C199  1  0.875800  0.311500  0.070800  1.0  -0.1961
  C  C200  1  0.901700  0.363100  0.127200  1.0  -0.0307
  C  C201  1  0.950900  0.259600  0.769500  1.0  -0.1956
  C  C202  1  0.990100  0.259500  0.784500  1.0  -0.0968
  C  C203  1  0.779000  0.309200  0.585700  1.0  -0.2005
  C  C204  1  0.752500  0.261000  0.527600  1.0  -0.0449
  C  C205  1  0.887500  0.609500  0.758800  1.0  0.7029
  C  C206  1  0.867200  0.336800  0.985700  1.0  0.7885
  C  C207  1  0.924200  0.324400  0.813500  1.0  0.8003
  C  C208  1  0.773400  0.378900  0.653500  1.0  0.7363
  S  S209  1  0.578440  0.197100  0.830080  1.0  0.1641
  S  S210  1  0.680580  0.271500  0.943790  1.0  0.1504
  S  S211  1  0.600380  0.253300  0.364010  1.0  0.1493
  S  S212  1  0.648220  0.700000  0.890810  1.0  0.1694
  S  S213  1  0.567840  0.683500  0.313650  1.0  0.1546
  S  S214  1  0.674970  0.765800  0.424330  1.0  0.1558
  S  S215  1  0.078440  0.697100  0.830080  1.0  0.1641
  S  S216  1  0.180580  0.771500  0.943790  1.0  0.1504
  S  S217  1  0.100380  0.753300  0.364010  1.0  0.1493
  S  S218  1  0.148220  0.200000  0.890810  1.0  0.1694
  S  S219  1  0.067840  0.183500  0.313650  1.0  0.1546
  S  S220  1  0.174970  0.265800  0.424330  1.0  0.1558
  S  S221  1  0.421560  0.197100  0.169920  1.0  0.1659
  S  S222  1  0.319420  0.271500  0.056210  1.0  0.1421
  S  S223  1  0.399620  0.253300  0.635990  1.0  0.1393
  S  S224  1  0.351780  0.700000  0.109190  1.0  0.1757
  S  S225  1  0.432160  0.683500  0.686350  1.0  0.1608
  S  S226  1  0.325030  0.765800  0.575670  1.0  0.1486
  S  S227  1  0.921560  0.697100  0.169920  1.0  0.1659
  S  S228  1  0.819420  0.771500  0.056210  1.0  0.1421
  S  S229  1  0.899620  0.753300  0.635990  1.0  0.1393
  S  S230  1  0.851780  0.200000  0.109190  1.0  0.1757
  S  S231  1  0.932160  0.183500  0.686350  1.0  0.1608
  S  S232  1  0.825030  0.265800  0.575670  1.0  0.1486
  O  O233  1  0.549680  0.050900  0.949800  1.0  -0.6768
  O  O234  1  0.633200  0.150200  0.051900  1.0  -0.7062
  O  O235  1  0.512970  0.080000  0.091800  1.0  -0.7431
  O  O236  1  0.584000  0.159700  0.201100  1.0  -0.613
  O  O237  1  0.629300  0.029000  0.211800  1.0  -0.8126
  O  O238  1  0.614800  0.918700  0.040800  1.0  -0.8075
  O  O239  1  0.560100  0.897800  0.139100  1.0  -0.6922
  O  O240  1  0.683000  0.038200  0.108400  1.0  -0.7364
  O  O241  1  0.729800  0.854000  0.154800  1.0  -0.7456
  O  O242  1  0.657200  0.778800  0.055100  1.0  -0.6628
  O  O243  1  0.610500  0.800600  0.199500  1.0  -0.7573
  O  O244  1  0.697600  0.905400  0.299300  1.0  -0.6088
  O  O245  1  0.583700  0.417800  0.659600  1.0  -0.7325
  O  O246  1  0.629400  0.321500  0.738600  1.0  -0.6186
  O  O247  1  0.709000  0.407800  0.817800  1.0  -0.6484
  O  O248  1  0.600300  0.391600  0.508700  1.0  -0.6875
  O  O249  1  0.602400  0.656600  0.671100  1.0  -0.696
  O  O250  1  0.544900  0.532300  0.439500  1.0  -0.6767
  O  O251  1  0.629600  0.625500  0.517600  1.0  -0.6018
  O  O252  1  0.517900  0.547800  0.598200  1.0  -0.7282
  O  O253  1  0.654300  0.321000  0.574900  1.0  -0.7267
  O  O254  1  0.651100  0.566000  0.746800  1.0  -0.7149
  O  O255  1  0.678100  0.559000  0.604200  1.0  -0.7061
  O  O256  1  0.738500  0.410100  0.656200  1.0  -0.7166
  O  O257  1  0.049680  0.550900  0.949800  1.0  -0.6788
  O  O258  1  0.133200  0.650200  0.051900  1.0  -0.7062
  O  O259  1  0.012970  0.580000  0.091800  1.0  -0.7431
  O  O260  1  0.084000  0.659700  0.201100  1.0  -0.613
  O  O261  1  0.129300  0.529000  0.211800  1.0  -0.8126
  O  O262  1  0.114800  0.418700  0.040800  1.0  -0.8075
  O  O263  1  0.060100  0.397800  0.139100  1.0  -0.6923
  O  O264  1  0.183000  0.538200  0.108400  1.0  -0.7364
  O  O265  1  0.229800  0.354000  0.154800  1.0  -0.7456
  O  O266  1  0.157200  0.278800  0.055100  1.0  -0.6628
  O  O267  1  0.110500  0.300600  0.199500  1.0  -0.7573
  O  O268  1  0.197600  0.405400  0.299300  1.0  -0.6088
  O  O269  1  0.083700  0.917800  0.659600  1.0  -0.7325
  O  O270  1  0.129400  0.821500  0.738600  1.0  -0.6186
  O  O271  1  0.209000  0.907800  0.817800  1.0  -0.6484
  O  O272  1  0.100300  0.891600  0.508700  1.0  -0.687
  O  O273  1  0.102400  0.156600  0.671100  1.0  -0.696
  O  O274  1  0.044900  0.032300  0.439500  1.0  -0.677
  O  O275  1  0.129600  0.125500  0.517600  1.0  -0.6014
  O  O276  1  0.017900  0.047800  0.598200  1.0  -0.7282
  O  O277  1  0.154300  0.821000  0.574900  1.0  -0.7267
  O  O278  1  0.151100  0.066000  0.746800  1.0  -0.7149
  O  O279  1  0.178100  0.059000  0.604200  1.0  -0.7061
  O  O280  1  0.238500  0.910100  0.656200  1.0  -0.7166
  O  O281  1  0.450320  0.050900  0.050200  1.0  -0.6731
  O  O282  1  0.366800  0.150200  0.948100  1.0  -0.7113
  O  O283  1  0.487030  0.080000  0.908200  1.0  -0.7426
  O  O284  1  0.416000  0.159700  0.798900  1.0  -0.6135
  O  O285  1  0.370700  0.029000  0.788200  1.0  -0.8169
  O  O286  1  0.385200  0.918700  0.959200  1.0  -0.8084
  O  O287  1  0.439900  0.897800  0.860900  1.0  -0.691
  O  O288  1  0.317000  0.038200  0.891600  1.0  -0.7365
  O  O289  1  0.270200  0.854000  0.845200  1.0  -0.7462
  O  O290  1  0.342800  0.778800  0.944900  1.0  -0.6635
  O  O291  1  0.389500  0.800600  0.800500  1.0  -0.7563
  O  O292  1  0.302400  0.905400  0.700700  1.0  -0.6092
  O  O293  1  0.416300  0.417800  0.340400  1.0  -0.7366
  O  O294  1  0.370600  0.321500  0.261400  1.0  -0.6193
  O  O295  1  0.291000  0.407800  0.182200  1.0  -0.6495
  O  O296  1  0.399700  0.391600  0.491300  1.0  -0.6891
  O  O297  1  0.397600  0.656600  0.328900  1.0  -0.6971
  O  O298  1  0.455100  0.532300  0.560500  1.0  -0.6757
  O  O299  1  0.370400  0.625500  0.482400  1.0  -0.6014
  O  O300  1  0.482100  0.547800  0.401800  1.0  -0.7259
  O  O301  1  0.345700  0.321000  0.425100  1.0  -0.7256
  O  O302  1  0.348900  0.566000  0.253200  1.0  -0.7155
  O  O303  1  0.321900  0.559000  0.395800  1.0  -0.7062
  O  O304  1  0.261500  0.410100  0.343800  1.0  -0.717
  O  O305  1  0.950320  0.550900  0.050200  1.0  -0.6731
  O  O306  1  0.866800  0.650200  0.948100  1.0  -0.7113
  O  O307  1  0.987030  0.580000  0.908200  1.0  -0.7426
  O  O308  1  0.916000  0.659700  0.798900  1.0  -0.6135
  O  O309  1  0.870700  0.529000  0.788200  1.0  -0.8169
  O  O310  1  0.885200  0.418700  0.959200  1.0  -0.8084
  O  O311  1  0.939900  0.397800  0.860900  1.0  -0.691
  O  O312  1  0.817000  0.538200  0.891600  1.0  -0.7365
  O  O313  1  0.770200  0.354000  0.845200  1.0  -0.7462
  O  O314  1  0.842800  0.278800  0.944900  1.0  -0.6635
  O  O315  1  0.889500  0.300600  0.800500  1.0  -0.7563
  O  O316  1  0.802400  0.405400  0.700700  1.0  -0.6092
  O  O317  1  0.916300  0.917800  0.340400  1.0  -0.7366
  O  O318  1  0.870600  0.821500  0.261400  1.0  -0.6193
  O  O319  1  0.791000  0.907800  0.182200  1.0  -0.6495
  O  O320  1  0.899700  0.891600  0.491300  1.0  -0.6887
  O  O321  1  0.897600  0.156600  0.328900  1.0  -0.6971
  O  O322  1  0.955100  0.032300  0.560500  1.0  -0.6757
  O  O323  1  0.870400  0.125500  0.482400  1.0  -0.6012
  O  O324  1  0.982100  0.047800  0.401800  1.0  -0.7259
  O  O325  1  0.845700  0.821000  0.425100  1.0  -0.7256
  O  O326  1  0.848900  0.066000  0.253200  1.0  -0.7155
  O  O327  1  0.821900  0.059000  0.395800  1.0  -0.7062
  O  O328  1  0.761500  0.910100  0.343800  1.0  -0.717
