# generated using pymatgen
data_Mg3Si2H32(C7O2)8
_symmetry_space_group_name_H-M   'P 1'
_cell_length_a   12.72790000
_cell_length_b   14.53310000
_cell_length_c   23.28120000
_cell_angle_alpha   99.81500000
_cell_angle_beta   92.60100000
_cell_angle_gamma   97.07100000
_symmetry_Int_Tables_number   1
_chemical_formula_structural   Mg3Si2H32(C7O2)8
_chemical_formula_sum   'Mg6 Si4 H64 C112 O32'
_cell_volume   4201.44406248
_cell_formula_units_Z   2
loop_
 _symmetry_equiv_pos_site_id
 _symmetry_equiv_pos_as_xyz
  1  'x, y, z'
loop_
 _atom_site_type_symbol
 _atom_site_label
 _atom_site_symmetry_multiplicity
 _atom_site_fract_x
 _atom_site_fract_y
 _atom_site_fract_z
 _atom_site_occupancy
 _atom_site_charge
  Mg  Mg1  1  0.495490  0.698080  0.608620  1.0  1.5266
  Mg  Mg2  1  0.941340  0.312080  0.074480  1.0  1.5799
  Mg  Mg3  1  0.504510  0.301920  0.391380  1.0  1.5298
  Mg  Mg4  1  0.058660  0.687920  0.925520  1.0  1.5815
  Mg  Mg5  1  0.500000  0.500000  0.500000  1.0  1.5457
  Mg  Mg6  1  0.000000  0.500000  0.000000  1.0  1.5447
  Si  Si7  1  0.973040  0.776080  0.366690  1.0  0.8797
  Si  Si8  1  0.601070  0.754800  0.187470  1.0  0.8867
  Si  Si9  1  0.026960  0.223920  0.633310  1.0  0.8797
  Si  Si10  1  0.398930  0.245200  0.812530  1.0  0.8861
  H  H11  1  0.866700  0.622000  0.412000  1.0  0.0884
  H  H12  1  0.729300  0.593600  0.473900  1.0  0.1208
  H  H13  1  0.666300  0.862100  0.476000  1.0  0.1151
  H  H14  1  0.803000  0.886200  0.415300  1.0  0.0969
  H  H15  1  0.835200  0.608300  0.306200  1.0  0.0748
  H  H16  1  0.830600  0.504300  0.220400  1.0  0.1125
  H  H17  1  0.060200  0.678600  0.164600  1.0  0.0995
  H  H18  1  0.070500  0.780100  0.254500  1.0  0.0951
  H  H19  1  0.161400  0.679000  0.340200  1.0  0.0889
  H  H20  1  0.287600  0.620200  0.392900  1.0  0.1048
  H  H21  1  0.166300  0.730800  0.542500  1.0  0.1038
  H  H22  1  0.032000  0.777200  0.489400  1.0  0.083
  H  H23  1  0.935000  0.900900  0.282500  1.0  0.0945
  H  H24  1  0.973300  0.062400  0.282000  1.0  0.1097
  H  H25  1  0.121700  0.100200  0.443600  1.0  0.0955
  H  H26  1  0.083300  0.938700  0.444100  1.0  0.0931
  H  H27  1  0.535200  0.767200  0.307000  1.0  0.0896
  H  H28  1  0.518500  0.671400  0.375600  1.0  0.1078
  H  H29  1  0.610500  0.462300  0.262200  1.0  0.1091
  H  H30  1  0.630600  0.558100  0.193700  1.0  0.0859
  H  H31  1  0.662300  0.604900  0.104600  1.0  0.1021
  H  H32  1  0.791900  0.585300  0.037000  1.0  0.1085
  H  H33  1  0.922200  0.855200  0.092400  1.0  0.112
  H  H34  1  0.795500  0.872100  0.163400  1.0  0.0912
  H  H35  1  0.391700  0.641000  0.183100  1.0  0.1011
  H  H36  1  0.250500  0.593200  0.113600  1.0  0.0952
  H  H37  1  0.378600  0.763800  0.013200  1.0  0.0962
  H  H38  1  0.528500  0.803800  0.077400  1.0  0.1019
  H  H39  1  0.738400  0.865300  0.284400  1.0  0.0842
  H  H40  1  0.748500  0.008200  0.343600  1.0  0.1055
  H  H41  1  0.503200  0.071000  0.249100  1.0  0.1141
  H  H42  1  0.492600  0.927400  0.187900  1.0  0.0961
  H  H43  1  0.133300  0.378000  0.588000  1.0  0.0884
  H  H44  1  0.270700  0.406400  0.526100  1.0  0.1223
  H  H45  1  0.333700  0.137900  0.524000  1.0  0.1148
  H  H46  1  0.197000  0.113800  0.584700  1.0  0.0971
  H  H47  1  0.164800  0.391700  0.693800  1.0  0.0748
  H  H48  1  0.169400  0.495700  0.779600  1.0  0.113
  H  H49  1  0.939800  0.321400  0.835400  1.0  0.0997
  H  H50  1  0.929500  0.219900  0.745500  1.0  0.0948
  H  H51  1  0.838600  0.321000  0.659800  1.0  0.0888
  H  H52  1  0.712400  0.379800  0.607100  1.0  0.105
  H  H53  1  0.833700  0.269200  0.457500  1.0  0.1033
  H  H54  1  0.968000  0.222800  0.510600  1.0  0.0823
  H  H55  1  0.065000  0.099100  0.717500  1.0  0.0947
  H  H56  1  0.026700  0.937600  0.718000  1.0  0.1096
  H  H57  1  0.878300  0.899800  0.556400  1.0  0.0954
  H  H58  1  0.916700  0.061300  0.555900  1.0  0.0927
  H  H59  1  0.464800  0.232800  0.693000  1.0  0.0894
  H  H60  1  0.481500  0.328600  0.624400  1.0  0.1087
  H  H61  1  0.389500  0.537700  0.737800  1.0  0.1091
  H  H62  1  0.369400  0.441900  0.806300  1.0  0.0866
  H  H63  1  0.337700  0.395100  0.895400  1.0  0.1008
  H  H64  1  0.208100  0.414700  0.963000  1.0  0.1082
  H  H65  1  0.077800  0.144800  0.907600  1.0  0.1103
  H  H66  1  0.204500  0.127900  0.836600  1.0  0.0912
  H  H67  1  0.608300  0.359000  0.816900  1.0  0.1008
  H  H68  1  0.749500  0.406800  0.886400  1.0  0.0951
  H  H69  1  0.621400  0.236200  0.986800  1.0  0.0963
  H  H70  1  0.471500  0.196200  0.922600  1.0  0.1024
  H  H71  1  0.261600  0.134700  0.715600  1.0  0.0844
  H  H72  1  0.251500  0.991800  0.656400  1.0  0.1058
  H  H73  1  0.496800  0.929000  0.750900  1.0  0.1137
  H  H74  1  0.507400  0.072600  0.812100  1.0  0.0966
  C  C75  1  0.852400  0.756400  0.409300  1.0  -0.3034
  C  C76  1  0.827000  0.671500  0.425900  1.0  -0.0293
  C  C77  1  0.745200  0.653300  0.462500  1.0  -0.0565
  C  C78  1  0.687200  0.729700  0.481800  1.0  -0.1168
  C  C79  1  0.707800  0.813100  0.463900  1.0  -0.0729
  C  C80  1  0.789300  0.827200  0.427800  1.0  -0.0312
  C  C81  1  0.605000  0.714100  0.525700  1.0  0.7
  C  C82  1  0.956100  0.703500  0.292000  1.0  -0.3276
  C  C83  1  0.884300  0.621900  0.278200  1.0  -0.0211
  C  C84  1  0.880100  0.560200  0.226800  1.0  -0.1165
  C  C85  1  0.946600  0.578100  0.184100  1.0  -0.1211
  C  C86  1  0.016300  0.662800  0.194300  1.0  -0.0664
  C  C87  1  0.021600  0.723800  0.247900  1.0  -0.0362
  C  C88  1  0.949300  0.509900  0.129500  1.0  0.7511
  C  C89  1  0.082100  0.735500  0.408200  1.0  -0.3273
  C  C90  1  0.160300  0.688100  0.381500  1.0  -0.0237
  C  C91  1  0.236700  0.653700  0.413000  1.0  -0.0968
  C  C92  1  0.240000  0.667500  0.474500  1.0  -0.0965
  C  C93  1  0.164100  0.717100  0.501100  1.0  -0.0772
  C  C94  1  0.085500  0.747300  0.469300  1.0  -0.0227
  C  C95  1  0.324400  0.634900  0.507900  1.0  0.7192
  C  C96  1  0.005500  0.904600  0.363300  1.0  -0.3431
  C  C97  1  0.972900  0.941400  0.315200  1.0  -0.019
  C  C98  1  0.995700  0.037300  0.314900  1.0  -0.0544
  C  C99  1  0.051100  0.096500  0.362700  1.0  -0.123
  C  C100  1  0.083800  0.059700  0.410900  1.0  -0.0427
  C  C101  1  0.061000  0.963800  0.411200  1.0  -0.0037
  C  C102  1  0.077200  0.197800  0.360400  1.0  0.5943
  C  C103  1  0.589500  0.676100  0.242200  1.0  -0.2771
  C  C104  1  0.552900  0.705100  0.297600  1.0  -0.0369
  C  C105  1  0.541800  0.648200  0.338300  1.0  -0.0757
  C  C106  1  0.564100  0.557200  0.325500  1.0  -0.1334
  C  C107  1  0.596200  0.525500  0.271700  1.0  -0.0732
  C  C108  1  0.608400  0.582900  0.231000  1.0  -0.0373
  C  C109  1  0.546500  0.492900  0.368300  1.0  0.7332
  C  C110  1  0.714600  0.741500  0.140400  1.0  -0.3181
  C  C111  1  0.715200  0.656300  0.102500  1.0  -0.0311
  C  C112  1  0.791400  0.644500  0.061700  1.0  -0.0726
  C  C113  1  0.867300  0.720900  0.057600  1.0  -0.11
  C  C114  1  0.869400  0.803900  0.094700  1.0  -0.0718
  C  C115  1  0.792700  0.814100  0.137000  1.0  -0.0207
  C  C116  1  0.942700  0.706700  0.008600  1.0  0.6768
  C  C117  1  0.477500  0.725900  0.136400  1.0  -0.2903
  C  C118  1  0.392100  0.664600  0.147500  1.0  -0.0541
  C  C119  1  0.307100  0.637800  0.106300  1.0  -0.0487
  C  C120  1  0.301500  0.672900  0.055800  1.0  -0.1087
  C  C121  1  0.382100  0.735700  0.047100  1.0  -0.0697
  C  C122  1  0.471200  0.761100  0.086100  1.0  -0.0435
  C  C123  1  0.206000  0.641200  0.012800  1.0  0.7402
  C  C124  1  0.614400  0.878600  0.228800  1.0  -0.3323
  C  C125  1  0.689600  0.907100  0.276900  1.0  -0.0186
  C  C126  1  0.695000  0.990500  0.312500  1.0  -0.0898
  C  C127  1  0.624000  0.049100  0.303700  1.0  -0.1168
  C  C128  1  0.549800  0.027300  0.256200  1.0  -0.071
  C  C129  1  0.544500  0.943000  0.219900  1.0  -0.015
  C  C130  1  0.621800  0.139400  0.346100  1.0  0.683
  C  C131  1  0.147600  0.243600  0.590700  1.0  -0.3065
  C  C132  1  0.173000  0.328500  0.574100  1.0  -0.0308
  C  C133  1  0.254800  0.346700  0.537500  1.0  -0.0562
  C  C134  1  0.312800  0.270300  0.518200  1.0  -0.1172
  C  C135  1  0.292200  0.186900  0.536100  1.0  -0.0729
  C  C136  1  0.210700  0.172800  0.572200  1.0  -0.0313
  C  C137  1  0.395000  0.285900  0.474300  1.0  0.6981
  C  C138  1  0.043900  0.296500  0.708000  1.0  -0.3257
  C  C139  1  0.115700  0.378100  0.721800  1.0  -0.0214
  C  C140  1  0.119900  0.439800  0.773200  1.0  -0.1054
  C  C141  1  0.053400  0.421900  0.815900  1.0  -0.1198
  C  C142  1  0.983700  0.337200  0.805700  1.0  -0.0646
  C  C143  1  0.978400  0.276200  0.752100  1.0  -0.036
  C  C144  1  0.050700  0.490100  0.870500  1.0  0.7565
  C  C145  1  0.917900  0.264500  0.591800  1.0  -0.3278
  C  C146  1  0.839700  0.311900  0.618500  1.0  -0.022
  C  C147  1  0.763300  0.346300  0.587000  1.0  -0.0948
  C  C148  1  0.760000  0.332500  0.525500  1.0  -0.0957
  C  C149  1  0.835900  0.282900  0.498900  1.0  -0.0778
  C  C150  1  0.914500  0.252700  0.530700  1.0  -0.0222
  C  C151  1  0.675600  0.365100  0.492100  1.0  0.7187
  C  C152  1  0.994500  0.095400  0.636700  1.0  -0.3419
  C  C153  1  0.027100  0.058600  0.684800  1.0  -0.0208
  C  C154  1  0.004300  0.962700  0.685100  1.0  -0.0562
  C  C155  1  0.948900  0.903500  0.637300  1.0  -0.1245
  C  C156  1  0.916200  0.940300  0.589100  1.0  -0.0433
  C  C157  1  0.939000  0.036200  0.588800  1.0  -0.0022
  C  C158  1  0.922800  0.802200  0.639600  1.0  0.5953
  C  C159  1  0.410500  0.323900  0.757800  1.0  -0.29
  C  C160  1  0.447100  0.294900  0.702400  1.0  -0.0362
  C  C161  1  0.458200  0.351800  0.661700  1.0  -0.0779
  C  C162  1  0.435900  0.442800  0.674500  1.0  -0.1341
  C  C163  1  0.403800  0.474500  0.728300  1.0  -0.071
  C  C164  1  0.391600  0.417100  0.769000  1.0  -0.0353
  C  C165  1  0.453500  0.507100  0.631700  1.0  0.7356
  C  C166  1  0.285400  0.258500  0.859600  1.0  -0.318
  C  C167  1  0.284800  0.343700  0.897500  1.0  -0.0331
  C  C168  1  0.208600  0.355500  0.938300  1.0  -0.0725
  C  C169  1  0.132700  0.279100  0.942400  1.0  -0.1117
  C  C170  1  0.130600  0.196100  0.905300  1.0  -0.0706
  C  C171  1  0.207300  0.185900  0.863000  1.0  -0.0211
  C  C172  1  0.057300  0.293300  0.991400  1.0  0.677
  C  C173  1  0.522500  0.274100  0.863600  1.0  -0.2928
  C  C174  1  0.607900  0.335400  0.852500  1.0  -0.0545
  C  C175  1  0.692900  0.362200  0.893700  1.0  -0.0516
  C  C176  1  0.698500  0.327100  0.944200  1.0  -0.1072
  C  C177  1  0.617900  0.264300  0.952900  1.0  -0.0706
  C  C178  1  0.528800  0.238900  0.913900  1.0  -0.0376
  C  C179  1  0.794000  0.358800  0.987200  1.0  0.7405
  C  C180  1  0.385600  0.121400  0.771200  1.0  -0.3326
  C  C181  1  0.310400  0.092900  0.723100  1.0  -0.018
  C  C182  1  0.305000  0.009500  0.687500  1.0  -0.0907
  C  C183  1  0.376000  0.950900  0.696300  1.0  -0.1165
  C  C184  1  0.450200  0.972700  0.743800  1.0  -0.0717
  C  C185  1  0.455500  0.057000  0.780100  1.0  -0.013
  C  C186  1  0.378200  0.860600  0.653900  1.0  0.6845
  O  O187  1  0.577100  0.633800  0.537490  1.0  -0.7671
  O  O188  1  0.570000  0.784500  0.552820  1.0  -0.6314
  O  O189  1  0.911500  0.425800  0.128790  1.0  -0.7686
  O  O190  1  0.991300  0.540500  0.087020  1.0  -0.6769
  O  O191  1  0.357000  0.560300  0.488280  1.0  -0.6051
  O  O192  1  0.357200  0.686700  0.556030  1.0  -0.5996
  O  O193  1  0.054700  0.229500  0.316900  1.0  -0.4326
  O  O194  1  0.131500  0.251000  0.407400  1.0  -0.3846
  O  O195  1  0.526800  0.527700  0.420120  1.0  -0.7084
  O  O196  1  0.554400  0.406600  0.352120  1.0  -0.7066
  O  O197  1  0.957000  0.626100  0.983590  1.0  -0.7961
  O  O198  1  0.987000  0.781800  0.993000  1.0  -0.6731
  O  O199  1  0.154300  0.562500  0.014560  1.0  -0.6722
  O  O200  1  0.188500  0.697700  0.979630  1.0  -0.6738
  O  O201  1  0.688700  0.155900  0.392290  1.0  -0.3929
  O  O202  1  0.559600  0.194600  0.337660  1.0  -0.6355
  O  O203  1  0.422900  0.366200  0.462510  1.0  -0.7692
  O  O204  1  0.430000  0.215500  0.447180  1.0  -0.6312
  O  O205  1  0.088500  0.574200  0.871210  1.0  -0.7669
  O  O206  1  0.008700  0.459500  0.912980  1.0  -0.6769
  O  O207  1  0.643000  0.439700  0.511720  1.0  -0.6046
  O  O208  1  0.642800  0.313300  0.443970  1.0  -0.5972
  O  O209  1  0.945300  0.770500  0.683100  1.0  -0.4299
  O  O210  1  0.868500  0.749000  0.592600  1.0  -0.3823
  O  O211  1  0.473200  0.472300  0.579880  1.0  -0.7094
  O  O212  1  0.445600  0.593400  0.647880  1.0  -0.71
  O  O213  1  0.043000  0.373900  0.016410  1.0  -0.7816
  O  O214  1  0.013000  0.218200  0.007000  1.0  -0.6811
  O  O215  1  0.845700  0.437500  0.985440  1.0  -0.6734
  O  O216  1  0.811500  0.302300  0.020370  1.0  -0.7186
  O  O217  1  0.311300  0.844100  0.607710  1.0  -0.4155
  O  O218  1  0.440400  0.805400  0.662340  1.0  -0.6341
