# generated using pymatgen
data_Ca3Si2H34(C7O2)8
_symmetry_space_group_name_H-M   'P 1'
_cell_length_a   13.66910000
_cell_length_b   14.56900000
_cell_length_c   23.68740000
_cell_angle_alpha   90.00000000
_cell_angle_beta   90.00000000
_cell_angle_gamma   114.93900000
_symmetry_Int_Tables_number   1
_chemical_formula_structural   Ca3Si2H34(C7O2)8
_chemical_formula_sum   'Ca6 Si4 H68 C112 O32'
_cell_volume   4277.38239315
_cell_formula_units_Z   2
loop_
 _symmetry_equiv_pos_site_id
 _symmetry_equiv_pos_as_xyz
  1  'x, y, z'
loop_
 _atom_site_type_symbol
 _atom_site_label
 _atom_site_symmetry_multiplicity
 _atom_site_fract_x
 _atom_site_fract_y
 _atom_site_fract_z
 _atom_site_occupancy
 _atom_site_charge
  Ca  Ca1  1  0.015770  0.001320  0.656860  1.0  1.559
  Ca  Ca2  1  0.984230  0.498680  0.156860  1.0  1.5596
  Ca  Ca3  1  0.984230  0.998680  0.343140  1.0  1.5583
  Ca  Ca4  1  0.015770  0.501320  0.843140  1.0  1.5581
  Ca  Ca5  1  0.000000  0.000000  0.500000  1.0  1.5842
  Ca  Ca6  1  0.000000  0.500000  0.000000  1.0  1.5842
  Si  Si7  1  0.706840  0.379590  0.509110  1.0  0.8797
  Si  Si8  1  0.293160  0.120410  0.009110  1.0  0.8797
  Si  Si9  1  0.293160  0.620410  0.490890  1.0  0.8799
  Si  Si10  1  0.706840  0.879590  0.990890  1.0  0.8798
  H  H11  1  0.874000  0.417400  0.599700  1.0  0.089
  H  H12  1  0.967600  0.327600  0.634600  1.0  0.1065
  H  H13  1  0.819100  0.106300  0.519700  1.0  0.1087
  H  H14  1  0.726100  0.196000  0.485100  1.0  0.0899
  H  H15  1  0.589100  0.207500  0.583600  1.0  0.0872
  H  H16  1  0.409900  0.114000  0.610300  1.0  0.1104
  H  H17  1  0.319300  0.287100  0.507700  1.0  0.0966
  H  H18  1  0.499400  0.388500  0.487600  1.0  0.0843
  H  H19  1  0.887900  0.571300  0.480200  1.0  0.0745
  H  H20  1  0.959800  0.736700  0.513100  1.0  0.0935
  H  H21  1  0.718200  0.660400  0.626900  1.0  0.1098
  H  H22  1  0.645900  0.494300  0.593400  1.0  0.0893
  H  H23  1  0.564200  0.319900  0.405800  1.0  0.0883
  H  H24  1  0.595300  0.326900  0.308400  1.0  0.1115
  H  H25  1  0.916700  0.437000  0.337200  1.0  0.1091
  H  H26  1  0.885300  0.426100  0.433900  1.0  0.089
  H  H27  1  0.729000  0.377000  0.182400  1.0  0.401
  H  H28  1  0.126000  0.082600  0.099700  1.0  0.089
  H  H29  1  0.032400  0.172400  0.134600  1.0  0.1064
  H  H30  1  0.180900  0.393700  0.019700  1.0  0.109
  H  H31  1  0.273900  0.304000  0.985100  1.0  0.09
  H  H32  1  0.410900  0.292500  0.083600  1.0  0.088
  H  H33  1  0.590100  0.386000  0.110300  1.0  0.1114
  H  H34  1  0.680700  0.212900  0.007700  1.0  0.0966
  H  H35  1  0.500600  0.111500  0.987600  1.0  0.0839
  H  H36  1  0.112100  0.928700  0.980200  1.0  0.0747
  H  H37  1  0.040200  0.763300  0.013100  1.0  0.0934
  H  H38  1  0.281800  0.839600  0.126900  1.0  0.1098
  H  H39  1  0.354100  0.005700  0.093400  1.0  0.0897
  H  H40  1  0.435800  0.180100  0.905800  1.0  0.0885
  H  H41  1  0.404700  0.173100  0.808400  1.0  0.1121
  H  H42  1  0.083300  0.063000  0.837200  1.0  0.1097
  H  H43  1  0.114700  0.073900  0.933900  1.0  0.0893
  H  H44  1  0.271000  0.123000  0.682400  1.0  0.4003
  H  H45  1  0.126000  0.582600  0.400300  1.0  0.0889
  H  H46  1  0.032400  0.672400  0.365400  1.0  0.1055
  H  H47  1  0.180900  0.893700  0.480300  1.0  0.109
  H  H48  1  0.273900  0.804000  0.514900  1.0  0.0907
  H  H49  1  0.410900  0.792500  0.416400  1.0  0.0883
  H  H50  1  0.590100  0.886000  0.389700  1.0  0.1106
  H  H51  1  0.680700  0.712900  0.492300  1.0  0.0971
  H  H52  1  0.500600  0.611500  0.512400  1.0  0.0842
  H  H53  1  0.112100  0.428700  0.519800  1.0  0.0747
  H  H54  1  0.040200  0.263300  0.486900  1.0  0.0932
  H  H55  1  0.281800  0.339600  0.373100  1.0  0.1098
  H  H56  1  0.354100  0.505700  0.406600  1.0  0.0891
  H  H57  1  0.435800  0.680100  0.594200  1.0  0.0884
  H  H58  1  0.404700  0.673100  0.691600  1.0  0.1117
  H  H59  1  0.083300  0.563000  0.662800  1.0  0.1099
  H  H60  1  0.114700  0.573900  0.566100  1.0  0.0894
  H  H61  1  0.271000  0.623000  0.817600  1.0  0.4001
  H  H62  1  0.874000  0.917400  0.900300  1.0  0.0887
  H  H63  1  0.967600  0.827600  0.865400  1.0  0.1055
  H  H64  1  0.819100  0.606300  0.980300  1.0  0.1085
  H  H65  1  0.726100  0.696000  0.014900  1.0  0.0906
  H  H66  1  0.589100  0.707500  0.916400  1.0  0.0871
  H  H67  1  0.409900  0.614000  0.889700  1.0  0.1108
  H  H68  1  0.319300  0.787100  0.992300  1.0  0.0971
  H  H69  1  0.499400  0.888500  0.012400  1.0  0.0844
  H  H70  1  0.887900  0.071300  0.019800  1.0  0.0744
  H  H71  1  0.959800  0.236700  0.986900  1.0  0.0933
  H  H72  1  0.718200  0.160400  0.873100  1.0  0.1097
  H  H73  1  0.645900  0.994300  0.906600  1.0  0.0885
  H  H74  1  0.564200  0.819900  0.094200  1.0  0.0888
  H  H75  1  0.595300  0.826900  0.191600  1.0  0.1115
  H  H76  1  0.916700  0.937000  0.162800  1.0  0.109
  H  H77  1  0.885300  0.926100  0.066100  1.0  0.089
  H  H78  1  0.729000  0.877000  0.317600  1.0  0.4011
  C  C79  1  0.789380  0.316320  0.538900  1.0  -0.3468
  C  C80  1  0.862200  0.354050  0.583380  1.0  -0.0207
  C  C81  1  0.918000  0.300550  0.604330  1.0  -0.0641
  C  C82  1  0.901250  0.207630  0.581090  1.0  -0.1169
  C  C83  1  0.830000  0.169300  0.536260  1.0  -0.0613
  C  C84  1  0.774880  0.222990  0.515690  1.0  -0.0147
  C  C85  1  0.958480  0.146990  0.603360  1.0  0.7038
  C  C86  1  0.563740  0.307350  0.531640  1.0  -0.3673
  C  C87  1  0.534580  0.224710  0.568640  1.0  -0.011
  C  C88  1  0.427510  0.167560  0.583800  1.0  -0.1012
  C  C89  1  0.346620  0.188800  0.560210  1.0  -0.1046
  C  C90  1  0.374200  0.271470  0.523760  1.0  -0.0791
  C  C91  1  0.481480  0.330650  0.511010  1.0  -0.0177
  C  C92  1  0.230490  0.121820  0.570810  1.0  0.7581
  C  C93  1  0.759820  0.514160  0.533580  1.0  -0.3624
  C  C94  1  0.852990  0.588660  0.510260  1.0  -0.0061
  C  C95  1  0.896030  0.687520  0.529810  1.0  -0.045
  C  C96  1  0.846770  0.714920  0.573400  1.0  -0.1181
  C  C97  1  0.753110  0.642380  0.597060  1.0  -0.0659
  C  C98  1  0.710260  0.543140  0.577070  1.0  -0.0215
  C  C99  1  0.895500  0.821530  0.595160  1.0  0.7032
  C  C100  1  0.721300  0.375560  0.430410  1.0  -0.3265
  C  C101  1  0.636110  0.344300  0.392110  1.0  -0.022
  C  C102  1  0.654310  0.348150  0.333990  1.0  -0.06
  C  C103  1  0.758990  0.383170  0.313740  1.0  -0.1641
  C  C104  1  0.845010  0.412950  0.351120  1.0  -0.0569
  C  C105  1  0.826170  0.407640  0.408580  1.0  -0.0214
  C  C106  1  0.785190  0.391900  0.252470  1.0  0.7033
  C  C107  1  0.210620  0.183680  0.038900  1.0  -0.3481
  C  C108  1  0.137800  0.145950  0.083380  1.0  -0.0186
  C  C109  1  0.082000  0.199450  0.104330  1.0  -0.0639
  C  C110  1  0.098750  0.292370  0.081090  1.0  -0.1145
  C  C111  1  0.170000  0.330700  0.036260  1.0  -0.0601
  C  C112  1  0.225120  0.277010  0.015690  1.0  -0.017
  C  C113  1  0.041520  0.353010  0.103360  1.0  0.704
  C  C114  1  0.436260  0.192650  0.031640  1.0  -0.3667
  C  C115  1  0.465420  0.275290  0.068640  1.0  -0.0115
  C  C116  1  0.572490  0.332440  0.083800  1.0  -0.1028
  C  C117  1  0.653380  0.311200  0.060210  1.0  -0.105
  C  C118  1  0.625800  0.228530  0.023760  1.0  -0.0784
  C  C119  1  0.518520  0.169350  0.011010  1.0  -0.0184
  C  C120  1  0.769510  0.378180  0.070810  1.0  0.7565
  C  C121  1  0.240180  0.985840  0.033580  1.0  -0.3618
  C  C122  1  0.147010  0.911340  0.010260  1.0  -0.0052
  C  C123  1  0.103970  0.812480  0.029810  1.0  -0.0442
  C  C124  1  0.153230  0.785080  0.073400  1.0  -0.1182
  C  C125  1  0.246890  0.857620  0.097060  1.0  -0.066
  C  C126  1  0.289740  0.956860  0.077070  1.0  -0.0208
  C  C127  1  0.104500  0.678470  0.095160  1.0  0.7046
  C  C128  1  0.278700  0.124440  0.930410  1.0  -0.3263
  C  C129  1  0.363890  0.155700  0.892110  1.0  -0.0229
  C  C130  1  0.345690  0.151850  0.833990  1.0  -0.061
  C  C131  1  0.241010  0.116830  0.813740  1.0  -0.1642
  C  C132  1  0.154990  0.087050  0.851120  1.0  -0.0582
  C  C133  1  0.173830  0.092360  0.908580  1.0  -0.0223
  C  C134  1  0.214810  0.108100  0.752470  1.0  0.7031
  C  C135  1  0.210620  0.683680  0.461100  1.0  -0.3485
  C  C136  1  0.137800  0.645950  0.416620  1.0  -0.0182
  C  C137  1  0.082000  0.699450  0.395670  1.0  -0.0638
  C  C138  1  0.098750  0.792370  0.418910  1.0  -0.1117
  C  C139  1  0.170000  0.830700  0.463740  1.0  -0.0603
  C  C140  1  0.225120  0.777010  0.484310  1.0  -0.016
  C  C141  1  0.041520  0.853010  0.396640  1.0  0.7049
  C  C142  1  0.436260  0.692650  0.468360  1.0  -0.3665
  C  C143  1  0.465420  0.775290  0.431360  1.0  -0.0114
  C  C144  1  0.572490  0.832440  0.416200  1.0  -0.1009
  C  C145  1  0.653380  0.811200  0.439790  1.0  -0.1053
  C  C146  1  0.625800  0.728530  0.476240  1.0  -0.0782
  C  C147  1  0.518520  0.669350  0.488990  1.0  -0.0177
  C  C148  1  0.769510  0.878180  0.429190  1.0  0.7551
  C  C149  1  0.240180  0.485840  0.466420  1.0  -0.3617
  C  C150  1  0.147010  0.411340  0.489740  1.0  -0.0042
  C  C151  1  0.103970  0.312480  0.470190  1.0  -0.0435
  C  C152  1  0.153230  0.285080  0.426600  1.0  -0.1203
  C  C153  1  0.246890  0.357620  0.402940  1.0  -0.0663
  C  C154  1  0.289740  0.456860  0.422930  1.0  -0.0222
  C  C155  1  0.104500  0.178470  0.404840  1.0  0.7041
  C  C156  1  0.278700  0.624440  0.569590  1.0  -0.325
  C  C157  1  0.363890  0.655700  0.607890  1.0  -0.0251
  C  C158  1  0.345690  0.651850  0.666010  1.0  -0.0605
  C  C159  1  0.241010  0.616830  0.686260  1.0  -0.1648
  C  C160  1  0.154990  0.587050  0.648880  1.0  -0.0575
  C  C161  1  0.173830  0.592360  0.591420  1.0  -0.0231
  C  C162  1  0.214810  0.608100  0.747530  1.0  0.7034
  C  C163  1  0.789380  0.816320  0.961100  1.0  -0.3474
  C  C164  1  0.862200  0.854050  0.916620  1.0  -0.0187
  C  C165  1  0.918000  0.800550  0.895670  1.0  -0.0648
  C  C166  1  0.901250  0.707630  0.918910  1.0  -0.1157
  C  C167  1  0.830000  0.669300  0.963740  1.0  -0.0611
  C  C168  1  0.774880  0.722990  0.984310  1.0  -0.0134
  C  C169  1  0.958480  0.646990  0.896640  1.0  0.7029
  C  C170  1  0.563740  0.807350  0.968360  1.0  -0.3672
  C  C171  1  0.534580  0.724710  0.931360  1.0  -0.0118
  C  C172  1  0.427510  0.667560  0.916200  1.0  -0.1012
  C  C173  1  0.346620  0.688800  0.939790  1.0  -0.1051
  C  C174  1  0.374200  0.771470  0.976240  1.0  -0.079
  C  C175  1  0.481480  0.830650  0.988990  1.0  -0.0176
  C  C176  1  0.230490  0.621820  0.929190  1.0  0.7573
  C  C177  1  0.759820  0.014160  0.966420  1.0  -0.3623
  C  C178  1  0.852990  0.088660  0.989740  1.0  -0.0046
  C  C179  1  0.896030  0.187520  0.970190  1.0  -0.0449
  C  C180  1  0.846770  0.214920  0.926600  1.0  -0.118
  C  C181  1  0.753110  0.142380  0.902940  1.0  -0.0651
  C  C182  1  0.710260  0.043140  0.922930  1.0  -0.0229
  C  C183  1  0.895500  0.321530  0.904840  1.0  0.7042
  C  C184  1  0.721300  0.875560  0.069590  1.0  -0.3257
  C  C185  1  0.636110  0.844300  0.107890  1.0  -0.0253
  C  C186  1  0.654310  0.848150  0.166010  1.0  -0.0603
  C  C187  1  0.758990  0.883170  0.186260  1.0  -0.1647
  C  C188  1  0.845010  0.912950  0.148880  1.0  -0.0568
  C  C189  1  0.826170  0.907640  0.091420  1.0  -0.0221
  C  C190  1  0.785190  0.891900  0.247530  1.0  0.7031
  O  O191  1  0.013160  0.172900  0.647440  1.0  -0.6618
  O  O192  1  0.946790  0.067450  0.576690  1.0  -0.7828
  O  O193  1  0.169000  0.101990  0.529150  1.0  -0.6883
  O  O194  1  0.199850  0.087890  0.620170  1.0  -0.7245
  O  O195  1  0.851830  0.844960  0.635860  1.0  -0.6856
  O  O196  1  0.982130  0.884590  0.572280  1.0  -0.7666
  O  O197  1  0.877410  0.417430  0.236170  1.0  -0.6344
  O  O198  1  0.703350  0.371410  0.217920  1.0  -0.5155
  O  O199  1  0.986840  0.327100  0.147440  1.0  -0.6628
  O  O200  1  0.053210  0.432550  0.076690  1.0  -0.7861
  O  O201  1  0.831000  0.398010  0.029150  1.0  -0.6892
  O  O202  1  0.800150  0.412110  0.120170  1.0  -0.7271
  O  O203  1  0.148170  0.655040  0.135860  1.0  -0.6839
  O  O204  1  0.017870  0.615410  0.072280  1.0  -0.7623
  O  O205  1  0.122590  0.082570  0.736170  1.0  -0.6356
  O  O206  1  0.296650  0.128590  0.717920  1.0  -0.5151
  O  O207  1  0.986840  0.827100  0.352560  1.0  -0.6635
  O  O208  1  0.053210  0.932550  0.423310  1.0  -0.7842
  O  O209  1  0.831000  0.898010  0.470850  1.0  -0.6887
  O  O210  1  0.800150  0.912110  0.379830  1.0  -0.7293
  O  O211  1  0.148170  0.155040  0.364140  1.0  -0.6844
  O  O212  1  0.017870  0.115410  0.427720  1.0  -0.7668
  O  O213  1  0.122590  0.582570  0.763830  1.0  -0.636
  O  O214  1  0.296650  0.628590  0.782080  1.0  -0.5167
  O  O215  1  0.013160  0.672900  0.852560  1.0  -0.6623
  O  O216  1  0.946790  0.567450  0.923310  1.0  -0.7789
  O  O217  1  0.169000  0.601990  0.970850  1.0  -0.6875
  O  O218  1  0.199850  0.587890  0.879830  1.0  -0.7282
  O  O219  1  0.851830  0.344960  0.864140  1.0  -0.6843
  O  O220  1  0.982130  0.384590  0.927720  1.0  -0.7695
  O  O221  1  0.877410  0.917430  0.263830  1.0  -0.6343
  O  O222  1  0.703350  0.871410  0.282080  1.0  -0.5167
