# generated using pymatgen
data_Co3Si2H32(C7O2)8
_symmetry_space_group_name_H-M   'P 1'
_cell_length_a   12.72390000
_cell_length_b   14.49920000
_cell_length_c   23.34530000
_cell_angle_alpha   99.73350000
_cell_angle_beta   92.68900000
_cell_angle_gamma   97.47560000
_symmetry_Int_Tables_number   1
_chemical_formula_structural   Co3Si2H32(C7O2)8
_chemical_formula_sum   'Co6 Si4 H64 C112 O32'
_cell_volume   4198.33362611
_cell_formula_units_Z   2
loop_
 _symmetry_equiv_pos_site_id
 _symmetry_equiv_pos_as_xyz
  1  'x, y, z'
loop_
 _atom_site_type_symbol
 _atom_site_label
 _atom_site_symmetry_multiplicity
 _atom_site_fract_x
 _atom_site_fract_y
 _atom_site_fract_z
 _atom_site_occupancy
 _atom_site_charge
  Co  Co1  1  0.495470  0.696040  0.607050  1.0  1.0935
  Co  Co2  1  0.942380  0.315430  0.074500  1.0  1.0302
  Co  Co3  1  0.504530  0.303960  0.392950  1.0  1.0967
  Co  Co4  1  0.057620  0.684570  0.925500  1.0  1.031
  Co  Co5  1  0.500000  0.500000  0.500000  1.0  1.095
  Co  Co6  1  0.000000  0.500000  0.000000  1.0  1.1411
  Si  Si7  1  0.974540  0.779570  0.366070  1.0  0.9066
  Si  Si8  1  0.601630  0.755750  0.187300  1.0  0.938
  Si  Si9  1  0.025460  0.220430  0.633930  1.0  0.9065
  Si  Si10  1  0.398370  0.244250  0.812700  1.0  0.9377
  H  H11  1  0.868600  0.622300  0.413100  1.0  0.1193
  H  H12  1  0.730900  0.595700  0.472200  1.0  0.1274
  H  H13  1  0.668600  0.863700  0.475000  1.0  0.1251
  H  H14  1  0.805000  0.889200  0.413600  1.0  0.1168
  H  H15  1  0.831300  0.614500  0.304900  1.0  0.1038
  H  H16  1  0.831500  0.508900  0.218200  1.0  0.1099
  H  H17  1  0.065900  0.682600  0.165900  1.0  0.1161
  H  H18  1  0.074700  0.783800  0.255400  1.0  0.1091
  H  H19  1  0.161900  0.681100  0.339100  1.0  0.1096
  H  H20  1  0.287000  0.621300  0.392500  1.0  0.1153
  H  H21  1  0.164200  0.728900  0.541700  1.0  0.1136
  H  H22  1  0.033600  0.780200  0.488900  1.0  0.1013
  H  H23  1  0.940000  0.906500  0.282700  1.0  0.1128
  H  H24  1  0.974800  0.069300  0.283700  1.0  0.125
  H  H25  1  0.117200  0.107400  0.446500  1.0  0.1118
  H  H26  1  0.082400  0.944600  0.445600  1.0  0.1086
  H  H27  1  0.542300  0.770600  0.308000  1.0  0.1022
  H  H28  1  0.518700  0.672100  0.375400  1.0  0.1186
  H  H29  1  0.609100  0.460600  0.261400  1.0  0.1227
  H  H30  1  0.630300  0.559100  0.193400  1.0  0.1082
  H  H31  1  0.663200  0.603700  0.103400  1.0  0.1191
  H  H32  1  0.791900  0.585800  0.037200  1.0  0.1212
  H  H33  1  0.922500  0.857400  0.094000  1.0  0.1269
  H  H34  1  0.798200  0.872700  0.163000  1.0  0.1044
  H  H35  1  0.392500  0.637000  0.181100  1.0  0.1039
  H  H36  1  0.249200  0.591700  0.113700  1.0  0.1205
  H  H37  1  0.384900  0.763500  0.011400  1.0  0.1235
  H  H38  1  0.530900  0.805500  0.077500  1.0  0.1121
  H  H39  1  0.740500  0.867600  0.282600  1.0  0.0938
  H  H40  1  0.748000  0.011900  0.343500  1.0  0.1278
  H  H41  1  0.505200  0.073100  0.246100  1.0  0.1274
  H  H42  1  0.494200  0.925500  0.186700  1.0  0.1113
  H  H43  1  0.131400  0.377700  0.586900  1.0  0.1193
  H  H44  1  0.269100  0.404300  0.527800  1.0  0.1276
  H  H45  1  0.331400  0.136300  0.525000  1.0  0.1247
  H  H46  1  0.195000  0.110800  0.586400  1.0  0.1165
  H  H47  1  0.168700  0.385500  0.695100  1.0  0.1043
  H  H48  1  0.168500  0.491100  0.781800  1.0  0.1112
  H  H49  1  0.934100  0.317400  0.834100  1.0  0.1158
  H  H50  1  0.925300  0.216200  0.744600  1.0  0.1088
  H  H51  1  0.838100  0.318900  0.660900  1.0  0.1097
  H  H52  1  0.713000  0.378700  0.607500  1.0  0.1159
  H  H53  1  0.835800  0.271100  0.458300  1.0  0.1136
  H  H54  1  0.966400  0.219800  0.511100  1.0  0.1005
  H  H55  1  0.060000  0.093500  0.717300  1.0  0.1129
  H  H56  1  0.025200  0.930700  0.716300  1.0  0.1251
  H  H57  1  0.882800  0.892600  0.553500  1.0  0.1115
  H  H58  1  0.917600  0.055400  0.554400  1.0  0.1084
  H  H59  1  0.457700  0.229400  0.692000  1.0  0.1024
  H  H60  1  0.481300  0.327900  0.624600  1.0  0.1191
  H  H61  1  0.390900  0.539400  0.738600  1.0  0.1233
  H  H62  1  0.369700  0.440900  0.806600  1.0  0.1082
  H  H63  1  0.336800  0.396300  0.896600  1.0  0.1183
  H  H64  1  0.208100  0.414200  0.962800  1.0  0.1208
  H  H65  1  0.077500  0.142600  0.906000  1.0  0.1268
  H  H66  1  0.201800  0.127300  0.837000  1.0  0.105
  H  H67  1  0.607500  0.363000  0.818900  1.0  0.1046
  H  H68  1  0.750800  0.408300  0.886300  1.0  0.1205
  H  H69  1  0.615100  0.236500  0.988600  1.0  0.1237
  H  H70  1  0.469100  0.194500  0.922500  1.0  0.1131
  H  H71  1  0.259500  0.132400  0.717400  1.0  0.0941
  H  H72  1  0.252000  0.988100  0.656500  1.0  0.1269
  H  H73  1  0.494800  0.926900  0.753900  1.0  0.1272
  H  H74  1  0.505800  0.074500  0.813300  1.0  0.1122
  C  C75  1  0.853400  0.759290  0.407790  1.0  -0.3552
  C  C76  1  0.828300  0.671710  0.425790  1.0  -0.0504
  C  C77  1  0.747100  0.655730  0.461120  1.0  -0.0493
  C  C78  1  0.688200  0.728860  0.480670  1.0  -0.1231
  C  C79  1  0.709700  0.814800  0.462540  1.0  -0.0521
  C  C80  1  0.791300  0.830000  0.426140  1.0  -0.0411
  C  C81  1  0.608400  0.714600  0.523700  1.0  0.6808
  C  C82  1  0.957300  0.708400  0.290940  1.0  -0.3307
  C  C83  1  0.882100  0.627400  0.277780  1.0  -0.0395
  C  C84  1  0.880900  0.565300  0.225520  1.0  -0.0205
  C  C85  1  0.950200  0.584300  0.184190  1.0  -0.1212
  C  C86  1  0.020300  0.667000  0.194930  1.0  -0.0238
  C  C87  1  0.024600  0.727800  0.248210  1.0  -0.0198
  C  C88  1  0.951300  0.514400  0.128500  1.0  0.7346
  C  C89  1  0.083400  0.737030  0.407820  1.0  -0.3503
  C  C90  1  0.160900  0.689800  0.380370  1.0  -0.0286
  C  C91  1  0.236400  0.655200  0.412260  1.0  -0.0663
  C  C92  1  0.239500  0.669160  0.472520  1.0  -0.0884
  C  C93  1  0.162900  0.717700  0.500350  1.0  -0.0643
  C  C94  1  0.086200  0.749300  0.469010  1.0  -0.0234
  C  C95  1  0.322900  0.634210  0.506770  1.0  0.7244
  C  C96  1  0.007900  0.910260  0.364070  1.0  -0.3106
  C  C97  1  0.976000  0.947290  0.315980  1.0  -0.0144
  C  C98  1  0.996600  0.043980  0.316540  1.0  -0.0421
  C  C99  1  0.049200  0.103630  0.365190  1.0  -0.1109
  C  C100  1  0.081200  0.066600  0.413280  1.0  -0.0208
  C  C101  1  0.060500  0.969900  0.412720  1.0  -0.01
  C  C102  1  0.071200  0.206100  0.364800  1.0  0.6282
  C  C103  1  0.590850  0.676710  0.243150  1.0  -0.3148
  C  C104  1  0.556600  0.707400  0.298170  1.0  -0.0475
  C  C105  1  0.542800  0.649000  0.338490  1.0  -0.0452
  C  C106  1  0.563800  0.556900  0.325850  1.0  -0.1217
  C  C107  1  0.595900  0.524200  0.271110  1.0  -0.036
  C  C108  1  0.608700  0.583100  0.230800  1.0  -0.0314
  C  C109  1  0.548800  0.493220  0.369430  1.0  0.7369
  C  C110  1  0.716000  0.741040  0.140620  1.0  -0.3245
  C  C111  1  0.716500  0.655510  0.101930  1.0  -0.042
  C  C112  1  0.792000  0.644930  0.062020  1.0  -0.0511
  C  C113  1  0.867900  0.720160  0.058050  1.0  -0.1077
  C  C114  1  0.869800  0.805500  0.096140  1.0  -0.0819
  C  C115  1  0.795200  0.814500  0.136810  1.0  -0.0262
  C  C116  1  0.943200  0.711200  0.011000  1.0  0.6479
  C  C117  1  0.479100  0.726420  0.136830  1.0  -0.3087
  C  C118  1  0.392200  0.662600  0.146230  1.0  -0.018
  C  C119  1  0.306500  0.635900  0.106230  1.0  -0.0536
  C  C120  1  0.302300  0.672210  0.055690  1.0  -0.1185
  C  C121  1  0.386800  0.736700  0.045770  1.0  -0.0618
  C  C122  1  0.473200  0.762100  0.085470  1.0  -0.0268
  C  C123  1  0.208200  0.641900  0.012290  1.0  0.7424
  C  C124  1  0.614700  0.879850  0.228300  1.0  -0.3024
  C  C125  1  0.690900  0.908700  0.275500  1.0  -0.0148
  C  C126  1  0.695900  0.994100  0.311660  1.0  -0.0972
  C  C127  1  0.624500  0.053940  0.301430  1.0  -0.1206
  C  C128  1  0.551700  0.030000  0.254270  1.0  -0.0628
  C  C129  1  0.546300  0.942500  0.218580  1.0  -0.0172
  C  C130  1  0.620400  0.143700  0.342710  1.0  0.7235
  C  C131  1  0.146600  0.240710  0.592210  1.0  -0.3558
  C  C132  1  0.171700  0.328290  0.574210  1.0  -0.0512
  C  C133  1  0.252900  0.344270  0.538880  1.0  -0.05
  C  C134  1  0.311800  0.271140  0.519330  1.0  -0.1241
  C  C135  1  0.290300  0.185200  0.537460  1.0  -0.0519
  C  C136  1  0.208700  0.170000  0.573860  1.0  -0.0432
  C  C137  1  0.391600  0.285400  0.476300  1.0  0.6796
  C  C138  1  0.042700  0.291600  0.709060  1.0  -0.331
  C  C139  1  0.117900  0.372600  0.722220  1.0  -0.0399
  C  C140  1  0.119100  0.434700  0.774480  1.0  -0.0157
  C  C141  1  0.049800  0.415700  0.815810  1.0  -0.1217
  C  C142  1  0.979700  0.333000  0.805070  1.0  -0.0196
  C  C143  1  0.975400  0.272200  0.751790  1.0  -0.0203
  C  C144  1  0.048700  0.485600  0.871500  1.0  0.7349
  C  C145  1  0.916600  0.262970  0.592180  1.0  -0.351
  C  C146  1  0.839100  0.310200  0.619630  1.0  -0.0288
  C  C147  1  0.763600  0.344800  0.587740  1.0  -0.0658
  C  C148  1  0.760500  0.330840  0.527480  1.0  -0.0889
  C  C149  1  0.837100  0.282300  0.499650  1.0  -0.0627
  C  C150  1  0.913800  0.250700  0.530990  1.0  -0.0238
  C  C151  1  0.677100  0.365790  0.493230  1.0  0.724
  C  C152  1  0.992100  0.089740  0.635930  1.0  -0.3086
  C  C153  1  0.024000  0.052710  0.684020  1.0  -0.017
  C  C154  1  0.003400  0.956020  0.683460  1.0  -0.0447
  C  C155  1  0.950800  0.896370  0.634810  1.0  -0.1111
  C  C156  1  0.918800  0.933400  0.586720  1.0  -0.0205
  C  C157  1  0.939500  0.030100  0.587280  1.0  -0.0092
  C  C158  1  0.928800  0.793900  0.635200  1.0  0.6288
  C  C159  1  0.409150  0.323290  0.756850  1.0  -0.3197
  C  C160  1  0.443400  0.292600  0.701830  1.0  -0.0464
  C  C161  1  0.457200  0.351000  0.661510  1.0  -0.0465
  C  C162  1  0.436200  0.443100  0.674150  1.0  -0.1201
  C  C163  1  0.404100  0.475800  0.728890  1.0  -0.0359
  C  C164  1  0.391300  0.416900  0.769200  1.0  -0.0315
  C  C165  1  0.451200  0.506780  0.630570  1.0  0.7389
  C  C166  1  0.284000  0.258960  0.859380  1.0  -0.3239
  C  C167  1  0.283500  0.344490  0.898070  1.0  -0.0447
  C  C168  1  0.208000  0.355070  0.937980  1.0  -0.0515
  C  C169  1  0.132100  0.279840  0.941950  1.0  -0.109
  C  C170  1  0.130200  0.194500  0.903860  1.0  -0.082
  C  C171  1  0.204800  0.185500  0.863190  1.0  -0.0277
  C  C172  1  0.056800  0.288800  0.989000  1.0  0.6474
  C  C173  1  0.520900  0.273580  0.863170  1.0  -0.3121
  C  C174  1  0.607800  0.337400  0.853770  1.0  -0.0198
  C  C175  1  0.693500  0.364100  0.893770  1.0  -0.0544
  C  C176  1  0.697700  0.327790  0.944310  1.0  -0.1182
  C  C177  1  0.613200  0.263300  0.954230  1.0  -0.0646
  C  C178  1  0.526800  0.237900  0.914530  1.0  -0.0231
  C  C179  1  0.791800  0.358100  0.987710  1.0  0.7437
  C  C180  1  0.385300  0.120150  0.771700  1.0  -0.3026
  C  C181  1  0.309100  0.091300  0.724500  1.0  -0.0141
  C  C182  1  0.304100  0.005900  0.688340  1.0  -0.0979
  C  C183  1  0.375500  0.946060  0.698570  1.0  -0.1206
  C  C184  1  0.448300  0.970000  0.745730  1.0  -0.0625
  C  C185  1  0.453700  0.057500  0.781420  1.0  -0.0169
  C  C186  1  0.379600  0.856300  0.657290  1.0  0.7239
  O  O187  1  0.583120  0.633280  0.537240  1.0  -0.7273
  O  O188  1  0.569220  0.783350  0.550310  1.0  -0.5794
  O  O189  1  0.910050  0.431010  0.128520  1.0  -0.6445
  O  O190  1  0.995760  0.544640  0.087740  1.0  -0.5933
  O  O191  1  0.357050  0.559470  0.486120  1.0  -0.5996
  O  O192  1  0.355750  0.685140  0.556120  1.0  -0.6042
  O  O193  1  0.046200  0.237300  0.319850  1.0  -0.5057
  O  O194  1  0.116000  0.259300  0.411120  1.0  -0.496
  O  O195  1  0.526260  0.528200  0.419480  1.0  -0.6256
  O  O196  1  0.558600  0.407910  0.352670  1.0  -0.6136
  O  O197  1  0.954220  0.629630  0.983680  1.0  -0.7131
  O  O198  1  0.990700  0.782290  0.994930  1.0  -0.5906
  O  O199  1  0.157020  0.562480  0.012780  1.0  -0.6193
  O  O200  1  0.189380  0.698470  0.979460  1.0  -0.6158
  O  O201  1  0.688200  0.159140  0.388080  1.0  -0.4827
  O  O202  1  0.556960  0.196770  0.334670  1.0  -0.5651
  O  O203  1  0.416880  0.366720  0.462760  1.0  -0.7274
  O  O204  1  0.430780  0.216650  0.449690  1.0  -0.5783
  O  O205  1  0.089950  0.568990  0.871480  1.0  -0.6406
  O  O206  1  0.004240  0.455360  0.912260  1.0  -0.5935
  O  O207  1  0.642950  0.440530  0.513880  1.0  -0.5996
  O  O208  1  0.644250  0.314860  0.443880  1.0  -0.6035
  O  O209  1  0.953800  0.762700  0.680150  1.0  -0.504
  O  O210  1  0.884000  0.740700  0.588880  1.0  -0.4952
  O  O211  1  0.473740  0.471800  0.580520  1.0  -0.6266
  O  O212  1  0.441400  0.592090  0.647330  1.0  -0.613
  O  O213  1  0.045780  0.370370  0.016320  1.0  -0.707
  O  O214  1  0.009300  0.217710  0.005070  1.0  -0.5969
  O  O215  1  0.842980  0.437520  0.987220  1.0  -0.6202
  O  O216  1  0.810620  0.301530  0.020540  1.0  -0.6308
  O  O217  1  0.311800  0.840860  0.611920  1.0  -0.4886
  O  O218  1  0.443040  0.803230  0.665330  1.0  -0.5644
