# generated using pymatgen
data_Co3H10C16NO11
_symmetry_space_group_name_H-M   'P 1'
_cell_length_a   11.06280000
_cell_length_b   23.49830000
_cell_length_c   23.49830000
_cell_angle_alpha   120.00000000
_cell_angle_beta   90.00000000
_cell_angle_gamma   90.00000000
_symmetry_Int_Tables_number   1
_chemical_formula_structural   Co3H10C16NO11
_chemical_formula_sum   'Co18 H60 C96 N6 O66'
_cell_volume   5290.15724096
_cell_formula_units_Z   6
loop_
 _symmetry_equiv_pos_site_id
 _symmetry_equiv_pos_as_xyz
  1  'x, y, z'
loop_
 _atom_site_type_symbol
 _atom_site_label
 _atom_site_symmetry_multiplicity
 _atom_site_fract_x
 _atom_site_fract_y
 _atom_site_fract_z
 _atom_site_occupancy
 _atom_site_charge
  Co  Co1  1  0.934910  0.090530  0.376340  1.0  0.9326
  Co  Co2  1  0.024140  0.039020  0.234220  1.0  1.1471
  Co  Co3  1  0.794350  0.124730  0.257290  1.0  1.1076
  Co  Co4  1  0.601580  0.285810  0.909470  1.0  0.9431
  Co  Co5  1  0.690810  0.195200  0.960980  1.0  1.1475
  Co  Co6  1  0.461020  0.132560  0.875270  1.0  1.1088
  Co  Co7  1  0.268240  0.623660  0.714190  1.0  0.9401
  Co  Co8  1  0.357470  0.765780  0.804800  1.0  1.1479
  Co  Co9  1  0.127680  0.742710  0.867440  1.0  1.1075
  Co  Co10  1  0.434910  0.909470  0.623660  1.0  0.9349
  Co  Co11  1  0.524140  0.960980  0.765780  1.0  1.1473
  Co  Co12  1  0.294350  0.875270  0.742710  1.0  1.1072
  Co  Co13  1  0.101580  0.714190  0.090530  1.0  0.9407
  Co  Co14  1  0.190810  0.804800  0.039020  1.0  1.1466
  Co  Co15  1  0.961020  0.867440  0.124730  1.0  1.1079
  Co  Co16  1  0.768240  0.376340  0.285810  1.0  0.9425
  Co  Co17  1  0.857470  0.234220  0.195200  1.0  1.147
  Co  Co18  1  0.627680  0.257290  0.132560  1.0  1.1083
  H  H19  1  0.719300  0.992500  0.137200  1.0  0.0077
  H  H20  1  0.564300  0.015600  0.604500  1.0  0.0865
  H  H21  1  0.430100  0.083700  0.306300  1.0  0.116
  H  H22  1  0.225600  0.991600  0.150900  1.0  0.0121
  H  H23  1  0.258000  0.035900  0.427200  1.0  0.0968
  H  H24  1  0.619700  0.035000  0.423300  1.0  0.1028
  H  H25  1  0.868900  0.940500  0.306000  1.0  0.0057
  H  H26  1  0.565200  0.060000  0.535200  1.0  0.1126
  H  H27  1  0.307600  0.893600  0.500900  1.0  0.1042
  H  H28  1  0.300800  0.942000  0.434700  1.0  0.1004
  H  H29  1  0.385970  0.144700  0.007500  1.0  0.0087
  H  H30  1  0.230970  0.588900  0.984400  1.0  0.0885
  H  H31  1  0.096770  0.222600  0.916300  1.0  0.1164
  H  H32  1  0.892270  0.159300  0.008400  1.0  0.0113
  H  H33  1  0.924670  0.391300  0.964100  1.0  0.0975
  H  H34  1  0.286370  0.388300  0.965000  1.0  0.1022
  H  H35  1  0.535570  0.365500  0.059500  1.0  0.0079
  H  H36  1  0.231870  0.475200  0.940000  1.0  0.1124
  H  H37  1  0.974270  0.607300  0.106400  1.0  0.1049
  H  H38  1  0.967470  0.492700  0.058000  1.0  0.1019
  H  H39  1  0.052630  0.862800  0.855300  1.0  0.0073
  H  H40  1  0.897630  0.395500  0.411100  1.0  0.0875
  H  H41  1  0.763430  0.693700  0.777400  1.0  0.1159
  H  H42  1  0.558930  0.849100  0.840700  1.0  0.0113
  H  H43  1  0.591330  0.572800  0.608700  1.0  0.0973
  H  H44  1  0.953030  0.576700  0.611700  1.0  0.1029
  H  H45  1  0.202230  0.694000  0.634500  1.0  0.0071
  H  H46  1  0.898530  0.464800  0.524800  1.0  0.1128
  H  H47  1  0.640930  0.499100  0.392700  1.0  0.1053
  H  H48  1  0.634130  0.565300  0.507300  1.0  0.1018
  H  H49  1  0.219300  0.007500  0.862800  1.0  0.0071
  H  H50  1  0.064300  0.984400  0.395500  1.0  0.087
  H  H51  1  0.930100  0.916300  0.693700  1.0  0.1163
  H  H52  1  0.725600  0.008400  0.849100  1.0  0.0112
  H  H53  1  0.758000  0.964100  0.572800  1.0  0.0969
  H  H54  1  0.119700  0.965000  0.576700  1.0  0.1026
  H  H55  1  0.368900  0.059500  0.694000  1.0  0.0067
  H  H56  1  0.065200  0.940000  0.464800  1.0  0.1124
  H  H57  1  0.807600  0.106400  0.499100  1.0  0.1056
  H  H58  1  0.800800  0.058000  0.565300  1.0  0.1015
  H  H59  1  0.885970  0.855300  0.992500  1.0  0.0087
  H  H60  1  0.730970  0.411100  0.015600  1.0  0.0883
  H  H61  1  0.596770  0.777400  0.083700  1.0  0.1164
  H  H62  1  0.392270  0.840700  0.991600  1.0  0.0107
  H  H63  1  0.424670  0.608700  0.035900  1.0  0.0975
  H  H64  1  0.786370  0.611700  0.035000  1.0  0.1029
  H  H65  1  0.035570  0.634500  0.940500  1.0  0.0055
  H  H66  1  0.731870  0.524800  0.060000  1.0  0.1127
  H  H67  1  0.474270  0.392700  0.893600  1.0  0.104
  H  H68  1  0.467470  0.507300  0.942000  1.0  0.1009
  H  H69  1  0.552630  0.137200  0.144700  1.0  0.0076
  H  H70  1  0.397630  0.604500  0.588900  1.0  0.0878
  H  H71  1  0.263430  0.306300  0.222600  1.0  0.116
  H  H72  1  0.058930  0.150900  0.159300  1.0  0.0119
  H  H73  1  0.091330  0.427200  0.391300  1.0  0.0968
  H  H74  1  0.453030  0.423300  0.388300  1.0  0.1026
  H  H75  1  0.702230  0.306000  0.365500  1.0  0.0084
  H  H76  1  0.398530  0.535200  0.475200  1.0  0.1128
  H  H77  1  0.140930  0.500900  0.607300  1.0  0.1047
  H  H78  1  0.134130  0.434700  0.492700  1.0  0.1013
  C  C79  1  0.793200  0.981500  0.147900  1.0  0.7052
  C  C80  1  0.664100  0.079200  0.341600  1.0  0.7322
  C  C81  1  0.511400  0.998800  0.569100  1.0  0.1331
  C  C82  1  0.432100  0.071300  0.338200  1.0  0.0256
  C  C83  1  0.325600  0.060900  0.361800  1.0  -0.0829
  C  C84  1  0.204300  0.072500  0.340100  1.0  0.717
  C  C85  1  0.187600  0.951000  0.133500  1.0  0.6458
  C  C86  1  0.330100  0.040100  0.409400  1.0  -0.1367
  C  C87  1  0.546400  0.040600  0.407400  1.0  -0.0655
  C  C88  1  0.544900  0.063100  0.361700  1.0  -0.1515
  C  C89  1  0.911100  0.942400  0.272800  1.0  0.7371
  C  C90  1  0.437600  0.001800  0.474600  1.0  0.0985
  C  C91  1  0.434700  0.026300  0.429600  1.0  0.0678
  C  C92  1  0.512700  0.025800  0.526900  1.0  -0.1963
  C  C93  1  0.360300  0.927700  0.509100  1.0  0.1357
  C  C94  1  0.358800  0.956000  0.467600  1.0  -0.137
  C  C95  1  0.459870  0.166400  0.018500  1.0  0.7053
  C  C96  1  0.330770  0.262400  0.920800  1.0  0.7317
  C  C97  1  0.178070  0.570300  0.001200  1.0  0.1322
  C  C98  1  0.098770  0.266900  0.928700  1.0  0.025
  C  C99  1  0.992270  0.300900  0.939100  1.0  -0.0828
  C  C100  1  0.870970  0.267600  0.927500  1.0  0.7179
  C  C101  1  0.854270  0.182500  0.049000  1.0  0.6454
  C  C102  1  0.996770  0.369300  0.959900  1.0  -0.1364
  C  C103  1  0.213070  0.366800  0.959400  1.0  -0.0652
  C  C104  1  0.211570  0.298600  0.936900  1.0  -0.1508
  C  C105  1  0.577770  0.330400  0.057600  1.0  0.738
  C  C106  1  0.104270  0.472800  0.998200  1.0  0.0978
  C  C107  1  0.101370  0.403300  0.973700  1.0  0.0678
  C  C108  1  0.179370  0.501100  0.974200  1.0  -0.1953
  C  C109  1  0.026970  0.581400  0.072300  1.0  0.135
  C  C110  1  0.025470  0.511600  0.044000  1.0  -0.1343
  C  C111  1  0.126530  0.852100  0.833600  1.0  0.7045
  C  C112  1  0.997430  0.658400  0.737600  1.0  0.7325
  C  C113  1  0.844730  0.430900  0.429700  1.0  0.1325
  C  C114  1  0.765430  0.661800  0.733100  1.0  0.0238
  C  C115  1  0.658930  0.638200  0.699100  1.0  -0.082
  C  C116  1  0.537630  0.659900  0.732400  1.0  0.7196
  C  C117  1  0.520930  0.866500  0.817500  1.0  0.644
  C  C118  1  0.663430  0.590600  0.630700  1.0  -0.1361
  C  C119  1  0.879730  0.592600  0.633200  1.0  -0.0657
  C  C120  1  0.878230  0.638300  0.701400  1.0  -0.1497
  C  C121  1  0.244430  0.727200  0.669600  1.0  0.7402
  C  C122  1  0.770930  0.525400  0.527200  1.0  0.0979
  C  C123  1  0.768030  0.570400  0.596700  1.0  0.0679
  C  C124  1  0.846030  0.473100  0.498900  1.0  -0.1939
  C  C125  1  0.693630  0.490900  0.418600  1.0  0.1378
  C  C126  1  0.692130  0.532400  0.488400  1.0  -0.137
  C  C127  1  0.293200  0.018500  0.852100  1.0  0.7048
  C  C128  1  0.164100  0.920800  0.658400  1.0  0.7322
  C  C129  1  0.011400  0.001200  0.430900  1.0  0.1329
  C  C130  1  0.932100  0.928700  0.661800  1.0  0.0274
  C  C131  1  0.825600  0.939100  0.638200  1.0  -0.0832
  C  C132  1  0.704300  0.927500  0.659900  1.0  0.7181
  C  C133  1  0.687600  0.049000  0.866500  1.0  0.6455
  C  C134  1  0.830100  0.959900  0.590600  1.0  -0.1363
  C  C135  1  0.046400  0.959400  0.592600  1.0  -0.0649
  C  C136  1  0.044900  0.936900  0.638300  1.0  -0.1532
  C  C137  1  0.411100  0.057600  0.727200  1.0  0.7382
  C  C138  1  0.937600  0.998200  0.525400  1.0  0.0988
  C  C139  1  0.934700  0.973700  0.570400  1.0  0.0676
  C  C140  1  0.012700  0.974200  0.473100  1.0  -0.1968
  C  C141  1  0.860300  0.072300  0.490900  1.0  0.1362
  C  C142  1  0.858800  0.044000  0.532400  1.0  -0.1359
  C  C143  1  0.959870  0.833600  0.981500  1.0  0.7043
  C  C144  1  0.830770  0.737600  0.079200  1.0  0.7318
  C  C145  1  0.678070  0.429700  0.998800  1.0  0.1324
  C  C146  1  0.598770  0.733100  0.071300  1.0  0.0246
  C  C147  1  0.492270  0.699100  0.060900  1.0  -0.082
  C  C148  1  0.370970  0.732400  0.072500  1.0  0.7169
  C  C149  1  0.354270  0.817500  0.951000  1.0  0.6444
  C  C150  1  0.496770  0.630700  0.040100  1.0  -0.1371
  C  C151  1  0.713070  0.633200  0.040600  1.0  -0.0658
  C  C152  1  0.711570  0.701400  0.063100  1.0  -0.1502
  C  C153  1  0.077770  0.669600  0.942400  1.0  0.7379
  C  C154  1  0.604270  0.527200  0.001800  1.0  0.0986
  C  C155  1  0.601370  0.596700  0.026300  1.0  0.0682
  C  C156  1  0.679370  0.498900  0.025800  1.0  -0.1941
  C  C157  1  0.526970  0.418600  0.927700  1.0  0.1356
  C  C158  1  0.525470  0.488400  0.956000  1.0  -0.1347
  C  C159  1  0.626530  0.147900  0.166400  1.0  0.7052
  C  C160  1  0.497430  0.341600  0.262400  1.0  0.7321
  C  C161  1  0.344730  0.569100  0.570300  1.0  0.1321
  C  C162  1  0.265430  0.338200  0.266900  1.0  0.0245
  C  C163  1  0.158930  0.361800  0.300900  1.0  -0.0819
  C  C164  1  0.037630  0.340100  0.267600  1.0  0.72
  C  C165  1  0.020930  0.133500  0.182500  1.0  0.6446
  C  C166  1  0.163430  0.409400  0.369300  1.0  -0.1366
  C  C167  1  0.379730  0.407400  0.366800  1.0  -0.0662
  C  C168  1  0.378230  0.361700  0.298600  1.0  -0.1498
  C  C169  1  0.744430  0.272800  0.330400  1.0  0.7406
  C  C170  1  0.270930  0.474600  0.472800  1.0  0.0978
  C  C171  1  0.268030  0.429600  0.403300  1.0  0.0679
  C  C172  1  0.346030  0.526900  0.501100  1.0  -0.1941
  C  C173  1  0.193630  0.509100  0.581400  1.0  0.1357
  C  C174  1  0.192130  0.467600  0.511600  1.0  -0.1361
  N  N175  1  0.436800  0.950000  0.559600  1.0  -0.2474
  N  N176  1  0.103470  0.609600  0.050000  1.0  -0.249
  N  N177  1  0.770130  0.440400  0.390400  1.0  -0.2507
  N  N178  1  0.936800  0.050000  0.440400  1.0  -0.2467
  N  N179  1  0.603470  0.390400  0.950000  1.0  -0.2473
  N  N180  1  0.270130  0.559600  0.609600  1.0  -0.2488
  O  O181  1  0.122800  0.095570  0.384930  1.0  -0.6319
  O  O182  1  0.939900  0.122090  0.308730  1.0  -0.7762
  O  O183  1  0.752700  0.078100  0.372970  1.0  -0.5979
  O  O184  1  0.085900  0.950770  0.157120  1.0  -0.6513
  O  O185  1  0.851100  0.026580  0.193000  1.0  -0.6558
  O  O186  1  0.244800  0.902370  0.088480  1.0  -0.5967
  O  O187  1  0.191500  0.057950  0.282520  1.0  -0.5527
  O  O188  1  0.825000  0.921860  0.114920  1.0  -0.6092
  O  O189  1  0.908700  0.892990  0.218980  1.0  -0.5955
  O  O190  1  0.963200  0.995270  0.288720  1.0  -0.6607
  O  O191  1  0.661800  0.092100  0.296040  1.0  -0.5997
  O  O192  1  0.789470  0.289360  0.904430  1.0  -0.6347
  O  O193  1  0.606570  0.186640  0.877910  1.0  -0.7777
  O  O194  1  0.419370  0.294870  0.921900  1.0  -0.5986
  O  O195  1  0.752570  0.206350  0.049230  1.0  -0.6514
  O  O196  1  0.517770  0.166420  0.973420  1.0  -0.6543
  O  O197  1  0.911470  0.186110  0.097630  1.0  -0.5968
  O  O198  1  0.858170  0.224570  0.942050  1.0  -0.553
  O  O199  1  0.491670  0.193060  0.078140  1.0  -0.605
  O  O200  1  0.575370  0.325990  0.107010  1.0  -0.5967
  O  O201  1  0.629870  0.293450  0.004730  1.0  -0.6608
  O  O202  1  0.328470  0.203940  0.907900  1.0  -0.6017
  O  O203  1  0.456130  0.615070  0.710640  1.0  -0.6329
  O  O204  1  0.273230  0.691270  0.813360  1.0  -0.7751
  O  O205  1  0.086030  0.627030  0.705130  1.0  -0.5988
  O  O206  1  0.419230  0.842880  0.793650  1.0  -0.6508
  O  O207  1  0.184430  0.807000  0.833580  1.0  -0.6565
  O  O208  1  0.578130  0.911520  0.813890  1.0  -0.5965
  O  O209  1  0.524830  0.717480  0.775430  1.0  -0.5521
  O  O210  1  0.158330  0.885080  0.806940  1.0  -0.6078
  O  O211  1  0.242030  0.781020  0.674010  1.0  -0.5934
  O  O212  1  0.296530  0.711280  0.706550  1.0  -0.6602
  O  O213  1  0.995130  0.703960  0.796060  1.0  -0.6001
  O  O214  1  0.622800  0.904430  0.615070  1.0  -0.6318
  O  O215  1  0.439900  0.877910  0.691270  1.0  -0.7737
  O  O216  1  0.252700  0.921900  0.627030  1.0  -0.5979
  O  O217  1  0.585900  0.049230  0.842880  1.0  -0.6514
  O  O218  1  0.351100  0.973420  0.807000  1.0  -0.6555
  O  O219  1  0.744800  0.097630  0.911520  1.0  -0.5957
  O  O220  1  0.691500  0.942050  0.717480  1.0  -0.5528
  O  O221  1  0.325000  0.078140  0.885080  1.0  -0.6105
  O  O222  1  0.408700  0.107010  0.781020  1.0  -0.5954
  O  O223  1  0.463200  0.004730  0.711280  1.0  -0.6613
  O  O224  1  0.161800  0.907900  0.703960  1.0  -0.5997
  O  O225  1  0.289470  0.710640  0.095570  1.0  -0.6329
  O  O226  1  0.106570  0.813360  0.122090  1.0  -0.7753
  O  O227  1  0.919370  0.705130  0.078100  1.0  -0.5991
  O  O228  1  0.252570  0.793650  0.950770  1.0  -0.6513
  O  O229  1  0.017770  0.833580  0.026580  1.0  -0.6551
  O  O230  1  0.411470  0.813890  0.902370  1.0  -0.5962
  O  O231  1  0.358170  0.775430  0.057950  1.0  -0.5526
  O  O232  1  0.991670  0.806940  0.921860  1.0  -0.6061
  O  O233  1  0.075370  0.674010  0.892990  1.0  -0.5946
  O  O234  1  0.129870  0.706550  0.995270  1.0  -0.661
  O  O235  1  0.828470  0.796060  0.092100  1.0  -0.6012
  O  O236  1  0.956130  0.384930  0.289360  1.0  -0.6317
  O  O237  1  0.773230  0.308730  0.186640  1.0  -0.7764
  O  O238  1  0.586030  0.372970  0.294870  1.0  -0.5976
  O  O239  1  0.919230  0.157120  0.206350  1.0  -0.6514
  O  O240  1  0.684430  0.193000  0.166420  1.0  -0.656
  O  O241  1  0.078130  0.088480  0.186110  1.0  -0.5969
  O  O242  1  0.024830  0.282520  0.224570  1.0  -0.5529
  O  O243  1  0.658330  0.114920  0.193060  1.0  -0.6071
  O  O244  1  0.742030  0.218980  0.325990  1.0  -0.5946
  O  O245  1  0.796530  0.288720  0.293450  1.0  -0.6606
  O  O246  1  0.495130  0.296040  0.203940  1.0  -0.6003
