# generated using pymatgen
data_Sc4(PO4)7
_symmetry_space_group_name_H-M   'P 1'
_cell_length_a   13.87200000
_cell_length_b   13.87200000
_cell_length_c   9.43500000
_cell_angle_alpha   90.00000000
_cell_angle_beta   90.00000000
_cell_angle_gamma   120.00000000
_symmetry_Int_Tables_number   1
_chemical_formula_structural   Sc4(PO4)7
_chemical_formula_sum   'Sc8 P14 O56'
_cell_volume   1572.35532737
_cell_formula_units_Z   2
loop_
 _symmetry_equiv_pos_site_id
 _symmetry_equiv_pos_as_xyz
  1  'x, y, z'
loop_
 _atom_site_type_symbol
 _atom_site_label
 _atom_site_symmetry_multiplicity
 _atom_site_fract_x
 _atom_site_fract_y
 _atom_site_fract_z
 _atom_site_occupancy
 _atom_site_charge
  Sc  Sc1  1  0.561500  0.855300  0.407940  1.0  2.0916
  Sc  Sc2  1  0.144700  0.706200  0.407940  1.0  2.0922
  Sc  Sc3  1  0.293800  0.438500  0.407940  1.0  2.092
  Sc  Sc4  1  0.438500  0.144700  0.592060  1.0  2.0933
  Sc  Sc5  1  0.855300  0.293800  0.592060  1.0  2.0943
  Sc  Sc6  1  0.706200  0.561500  0.592060  1.0  2.092
  Sc  Sc7  1  0.000000  0.000000  0.000000  1.0  1.9776
  Sc  Sc8  1  0.000000  0.000000  0.500000  1.0  2.0192
  P  P9  1  0.816210  0.984840  0.245280  1.0  1.6633
  P  P10  1  0.631750  0.126510  0.396690  1.0  1.7354
  P  P11  1  0.015160  0.831370  0.245280  1.0  1.6647
  P  P12  1  0.873490  0.505240  0.396690  1.0  1.7358
  P  P13  1  0.168630  0.183790  0.245280  1.0  1.6652
  P  P14  1  0.494760  0.368250  0.396690  1.0  1.7353
  P  P15  1  0.183790  0.015160  0.754720  1.0  1.6642
  P  P16  1  0.368250  0.873490  0.603310  1.0  1.7365
  P  P17  1  0.984840  0.168630  0.754720  1.0  1.6629
  P  P18  1  0.126510  0.494760  0.603310  1.0  1.7358
  P  P19  1  0.831370  0.816210  0.754720  1.0  1.6635
  P  P20  1  0.505240  0.631750  0.603310  1.0  1.7364
  P  P21  1  0.333333  0.666667  0.215700  1.0  1.6651
  P  P22  1  0.666667  0.333333  0.784300  1.0  1.6643
  O  O23  1  0.700200  0.890900  0.286200  1.0  -0.7935
  O  O24  1  0.861100  0.943400  0.128400  1.0  -0.7682
  O  O25  1  0.892800  0.030600  0.375700  1.0  -0.7967
  O  O26  1  0.805800  0.083800  0.177000  1.0  -0.486
  O  O27  1  0.576300  0.006500  0.355300  1.0  -0.8036
  O  O28  1  0.698800  0.195300  0.262500  1.0  -0.5038
  O  O29  1  0.450600  0.835300  0.568200  1.0  -0.7891
  O  O30  1  0.564500  0.716300  0.484000  1.0  -0.7711
  O  O31  1  0.444800  0.765500  0.260500  1.0  -0.8261
  O  O32  1  0.109100  0.809300  0.286200  1.0  -0.7939
  O  O33  1  0.056600  0.917700  0.128400  1.0  -0.7647
  O  O34  1  0.969400  0.862200  0.375700  1.0  -0.7964
  O  O35  1  0.916200  0.722000  0.177000  1.0  -0.4868
  O  O36  1  0.993500  0.569800  0.355300  1.0  -0.8016
  O  O37  1  0.804700  0.503500  0.262500  1.0  -0.5028
  O  O38  1  0.164700  0.615300  0.568200  1.0  -0.7901
  O  O39  1  0.283700  0.848200  0.484000  1.0  -0.7704
  O  O40  1  0.234500  0.679300  0.260500  1.0  -0.8249
  O  O41  1  0.190700  0.299800  0.286200  1.0  -0.7933
  O  O42  1  0.082300  0.138900  0.128400  1.0  -0.7684
  O  O43  1  0.137800  0.107200  0.375700  1.0  -0.7948
  O  O44  1  0.278000  0.194200  0.177000  1.0  -0.4851
  O  O45  1  0.430200  0.423700  0.355300  1.0  -0.803
  O  O46  1  0.496500  0.301200  0.262500  1.0  -0.5039
  O  O47  1  0.384700  0.549400  0.568200  1.0  -0.7897
  O  O48  1  0.151800  0.435500  0.484000  1.0  -0.7734
  O  O49  1  0.320700  0.555200  0.260500  1.0  -0.8246
  O  O50  1  0.299800  0.109100  0.713800  1.0  -0.7924
  O  O51  1  0.138900  0.056600  0.871600  1.0  -0.7684
  O  O52  1  0.107200  0.969400  0.624300  1.0  -0.7952
  O  O53  1  0.194200  0.916200  0.823000  1.0  -0.486
  O  O54  1  0.423700  0.993500  0.644700  1.0  -0.8023
  O  O55  1  0.301200  0.804700  0.737500  1.0  -0.5054
  O  O56  1  0.549400  0.164700  0.431800  1.0  -0.7895
  O  O57  1  0.435500  0.283700  0.516000  1.0  -0.7744
  O  O58  1  0.555200  0.234500  0.739500  1.0  -0.8251
  O  O59  1  0.890900  0.190700  0.713800  1.0  -0.7922
  O  O60  1  0.943400  0.082300  0.871600  1.0  -0.7667
  O  O61  1  0.030600  0.137800  0.624300  1.0  -0.7949
  O  O62  1  0.083800  0.278000  0.823000  1.0  -0.483
  O  O63  1  0.006500  0.430200  0.644700  1.0  -0.8015
  O  O64  1  0.195300  0.496500  0.737500  1.0  -0.5028
  O  O65  1  0.835300  0.384700  0.431800  1.0  -0.7902
  O  O66  1  0.716300  0.151800  0.516000  1.0  -0.7745
  O  O67  1  0.765500  0.320700  0.739500  1.0  -0.8244
  O  O68  1  0.809300  0.700200  0.713800  1.0  -0.7903
  O  O69  1  0.917700  0.861100  0.871600  1.0  -0.7669
  O  O70  1  0.862200  0.892800  0.624300  1.0  -0.7939
  O  O71  1  0.722000  0.805800  0.823000  1.0  -0.4825
  O  O72  1  0.569800  0.576300  0.644700  1.0  -0.8026
  O  O73  1  0.503500  0.698800  0.737500  1.0  -0.5048
  O  O74  1  0.615300  0.450600  0.431800  1.0  -0.7903
  O  O75  1  0.848200  0.564500  0.516000  1.0  -0.7758
  O  O76  1  0.679300  0.444800  0.739500  1.0  -0.8266
  O  O77  1  0.333333  0.666667  0.046900  1.0  -0.5363
  O  O78  1  0.666667  0.333333  0.953100  1.0  -0.5365
