# generated using pymatgen
data_NdH10C12(N2O3)2
_symmetry_space_group_name_H-M   'P 1'
_cell_length_a   10.46800000
_cell_length_b   11.32600000
_cell_length_c   12.72590000
_cell_angle_alpha   100.84500000
_cell_angle_beta   109.92900000
_cell_angle_gamma   99.76900000
_symmetry_Int_Tables_number   1
_chemical_formula_structural   NdH10C12(N2O3)2
_chemical_formula_sum   'Nd2 H20 C24 N8 O12'
_cell_volume   1347.69860419
_cell_formula_units_Z   2
loop_
 _symmetry_equiv_pos_site_id
 _symmetry_equiv_pos_as_xyz
  1  'x, y, z'
loop_
 _atom_site_type_symbol
 _atom_site_label
 _atom_site_symmetry_multiplicity
 _atom_site_fract_x
 _atom_site_fract_y
 _atom_site_fract_z
 _atom_site_occupancy
 _atom_site_charge
  Nd  Nd1  1  0.892420  0.951090  0.823930  1.0  2.228
  Nd  Nd2  1  0.107580  0.048910  0.176070  1.0  2.2295
  H  H3  1  0.624700  0.163100  0.269900  1.0  0.2179
  H  H4  1  0.757600  0.143200  0.253100  1.0  0.3033
  H  H5  1  0.984600  0.528200  0.737900  1.0  0.2992
  H  H6  1  0.965500  0.652800  0.791400  1.0  0.2978
  H  H7  1  0.848500  0.586900  0.591500  1.0  0.269
  H  H8  1  0.803900  0.481800  0.481900  1.0  0.2999
  H  H9  1  0.596400  0.919800  0.871800  1.0  0.088
  H  H10  1  0.002900  0.366600  0.836900  1.0  0.095
  H  H11  1  0.449800  0.728000  0.681900  1.0  0.1859
  H  H12  1  0.309000  0.631400  0.623100  1.0  0.2483
  H  H13  1  0.375300  0.836900  0.730100  1.0  0.2179
  H  H14  1  0.242400  0.856800  0.746900  1.0  0.3069
  H  H15  1  0.015400  0.471800  0.262100  1.0  0.2988
  H  H16  1  0.034500  0.347200  0.208600  1.0  0.2975
  H  H17  1  0.151500  0.413100  0.408500  1.0  0.2689
  H  H18  1  0.196100  0.518200  0.518100  1.0  0.2984
  H  H19  1  0.403600  0.080200  0.128200  1.0  0.0885
  H  H20  1  0.997100  0.633400  0.163100  1.0  0.0961
  H  H21  1  0.550200  0.272000  0.318100  1.0  0.185
  H  H22  1  0.691000  0.368600  0.376900  1.0  0.2493
  C  C23  1  0.799000  0.027900  0.074200  1.0  0.6778
  C  C24  1  0.644900  0.014400  0.037500  1.0  -0.1749
  C  C25  1  0.587200  0.063600  0.114600  1.0  0.284
  C  C26  1  0.556900  0.952400  0.924300  1.0  -0.1504
  C  C27  1  0.970100  0.750400  0.000400  1.0  0.7231
  C  C28  1  0.983400  0.619600  0.998700  1.0  -0.169
  C  C29  1  0.983000  0.538900  0.898700  1.0  0.1668
  C  C30  1  0.001200  0.420600  0.903000  1.0  -0.0826
  C  C31  1  0.695700  0.727200  0.661300  1.0  0.6494
  C  C32  1  0.595400  0.608600  0.579200  1.0  -0.1041
  C  C33  1  0.638300  0.530300  0.507600  1.0  0.1875
  C  C34  1  0.457100  0.579300  0.570300  1.0  0.162
  C  C35  1  0.201000  0.972100  0.925800  1.0  0.6785
  C  C36  1  0.355100  0.985600  0.962500  1.0  -0.173
  C  C37  1  0.412800  0.936400  0.885400  1.0  0.2829
  C  C38  1  0.443100  0.047600  0.075700  1.0  -0.1508
  C  C39  1  0.029900  0.249600  0.999600  1.0  0.723
  C  C40  1  0.016600  0.380400  0.001300  1.0  -0.1685
  C  C41  1  0.017000  0.461100  0.101300  1.0  0.1698
  C  C42  1  0.998800  0.579400  0.097000  1.0  -0.0836
  C  C43  1  0.304300  0.272800  0.338700  1.0  0.6472
  C  C44  1  0.404600  0.391400  0.420800  1.0  -0.1034
  C  C45  1  0.361700  0.469700  0.492400  1.0  0.1878
  C  C46  1  0.542900  0.420700  0.429700  1.0  0.1596
  N  N47  1  0.665700  0.131200  0.225500  1.0  -0.6559
  N  N48  1  0.976900  0.578400  0.796000  1.0  -0.6726
  N  N49  1  0.782000  0.533400  0.530000  1.0  -0.6677
  N  N50  1  0.398000  0.656000  0.633000  1.0  -0.6069
  N  N51  1  0.334300  0.868800  0.774500  1.0  -0.6537
  N  N52  1  0.023100  0.421600  0.204000  1.0  -0.6746
  N  N53  1  0.218000  0.466600  0.470000  1.0  -0.6665
  N  N54  1  0.602000  0.344000  0.367000  1.0  -0.6066
  O  O55  1  0.850100  0.997200  0.999100  1.0  -0.8722
  O  O56  1  0.877900  0.067800  0.180400  1.0  -0.6483
  O  O57  1  0.926800  0.776000  0.905000  1.0  -0.6088
  O  O58  1  0.003600  0.825000  0.097900  1.0  -0.7235
  O  O59  1  0.659500  0.791400  0.731800  1.0  -0.6083
  O  O60  1  0.815200  0.761500  0.657200  1.0  -0.6384
  O  O61  1  0.149900  0.002800  0.000900  1.0  -0.8713
  O  O62  1  0.122100  0.932200  0.819600  1.0  -0.649
  O  O63  1  0.073200  0.224000  0.095000  1.0  -0.6104
  O  O64  1  0.996400  0.175000  0.902100  1.0  -0.7271
  O  O65  1  0.340500  0.208600  0.268200  1.0  -0.6072
  O  O66  1  0.184800  0.238500  0.342800  1.0  -0.6392
