# generated using pymatgen
data_In3H4(C10O9)2
_symmetry_space_group_name_H-M   'P 1'
_cell_length_a   7.21040000
_cell_length_b   13.63700000
_cell_length_c   17.37900000
_cell_angle_alpha   90.00000000
_cell_angle_beta   100.65700000
_cell_angle_gamma   90.00000000
_symmetry_Int_Tables_number   1
_chemical_formula_structural   In3H4(C10O9)2
_chemical_formula_sum   'In6 H8 C40 O36'
_cell_volume   1679.37180176
_cell_formula_units_Z   2
loop_
 _symmetry_equiv_pos_site_id
 _symmetry_equiv_pos_as_xyz
  1  'x, y, z'
loop_
 _atom_site_type_symbol
 _atom_site_label
 _atom_site_symmetry_multiplicity
 _atom_site_fract_x
 _atom_site_fract_y
 _atom_site_fract_z
 _atom_site_occupancy
 _atom_site_charge
  In  In1  1  0.466970  0.098770  0.446730  1.0  1.5671
  In  In2  1  0.533030  0.598770  0.053270  1.0  1.5672
  In  In3  1  0.533030  0.901230  0.553270  1.0  1.5683
  In  In4  1  0.466970  0.401230  0.946730  1.0  1.5677
  In  In5  1  0.000000  0.000000  0.500000  1.0  1.7136
  In  In6  1  0.000000  0.500000  0.000000  1.0  1.7136
  H  H7  1  0.203100  0.226700  0.777100  1.0  0.1429
  H  H8  1  0.541500  0.210400  0.723400  1.0  0.1418
  H  H9  1  0.796900  0.726700  0.722900  1.0  0.1427
  H  H10  1  0.458500  0.710400  0.776600  1.0  0.1415
  H  H11  1  0.796900  0.773300  0.222900  1.0  0.1423
  H  H12  1  0.458500  0.789600  0.276600  1.0  0.1415
  H  H13  1  0.203100  0.273300  0.277100  1.0  0.1427
  H  H14  1  0.541500  0.289600  0.223400  1.0  0.1418
  C  C15  1  0.779600  0.170200  0.684400  1.0  -0.0037
  C  C16  1  0.976200  0.177600  0.699600  1.0  -0.0958
  C  C17  1  0.069100  0.224600  0.765900  1.0  0.0046
  C  C18  1  0.965100  0.268700  0.816000  1.0  -0.0733
  C  C19  1  0.766400  0.263100  0.799900  1.0  -0.026
  C  C20  1  0.675300  0.214100  0.734300  1.0  -0.0301
  C  C21  1  0.671800  0.111800  0.617500  1.0  0.7213
  C  C22  1  0.085600  0.132900  0.641500  1.0  0.7337
  C  C23  1  0.064000  0.331800  0.882600  1.0  0.7265
  C  C24  1  0.650200  0.310500  0.852500  1.0  0.6771
  C  C25  1  0.220400  0.670200  0.815600  1.0  -0.0038
  C  C26  1  0.023800  0.677600  0.800400  1.0  -0.0895
  C  C27  1  0.930900  0.724600  0.734100  1.0  0.0033
  C  C28  1  0.034900  0.768700  0.684000  1.0  -0.0694
  C  C29  1  0.233600  0.763100  0.700100  1.0  -0.0269
  C  C30  1  0.324700  0.714100  0.765700  1.0  -0.0313
  C  C31  1  0.328200  0.611800  0.882500  1.0  0.721
  C  C32  1  0.914400  0.632900  0.858500  1.0  0.7347
  C  C33  1  0.936000  0.831800  0.617400  1.0  0.7249
  C  C34  1  0.349800  0.810500  0.647500  1.0  0.668
  C  C35  1  0.220400  0.829800  0.315600  1.0  -0.0035
  C  C36  1  0.023800  0.822400  0.300400  1.0  -0.0953
  C  C37  1  0.930900  0.775400  0.234100  1.0  0.0031
  C  C38  1  0.034900  0.731300  0.184000  1.0  -0.0688
  C  C39  1  0.233600  0.736900  0.200100  1.0  -0.027
  C  C40  1  0.324700  0.785900  0.265700  1.0  -0.0319
  C  C41  1  0.328200  0.888200  0.382500  1.0  0.7217
  C  C42  1  0.914400  0.867100  0.358500  1.0  0.7349
  C  C43  1  0.936000  0.668200  0.117400  1.0  0.7253
  C  C44  1  0.349800  0.689500  0.147500  1.0  0.6681
  C  C45  1  0.779600  0.329800  0.184400  1.0  -0.0035
  C  C46  1  0.976200  0.322400  0.199600  1.0  -0.0978
  C  C47  1  0.069100  0.275400  0.265900  1.0  0.0045
  C  C48  1  0.965100  0.231300  0.316000  1.0  -0.0728
  C  C49  1  0.766400  0.236900  0.299900  1.0  -0.0262
  C  C50  1  0.675300  0.285900  0.234300  1.0  -0.0304
  C  C51  1  0.671800  0.388200  0.117500  1.0  0.7219
  C  C52  1  0.085600  0.367100  0.141500  1.0  0.7343
  C  C53  1  0.064000  0.168200  0.382600  1.0  0.7263
  C  C54  1  0.650200  0.189500  0.352500  1.0  0.6681
  O  O55  1  0.574100  0.158400  0.561900  1.0  -0.5614
  O  O56  1  0.680900  0.019700  0.625800  1.0  -0.5951
  O  O57  1  0.986200  0.120000  0.573800  1.0  -0.5764
  O  O58  1  0.254500  0.111300  0.662400  1.0  -0.4909
  O  O59  1  0.232200  0.306300  0.913100  1.0  -0.6173
  O  O60  1  0.976200  0.404800  0.900300  1.0  -0.6062
  O  O61  1  0.663900  0.280800  0.921900  1.0  -0.5564
  O  O62  1  0.532300  0.376000  0.825600  1.0  -0.5729
  O  O63  1  0.691300  0.987700  0.471300  1.0  -0.7606
  O  O64  1  0.425900  0.658400  0.938100  1.0  -0.562
  O  O65  1  0.319100  0.519700  0.874200  1.0  -0.5952
  O  O66  1  0.013800  0.620000  0.926200  1.0  -0.5771
  O  O67  1  0.745500  0.611300  0.837600  1.0  -0.4913
  O  O68  1  0.767800  0.806300  0.586900  1.0  -0.6175
  O  O69  1  0.023800  0.904800  0.599700  1.0  -0.6067
  O  O70  1  0.336100  0.780800  0.578100  1.0  -0.5551
  O  O71  1  0.467700  0.876000  0.674400  1.0  -0.5746
  O  O72  1  0.308700  0.487700  0.028700  1.0  -0.7611
  O  O73  1  0.425900  0.841600  0.438100  1.0  -0.5616
  O  O74  1  0.319100  0.980300  0.374200  1.0  -0.5945
  O  O75  1  0.013800  0.880000  0.426200  1.0  -0.5768
  O  O76  1  0.745500  0.888700  0.337600  1.0  -0.4914
  O  O77  1  0.767800  0.693700  0.086900  1.0  -0.6181
  O  O78  1  0.023800  0.595200  0.099700  1.0  -0.6054
  O  O79  1  0.336100  0.719200  0.078100  1.0  -0.5561
  O  O80  1  0.467700  0.624000  0.174400  1.0  -0.5738
  O  O81  1  0.308700  0.012300  0.528700  1.0  -0.7609
  O  O82  1  0.574100  0.341600  0.061900  1.0  -0.5607
  O  O83  1  0.680900  0.480300  0.125800  1.0  -0.594
  O  O84  1  0.986200  0.380000  0.073800  1.0  -0.576
  O  O85  1  0.254500  0.388700  0.162400  1.0  -0.4905
  O  O86  1  0.232200  0.193700  0.413100  1.0  -0.6179
  O  O87  1  0.976200  0.095200  0.400300  1.0  -0.6051
  O  O88  1  0.663900  0.219200  0.421900  1.0  -0.5572
  O  O89  1  0.532300  0.124000  0.325600  1.0  -0.5724
  O  O90  1  0.691300  0.512300  0.971300  1.0  -0.7607
