# generated using pymatgen
data_CsAg2(CN)3
_symmetry_space_group_name_H-M   'P 1'
_cell_length_a   9.15710000
_cell_length_b   9.15700000
_cell_length_c   33.37060000
_cell_angle_alpha   94.30700000
_cell_angle_beta   94.30700000
_cell_angle_gamma   116.91300000
_symmetry_Int_Tables_number   1
_chemical_formula_structural   CsAg2(CN)3
_chemical_formula_sum   'Cs12 Ag24 C36 N36'
_cell_volume   2469.27619173
_cell_formula_units_Z   12
loop_
 _symmetry_equiv_pos_site_id
 _symmetry_equiv_pos_as_xyz
  1  'x, y, z'
loop_
 _atom_site_type_symbol
 _atom_site_label
 _atom_site_symmetry_multiplicity
 _atom_site_fract_x
 _atom_site_fract_y
 _atom_site_fract_z
 _atom_site_occupancy
 _atom_site_charge
  Cs  Cs1  1  0.885020  0.324860  0.640980  1.0  0.8509
  Cs  Cs2  1  0.755960  0.816120  0.640980  1.0  0.8502
  Cs  Cs3  1  0.675140  0.114980  0.859020  1.0  0.8519
  Cs  Cs4  1  0.183880  0.244040  0.859020  1.0  0.8512
  Cs  Cs5  1  0.114980  0.675140  0.359020  1.0  0.8511
  Cs  Cs6  1  0.244040  0.183880  0.359020  1.0  0.8514
  Cs  Cs7  1  0.324860  0.885020  0.140980  1.0  0.8505
  Cs  Cs8  1  0.816120  0.755960  0.140980  1.0  0.8511
  Cs  Cs9  1  0.279340  0.529340  0.558680  1.0  0.8086
  Cs  Cs10  1  0.470660  0.720660  0.941320  1.0  0.8079
  Cs  Cs11  1  0.720660  0.470660  0.441320  1.0  0.8086
  Cs  Cs12  1  0.529340  0.279340  0.058680  1.0  0.8078
  Ag  Ag13  1  0.918950  0.109830  0.477060  1.0  0.245
  Ag  Ag14  1  0.306490  0.234690  0.648940  1.0  0.3672
  Ag  Ag15  1  0.558110  0.867230  0.477060  1.0  0.2451
  Ag  Ag16  1  0.342450  0.914250  0.648940  1.0  0.3667
  Ag  Ag17  1  0.890170  0.081050  0.022940  1.0  0.245
  Ag  Ag18  1  0.765310  0.693510  0.851060  1.0  0.3678
  Ag  Ag19  1  0.132770  0.441890  0.022940  1.0  0.2447
  Ag  Ag20  1  0.085750  0.657550  0.851060  1.0  0.3667
  Ag  Ag21  1  0.081050  0.890170  0.522940  1.0  0.2444
  Ag  Ag22  1  0.693510  0.765310  0.351060  1.0  0.3677
  Ag  Ag23  1  0.441890  0.132770  0.522940  1.0  0.2444
  Ag  Ag24  1  0.657550  0.085750  0.351060  1.0  0.3667
  Ag  Ag25  1  0.109830  0.918950  0.977060  1.0  0.2439
  Ag  Ag26  1  0.234690  0.306490  0.148940  1.0  0.3675
  Ag  Ag27  1  0.867230  0.558110  0.977060  1.0  0.2443
  Ag  Ag28  1  0.914250  0.342450  0.148940  1.0  0.3672
  Ag  Ag29  1  0.779310  0.529310  0.558620  1.0  0.6499
  Ag  Ag30  1  0.470690  0.220690  0.941380  1.0  0.6505
  Ag  Ag31  1  0.220690  0.470690  0.441380  1.0  0.6505
  Ag  Ag32  1  0.529310  0.779310  0.058620  1.0  0.6499
  Ag  Ag33  1  0.875000  0.125000  0.750000  1.0  0.5683
  Ag  Ag34  1  0.125000  0.875000  0.250000  1.0  0.5688
  Ag  Ag35  1  0.375000  0.625000  0.750000  1.0  0.1715
  Ag  Ag36  1  0.625000  0.375000  0.250000  1.0  0.1715
  C  C37  1  0.505100  0.345100  0.615400  1.0  -0.1313
  C  C38  1  0.867500  0.280100  0.511200  1.0  -0.0146
  C  C39  1  0.943100  0.937900  0.435600  1.0  0.0463
  C  C40  1  0.139500  0.163100  0.691200  1.0  -0.0953
  C  C41  1  0.110300  0.770300  0.615400  1.0  -0.1326
  C  C42  1  0.643700  0.731100  0.511200  1.0  -0.015
  C  C43  1  0.492500  0.997700  0.435600  1.0  0.0469
  C  C44  1  0.551700  0.028100  0.691200  1.0  -0.0942
  C  C45  1  0.654900  0.494900  0.884600  1.0  -0.1299
  C  C46  1  0.719900  0.132500  0.988800  1.0  -0.0149
  C  C47  1  0.062100  0.056900  0.064400  1.0  0.0479
  C  C48  1  0.836900  0.860500  0.808800  1.0  -0.0972
  C  C49  1  0.229700  0.889700  0.884600  1.0  -0.1308
  C  C50  1  0.268900  0.356300  0.988800  1.0  -0.0155
  C  C51  1  0.002300  0.507500  0.064400  1.0  0.0478
  C  C52  1  0.971900  0.448300  0.808800  1.0  -0.0966
  C  C53  1  0.494900  0.654900  0.384600  1.0  -0.13
  C  C54  1  0.132500  0.719900  0.488800  1.0  -0.0157
  C  C55  1  0.056900  0.062100  0.564400  1.0  0.0473
  C  C56  1  0.860500  0.836900  0.308800  1.0  -0.0946
  C  C57  1  0.889700  0.229700  0.384600  1.0  -0.1297
  C  C58  1  0.356300  0.268900  0.488800  1.0  -0.0156
  C  C59  1  0.507500  0.002300  0.564400  1.0  0.0479
  C  C60  1  0.448300  0.971900  0.308800  1.0  -0.0946
  C  C61  1  0.345100  0.505100  0.115400  1.0  -0.1317
  C  C62  1  0.280100  0.867500  0.011200  1.0  -0.0144
  C  C63  1  0.937900  0.943100  0.935600  1.0  0.0471
  C  C64  1  0.163100  0.139500  0.191200  1.0  -0.0974
  C  C65  1  0.770300  0.110300  0.115400  1.0  -0.1348
  C  C66  1  0.731100  0.643700  0.011200  1.0  -0.0141
  C  C67  1  0.997700  0.492500  0.935600  1.0  0.0468
  C  C68  1  0.028100  0.551700  0.191200  1.0  -0.0958
  C  C69  1  0.341200  0.591200  0.682400  1.0  -0.0266
  C  C70  1  0.408800  0.658800  0.817600  1.0  -0.0273
  C  C71  1  0.658800  0.408800  0.317600  1.0  -0.0273
  C  C72  1  0.591200  0.341200  0.182400  1.0  -0.0266
  N  N73  1  0.608400  0.419400  0.597000  1.0  -0.5326
  N  N74  1  0.829700  0.367900  0.529600  1.0  -0.4511
  N  N75  1  0.955300  0.858300  0.412000  1.0  -0.5354
  N  N76  1  0.043000  0.145000  0.713400  1.0  -0.4557
  N  N77  1  0.988600  0.677600  0.597000  1.0  -0.53
  N  N78  1  0.699900  0.661700  0.529600  1.0  -0.4482
  N  N79  1  0.456700  0.053700  0.412000  1.0  -0.5368
  N  N80  1  0.670400  0.068400  0.713400  1.0  -0.4558
  N  N81  1  0.580600  0.391600  0.903000  1.0  -0.5294
  N  N82  1  0.632100  0.170300  0.970400  1.0  -0.4489
  N  N83  1  0.141700  0.044700  0.088000  1.0  -0.5384
  N  N84  1  0.855000  0.957000  0.786600  1.0  -0.4558
  N  N85  1  0.322400  0.011400  0.903000  1.0  -0.5314
  N  N86  1  0.338300  0.300100  0.970400  1.0  -0.4467
  N  N87  1  0.946300  0.543300  0.088000  1.0  -0.5389
  N  N88  1  0.931600  0.329600  0.786600  1.0  -0.4554
  N  N89  1  0.391600  0.580600  0.403000  1.0  -0.5298
  N  N90  1  0.170300  0.632100  0.470400  1.0  -0.4489
  N  N91  1  0.044700  0.141700  0.588000  1.0  -0.5386
  N  N92  1  0.957000  0.855000  0.286600  1.0  -0.4559
  N  N93  1  0.011400  0.322400  0.403000  1.0  -0.5298
  N  N94  1  0.300100  0.338300  0.470400  1.0  -0.4497
  N  N95  1  0.543300  0.946300  0.588000  1.0  -0.538
  N  N96  1  0.329600  0.931600  0.286600  1.0  -0.4551
  N  N97  1  0.419400  0.608400  0.097000  1.0  -0.5308
  N  N98  1  0.367900  0.829700  0.029600  1.0  -0.4489
  N  N99  1  0.858300  0.955300  0.912000  1.0  -0.537
  N  N100  1  0.145000  0.043000  0.213400  1.0  -0.455
  N  N101  1  0.677600  0.988600  0.097000  1.0  -0.5304
  N  N102  1  0.661700  0.699900  0.029600  1.0  -0.45
  N  N103  1  0.053700  0.456700  0.912000  1.0  -0.5362
  N  N104  1  0.068400  0.670400  0.213400  1.0  -0.4576
  N  N105  1  0.326900  0.576900  0.653800  1.0  -0.394
  N  N106  1  0.423100  0.673100  0.846200  1.0  -0.3901
  N  N107  1  0.673100  0.423100  0.346200  1.0  -0.3901
  N  N108  1  0.576900  0.326900  0.153800  1.0  -0.394
