# generated using pymatgen
data_In3H4(C10O9)2
_symmetry_space_group_name_H-M   'P 1'
_cell_length_a   7.20300000
_cell_length_b   13.43000000
_cell_length_c   17.54000000
_cell_angle_alpha   90.00000000
_cell_angle_beta   100.76000000
_cell_angle_gamma   90.00000000
_symmetry_Int_Tables_number   1
_chemical_formula_structural   In3H4(C10O9)2
_chemical_formula_sum   'In6 H8 C40 O36'
_cell_volume   1666.92189697
_cell_formula_units_Z   2
loop_
 _symmetry_equiv_pos_site_id
 _symmetry_equiv_pos_as_xyz
  1  'x, y, z'
loop_
 _atom_site_type_symbol
 _atom_site_label
 _atom_site_symmetry_multiplicity
 _atom_site_fract_x
 _atom_site_fract_y
 _atom_site_fract_z
 _atom_site_occupancy
 _atom_site_charge
  In  In1  1  0.468280  0.398170  0.948180  1.0  1.5725
  In  In2  1  0.531720  0.898170  0.551820  1.0  1.5724
  In  In3  1  0.531720  0.601830  0.051820  1.0  1.5719
  In  In4  1  0.468280  0.101830  0.448180  1.0  1.5725
  In  In5  1  0.000000  0.500000  0.000000  1.0  1.719
  In  In6  1  0.000000  0.000000  0.500000  1.0  1.719
  H  H7  1  0.204800  0.275600  0.278700  1.0  0.1415
  H  H8  1  0.543700  0.292800  0.226000  1.0  0.1282
  H  H9  1  0.795200  0.775600  0.221300  1.0  0.1415
  H  H10  1  0.456300  0.792800  0.274000  1.0  0.1289
  H  H11  1  0.795200  0.724400  0.721300  1.0  0.1415
  H  H12  1  0.456300  0.707200  0.774000  1.0  0.1289
  H  H13  1  0.204800  0.224400  0.778700  1.0  0.1418
  H  H14  1  0.543700  0.207200  0.726000  1.0  0.1283
  C  C15  1  0.781300  0.330800  0.184800  1.0  0.0087
  C  C16  1  0.977300  0.325200  0.199800  1.0  -0.0999
  C  C17  1  0.070700  0.278100  0.267400  1.0  0.0051
  C  C18  1  0.967200  0.235200  0.318000  1.0  -0.0544
  C  C19  1  0.769300  0.240400  0.302500  1.0  -0.0395
  C  C20  1  0.677700  0.288500  0.236400  1.0  -0.0437
  C  C21  1  0.673200  0.388800  0.117600  1.0  0.7154
  C  C22  1  0.086000  0.368500  0.142000  1.0  0.7624
  C  C23  1  0.064800  0.172900  0.384200  1.0  0.7298
  C  C24  1  0.651900  0.195800  0.354600  1.0  0.6842
  C  C25  1  0.218700  0.830800  0.315200  1.0  0.009
  C  C26  1  0.022700  0.825200  0.300200  1.0  -0.0996
  C  C27  1  0.929300  0.778100  0.232600  1.0  0.0043
  C  C28  1  0.032800  0.735200  0.182000  1.0  -0.0541
  C  C29  1  0.230700  0.740400  0.197500  1.0  -0.0401
  C  C30  1  0.322300  0.788500  0.263600  1.0  -0.0431
  C  C31  1  0.326800  0.888800  0.382400  1.0  0.7162
  C  C32  1  0.914000  0.868500  0.358000  1.0  0.7626
  C  C33  1  0.935200  0.672900  0.115800  1.0  0.7308
  C  C34  1  0.348100  0.695800  0.145400  1.0  0.6832
  C  C35  1  0.218700  0.669200  0.815200  1.0  0.0088
  C  C36  1  0.022700  0.674800  0.800200  1.0  -0.0993
  C  C37  1  0.929300  0.721900  0.732600  1.0  0.0045
  C  C38  1  0.032800  0.764800  0.682000  1.0  -0.0539
  C  C39  1  0.230700  0.759600  0.697500  1.0  -0.0402
  C  C40  1  0.322300  0.711500  0.763600  1.0  -0.0429
  C  C41  1  0.326800  0.611200  0.882400  1.0  0.7154
  C  C42  1  0.914000  0.631500  0.858000  1.0  0.7622
  C  C43  1  0.935200  0.827100  0.615800  1.0  0.7309
  C  C44  1  0.348100  0.804200  0.645400  1.0  0.6837
  C  C45  1  0.781300  0.169200  0.684800  1.0  0.0086
  C  C46  1  0.977300  0.174800  0.699800  1.0  -0.0994
  C  C47  1  0.070700  0.221900  0.767400  1.0  0.0051
  C  C48  1  0.967200  0.264800  0.818000  1.0  -0.0542
  C  C49  1  0.769300  0.259600  0.802500  1.0  -0.0396
  C  C50  1  0.677700  0.211500  0.736400  1.0  -0.0437
  C  C51  1  0.673200  0.111200  0.617600  1.0  0.7147
  C  C52  1  0.086000  0.131500  0.642000  1.0  0.7618
  C  C53  1  0.064800  0.327100  0.884200  1.0  0.7302
  C  C54  1  0.651900  0.304200  0.854600  1.0  0.685
  O  O55  1  0.577100  0.338500  0.063100  1.0  -0.5493
  O  O56  1  0.680700  0.481400  0.124300  1.0  -0.6034
  O  O57  1  0.986900  0.378600  0.073700  1.0  -0.5661
  O  O58  1  0.256600  0.389700  0.162200  1.0  -0.5093
  O  O59  1  0.232800  0.198700  0.415600  1.0  -0.6212
  O  O60  1  0.977500  0.098200  0.401400  1.0  -0.6079
  O  O61  1  0.666000  0.223900  0.424100  1.0  -0.554
  O  O62  1  0.534100  0.128000  0.327900  1.0  -0.5813
  O  O63  1  0.690600  0.512800  0.971000  1.0  -0.7788
  O  O64  1  0.422900  0.838500  0.436900  1.0  -0.549
  O  O65  1  0.319300  0.981400  0.375700  1.0  -0.6029
  O  O66  1  0.013100  0.878600  0.426300  1.0  -0.566
  O  O67  1  0.743400  0.889700  0.337800  1.0  -0.5091
  O  O68  1  0.767200  0.698700  0.084400  1.0  -0.6209
  O  O69  1  0.022500  0.598200  0.098600  1.0  -0.6076
  O  O70  1  0.334000  0.723900  0.075900  1.0  -0.5527
  O  O71  1  0.465900  0.628000  0.172100  1.0  -0.583
  O  O72  1  0.309400  0.012800  0.529000  1.0  -0.7792
  O  O73  1  0.422900  0.661500  0.936900  1.0  -0.5484
  O  O74  1  0.319300  0.518600  0.875700  1.0  -0.604
  O  O75  1  0.013100  0.621400  0.926300  1.0  -0.5658
  O  O76  1  0.743400  0.610300  0.837800  1.0  -0.5089
  O  O77  1  0.767200  0.801300  0.584400  1.0  -0.6205
  O  O78  1  0.022500  0.901800  0.598600  1.0  -0.6088
  O  O79  1  0.334000  0.776100  0.575900  1.0  -0.5518
  O  O80  1  0.465900  0.872000  0.672100  1.0  -0.5833
  O  O81  1  0.309400  0.487200  0.029000  1.0  -0.779
  O  O82  1  0.577100  0.161500  0.563100  1.0  -0.549
  O  O83  1  0.680700  0.018600  0.624300  1.0  -0.6038
  O  O84  1  0.986900  0.121400  0.573700  1.0  -0.5656
  O  O85  1  0.256600  0.110300  0.662200  1.0  -0.5091
  O  O86  1  0.232800  0.301300  0.915600  1.0  -0.6207
  O  O87  1  0.977500  0.401800  0.901400  1.0  -0.6084
  O  O88  1  0.666000  0.276100  0.924100  1.0  -0.5544
  O  O89  1  0.534100  0.372000  0.827900  1.0  -0.5813
  O  O90  1  0.690600  0.987200  0.471000  1.0  -0.7786
