# generated using pymatgen
data_CaH4(C2O3)2
_symmetry_space_group_name_H-M   'P 1'
_cell_length_a   9.21970000
_cell_length_b   9.62280000
_cell_length_c   10.56490000
_cell_angle_alpha   90.00000000
_cell_angle_beta   90.00000000
_cell_angle_gamma   90.00000000
_symmetry_Int_Tables_number   1
_chemical_formula_structural   CaH4(C2O3)2
_chemical_formula_sum   'Ca4 H16 C16 O24'
_cell_volume   937.31084064
_cell_formula_units_Z   4
loop_
 _symmetry_equiv_pos_site_id
 _symmetry_equiv_pos_as_xyz
  1  'x, y, z'
loop_
 _atom_site_type_symbol
 _atom_site_label
 _atom_site_symmetry_multiplicity
 _atom_site_fract_x
 _atom_site_fract_y
 _atom_site_fract_z
 _atom_site_occupancy
 _atom_site_charge
  Ca  Ca1  1  0.813930  0.681120  0.322890  1.0  1.5539
  Ca  Ca2  1  0.313930  0.818880  0.677110  1.0  1.5538
  Ca  Ca3  1  0.686070  0.318880  0.822890  1.0  1.5543
  Ca  Ca4  1  0.186070  0.181120  0.177110  1.0  1.5537
  H  H5  1  0.689120  0.262550  0.342760  1.0  0.0988
  H  H6  1  0.750940  0.173780  0.142850  1.0  0.0949
  H  H7  1  0.571310  0.454640  0.339830  1.0  0.3544
  H  H8  1  0.876310  0.313030  0.034430  1.0  0.3535
  H  H9  1  0.189120  0.237450  0.657240  1.0  0.099
  H  H10  1  0.250940  0.326220  0.857150  1.0  0.0975
  H  H11  1  0.071310  0.045360  0.660170  1.0  0.3542
  H  H12  1  0.376310  0.186970  0.965570  1.0  0.3566
  H  H13  1  0.810880  0.737450  0.842760  1.0  0.0984
  H  H14  1  0.749060  0.826220  0.642850  1.0  0.0979
  H  H15  1  0.928690  0.545360  0.839830  1.0  0.3529
  H  H16  1  0.623690  0.686970  0.534430  1.0  0.3523
  H  H17  1  0.310880  0.762550  0.157240  1.0  0.099
  H  H18  1  0.249060  0.673780  0.357150  1.0  0.0946
  H  H19  1  0.428690  0.954640  0.160170  1.0  0.3534
  H  H20  1  0.123690  0.813030  0.465570  1.0  0.3533
  C  C21  1  0.890000  0.356900  0.295900  1.0  0.6907
  C  C22  1  0.726300  0.339000  0.275600  1.0  0.0317
  C  C23  1  0.702200  0.273600  0.142200  1.0  0.0437
  C  C24  1  0.541400  0.260700  0.106200  1.0  0.675
  C  C25  1  0.390000  0.143100  0.704100  1.0  0.6907
  C  C26  1  0.226300  0.161000  0.724400  1.0  0.0308
  C  C27  1  0.202200  0.226400  0.857800  1.0  0.0441
  C  C28  1  0.041400  0.239300  0.893800  1.0  0.675
  C  C29  1  0.610000  0.643100  0.795900  1.0  0.6888
  C  C30  1  0.773700  0.661000  0.775600  1.0  0.0327
  C  C31  1  0.797800  0.726400  0.642200  1.0  0.0433
  C  C32  1  0.958600  0.739300  0.606200  1.0  0.6761
  C  C33  1  0.110000  0.856900  0.204100  1.0  0.6909
  C  C34  1  0.273700  0.839000  0.224400  1.0  0.0309
  C  C35  1  0.297800  0.773600  0.357800  1.0  0.0429
  C  C36  1  0.458600  0.760700  0.393800  1.0  0.6763
  O  O37  1  0.942010  0.470050  0.325570  1.0  -0.6573
  O  O38  1  0.961540  0.245800  0.283710  1.0  -0.7438
  O  O39  1  0.660520  0.474170  0.281520  1.0  -0.5712
  O  O40  1  0.773030  0.354730  0.047980  1.0  -0.6118
  O  O41  1  0.451730  0.235190  0.189360  1.0  -0.6552
  O  O42  1  0.515410  0.267350  0.986670  1.0  -0.6592
  O  O43  1  0.442010  0.029950  0.674430  1.0  -0.6529
  O  O44  1  0.461540  0.254200  0.716290  1.0  -0.7433
  O  O45  1  0.160520  0.025830  0.718480  1.0  -0.57
  O  O46  1  0.273030  0.145270  0.952020  1.0  -0.6137
  O  O47  1  0.951730  0.264810  0.810640  1.0  -0.6564
  O  O48  1  0.015410  0.232650  0.013330  1.0  -0.6576
  O  O49  1  0.557990  0.529950  0.825570  1.0  -0.6569
  O  O50  1  0.538460  0.754200  0.783710  1.0  -0.7431
  O  O51  1  0.839480  0.525830  0.781520  1.0  -0.5706
  O  O52  1  0.726970  0.645270  0.547980  1.0  -0.6128
  O  O53  1  0.048270  0.764810  0.689360  1.0  -0.6557
  O  O54  1  0.984590  0.732650  0.486670  1.0  -0.6598
  O  O55  1  0.057990  0.970050  0.174430  1.0  -0.6576
  O  O56  1  0.038460  0.745800  0.216290  1.0  -0.7423
  O  O57  1  0.339480  0.974170  0.218480  1.0  -0.5702
  O  O58  1  0.226970  0.854730  0.452020  1.0  -0.6135
  O  O59  1  0.548270  0.735190  0.310640  1.0  -0.6568
  O  O60  1  0.484590  0.767350  0.513330  1.0  -0.6579
