# generated using pymatgen
data_Zn4H64C70N6O13
_symmetry_space_group_name_H-M   'P 1'
_cell_length_a   14.05780000
_cell_length_b   23.00130000
_cell_length_c   31.23800000
_cell_angle_alpha   90.88100000
_cell_angle_beta   90.00000000
_cell_angle_gamma   90.00000000
_symmetry_Int_Tables_number   1
_chemical_formula_structural   Zn4H64C70N6O13
_chemical_formula_sum   'Zn16 H256 C280 N24 O52'
_cell_volume   10099.54063029
_cell_formula_units_Z   4
loop_
 _symmetry_equiv_pos_site_id
 _symmetry_equiv_pos_as_xyz
  1  'x, y, z'
loop_
 _atom_site_type_symbol
 _atom_site_label
 _atom_site_symmetry_multiplicity
 _atom_site_fract_x
 _atom_site_fract_y
 _atom_site_fract_z
 _atom_site_occupancy
 _atom_site_charge
  Zn  Zn1  1  0.298730  0.267920  0.342570  1.0  1.0165
  Zn  Zn2  1  0.505600  0.214180  0.349620  1.0  0.9903
  Zn  Zn3  1  0.333980  0.030420  0.608430  1.0  0.8964
  Zn  Zn4  1  0.212500  0.969130  0.126860  1.0  0.8878
  Zn  Zn5  1  0.201270  0.767920  0.842570  1.0  1.0215
  Zn  Zn6  1  0.994400  0.714180  0.849620  1.0  0.9898
  Zn  Zn7  1  0.166020  0.530420  0.108430  1.0  0.8955
  Zn  Zn8  1  0.287500  0.469130  0.626860  1.0  0.8884
  Zn  Zn9  1  0.798730  0.232080  0.157430  1.0  1.0167
  Zn  Zn10  1  0.005600  0.285820  0.150380  1.0  0.9881
  Zn  Zn11  1  0.833980  0.469580  0.891570  1.0  0.896
  Zn  Zn12  1  0.712500  0.530870  0.373140  1.0  0.8868
  Zn  Zn13  1  0.701270  0.732080  0.657430  1.0  1.0218
  Zn  Zn14  1  0.494400  0.785820  0.650380  1.0  0.9878
  Zn  Zn15  1  0.666020  0.969580  0.391570  1.0  0.8959
  Zn  Zn16  1  0.787500  0.030870  0.873140  1.0  0.8876
  H  H17  1  0.220100  0.168200  0.448600  1.0  0.118
  H  H18  1  0.487500  0.112900  0.468100  1.0  0.1294
  H  H19  1  0.149500  0.123300  0.578400  1.0  0.1137
  H  H20  1  0.047900  0.145500  0.566000  1.0  0.1156
  H  H21  1  0.137000  0.185000  0.558600  1.0  0.1204
  H  H22  1  0.001600  0.159700  0.492400  1.0  0.1132
  H  H23  1  0.072000  0.144900  0.454900  1.0  0.1132
  H  H24  1  0.091800  0.198400  0.485200  1.0  0.1138
  H  H25  1  0.118900  0.033600  0.529500  1.0  0.113
  H  H26  1  0.086800  0.045000  0.482300  1.0  0.118
  H  H27  1  0.018400  0.060300  0.520500  1.0  0.1201
  H  H28  1  0.528300  0.052600  0.522300  1.0  0.121
  H  H29  1  0.646300  0.027600  0.555600  1.0  0.1287
  H  H30  1  0.764900  0.983100  0.595100  1.0  0.11
  H  H31  1  0.726300  0.933300  0.656700  1.0  0.1067
  H  H32  1  0.569000  0.927800  0.678800  1.0  0.1064
  H  H33  1  0.429400  0.915300  0.685000  1.0  0.1832
  H  H34  1  0.038600  0.899400  0.718800  1.0  0.1148
  H  H35  1  0.320700  0.876500  0.730800  1.0  0.111
  H  H36  1  0.973600  0.051100  0.642700  1.0  0.1129
  H  H37  1  0.085100  0.049900  0.643700  1.0  0.1097
  H  H38  1  0.027300  0.046800  0.686500  1.0  0.1013
  H  H39  1  0.970000  0.968000  0.592900  1.0  0.108
  H  H40  1  0.021300  0.910000  0.604900  1.0  0.1173
  H  H41  1  0.081400  0.964700  0.592700  1.0  0.111
  H  H42  1  0.882000  0.968000  0.658000  1.0  0.1068
  H  H43  1  0.932700  0.962800  0.702400  1.0  0.116
  H  H44  1  0.930500  0.909400  0.670700  1.0  0.1177
  H  H45  1  0.225000  0.128300  0.250200  1.0  0.1174
  H  H46  1  0.507000  0.114800  0.231600  1.0  0.1176
  H  H47  1  0.574400  0.963700  0.148500  1.0  0.1116
  H  H48  1  0.463600  0.961600  0.153900  1.0  0.1097
  H  H49  1  0.529200  0.966700  0.194400  1.0  0.1133
  H  H50  1  0.560400  0.051900  0.100100  1.0  0.117
  H  H51  1  0.502400  0.106300  0.115900  1.0  0.1267
  H  H52  1  0.449500  0.048100  0.104500  1.0  0.1112
  H  H53  1  0.663700  0.056100  0.163800  1.0  0.1153
  H  H54  1  0.619800  0.055500  0.209900  1.0  0.1111
  H  H55  1  0.609700  0.110900  0.181700  1.0  0.1229
  H  H56  1  0.115600  0.089200  0.203800  1.0  0.1148
  H  H57  1  0.972100  0.068400  0.199900  1.0  0.1199
  H  H58  1  0.816100  0.060400  0.176400  1.0  0.0864
  H  H59  1  0.782500  0.012300  0.112300  1.0  0.1122
  H  H60  1  0.905000  0.972200  0.071800  1.0  0.12
  H  H61  1  0.025600  0.956700  0.037300  1.0  0.1178
  H  H62  1  0.334200  0.847600  0.956400  1.0  0.1129
  H  H63  1  0.069400  0.907500  0.977400  1.0  0.1198
  H  H64  1  0.486600  0.830900  0.078300  1.0  0.1159
  H  H65  1  0.390900  0.801600  0.064000  1.0  0.1189
  H  H66  1  0.389200  0.858600  0.092100  1.0  0.1093
  H  H67  1  0.536200  0.925900  0.047900  1.0  0.1183
  H  H68  1  0.438200  0.954200  0.060200  1.0  0.1109
  H  H69  1  0.473800  0.955000  0.012600  1.0  0.123
  H  H70  1  0.543400  0.834000  0.007000  1.0  0.1134
  H  H71  1  0.484700  0.863100  0.970400  1.0  0.114
  H  H72  1  0.450700  0.804100  0.989600  1.0  0.1182
  H  H73  1  0.658200  0.270200  0.297200  1.0  0.1066
  H  H74  1  0.822700  0.278000  0.296200  1.0  0.1111
  H  H75  1  0.838600  0.180600  0.401600  1.0  0.121
  H  H76  1  0.674100  0.172700  0.402600  1.0  0.1157
  H  H77  1  0.966500  0.239500  0.283500  1.0  0.1177
  H  H78  1  0.130400  0.250700  0.281200  1.0  0.1021
  H  H79  1  0.140500  0.247000  0.409700  1.0  0.1023
  H  H80  1  0.976500  0.235800  0.412000  1.0  0.1187
  H  H81  1  0.279900  0.668200  0.948600  1.0  0.1192
  H  H82  1  0.012500  0.612900  0.968100  1.0  0.1303
  H  H83  1  0.350500  0.623300  0.078400  1.0  0.1146
  H  H84  1  0.452100  0.645500  0.066000  1.0  0.1144
  H  H85  1  0.363000  0.685000  0.058600  1.0  0.1208
  H  H86  1  0.498400  0.659700  0.992400  1.0  0.1139
  H  H87  1  0.428000  0.644900  0.954900  1.0  0.1121
  H  H88  1  0.408200  0.698400  0.985200  1.0  0.1135
  H  H89  1  0.381100  0.533600  0.029500  1.0  0.1132
  H  H90  1  0.413200  0.545000  0.982300  1.0  0.1179
  H  H91  1  0.481600  0.560300  0.020500  1.0  0.1212
  H  H92  1  0.971700  0.552600  0.022300  1.0  0.1207
  H  H93  1  0.853700  0.527600  0.055600  1.0  0.1282
  H  H94  1  0.735100  0.483100  0.095100  1.0  0.1104
  H  H95  1  0.773700  0.433300  0.156700  1.0  0.1068
  H  H96  1  0.931000  0.427800  0.178800  1.0  0.1066
  H  H97  1  0.070600  0.415300  0.185000  1.0  0.1829
  H  H98  1  0.461400  0.399400  0.218800  1.0  0.1157
  H  H99  1  0.179300  0.376500  0.230800  1.0  0.1107
  H  H100  1  0.526400  0.551100  0.142700  1.0  0.1118
  H  H101  1  0.414900  0.549900  0.143700  1.0  0.1101
  H  H102  1  0.472700  0.546800  0.186500  1.0  0.101
  H  H103  1  0.530000  0.468000  0.092900  1.0  0.108
  H  H104  1  0.478700  0.410000  0.104900  1.0  0.1166
  H  H105  1  0.418600  0.464700  0.092700  1.0  0.11
  H  H106  1  0.618000  0.468000  0.158000  1.0  0.1061
  H  H107  1  0.567300  0.462800  0.202400  1.0  0.1155
  H  H108  1  0.569500  0.409400  0.170700  1.0  0.12
  H  H109  1  0.275000  0.628300  0.750200  1.0  0.1173
  H  H110  1  0.993000  0.614800  0.731600  1.0  0.1175
  H  H111  1  0.925600  0.463700  0.648500  1.0  0.1132
  H  H112  1  0.036400  0.461600  0.653900  1.0  0.1096
  H  H113  1  0.970800  0.466700  0.694400  1.0  0.1129
  H  H114  1  0.939600  0.551900  0.600100  1.0  0.1152
  H  H115  1  0.997600  0.606300  0.615900  1.0  0.1258
  H  H116  1  0.050500  0.548100  0.604500  1.0  0.1101
  H  H117  1  0.836300  0.556100  0.663800  1.0  0.1151
  H  H118  1  0.880200  0.555500  0.709900  1.0  0.1111
  H  H119  1  0.890300  0.610900  0.681700  1.0  0.1234
  H  H120  1  0.384400  0.589200  0.703800  1.0  0.1146
  H  H121  1  0.527900  0.568400  0.699900  1.0  0.1204
  H  H122  1  0.683900  0.560400  0.676400  1.0  0.0879
  H  H123  1  0.717500  0.512300  0.612300  1.0  0.1124
  H  H124  1  0.595000  0.472200  0.571800  1.0  0.1196
  H  H125  1  0.474400  0.456700  0.537300  1.0  0.1181
  H  H126  1  0.165800  0.347600  0.456400  1.0  0.1131
  H  H127  1  0.430600  0.407500  0.477400  1.0  0.1193
  H  H128  1  0.013400  0.330900  0.578300  1.0  0.1179
  H  H129  1  0.109100  0.301600  0.564000  1.0  0.1193
  H  H130  1  0.110800  0.358600  0.592100  1.0  0.11
  H  H131  1  0.963800  0.425900  0.547900  1.0  0.1171
  H  H132  1  0.061800  0.454200  0.560200  1.0  0.1115
  H  H133  1  0.026200  0.455000  0.512600  1.0  0.123
  H  H134  1  0.956600  0.334000  0.507000  1.0  0.1148
  H  H135  1  0.015300  0.363100  0.470400  1.0  0.1138
  H  H136  1  0.049300  0.304100  0.489600  1.0  0.1161
  H  H137  1  0.841800  0.770200  0.797200  1.0  0.1062
  H  H138  1  0.677300  0.778000  0.796200  1.0  0.1114
  H  H139  1  0.661400  0.680600  0.901600  1.0  0.1205
  H  H140  1  0.825900  0.672700  0.902600  1.0  0.1162
  H  H141  1  0.533500  0.739500  0.783500  1.0  0.1174
  H  H142  1  0.369600  0.750700  0.781200  1.0  0.1021
  H  H143  1  0.359500  0.747000  0.909700  1.0  0.1021
  H  H144  1  0.523500  0.735800  0.912000  1.0  0.1181
  H  H145  1  0.720100  0.331800  0.051400  1.0  0.1189
  H  H146  1  0.987500  0.387100  0.031900  1.0  0.1293
  H  H147  1  0.649500  0.376700  0.921600  1.0  0.1119
  H  H148  1  0.547900  0.354500  0.934000  1.0  0.1133
  H  H149  1  0.637000  0.315000  0.941400  1.0  0.121
  H  H150  1  0.501600  0.340300  0.007600  1.0  0.1133
  H  H151  1  0.572000  0.355100  0.045100  1.0  0.112
  H  H152  1  0.591800  0.301600  0.014800  1.0  0.1146
  H  H153  1  0.618900  0.466400  0.970500  1.0  0.1136
  H  H154  1  0.586800  0.455000  0.017700  1.0  0.118
  H  H155  1  0.518400  0.439700  0.979500  1.0  0.1205
  H  H156  1  0.028300  0.447400  0.977700  1.0  0.1203
  H  H157  1  0.146300  0.472400  0.944400  1.0  0.1292
  H  H158  1  0.264900  0.516900  0.904900  1.0  0.1099
  H  H159  1  0.226300  0.566700  0.843300  1.0  0.1057
  H  H160  1  0.069000  0.572200  0.821200  1.0  0.1079
  H  H161  1  0.929400  0.584700  0.815000  1.0  0.1816
  H  H162  1  0.538600  0.600600  0.781200  1.0  0.1142
  H  H163  1  0.820700  0.623500  0.769200  1.0  0.1105
  H  H164  1  0.473600  0.448900  0.857300  1.0  0.1114
  H  H165  1  0.585100  0.450100  0.856300  1.0  0.109
  H  H166  1  0.527300  0.453200  0.813500  1.0  0.1026
  H  H167  1  0.470000  0.532000  0.907100  1.0  0.108
  H  H168  1  0.521300  0.590000  0.895100  1.0  0.1184
  H  H169  1  0.581400  0.535300  0.907300  1.0  0.1101
  H  H170  1  0.382000  0.532000  0.842000  1.0  0.1072
  H  H171  1  0.432700  0.537200  0.797600  1.0  0.1159
  H  H172  1  0.430500  0.590600  0.829300  1.0  0.1194
  H  H173  1  0.725000  0.371700  0.249800  1.0  0.1168
  H  H174  1  0.007000  0.385200  0.268400  1.0  0.1179
  H  H175  1  0.074400  0.536300  0.351500  1.0  0.1121
  H  H176  1  0.963600  0.538400  0.346100  1.0  0.1092
  H  H177  1  0.029200  0.533300  0.305600  1.0  0.1143
  H  H178  1  0.060400  0.448100  0.399900  1.0  0.1174
  H  H179  1  0.002400  0.393700  0.384100  1.0  0.1235
  H  H180  1  0.949500  0.451900  0.395500  1.0  0.1103
  H  H181  1  0.163700  0.443900  0.336200  1.0  0.1151
  H  H182  1  0.119800  0.444500  0.290100  1.0  0.1109
  H  H183  1  0.109700  0.389100  0.318300  1.0  0.1227
  H  H184  1  0.615600  0.410800  0.296200  1.0  0.1149
  H  H185  1  0.472100  0.431600  0.300100  1.0  0.119
  H  H186  1  0.316100  0.439600  0.323600  1.0  0.0852
  H  H187  1  0.282500  0.487700  0.387700  1.0  0.1123
  H  H188  1  0.405000  0.527800  0.428200  1.0  0.1205
  H  H189  1  0.525600  0.543300  0.462700  1.0  0.117
  H  H190  1  0.834200  0.652400  0.543600  1.0  0.112
  H  H191  1  0.569400  0.592500  0.522600  1.0  0.1196
  H  H192  1  0.986600  0.669100  0.421700  1.0  0.1174
  H  H193  1  0.890900  0.698400  0.436000  1.0  0.1211
  H  H194  1  0.889200  0.641400  0.407900  1.0  0.1086
  H  H195  1  0.036200  0.574100  0.452100  1.0  0.1185
  H  H196  1  0.938200  0.545800  0.439800  1.0  0.1109
  H  H197  1  0.973800  0.545000  0.487400  1.0  0.1223
  H  H198  1  0.043400  0.666000  0.493000  1.0  0.114
  H  H199  1  0.984700  0.636900  0.529600  1.0  0.1132
  H  H200  1  0.950700  0.695900  0.510400  1.0  0.1171
  H  H201  1  0.158200  0.229800  0.202800  1.0  0.1068
  H  H202  1  0.322700  0.222000  0.203800  1.0  0.1113
  H  H203  1  0.338600  0.319400  0.098400  1.0  0.1195
  H  H204  1  0.174100  0.327300  0.097400  1.0  0.1156
  H  H205  1  0.466500  0.260500  0.216500  1.0  0.118
  H  H206  1  0.630400  0.249300  0.218800  1.0  0.1023
  H  H207  1  0.640500  0.253000  0.090300  1.0  0.1016
  H  H208  1  0.476500  0.264200  0.088000  1.0  0.1182
  H  H209  1  0.779900  0.831800  0.551400  1.0  0.1202
  H  H210  1  0.512500  0.887100  0.531900  1.0  0.1302
  H  H211  1  0.850500  0.876700  0.421600  1.0  0.1123
  H  H212  1  0.952100  0.854500  0.434000  1.0  0.1152
  H  H213  1  0.863000  0.815000  0.441400  1.0  0.1193
  H  H214  1  0.998400  0.840300  0.507600  1.0  0.1145
  H  H215  1  0.928000  0.855100  0.545100  1.0  0.1116
  H  H216  1  0.908200  0.801600  0.514800  1.0  0.1156
  H  H217  1  0.881100  0.966400  0.470500  1.0  0.1142
  H  H218  1  0.913200  0.955000  0.517700  1.0  0.1178
  H  H219  1  0.981600  0.939700  0.479500  1.0  0.1214
  H  H220  1  0.471700  0.947400  0.477700  1.0  0.1196
  H  H221  1  0.353700  0.972400  0.444400  1.0  0.129
  H  H222  1  0.235100  0.016900  0.404900  1.0  0.1098
  H  H223  1  0.273700  0.066700  0.343300  1.0  0.1056
  H  H224  1  0.431000  0.072200  0.321200  1.0  0.1079
  H  H225  1  0.570600  0.084700  0.315000  1.0  0.1816
  H  H226  1  0.961400  0.100600  0.281200  1.0  0.1147
  H  H227  1  0.679300  0.123500  0.269200  1.0  0.1104
  H  H228  1  0.026400  0.948900  0.357300  1.0  0.109
  H  H229  1  0.914900  0.950100  0.356300  1.0  0.1077
  H  H230  1  0.972700  0.953200  0.313500  1.0  0.1027
  H  H231  1  0.030000  0.032000  0.407100  1.0  0.108
  H  H232  1  0.978700  0.090000  0.395100  1.0  0.1184
  H  H233  1  0.918600  0.035300  0.407300  1.0  0.109
  H  H234  1  0.118000  0.032000  0.342000  1.0  0.1065
  H  H235  1  0.067300  0.037200  0.297600  1.0  0.1155
  H  H236  1  0.069500  0.090600  0.329300  1.0  0.1177
  H  H237  1  0.775000  0.871700  0.749800  1.0  0.1166
  H  H238  1  0.493000  0.885200  0.768400  1.0  0.1178
  H  H239  1  0.425600  0.036300  0.851500  1.0  0.1135
  H  H240  1  0.536400  0.038400  0.846100  1.0  0.1105
  H  H241  1  0.470800  0.033300  0.805600  1.0  0.114
  H  H242  1  0.439600  0.948100  0.899900  1.0  0.1155
  H  H243  1  0.497600  0.893700  0.884100  1.0  0.1246
  H  H244  1  0.550500  0.951900  0.895500  1.0  0.1093
  H  H245  1  0.336300  0.943900  0.836200  1.0  0.1151
  H  H246  1  0.380200  0.944500  0.790100  1.0  0.1107
  H  H247  1  0.390300  0.889100  0.818300  1.0  0.123
  H  H248  1  0.884400  0.910800  0.796200  1.0  0.1146
  H  H249  1  0.027900  0.931600  0.800100  1.0  0.1199
  H  H250  1  0.183900  0.939600  0.823600  1.0  0.0867
  H  H251  1  0.217500  0.987700  0.887700  1.0  0.1124
  H  H252  1  0.095000  0.027800  0.928200  1.0  0.1203
  H  H253  1  0.974400  0.043300  0.962700  1.0  0.1172
  H  H254  1  0.665800  0.152400  0.043600  1.0  0.1123
  H  H255  1  0.930600  0.092500  0.022600  1.0  0.1196
  H  H256  1  0.513400  0.169100  0.921700  1.0  0.1166
  H  H257  1  0.609100  0.198400  0.936000  1.0  0.1199
  H  H258  1  0.610800  0.141400  0.907900  1.0  0.1089
  H  H259  1  0.463800  0.074100  0.952100  1.0  0.1174
  H  H260  1  0.561800  0.045800  0.939800  1.0  0.1112
  H  H261  1  0.526200  0.045000  0.987400  1.0  0.1226
  H  H262  1  0.456600  0.166000  0.993000  1.0  0.1148
  H  H263  1  0.515300  0.136900  0.029600  1.0  0.1138
  H  H264  1  0.549300  0.195900  0.010400  1.0  0.1173
  H  H265  1  0.341800  0.729800  0.702800  1.0  0.1065
  H  H266  1  0.177300  0.722000  0.703800  1.0  0.1115
  H  H267  1  0.161400  0.819400  0.598400  1.0  0.1202
  H  H268  1  0.325900  0.827300  0.597400  1.0  0.1161
  H  H269  1  0.033500  0.760500  0.716500  1.0  0.1179
  H  H270  1  0.869600  0.749300  0.718800  1.0  0.1023
  H  H271  1  0.859500  0.753000  0.590300  1.0  0.1017
  H  H272  1  0.023500  0.764200  0.588000  1.0  0.1184
  C  C273  1  0.389400  0.176800  0.413200  1.0  0.6655
  C  C274  1  0.358700  0.145500  0.452380  1.0  -0.1406
  C  C275  1  0.263700  0.147300  0.464600  1.0  -0.098
  C  C276  1  0.233900  0.117800  0.500700  1.0  -0.0046
  C  C277  1  0.299100  0.086400  0.524600  1.0  0.2457
  C  C278  1  0.394100  0.084600  0.512300  1.0  -0.0993
  C  C279  1  0.424000  0.114200  0.476200  1.0  -0.0845
  C  C280  1  0.125800  0.119800  0.514200  1.0  0.1557
  C  C281  1  0.114000  0.145700  0.558300  1.0  -0.3708
  C  C282  1  0.067100  0.159500  0.483700  1.0  -0.344
  C  C283  1  0.083600  0.059100  0.511400  1.0  -0.371
  C  C284  1  0.468800  0.054500  0.535300  1.0  0.1182
  C  C285  1  0.536600  0.004300  0.593600  1.0  0.1581
  C  C286  1  0.630800  0.007600  0.580300  1.0  -0.1843
  C  C287  1  0.701900  0.981000  0.604000  1.0  -0.0886
  C  C288  1  0.678700  0.951100  0.640900  1.0  -0.1009
  C  C289  1  0.584500  0.947800  0.654100  1.0  -0.2304
  C  C290  1  0.513500  0.974400  0.630500  1.0  0.1794
  C  C291  1  0.384800  0.937900  0.670900  1.0  0.1184
  C  C292  1  0.284700  0.931200  0.683400  1.0  -0.1169
  C  C293  1  0.208000  0.956900  0.662940  1.0  0.2991
  C  C294  1  0.115700  0.944900  0.676200  1.0  0.0048
  C  C295  1  0.100300  0.907400  0.710000  1.0  -0.1074
  C  C296  1  0.177100  0.881700  0.730410  1.0  -0.1038
  C  C297  1  0.269300  0.893700  0.717120  1.0  -0.1197
  C  C298  1  0.026500  0.971000  0.653100  1.0  0.2231
  C  C299  1  0.028300  0.035400  0.656800  1.0  -0.3784
  C  C300  1  0.024700  0.951700  0.606700  1.0  -0.3812
  C  C301  1  0.934600  0.951000  0.672900  1.0  -0.3819
  C  C302  1  0.155200  0.842300  0.767200  1.0  0.6873
  C  C303  1  0.385100  0.170000  0.283100  1.0  0.6307
  C  C304  1  0.368600  0.127900  0.246490  1.0  -0.1037
  C  C305  1  0.276200  0.112600  0.235120  1.0  -0.0916
  C  C306  1  0.260500  0.074000  0.201200  1.0  -0.1352
  C  C307  1  0.337100  0.050600  0.178720  1.0  0.3058
  C  C308  1  0.429400  0.065900  0.190100  1.0  0.0185
  C  C309  1  0.445200  0.104600  0.224000  1.0  -0.1223
  C  C310  1  0.517300  0.045200  0.162700  1.0  0.1191
  C  C311  1  0.521600  0.977900  0.165100  1.0  -0.3709
  C  C312  1  0.506400  0.064700  0.116500  1.0  -0.3547
  C  C313  1  0.611500  0.069200  0.181300  1.0  -0.3804
  C  C314  1  0.160100  0.065900  0.189800  1.0  0.1126
  C  C315  1  0.032100  0.025100  0.149900  1.0  0.1642
  C  C316  1  0.958700  0.049100  0.174220  1.0  -0.2105
  C  C317  1  0.865200  0.044300  0.160100  1.0  -0.0865
  C  C318  1  0.845100  0.015500  0.121800  1.0  -0.0955
  C  C319  1  0.918500  0.991500  0.097500  1.0  -0.1377
  C  C320  1  0.012000  0.996300  0.111500  1.0  0.0962
  C  C321  1  0.083900  0.951800  0.050900  1.0  0.1246
  C  C322  1  0.159300  0.923000  0.026800  1.0  -0.1178
  C  C323  1  0.252400  0.915300  0.040630  1.0  0.3135
  C  C324  1  0.317900  0.887100  0.014300  1.0  0.0377
  C  C325  1  0.290300  0.866500  0.974080  1.0  -0.1129
  C  C326  1  0.197200  0.874100  0.960260  1.0  -0.132
  C  C327  1  0.131700  0.902400  0.986600  1.0  -0.0846
  C  C328  1  0.421800  0.873900  0.029500  1.0  0.1477
  C  C329  1  0.422200  0.838000  0.069700  1.0  -0.3708
  C  C330  1  0.472300  0.932900  0.038400  1.0  -0.3755
  C  C331  1  0.480600  0.840700  0.996000  1.0  -0.3698
  C  C332  1  0.167200  0.848700  0.917600  1.0  0.6854
  C  C333  1  0.694400  0.252200  0.318090  1.0  0.1774
  C  C334  1  0.792900  0.256900  0.317500  1.0  -0.0985
  C  C335  1  0.847000  0.230100  0.348800  1.0  0.0405
  C  C336  1  0.802500  0.198500  0.380660  1.0  -0.0975
  C  C337  1  0.703900  0.193800  0.381250  1.0  0.1781
  C  C338  1  0.955300  0.236500  0.348010  1.0  0.0441
  C  C339  1  0.001400  0.241000  0.308840  1.0  -0.1058
  C  C340  1  0.099600  0.247700  0.307460  1.0  0.1676
  C  C341  1  0.105600  0.245500  0.384440  1.0  0.1557
  C  C342  1  0.007400  0.238800  0.385820  1.0  -0.0912
  C  C343  1  0.110600  0.676800  0.913200  1.0  0.6656
  C  C344  1  0.141300  0.645500  0.952380  1.0  -0.1415
  C  C345  1  0.236300  0.647300  0.964600  1.0  -0.0973
  C  C346  1  0.266100  0.617800  0.000700  1.0  -0.007
  C  C347  1  0.200900  0.586400  0.024600  1.0  0.2462
  C  C348  1  0.105900  0.584600  0.012300  1.0  -0.0983
  C  C349  1  0.076000  0.614200  0.976200  1.0  -0.0871
  C  C350  1  0.374200  0.619800  0.014200  1.0  0.1557
  C  C351  1  0.386000  0.645700  0.058300  1.0  -0.3705
  C  C352  1  0.432900  0.659500  0.983700  1.0  -0.3425
  C  C353  1  0.416400  0.559100  0.011400  1.0  -0.372
  C  C354  1  0.031200  0.554500  0.035300  1.0  0.1137
  C  C355  1  0.963400  0.504300  0.093600  1.0  0.1589
  C  C356  1  0.869200  0.507600  0.080300  1.0  -0.1853
  C  C357  1  0.798100  0.481000  0.104000  1.0  -0.0913
  C  C358  1  0.821300  0.451100  0.140900  1.0  -0.1011
  C  C359  1  0.915500  0.447800  0.154100  1.0  -0.2298
  C  C360  1  0.986500  0.474400  0.130500  1.0  0.1794
  C  C361  1  0.115200  0.437900  0.170900  1.0  0.117
  C  C362  1  0.215300  0.431200  0.183400  1.0  -0.1173
  C  C363  1  0.292000  0.456900  0.162940  1.0  0.3008
  C  C364  1  0.384300  0.444900  0.176200  1.0  0.0051
  C  C365  1  0.399700  0.407400  0.210000  1.0  -0.1085
  C  C366  1  0.322900  0.381700  0.230410  1.0  -0.1041
  C  C367  1  0.230700  0.393700  0.217120  1.0  -0.12
  C  C368  1  0.473500  0.471000  0.153100  1.0  0.2231
  C  C369  1  0.471700  0.535400  0.156800  1.0  -0.3778
  C  C370  1  0.475300  0.451700  0.106700  1.0  -0.3807
  C  C371  1  0.565400  0.451000  0.172900  1.0  -0.3804
  C  C372  1  0.344800  0.342300  0.267200  1.0  0.6874
  C  C373  1  0.114900  0.670000  0.783100  1.0  0.6314
  C  C374  1  0.131400  0.627900  0.746490  1.0  -0.1047
  C  C375  1  0.223800  0.612600  0.735120  1.0  -0.0914
  C  C376  1  0.239500  0.574000  0.701200  1.0  -0.1346
  C  C377  1  0.162900  0.550600  0.678720  1.0  0.3044
  C  C378  1  0.070600  0.565900  0.690100  1.0  0.0191
  C  C379  1  0.054800  0.604600  0.724000  1.0  -0.1215
  C  C380  1  0.982700  0.545200  0.662700  1.0  0.1183
  C  C381  1  0.978400  0.477900  0.665100  1.0  -0.3709
  C  C382  1  0.993600  0.564700  0.616500  1.0  -0.355
  C  C383  1  0.888500  0.569200  0.681300  1.0  -0.3807
  C  C384  1  0.339900  0.565900  0.689800  1.0  0.1141
  C  C385  1  0.467900  0.525100  0.649900  1.0  0.1636
  C  C386  1  0.541300  0.549100  0.674220  1.0  -0.2117
  C  C387  1  0.634800  0.544300  0.660100  1.0  -0.0868
  C  C388  1  0.654900  0.515500  0.621800  1.0  -0.0936
  C  C389  1  0.581500  0.491500  0.597500  1.0  -0.1386
  C  C390  1  0.488000  0.496300  0.611500  1.0  0.0947
  C  C391  1  0.416100  0.451800  0.550900  1.0  0.1275
  C  C392  1  0.340700  0.423000  0.526800  1.0  -0.1191
  C  C393  1  0.247600  0.415300  0.540630  1.0  0.3124
  C  C394  1  0.182100  0.387100  0.514300  1.0  0.0391
  C  C395  1  0.209700  0.366500  0.474080  1.0  -0.1132
  C  C396  1  0.302800  0.374100  0.460260  1.0  -0.1304
  C  C397  1  0.368300  0.402400  0.486600  1.0  -0.0848
  C  C398  1  0.078200  0.373900  0.529500  1.0  0.1473
  C  C399  1  0.077800  0.338000  0.569700  1.0  -0.3709
  C  C400  1  0.027700  0.432900  0.538400  1.0  -0.3743
  C  C401  1  0.019400  0.340700  0.496000  1.0  -0.3707
  C  C402  1  0.332800  0.348700  0.417600  1.0  0.6864
  C  C403  1  0.805600  0.752200  0.818090  1.0  0.1768
  C  C404  1  0.707100  0.756900  0.817500  1.0  -0.0989
  C  C405  1  0.653000  0.730100  0.848800  1.0  0.0428
  C  C406  1  0.697500  0.698500  0.880660  1.0  -0.0976
  C  C407  1  0.796100  0.693800  0.881250  1.0  0.1785
  C  C408  1  0.544700  0.736500  0.848010  1.0  0.0436
  C  C409  1  0.498600  0.741000  0.808840  1.0  -0.1051
  C  C410  1  0.400400  0.747700  0.807460  1.0  0.1663
  C  C411  1  0.394400  0.745500  0.884440  1.0  0.1558
  C  C412  1  0.492600  0.738800  0.885820  1.0  -0.0913
  C  C413  1  0.889400  0.323200  0.086800  1.0  0.6655
  C  C414  1  0.858700  0.354500  0.047620  1.0  -0.1429
  C  C415  1  0.763700  0.352700  0.035400  1.0  -0.0986
  C  C416  1  0.733900  0.382200  0.999300  1.0  -0.0043
  C  C417  1  0.799100  0.413600  0.975400  1.0  0.2463
  C  C418  1  0.894100  0.415400  0.987700  1.0  -0.1018
  C  C419  1  0.924000  0.385800  0.023800  1.0  -0.0837
  C  C420  1  0.625800  0.380200  0.985800  1.0  0.1563
  C  C421  1  0.614000  0.354300  0.941700  1.0  -0.3718
  C  C422  1  0.567100  0.340500  0.016300  1.0  -0.344
  C  C423  1  0.583600  0.440900  0.988600  1.0  -0.3714
  C  C424  1  0.968800  0.445500  0.964700  1.0  0.1184
  C  C425  1  0.036600  0.495700  0.906400  1.0  0.1564
  C  C426  1  0.130800  0.492400  0.919700  1.0  -0.1867
  C  C427  1  0.201900  0.519000  0.896000  1.0  -0.0909
  C  C428  1  0.178700  0.548900  0.859100  1.0  -0.1011
  C  C429  1  0.084500  0.552200  0.845900  1.0  -0.228
  C  C430  1  0.013500  0.525600  0.869500  1.0  0.1801
  C  C431  1  0.884800  0.562100  0.829100  1.0  0.1179
  C  C432  1  0.784700  0.568800  0.816600  1.0  -0.1158
  C  C433  1  0.708000  0.543100  0.837060  1.0  0.2987
  C  C434  1  0.615700  0.555100  0.823800  1.0  0.0052
  C  C435  1  0.600300  0.592600  0.790000  1.0  -0.1077
  C  C436  1  0.677100  0.618300  0.769590  1.0  -0.1031
  C  C437  1  0.769300  0.606300  0.782880  1.0  -0.1198
  C  C438  1  0.526500  0.529000  0.846900  1.0  0.2229
  C  C439  1  0.528300  0.464600  0.843200  1.0  -0.3758
  C  C440  1  0.524700  0.548300  0.893300  1.0  -0.3816
  C  C441  1  0.434600  0.549000  0.827100  1.0  -0.3825
  C  C442  1  0.655200  0.657700  0.732800  1.0  0.6866
  C  C443  1  0.885100  0.330000  0.216900  1.0  0.6308
  C  C444  1  0.868600  0.372100  0.253510  1.0  -0.1041
  C  C445  1  0.776200  0.387400  0.264880  1.0  -0.0914
  C  C446  1  0.760500  0.426000  0.298800  1.0  -0.1347
  C  C447  1  0.837100  0.449400  0.321280  1.0  0.3057
  C  C448  1  0.929400  0.434100  0.309900  1.0  0.0192
  C  C449  1  0.945200  0.395400  0.276000  1.0  -0.1228
  C  C450  1  0.017300  0.454800  0.337300  1.0  0.1181
  C  C451  1  0.021600  0.522100  0.334900  1.0  -0.3726
  C  C452  1  0.006400  0.435300  0.383500  1.0  -0.3549
  C  C453  1  0.111500  0.430800  0.318700  1.0  -0.3803
  C  C454  1  0.660100  0.434100  0.310200  1.0  0.1138
  C  C455  1  0.532100  0.474900  0.350100  1.0  0.1643
  C  C456  1  0.458700  0.450900  0.325780  1.0  -0.2106
  C  C457  1  0.365200  0.455700  0.339900  1.0  -0.0871
  C  C458  1  0.345100  0.484500  0.378200  1.0  -0.0936
  C  C459  1  0.418500  0.508500  0.402500  1.0  -0.1372
  C  C460  1  0.512000  0.503700  0.388500  1.0  0.0972
  C  C461  1  0.583900  0.548200  0.449100  1.0  0.1245
  C  C462  1  0.659300  0.577000  0.473200  1.0  -0.1187
  C  C463  1  0.752400  0.584700  0.459370  1.0  0.3145
  C  C464  1  0.817900  0.612900  0.485700  1.0  0.0371
  C  C465  1  0.790300  0.633500  0.525920  1.0  -0.1131
  C  C466  1  0.697200  0.625900  0.539740  1.0  -0.1296
  C  C467  1  0.631700  0.597600  0.513400  1.0  -0.0848
  C  C468  1  0.921800  0.626100  0.470500  1.0  0.147
  C  C469  1  0.922200  0.662000  0.430300  1.0  -0.3721
  C  C470  1  0.972300  0.567100  0.461600  1.0  -0.3753
  C  C471  1  0.980600  0.659300  0.504000  1.0  -0.3693
  C  C472  1  0.667200  0.651300  0.582400  1.0  0.6863
  C  C473  1  0.194400  0.247800  0.181910  1.0  0.177
  C  C474  1  0.292900  0.243100  0.182500  1.0  -0.1002
  C  C475  1  0.347000  0.269900  0.151200  1.0  0.0411
  C  C476  1  0.302500  0.301500  0.119340  1.0  -0.0955
  C  C477  1  0.203900  0.306200  0.118750  1.0  0.1818
  C  C478  1  0.455300  0.263500  0.151990  1.0  0.0436
  C  C479  1  0.501400  0.259000  0.191160  1.0  -0.1065
  C  C480  1  0.599600  0.252300  0.192540  1.0  0.1679
  C  C481  1  0.605600  0.254500  0.115560  1.0  0.1561
  C  C482  1  0.507400  0.261200  0.114180  1.0  -0.089
  C  C483  1  0.610600  0.823200  0.586800  1.0  0.6649
  C  C484  1  0.641300  0.854500  0.547620  1.0  -0.143
  C  C485  1  0.736300  0.852700  0.535400  1.0  -0.098
  C  C486  1  0.766100  0.882200  0.499300  1.0  -0.0078
  C  C487  1  0.700900  0.913600  0.475400  1.0  0.2467
  C  C488  1  0.605900  0.915400  0.487700  1.0  -0.1004
  C  C489  1  0.576000  0.885800  0.523800  1.0  -0.085
  C  C490  1  0.874200  0.880200  0.485800  1.0  0.1561
  C  C491  1  0.886000  0.854300  0.441700  1.0  -0.3724
  C  C492  1  0.932900  0.840500  0.516300  1.0  -0.3436
  C  C493  1  0.916400  0.940900  0.488600  1.0  -0.3722
  C  C494  1  0.531200  0.945500  0.464700  1.0  0.1139
  C  C495  1  0.463400  0.995700  0.406400  1.0  0.1573
  C  C496  1  0.369200  0.992400  0.419700  1.0  -0.1868
  C  C497  1  0.298100  0.019000  0.396000  1.0  -0.093
  C  C498  1  0.321300  0.048900  0.359100  1.0  -0.1013
  C  C499  1  0.415500  0.052200  0.345900  1.0  -0.2274
  C  C500  1  0.486500  0.025600  0.369500  1.0  0.1804
  C  C501  1  0.615200  0.062100  0.329100  1.0  0.1165
  C  C502  1  0.715300  0.068800  0.316600  1.0  -0.1156
  C  C503  1  0.792000  0.043100  0.337060  1.0  0.2997
  C  C504  1  0.884300  0.055100  0.323800  1.0  0.0052
  C  C505  1  0.899700  0.092600  0.290000  1.0  -0.1086
  C  C506  1  0.822900  0.118300  0.269590  1.0  -0.1033
  C  C507  1  0.730700  0.106300  0.282880  1.0  -0.1195
  C  C508  1  0.973500  0.029000  0.346900  1.0  0.2224
  C  C509  1  0.971700  0.964600  0.343200  1.0  -0.3763
  C  C510  1  0.975300  0.048300  0.393300  1.0  -0.3814
  C  C511  1  0.065400  0.049000  0.327100  1.0  -0.3813
  C  C512  1  0.844800  0.157700  0.232800  1.0  0.6868
  C  C513  1  0.614900  0.830000  0.716900  1.0  0.6315
  C  C514  1  0.631400  0.872100  0.753510  1.0  -0.1041
  C  C515  1  0.723800  0.887400  0.764880  1.0  -0.0912
  C  C516  1  0.739500  0.926000  0.798800  1.0  -0.1341
  C  C517  1  0.662900  0.949400  0.821280  1.0  0.3044
  C  C518  1  0.570600  0.934100  0.809900  1.0  0.0194
  C  C519  1  0.554800  0.895400  0.776000  1.0  -0.1218
  C  C520  1  0.482700  0.954800  0.837300  1.0  0.1173
  C  C521  1  0.478400  0.022100  0.834900  1.0  -0.3725
  C  C522  1  0.493600  0.935300  0.883500  1.0  -0.3537
  C  C523  1  0.388500  0.930800  0.818700  1.0  -0.38
  C  C524  1  0.839900  0.934100  0.810200  1.0  0.1154
  C  C525  1  0.967900  0.974900  0.850100  1.0  0.1642
  C  C526  1  0.041300  0.950900  0.825780  1.0  -0.2122
  C  C527  1  0.134800  0.955700  0.839900  1.0  -0.0876
  C  C528  1  0.154900  0.984500  0.878200  1.0  -0.0912
  C  C529  1  0.081500  0.008500  0.902500  1.0  -0.1369
  C  C530  1  0.988000  0.003700  0.888500  1.0  0.0955
  C  C531  1  0.916100  0.048200  0.949100  1.0  0.1273
  C  C532  1  0.840700  0.077000  0.973200  1.0  -0.1187
  C  C533  1  0.747600  0.084700  0.959370  1.0  0.3132
  C  C534  1  0.682100  0.112900  0.985700  1.0  0.0386
  C  C535  1  0.709700  0.133500  0.025920  1.0  -0.1137
  C  C536  1  0.802800  0.125900  0.039740  1.0  -0.1308
  C  C537  1  0.868300  0.097600  0.013400  1.0  -0.0843
  C  C538  1  0.578200  0.126100  0.970500  1.0  0.1466
  C  C539  1  0.577800  0.162000  0.930300  1.0  -0.3728
  C  C540  1  0.527700  0.067100  0.961600  1.0  -0.3749
  C  C541  1  0.519400  0.159300  0.004000  1.0  -0.3711
  C  C542  1  0.832800  0.151300  0.082400  1.0  0.6866
  C  C543  1  0.305600  0.747800  0.681910  1.0  0.1768
  C  C544  1  0.207100  0.743100  0.682500  1.0  -0.1002
  C  C545  1  0.153000  0.769900  0.651200  1.0  0.0419
  C  C546  1  0.197500  0.801500  0.619340  1.0  -0.097
  C  C547  1  0.296100  0.806200  0.618750  1.0  0.1799
  C  C548  1  0.044700  0.763500  0.651990  1.0  0.0439
  C  C549  1  0.998600  0.759000  0.691160  1.0  -0.106
  C  C550  1  0.900400  0.752300  0.692540  1.0  0.1664
  C  C551  1  0.894400  0.754500  0.615560  1.0  0.1563
  C  C552  1  0.992600  0.761200  0.614180  1.0  -0.0898
  N  N553  1  0.649800  0.220600  0.349970  1.0  -0.3543
  N  N554  1  0.460100  0.029900  0.572100  1.0  -0.343
  N  N555  1  0.151700  0.249900  0.345260  1.0  -0.3568
  N  N556  1  0.416200  0.972500  0.642000  1.0  -0.3465
  N  N557  1  0.128700  0.028300  0.161500  1.0  -0.3511
  N  N558  1  0.091800  0.971200  0.089900  1.0  -0.3737
  N  N559  1  0.850200  0.720600  0.849970  1.0  -0.3536
  N  N560  1  0.039900  0.529900  0.072100  1.0  -0.3423
  N  N561  1  0.348300  0.749900  0.845260  1.0  -0.3544
  N  N562  1  0.083800  0.472500  0.142000  1.0  -0.3472
  N  N563  1  0.371300  0.528300  0.661500  1.0  -0.3519
  N  N564  1  0.408200  0.471200  0.589900  1.0  -0.3735
  N  N565  1  0.149800  0.279400  0.150030  1.0  -0.355
  N  N566  1  0.960100  0.470100  0.927900  1.0  -0.343
  N  N567  1  0.651700  0.250100  0.154740  1.0  -0.3565
  N  N568  1  0.916200  0.527500  0.858000  1.0  -0.3445
  N  N569  1  0.628700  0.471700  0.338500  1.0  -0.3511
  N  N570  1  0.591800  0.528800  0.410100  1.0  -0.3741
  N  N571  1  0.350200  0.779400  0.650030  1.0  -0.3554
  N  N572  1  0.539900  0.970100  0.427900  1.0  -0.3438
  N  N573  1  0.848300  0.750100  0.654740  1.0  -0.3541
  N  N574  1  0.583800  0.027500  0.358000  1.0  -0.3443
  N  N575  1  0.871300  0.971700  0.838500  1.0  -0.3515
  N  N576  1  0.908200  0.028800  0.910100  1.0  -0.3736
  O  O577  1  0.476500  0.175100  0.401800  1.0  -0.5776
  O  O578  1  0.324500  0.204600  0.392800  1.0  -0.6366
  O  O579  1  0.267300  0.055400  0.557600  1.0  -0.5891
  O  O580  1  0.220000  0.994200  0.631600  1.0  -0.6221
  O  O581  1  0.068300  0.831000  0.773200  1.0  -0.5732
  O  O582  1  0.222200  0.822700  0.790200  1.0  -0.5819
  O  O583  1  0.473000  0.174000  0.295900  1.0  -0.5847
  O  O584  1  0.317500  0.198800  0.298100  1.0  -0.5816
  O  O585  1  0.324900  0.011800  0.147400  1.0  -0.6191
  O  O586  1  0.281100  0.933200  0.078400  1.0  -0.6198
  O  O587  1  0.226800  0.827900  0.892800  1.0  -0.5608
  O  O588  1  0.076900  0.848500  0.910300  1.0  -0.5462
  O  O589  1  0.445900  0.289600  0.346200  1.0  -0.5748
  O  O590  1  0.023500  0.675100  0.901800  1.0  -0.5782
  O  O591  1  0.175500  0.704600  0.892800  1.0  -0.636
  O  O592  1  0.232700  0.555400  0.057600  1.0  -0.5906
  O  O593  1  0.280000  0.494200  0.131600  1.0  -0.6215
  O  O594  1  0.431700  0.331000  0.273200  1.0  -0.5735
  O  O595  1  0.277800  0.322700  0.290200  1.0  -0.5819
  O  O596  1  0.027000  0.674000  0.795900  1.0  -0.5844
  O  O597  1  0.182500  0.698800  0.798100  1.0  -0.5815
  O  O598  1  0.175100  0.511800  0.647400  1.0  -0.6187
  O  O599  1  0.218900  0.433200  0.578400  1.0  -0.6202
  O  O600  1  0.273200  0.327900  0.392800  1.0  -0.5604
  O  O601  1  0.423100  0.348500  0.410300  1.0  -0.5468
  O  O602  1  0.054100  0.789600  0.846200  1.0  -0.5749
  O  O603  1  0.976500  0.324900  0.098200  1.0  -0.5776
  O  O604  1  0.824500  0.295400  0.107200  1.0  -0.6365
  O  O605  1  0.767300  0.444600  0.942400  1.0  -0.5913
  O  O606  1  0.720000  0.505800  0.868400  1.0  -0.6208
  O  O607  1  0.568300  0.669000  0.726800  1.0  -0.5728
  O  O608  1  0.722200  0.677300  0.709800  1.0  -0.5831
  O  O609  1  0.973000  0.326000  0.204100  1.0  -0.5845
  O  O610  1  0.817500  0.301200  0.201900  1.0  -0.5821
  O  O611  1  0.824900  0.488200  0.352600  1.0  -0.6199
  O  O612  1  0.781100  0.566800  0.421600  1.0  -0.6198
  O  O613  1  0.726800  0.672100  0.607200  1.0  -0.5598
  O  O614  1  0.576900  0.651500  0.589700  1.0  -0.5457
  O  O615  1  0.945900  0.210400  0.153800  1.0  -0.5759
  O  O616  1  0.523500  0.824900  0.598200  1.0  -0.5772
  O  O617  1  0.675500  0.795400  0.607200  1.0  -0.6356
  O  O618  1  0.732700  0.944600  0.442400  1.0  -0.5911
  O  O619  1  0.780000  0.005800  0.368400  1.0  -0.6203
  O  O620  1  0.931700  0.169000  0.226800  1.0  -0.5729
  O  O621  1  0.777800  0.177300  0.209800  1.0  -0.5829
  O  O622  1  0.527000  0.826000  0.704100  1.0  -0.5844
  O  O623  1  0.682500  0.801200  0.701900  1.0  -0.5817
  O  O624  1  0.675100  0.988200  0.852600  1.0  -0.6198
  O  O625  1  0.718900  0.066800  0.921600  1.0  -0.621
  O  O626  1  0.773200  0.172100  0.107200  1.0  -0.5594
  O  O627  1  0.923100  0.151500  0.089700  1.0  -0.5455
  O  O628  1  0.554100  0.710400  0.653800  1.0  -0.5759
