# generated using pymatgen
data_Fe2HC4Cl2O9
_symmetry_space_group_name_H-M   'P 1'
_cell_length_a   9.20900000
_cell_length_b   14.71200000
_cell_length_c   12.51780000
_cell_angle_alpha   90.00000000
_cell_angle_beta   109.01000000
_cell_angle_gamma   90.00000000
_symmetry_Int_Tables_number   1
_chemical_formula_structural   Fe2HC4Cl2O9
_chemical_formula_sum   'Fe8 H4 C16 Cl8 O36'
_cell_volume   1603.45271027
_cell_formula_units_Z   4
loop_
 _symmetry_equiv_pos_site_id
 _symmetry_equiv_pos_as_xyz
  1  'x, y, z'
loop_
 _atom_site_type_symbol
 _atom_site_label
 _atom_site_symmetry_multiplicity
 _atom_site_fract_x
 _atom_site_fract_y
 _atom_site_fract_z
 _atom_site_occupancy
 _atom_site_charge
  Fe  Fe1  1  0.952900  0.042380  0.332700  1.0  1.179
  Fe  Fe2  1  0.831630  0.200330  0.107830  1.0  1.1645
  Fe  Fe3  1  0.452900  0.542380  0.332700  1.0  1.179
  Fe  Fe4  1  0.331630  0.700330  0.107830  1.0  1.1651
  Fe  Fe5  1  0.952900  0.957620  0.832700  1.0  1.1794
  Fe  Fe6  1  0.831630  0.799670  0.607830  1.0  1.1648
  Fe  Fe7  1  0.452900  0.457620  0.832700  1.0  1.1794
  Fe  Fe8  1  0.331630  0.299670  0.607830  1.0  1.1652
  H  H9  1  0.700500  0.100200  0.200600  1.0  0.3862
  H  H10  1  0.200500  0.600200  0.200600  1.0  0.3862
  H  H11  1  0.700500  0.899800  0.700600  1.0  0.3861
  H  H12  1  0.200500  0.399800  0.700600  1.0  0.3861
  C  C13  1  0.075700  0.184700  0.491300  1.0  0.6575
  C  C14  1  0.195100  0.168000  0.438000  1.0  0.665
  C  C15  1  0.804100  0.932600  0.439000  1.0  0.6975
  C  C16  1  0.981900  0.917500  0.507300  1.0  0.6684
  C  C17  1  0.575700  0.684700  0.491300  1.0  0.6575
  C  C18  1  0.695100  0.668000  0.438000  1.0  0.665
  C  C19  1  0.304100  0.432600  0.439000  1.0  0.6975
  C  C20  1  0.481900  0.417500  0.507300  1.0  0.6684
  C  C21  1  0.075700  0.815300  0.991300  1.0  0.6577
  C  C22  1  0.195100  0.832000  0.938000  1.0  0.6643
  C  C23  1  0.804100  0.067400  0.939000  1.0  0.6967
  C  C24  1  0.981900  0.082500  0.007300  1.0  0.6681
  C  C25  1  0.575700  0.315300  0.991300  1.0  0.6577
  C  C26  1  0.695100  0.332000  0.938000  1.0  0.6643
  C  C27  1  0.304100  0.567400  0.939000  1.0  0.6967
  C  C28  1  0.481900  0.582500  0.007300  1.0  0.6681
  Cl  Cl29  1  0.005010  0.937550  0.222800  1.0  -0.4021
  Cl  Cl30  1  0.984310  0.303270  0.235200  1.0  -0.4258
  Cl  Cl31  1  0.505010  0.437550  0.222800  1.0  -0.4021
  Cl  Cl32  1  0.484310  0.803270  0.235200  1.0  -0.4258
  Cl  Cl33  1  0.005010  0.062450  0.722800  1.0  -0.4019
  Cl  Cl34  1  0.984310  0.696730  0.735200  1.0  -0.4251
  Cl  Cl35  1  0.505010  0.562450  0.722800  1.0  -0.4019
  Cl  Cl36  1  0.484310  0.196730  0.735200  1.0  -0.4251
  O  O37  1  0.805000  0.113000  0.209800  1.0  -0.6994
  O  O38  1  0.952300  0.139100  0.453300  1.0  -0.4737
  O  O39  1  0.157700  0.108900  0.361000  1.0  -0.48
  O  O40  1  0.113300  0.244400  0.568400  1.0  -0.4947
  O  O41  1  0.320500  0.213000  0.475500  1.0  -0.4615
  O  O42  1  0.712900  0.891300  0.474100  1.0  -0.4974
  O  O43  1  0.019500  0.860700  0.588000  1.0  -0.4721
  O  O44  1  0.075000  0.960800  0.477600  1.0  -0.4948
  O  O45  1  0.766600  0.984000  0.354900  1.0  -0.5189
  O  O46  1  0.305000  0.613000  0.209800  1.0  -0.6995
  O  O47  1  0.452300  0.639100  0.453300  1.0  -0.4737
  O  O48  1  0.657700  0.608900  0.361000  1.0  -0.48
  O  O49  1  0.613300  0.744400  0.568400  1.0  -0.4944
  O  O50  1  0.820500  0.713000  0.475500  1.0  -0.4614
  O  O51  1  0.212900  0.391300  0.474100  1.0  -0.4974
  O  O52  1  0.519500  0.360700  0.588000  1.0  -0.4715
  O  O53  1  0.575000  0.460800  0.477600  1.0  -0.4948
  O  O54  1  0.266600  0.484000  0.354900  1.0  -0.5189
  O  O55  1  0.805000  0.887000  0.709800  1.0  -0.6991
  O  O56  1  0.952300  0.860900  0.953300  1.0  -0.4736
  O  O57  1  0.157700  0.891100  0.861000  1.0  -0.4789
  O  O58  1  0.113300  0.755600  0.068400  1.0  -0.4936
  O  O59  1  0.320500  0.787000  0.975500  1.0  -0.461
  O  O60  1  0.712900  0.108700  0.974100  1.0  -0.4967
  O  O61  1  0.019500  0.139300  0.088000  1.0  -0.4706
  O  O62  1  0.075000  0.039200  0.977600  1.0  -0.4956
  O  O63  1  0.766600  0.016000  0.854900  1.0  -0.519
  O  O64  1  0.305000  0.387000  0.709800  1.0  -0.6992
  O  O65  1  0.452300  0.360900  0.953300  1.0  -0.4736
  O  O66  1  0.657700  0.391100  0.861000  1.0  -0.4789
  O  O67  1  0.613300  0.255600  0.068400  1.0  -0.4952
  O  O68  1  0.820500  0.287000  0.975500  1.0  -0.461
  O  O69  1  0.212900  0.608700  0.974100  1.0  -0.4967
  O  O70  1  0.519500  0.639300  0.088000  1.0  -0.4706
  O  O71  1  0.575000  0.539200  0.977600  1.0  -0.4956
  O  O72  1  0.266600  0.516000  0.854900  1.0  -0.519
