# generated using pymatgen
data_ScC8N4O13
_symmetry_space_group_name_H-M   'P 1'
_cell_length_a   18.27900000
_cell_length_b   7.33000000
_cell_length_c   11.60100000
_cell_angle_alpha   90.00000000
_cell_angle_beta   90.00000000
_cell_angle_gamma   90.00000000
_symmetry_Int_Tables_number   1
_chemical_formula_structural   ScC8N4O13
_chemical_formula_sum   'Sc4 C32 N16 O52'
_cell_volume   1554.36079707
_cell_formula_units_Z   4
loop_
 _symmetry_equiv_pos_site_id
 _symmetry_equiv_pos_as_xyz
  1  'x, y, z'
loop_
 _atom_site_type_symbol
 _atom_site_label
 _atom_site_symmetry_multiplicity
 _atom_site_fract_x
 _atom_site_fract_y
 _atom_site_fract_z
 _atom_site_occupancy
 _atom_site_charge
  Sc  Sc1  1  0.500000  0.500000  0.500000  1.0  2.1526
  Sc  Sc2  1  0.000000  0.000000  0.000000  1.0  2.1526
  Sc  Sc3  1  0.500000  0.000000  0.500000  1.0  2.1526
  Sc  Sc4  1  0.000000  0.500000  0.000000  1.0  2.1526
  C  C5  1  0.716000  0.091000  0.723600  1.0  0.3517
  C  C6  1  0.216000  0.591000  0.223600  1.0  0.3517
  C  C7  1  0.284000  0.409000  0.723600  1.0  0.3523
  C  C8  1  0.784000  0.909000  0.223600  1.0  0.3523
  C  C9  1  0.284000  0.591000  0.276400  1.0  0.3522
  C  C10  1  0.784000  0.091000  0.776400  1.0  0.3522
  C  C11  1  0.716000  0.909000  0.276400  1.0  0.3518
  C  C12  1  0.216000  0.409000  0.776400  1.0  0.3518
  C  C13  1  0.284000  0.909000  0.276400  1.0  0.3523
  C  C14  1  0.784000  0.409000  0.776400  1.0  0.3523
  C  C15  1  0.716000  0.591000  0.276400  1.0  0.3516
  C  C16  1  0.216000  0.091000  0.776400  1.0  0.3516
  C  C17  1  0.716000  0.409000  0.723600  1.0  0.3518
  C  C18  1  0.216000  0.909000  0.223600  1.0  0.3518
  C  C19  1  0.284000  0.091000  0.723600  1.0  0.3523
  C  C20  1  0.784000  0.591000  0.223600  1.0  0.3523
  C  C21  1  0.609900  0.250000  0.633800  1.0  0.8198
  C  C22  1  0.682700  0.250000  0.694600  1.0  0.0021
  C  C23  1  0.109900  0.750000  0.133800  1.0  0.8198
  C  C24  1  0.182700  0.750000  0.194600  1.0  0.0021
  C  C25  1  0.390100  0.250000  0.633800  1.0  0.8202
  C  C26  1  0.317300  0.250000  0.694600  1.0  0.0024
  C  C27  1  0.890100  0.750000  0.133800  1.0  0.8202
  C  C28  1  0.817300  0.750000  0.194600  1.0  0.0024
  C  C29  1  0.390100  0.750000  0.366200  1.0  0.8208
  C  C30  1  0.317300  0.750000  0.305400  1.0  0.0028
  C  C31  1  0.890100  0.250000  0.866200  1.0  0.8208
  C  C32  1  0.817300  0.250000  0.805400  1.0  0.0028
  C  C33  1  0.609900  0.750000  0.366200  1.0  0.8208
  C  C34  1  0.682700  0.750000  0.305400  1.0  0.0025
  C  C35  1  0.109900  0.250000  0.866200  1.0  0.8208
  C  C36  1  0.182700  0.250000  0.805400  1.0  0.0025
  N  N37  1  0.690400  0.922000  0.691000  1.0  0.1677
  N  N38  1  0.190400  0.422000  0.191000  1.0  0.1677
  N  N39  1  0.309600  0.578000  0.691000  1.0  0.1676
  N  N40  1  0.809600  0.078000  0.191000  1.0  0.1676
  N  N41  1  0.309600  0.422000  0.309000  1.0  0.1675
  N  N42  1  0.809600  0.922000  0.809000  1.0  0.1675
  N  N43  1  0.690400  0.078000  0.309000  1.0  0.1676
  N  N44  1  0.190400  0.578000  0.809000  1.0  0.1676
  N  N45  1  0.309600  0.078000  0.309000  1.0  0.1676
  N  N46  1  0.809600  0.578000  0.809000  1.0  0.1676
  N  N47  1  0.690400  0.422000  0.309000  1.0  0.1676
  N  N48  1  0.190400  0.922000  0.809000  1.0  0.1676
  N  N49  1  0.690400  0.578000  0.691000  1.0  0.1676
  N  N50  1  0.190400  0.078000  0.191000  1.0  0.1676
  N  N51  1  0.309600  0.922000  0.691000  1.0  0.1676
  N  N52  1  0.809600  0.422000  0.191000  1.0  0.1676
  O  O53  1  0.581960  0.401600  0.610800  1.0  -0.5231
  O  O54  1  0.709600  0.847000  0.590000  1.0  -0.2731
  O  O55  1  0.650300  0.859000  0.779000  1.0  -0.5272
  O  O56  1  0.081960  0.901600  0.110800  1.0  -0.5231
  O  O57  1  0.209600  0.347000  0.090000  1.0  -0.2731
  O  O58  1  0.150300  0.359000  0.279000  1.0  -0.5272
  O  O59  1  0.418040  0.098400  0.610800  1.0  -0.5221
  O  O60  1  0.290400  0.653000  0.590000  1.0  -0.2738
  O  O61  1  0.349700  0.641000  0.779000  1.0  -0.5275
  O  O62  1  0.918040  0.598400  0.110800  1.0  -0.5221
  O  O63  1  0.790400  0.153000  0.090000  1.0  -0.2738
  O  O64  1  0.849700  0.141000  0.279000  1.0  -0.5275
  O  O65  1  0.418040  0.901600  0.389200  1.0  -0.5228
  O  O66  1  0.290400  0.347000  0.410000  1.0  -0.2747
  O  O67  1  0.349700  0.359000  0.221000  1.0  -0.5277
  O  O68  1  0.918040  0.401600  0.889200  1.0  -0.5228
  O  O69  1  0.790400  0.847000  0.910000  1.0  -0.2747
  O  O70  1  0.849700  0.859000  0.721000  1.0  -0.5277
  O  O71  1  0.581960  0.598400  0.389200  1.0  -0.523
  O  O72  1  0.709600  0.153000  0.410000  1.0  -0.2743
  O  O73  1  0.650300  0.141000  0.221000  1.0  -0.5282
  O  O74  1  0.081960  0.098400  0.889200  1.0  -0.523
  O  O75  1  0.209600  0.653000  0.910000  1.0  -0.2743
  O  O76  1  0.150300  0.641000  0.721000  1.0  -0.5282
  O  O77  1  0.418040  0.598400  0.389200  1.0  -0.5217
  O  O78  1  0.290400  0.153000  0.410000  1.0  -0.2745
  O  O79  1  0.349700  0.141000  0.221000  1.0  -0.5281
  O  O80  1  0.918040  0.098400  0.889200  1.0  -0.5217
  O  O81  1  0.790400  0.653000  0.910000  1.0  -0.2745
  O  O82  1  0.849700  0.641000  0.721000  1.0  -0.5281
  O  O83  1  0.581960  0.901600  0.389200  1.0  -0.5237
  O  O84  1  0.709600  0.347000  0.410000  1.0  -0.2739
  O  O85  1  0.650300  0.359000  0.221000  1.0  -0.5275
  O  O86  1  0.081960  0.401600  0.889200  1.0  -0.5237
  O  O87  1  0.209600  0.847000  0.910000  1.0  -0.2739
  O  O88  1  0.150300  0.859000  0.721000  1.0  -0.5275
  O  O89  1  0.581960  0.098400  0.610800  1.0  -0.5234
  O  O90  1  0.709600  0.653000  0.590000  1.0  -0.2737
  O  O91  1  0.650300  0.641000  0.779000  1.0  -0.5272
  O  O92  1  0.081960  0.598400  0.110800  1.0  -0.5234
  O  O93  1  0.209600  0.153000  0.090000  1.0  -0.2737
  O  O94  1  0.150300  0.141000  0.279000  1.0  -0.5272
  O  O95  1  0.418040  0.401600  0.610800  1.0  -0.5221
  O  O96  1  0.290400  0.847000  0.590000  1.0  -0.2733
  O  O97  1  0.349700  0.859000  0.779000  1.0  -0.5275
  O  O98  1  0.918040  0.901600  0.110800  1.0  -0.5221
  O  O99  1  0.790400  0.347000  0.090000  1.0  -0.2733
  O  O100  1  0.849700  0.359000  0.279000  1.0  -0.5275
  O  O101  1  0.500000  0.250000  0.418000  1.0  -0.5795
  O  O102  1  0.000000  0.750000  0.918000  1.0  -0.5795
  O  O103  1  0.500000  0.750000  0.582000  1.0  -0.5799
  O  O104  1  0.000000  0.250000  0.082000  1.0  -0.5799
