# generated using pymatgen
data_CuH14C23NO4
_symmetry_space_group_name_H-M   'P 1'
_cell_length_a   27.44900000
_cell_length_b   27.44900000
_cell_length_c   27.44900000
_cell_angle_alpha   90.00000000
_cell_angle_beta   90.00000000
_cell_angle_gamma   90.00000000
_symmetry_Int_Tables_number   1
_chemical_formula_structural   CuH14C23NO4
_chemical_formula_sum   'Cu12 H168 C276 N12 O48'
_cell_volume   20681.38319985
_cell_formula_units_Z   12
loop_
 _symmetry_equiv_pos_site_id
 _symmetry_equiv_pos_as_xyz
  1  'x, y, z'
loop_
 _atom_site_type_symbol
 _atom_site_label
 _atom_site_symmetry_multiplicity
 _atom_site_fract_x
 _atom_site_fract_y
 _atom_site_fract_z
 _atom_site_occupancy
 _atom_site_charge
  Cu  Cu1  1  0.000000  0.500000  0.701120  1.0  0.9211
  Cu  Cu2  1  0.000000  0.500000  0.298880  1.0  0.9223
  Cu  Cu3  1  0.701120  0.000000  0.500000  1.0  0.9284
  Cu  Cu4  1  0.298880  0.000000  0.500000  1.0  0.9297
  Cu  Cu5  1  0.500000  0.701130  0.000000  1.0  0.9302
  Cu  Cu6  1  0.500000  0.298870  0.000000  1.0  0.9302
  Cu  Cu7  1  0.000000  0.500000  0.798880  1.0  0.9223
  Cu  Cu8  1  0.000000  0.500000  0.201120  1.0  0.9211
  Cu  Cu9  1  0.500000  0.201120  0.000000  1.0  0.93
  Cu  Cu10  1  0.500000  0.798880  0.000000  1.0  0.9299
  Cu  Cu11  1  0.201130  0.000000  0.500000  1.0  0.9284
  Cu  Cu12  1  0.798870  0.000000  0.500000  1.0  0.9299
  H  H13  1  0.102780  0.388630  0.828440  1.0  0.1014
  H  H14  1  0.165160  0.325310  0.828370  1.0  0.1093
  H  H15  1  0.897220  0.611370  0.828440  1.0  0.1016
  H  H16  1  0.834840  0.674690  0.828370  1.0  0.1091
  H  H17  1  0.897220  0.388630  0.171560  1.0  0.1008
  H  H18  1  0.834840  0.325310  0.171630  1.0  0.1088
  H  H19  1  0.102780  0.611370  0.171560  1.0  0.1008
  H  H20  1  0.165160  0.674690  0.171630  1.0  0.1087
  H  H21  1  0.829570  0.103340  0.388480  1.0  0.1068
  H  H22  1  0.829000  0.165420  0.324860  1.0  0.1098
  H  H23  1  0.829570  0.896660  0.611520  1.0  0.1062
  H  H24  1  0.829000  0.834580  0.675140  1.0  0.109
  H  H25  1  0.170430  0.896660  0.388480  1.0  0.1073
  H  H26  1  0.171000  0.834580  0.324860  1.0  0.1094
  H  H27  1  0.170430  0.103340  0.611520  1.0  0.1061
  H  H28  1  0.171000  0.165420  0.675140  1.0  0.1087
  H  H29  1  0.388790  0.827310  0.102560  1.0  0.1064
  H  H30  1  0.325740  0.827750  0.165190  1.0  0.1131
  H  H31  1  0.574140  0.624550  0.021070  1.0  0.1063
  H  H32  1  0.575360  0.535240  0.023070  1.0  0.1107
  H  H33  1  0.611210  0.827310  0.897440  1.0  0.1064
  H  H34  1  0.674260  0.827750  0.834810  1.0  0.1129
  H  H35  1  0.425860  0.624550  0.978930  1.0  0.106
  H  H36  1  0.424640  0.535240  0.976930  1.0  0.11
  H  H37  1  0.388790  0.172690  0.897440  1.0  0.1053
  H  H38  1  0.325740  0.172250  0.834810  1.0  0.1121
  H  H39  1  0.574140  0.375450  0.978930  1.0  0.1067
  H  H40  1  0.575360  0.464760  0.976930  1.0  0.1107
  H  H41  1  0.611210  0.172690  0.102560  1.0  0.1058
  H  H42  1  0.674260  0.172250  0.165190  1.0  0.1122
  H  H43  1  0.425860  0.375450  0.021070  1.0  0.1062
  H  H44  1  0.424640  0.464760  0.023070  1.0  0.1108
  H  H45  1  0.888630  0.602780  0.671560  1.0  0.0999
  H  H46  1  0.825310  0.665160  0.671630  1.0  0.1094
  H  H47  1  0.111370  0.397220  0.671560  1.0  0.0998
  H  H48  1  0.174690  0.334840  0.671630  1.0  0.1095
  H  H49  1  0.888630  0.397220  0.328440  1.0  0.1005
  H  H50  1  0.825310  0.334840  0.328370  1.0  0.1098
  H  H51  1  0.111370  0.602780  0.328440  1.0  0.1008
  H  H52  1  0.174690  0.665160  0.328370  1.0  0.1103
  H  H53  1  0.603340  0.329570  0.111520  1.0  0.1083
  H  H54  1  0.665420  0.329000  0.175140  1.0  0.1094
  H  H55  1  0.396660  0.329570  0.888480  1.0  0.1094
  H  H56  1  0.334580  0.329000  0.824860  1.0  0.1101
  H  H57  1  0.396660  0.670430  0.111520  1.0  0.1078
  H  H58  1  0.334580  0.671000  0.175140  1.0  0.1093
  H  H59  1  0.603340  0.670430  0.888480  1.0  0.108
  H  H60  1  0.665420  0.671000  0.824860  1.0  0.1097
  H  H61  1  0.327310  0.888790  0.397440  1.0  0.1049
  H  H62  1  0.327750  0.825740  0.334810  1.0  0.1114
  H  H63  1  0.124550  0.074140  0.478930  1.0  0.1073
  H  H64  1  0.035240  0.075360  0.476930  1.0  0.1126
  H  H65  1  0.327310  0.111210  0.602560  1.0  0.1055
  H  H66  1  0.327750  0.174260  0.665190  1.0  0.1114
  H  H67  1  0.124550  0.925860  0.521070  1.0  0.107
  H  H68  1  0.035240  0.924640  0.523070  1.0  0.112
  H  H69  1  0.672690  0.888790  0.602560  1.0  0.1059
  H  H70  1  0.672250  0.825740  0.665190  1.0  0.1109
  H  H71  1  0.875450  0.074140  0.521070  1.0  0.1081
  H  H72  1  0.964760  0.075360  0.523070  1.0  0.1133
  H  H73  1  0.672690  0.111210  0.397440  1.0  0.1054
  H  H74  1  0.672250  0.174260  0.334810  1.0  0.111
  H  H75  1  0.875450  0.925860  0.478930  1.0  0.107
  H  H76  1  0.964760  0.924640  0.476930  1.0  0.1112
  H  H77  1  0.896870  0.611250  0.171550  1.0  0.1076
  H  H78  1  0.834540  0.674610  0.171610  1.0  0.1082
  H  H79  1  0.979930  0.425570  0.375470  1.0  0.1079
  H  H80  1  0.977680  0.424390  0.464680  1.0  0.1092
  H  H81  1  0.103130  0.388750  0.171550  1.0  0.1077
  H  H82  1  0.165460  0.325390  0.171610  1.0  0.1074
  H  H83  1  0.020070  0.574430  0.375470  1.0  0.1091
  H  H84  1  0.022320  0.575610  0.464680  1.0  0.1104
  H  H85  1  0.103130  0.611250  0.828450  1.0  0.108
  H  H86  1  0.165460  0.674610  0.828390  1.0  0.1081
  H  H87  1  0.020070  0.425570  0.624530  1.0  0.1088
  H  H88  1  0.022320  0.424390  0.535320  1.0  0.1088
  H  H89  1  0.896870  0.388750  0.828450  1.0  0.1086
  H  H90  1  0.834540  0.325390  0.828390  1.0  0.1085
  H  H91  1  0.979930  0.574430  0.624530  1.0  0.1094
  H  H92  1  0.977680  0.575610  0.535320  1.0  0.1103
  H  H93  1  0.172680  0.897460  0.611110  1.0  0.106
  H  H94  1  0.172250  0.834840  0.674160  1.0  0.1099
  H  H95  1  0.375450  0.978930  0.425860  1.0  0.1069
  H  H96  1  0.464760  0.976930  0.424640  1.0  0.1113
  H  H97  1  0.172680  0.102540  0.388890  1.0  0.1059
  H  H98  1  0.172250  0.165160  0.325840  1.0  0.1102
  H  H99  1  0.375450  0.021070  0.574140  1.0  0.1068
  H  H100  1  0.464760  0.023070  0.575360  1.0  0.1131
  H  H101  1  0.827320  0.102540  0.611110  1.0  0.1057
  H  H102  1  0.827750  0.165160  0.674160  1.0  0.1095
  H  H103  1  0.624550  0.021070  0.425860  1.0  0.1062
  H  H104  1  0.535240  0.023070  0.424640  1.0  0.1115
  H  H105  1  0.827320  0.897460  0.388890  1.0  0.1053
  H  H106  1  0.827750  0.834840  0.325840  1.0  0.1105
  H  H107  1  0.624550  0.978930  0.574140  1.0  0.107
  H  H108  1  0.535240  0.976930  0.575360  1.0  0.1129
  H  H109  1  0.611400  0.170420  0.896670  1.0  0.1074
  H  H110  1  0.675020  0.170980  0.834590  1.0  0.1108
  H  H111  1  0.388600  0.170420  0.103330  1.0  0.1072
  H  H112  1  0.324980  0.170980  0.165410  1.0  0.1107
  H  H113  1  0.611400  0.829580  0.103330  1.0  0.1081
  H  H114  1  0.675020  0.829020  0.165410  1.0  0.1114
  H  H115  1  0.388600  0.829580  0.896670  1.0  0.1083
  H  H116  1  0.324980  0.829020  0.834590  1.0  0.1116
  H  H117  1  0.111250  0.396870  0.328450  1.0  0.1076
  H  H118  1  0.174610  0.334540  0.328390  1.0  0.1087
  H  H119  1  0.925570  0.479930  0.124530  1.0  0.1082
  H  H120  1  0.924390  0.477680  0.035320  1.0  0.1078
  H  H121  1  0.888750  0.603130  0.328450  1.0  0.1074
  H  H122  1  0.825390  0.665460  0.328390  1.0  0.1087
  H  H123  1  0.074430  0.520070  0.124530  1.0  0.1082
  H  H124  1  0.075610  0.522320  0.035320  1.0  0.1085
  H  H125  1  0.111250  0.603130  0.671550  1.0  0.107
  H  H126  1  0.174610  0.665460  0.671610  1.0  0.1088
  H  H127  1  0.925570  0.520070  0.875470  1.0  0.1073
  H  H128  1  0.924390  0.522320  0.964680  1.0  0.108
  H  H129  1  0.888750  0.396870  0.671550  1.0  0.107
  H  H130  1  0.825390  0.334540  0.671610  1.0  0.1083
  H  H131  1  0.074430  0.479930  0.875470  1.0  0.1074
  H  H132  1  0.075610  0.477680  0.964680  1.0  0.1084
  H  H133  1  0.397460  0.672680  0.888890  1.0  0.107
  H  H134  1  0.334840  0.672250  0.825840  1.0  0.1104
  H  H135  1  0.478930  0.875450  0.074140  1.0  0.1064
  H  H136  1  0.476930  0.964760  0.075360  1.0  0.1127
  H  H137  1  0.602540  0.672680  0.111110  1.0  0.107
  H  H138  1  0.665160  0.672250  0.174160  1.0  0.11
  H  H139  1  0.521070  0.875450  0.925860  1.0  0.1063
  H  H140  1  0.523070  0.964760  0.924640  1.0  0.111
  H  H141  1  0.602540  0.327320  0.888890  1.0  0.1074
  H  H142  1  0.665160  0.327750  0.825840  1.0  0.1111
  H  H143  1  0.521070  0.124550  0.074140  1.0  0.1069
  H  H144  1  0.523070  0.035240  0.075360  1.0  0.1125
  H  H145  1  0.397460  0.327320  0.111110  1.0  0.1073
  H  H146  1  0.334840  0.327750  0.174160  1.0  0.1109
  H  H147  1  0.478930  0.124550  0.925860  1.0  0.1062
  H  H148  1  0.476930  0.035240  0.924640  1.0  0.1108
  H  H149  1  0.670420  0.111400  0.603330  1.0  0.1074
  H  H150  1  0.670980  0.175020  0.665410  1.0  0.1093
  H  H151  1  0.670420  0.888600  0.396670  1.0  0.1072
  H  H152  1  0.670980  0.824980  0.334590  1.0  0.1092
  H  H153  1  0.329580  0.111400  0.396670  1.0  0.1064
  H  H154  1  0.329020  0.175020  0.334590  1.0  0.1093
  H  H155  1  0.329580  0.888600  0.603330  1.0  0.1071
  H  H156  1  0.329020  0.824980  0.665410  1.0  0.1087
  H  H157  1  0.250060  0.314300  0.813690  1.0  0.1076
  H  H158  1  0.749940  0.685700  0.813690  1.0  0.1076
  H  H159  1  0.749940  0.314300  0.186310  1.0  0.1073
  H  H160  1  0.250060  0.685700  0.186310  1.0  0.1075
  H  H161  1  0.814300  0.249940  0.313690  1.0  0.1077
  H  H162  1  0.814300  0.750060  0.686310  1.0  0.1075
  H  H163  1  0.185700  0.750060  0.313690  1.0  0.1067
  H  H164  1  0.185700  0.249940  0.686310  1.0  0.1066
  H  H165  1  0.313820  0.813820  0.250000  1.0  0.1064
  H  H166  1  0.686180  0.813820  0.750000  1.0  0.1056
  H  H167  1  0.313820  0.186180  0.750000  1.0  0.1073
  H  H168  1  0.686180  0.186180  0.250000  1.0  0.1069
  H  H169  1  0.750040  0.686440  0.185820  1.0  0.1065
  H  H170  1  0.249960  0.313560  0.185820  1.0  0.1056
  H  H171  1  0.249960  0.686440  0.814180  1.0  0.1069
  H  H172  1  0.750040  0.313560  0.814180  1.0  0.1063
  H  H173  1  0.186440  0.749960  0.685820  1.0  0.1051
  H  H174  1  0.186440  0.250040  0.314180  1.0  0.1054
  H  H175  1  0.813560  0.250040  0.685820  1.0  0.1055
  H  H176  1  0.813560  0.749960  0.314180  1.0  0.1057
  H  H177  1  0.685930  0.185930  0.750000  1.0  0.1089
  H  H178  1  0.314070  0.185930  0.250000  1.0  0.1093
  H  H179  1  0.685930  0.814070  0.250000  1.0  0.1079
  H  H180  1  0.314070  0.814070  0.750000  1.0  0.1089
  C  C181  1  0.118150  0.377190  0.793950  1.0  -0.0841
  C  C182  1  0.154150  0.341090  0.793940  1.0  -0.1518
  C  C183  1  0.881850  0.622810  0.793950  1.0  -0.0844
  C  C184  1  0.845850  0.658910  0.793940  1.0  -0.1512
  C  C185  1  0.881850  0.377190  0.206050  1.0  -0.0848
  C  C186  1  0.845850  0.341090  0.206060  1.0  -0.1532
  C  C187  1  0.118150  0.622810  0.206050  1.0  -0.0839
  C  C188  1  0.154150  0.658910  0.206060  1.0  -0.1532
  C  C189  1  0.794970  0.118510  0.377080  1.0  -0.0814
  C  C190  1  0.794660  0.154330  0.340780  1.0  -0.151
  C  C191  1  0.794970  0.881490  0.622920  1.0  -0.0816
  C  C192  1  0.794660  0.845670  0.659220  1.0  -0.1508
  C  C193  1  0.205030  0.881490  0.377080  1.0  -0.0804
  C  C194  1  0.205340  0.845670  0.340780  1.0  -0.1502
  C  C195  1  0.205030  0.118510  0.622920  1.0  -0.0791
  C  C196  1  0.205340  0.154330  0.659220  1.0  -0.1497
  C  C197  1  0.377250  0.792910  0.118060  1.0  -0.0878
  C  C198  1  0.341300  0.793200  0.154240  1.0  -0.1539
  C  C199  1  0.541460  0.604580  0.011840  1.0  0.1026
  C  C200  1  0.542170  0.553630  0.012390  1.0  -0.1397
  C  C201  1  0.622750  0.792910  0.881940  1.0  -0.0882
  C  C202  1  0.658700  0.793200  0.845760  1.0  -0.152
  C  C203  1  0.458540  0.604580  0.988160  1.0  0.1044
  C  C204  1  0.457830  0.553630  0.987610  1.0  -0.14
  C  C205  1  0.377250  0.207090  0.881940  1.0  -0.0864
  C  C206  1  0.341300  0.206800  0.845760  1.0  -0.1532
  C  C207  1  0.541460  0.395420  0.988160  1.0  0.102
  C  C208  1  0.542170  0.446370  0.987610  1.0  -0.1403
  C  C209  1  0.622750  0.207090  0.118060  1.0  -0.0873
  C  C210  1  0.658700  0.206800  0.154240  1.0  -0.1534
  C  C211  1  0.458540  0.395420  0.011840  1.0  0.1037
  C  C212  1  0.457830  0.446370  0.012390  1.0  -0.1404
  C  C213  1  0.877190  0.618150  0.706050  1.0  -0.0848
  C  C214  1  0.841090  0.654150  0.706060  1.0  -0.1536
  C  C215  1  0.122810  0.381850  0.706050  1.0  -0.0855
  C  C216  1  0.158910  0.345850  0.706060  1.0  -0.1541
  C  C217  1  0.877190  0.381850  0.293950  1.0  -0.0857
  C  C218  1  0.841090  0.345850  0.293940  1.0  -0.1528
  C  C219  1  0.122810  0.618150  0.293950  1.0  -0.0853
  C  C220  1  0.158910  0.654150  0.293940  1.0  -0.1514
  C  C221  1  0.618510  0.294970  0.122920  1.0  -0.086
  C  C222  1  0.654330  0.294660  0.159220  1.0  -0.1536
  C  C223  1  0.381490  0.294970  0.877080  1.0  -0.0874
  C  C224  1  0.345670  0.294660  0.840780  1.0  -0.1528
  C  C225  1  0.381490  0.705030  0.122920  1.0  -0.0852
  C  C226  1  0.345670  0.705340  0.159220  1.0  -0.1528
  C  C227  1  0.618510  0.705030  0.877080  1.0  -0.0841
  C  C228  1  0.654330  0.705340  0.840780  1.0  -0.1527
  C  C229  1  0.292910  0.877250  0.381940  1.0  -0.0827
  C  C230  1  0.293200  0.841300  0.345760  1.0  -0.1502
  C  C231  1  0.104580  0.041460  0.488160  1.0  0.0988
  C  C232  1  0.053630  0.042170  0.487610  1.0  -0.1432
  C  C233  1  0.292910  0.122750  0.618060  1.0  -0.0833
  C  C234  1  0.293200  0.158700  0.654240  1.0  -0.1501
  C  C235  1  0.104580  0.958540  0.511840  1.0  0.0983
  C  C236  1  0.053630  0.957830  0.512390  1.0  -0.1436
  C  C237  1  0.707090  0.877250  0.618060  1.0  -0.0826
  C  C238  1  0.706800  0.841300  0.654240  1.0  -0.1477
  C  C239  1  0.895420  0.041460  0.511840  1.0  0.0946
  C  C240  1  0.946370  0.042170  0.512390  1.0  -0.143
  C  C241  1  0.707090  0.122750  0.381940  1.0  -0.0824
  C  C242  1  0.706800  0.158700  0.345760  1.0  -0.1479
  C  C243  1  0.895420  0.958540  0.488160  1.0  0.0959
  C  C244  1  0.946370  0.957830  0.487610  1.0  -0.1448
  C  C245  1  0.881600  0.622780  0.206050  1.0  -0.0843
  C  C246  1  0.845600  0.658920  0.206060  1.0  -0.1514
  C  C247  1  0.988700  0.458390  0.395420  1.0  0.0913
  C  C248  1  0.988060  0.457700  0.446340  1.0  -0.1367
  C  C249  1  0.118400  0.377220  0.206050  1.0  -0.0825
  C  C250  1  0.154400  0.341080  0.206060  1.0  -0.1518
  C  C251  1  0.011300  0.541610  0.395410  1.0  0.0943
  C  C252  1  0.011940  0.542300  0.446340  1.0  -0.1372
  C  C253  1  0.118400  0.622780  0.793950  1.0  -0.083
  C  C254  1  0.154400  0.658920  0.793940  1.0  -0.1501
  C  C255  1  0.011300  0.458390  0.604580  1.0  0.0919
  C  C256  1  0.011940  0.457700  0.553660  1.0  -0.1388
  C  C257  1  0.881600  0.377220  0.793950  1.0  -0.0847
  C  C258  1  0.845600  0.341080  0.793940  1.0  -0.1501
  C  C259  1  0.988700  0.541610  0.604590  1.0  0.0945
  C  C260  1  0.988060  0.542300  0.553660  1.0  -0.1373
  C  C261  1  0.207090  0.881990  0.622670  1.0  -0.0828
  C  C262  1  0.206800  0.845820  0.658610  1.0  -0.1526
  C  C263  1  0.395420  0.988160  0.458540  1.0  0.0992
  C  C264  1  0.446370  0.987600  0.457830  1.0  -0.1383
  C  C265  1  0.207090  0.118010  0.377330  1.0  -0.0832
  C  C266  1  0.206800  0.154180  0.341390  1.0  -0.1526
  C  C267  1  0.395420  0.011840  0.541460  1.0  0.0997
  C  C268  1  0.446370  0.012400  0.542170  1.0  -0.1364
  C  C269  1  0.792910  0.118010  0.622670  1.0  -0.0833
  C  C270  1  0.793200  0.154180  0.658610  1.0  -0.1542
  C  C271  1  0.604580  0.011840  0.458540  1.0  0.1017
  C  C272  1  0.553630  0.012400  0.457830  1.0  -0.1382
  C  C273  1  0.792910  0.881990  0.377330  1.0  -0.0833
  C  C274  1  0.793200  0.845820  0.341390  1.0  -0.1542
  C  C275  1  0.604580  0.988160  0.541460  1.0  0.1029
  C  C276  1  0.553630  0.987600  0.542170  1.0  -0.137
  C  C277  1  0.622820  0.205010  0.881530  1.0  -0.0865
  C  C278  1  0.659120  0.205320  0.845710  1.0  -0.1555
  C  C279  1  0.377180  0.205010  0.118470  1.0  -0.0869
  C  C280  1  0.340880  0.205320  0.154290  1.0  -0.1558
  C  C281  1  0.622820  0.794990  0.118470  1.0  -0.0869
  C  C282  1  0.659120  0.794680  0.154290  1.0  -0.1556
  C  C283  1  0.377180  0.794990  0.881530  1.0  -0.0883
  C  C284  1  0.340880  0.794680  0.845710  1.0  -0.1553
  C  C285  1  0.122780  0.381600  0.293950  1.0  -0.0847
  C  C286  1  0.158920  0.345600  0.293940  1.0  -0.15
  C  C287  1  0.958390  0.488700  0.104580  1.0  0.0976
  C  C288  1  0.957700  0.488060  0.053660  1.0  -0.134
  C  C289  1  0.877220  0.618400  0.293950  1.0  -0.0851
  C  C290  1  0.841080  0.654400  0.293940  1.0  -0.1504
  C  C291  1  0.041610  0.511300  0.104590  1.0  0.0989
  C  C292  1  0.042300  0.511940  0.053660  1.0  -0.1341
  C  C293  1  0.122780  0.618400  0.706050  1.0  -0.0836
  C  C294  1  0.158920  0.654400  0.706060  1.0  -0.1515
  C  C295  1  0.958390  0.511300  0.895410  1.0  0.0961
  C  C296  1  0.957700  0.511940  0.946340  1.0  -0.1334
  C  C297  1  0.877220  0.381600  0.706050  1.0  -0.0846
  C  C298  1  0.841080  0.345600  0.706060  1.0  -0.1517
  C  C299  1  0.041610  0.488700  0.895420  1.0  0.0978
  C  C300  1  0.042300  0.488060  0.946340  1.0  -0.1341
  C  C301  1  0.381990  0.707090  0.877330  1.0  -0.0859
  C  C302  1  0.345820  0.706800  0.841390  1.0  -0.1571
  C  C303  1  0.488160  0.895420  0.041460  1.0  0.1004
  C  C304  1  0.487600  0.946370  0.042170  1.0  -0.1366
  C  C305  1  0.618010  0.707090  0.122670  1.0  -0.085
  C  C306  1  0.654180  0.706800  0.158610  1.0  -0.1569
  C  C307  1  0.511840  0.895420  0.958540  1.0  0.1014
  C  C308  1  0.512400  0.946370  0.957830  1.0  -0.1387
  C  C309  1  0.618010  0.292910  0.877330  1.0  -0.0871
  C  C310  1  0.654180  0.293200  0.841390  1.0  -0.1567
  C  C311  1  0.511840  0.104580  0.041460  1.0  0.1011
  C  C312  1  0.512400  0.053630  0.042170  1.0  -0.1361
  C  C313  1  0.381990  0.292910  0.122670  1.0  -0.0875
  C  C314  1  0.345820  0.293200  0.158610  1.0  -0.157
  C  C315  1  0.488160  0.104580  0.958540  1.0  0.1033
  C  C316  1  0.487600  0.053630  0.957830  1.0  -0.1369
  C  C317  1  0.705010  0.122820  0.618470  1.0  -0.08
  C  C318  1  0.705320  0.159120  0.654290  1.0  -0.1499
  C  C319  1  0.705010  0.877180  0.381530  1.0  -0.0801
  C  C320  1  0.705320  0.840880  0.345710  1.0  -0.1494
  C  C321  1  0.294990  0.122820  0.381530  1.0  -0.0811
  C  C322  1  0.294680  0.159120  0.345710  1.0  -0.1518
  C  C323  1  0.294990  0.877180  0.618470  1.0  -0.0811
  C  C324  1  0.294680  0.840880  0.654290  1.0  -0.1526
  C  C325  1  0.000000  0.500000  0.527250  1.0  0.0463
  C  C326  1  0.000000  0.500000  0.472750  1.0  0.0461
  C  C327  1  0.527240  0.000000  0.500000  1.0  0.0474
  C  C328  1  0.472760  0.000000  0.500000  1.0  0.0475
  C  C329  1  0.500000  0.527240  0.000000  1.0  0.0486
  C  C330  1  0.500000  0.472760  0.000000  1.0  0.0487
  C  C331  1  0.000000  0.500000  0.972750  1.0  0.0461
  C  C332  1  0.000000  0.500000  0.027250  1.0  0.0463
  C  C333  1  0.500000  0.027240  0.000000  1.0  0.0486
  C  C334  1  0.500000  0.972760  0.000000  1.0  0.0487
  C  C335  1  0.027240  0.000000  0.500000  1.0  0.0474
  C  C336  1  0.972760  0.000000  0.500000  1.0  0.0475
  C  C337  1  0.063770  0.436230  0.750000  1.0  0.6659
  C  C338  1  0.102010  0.397990  0.750000  1.0  -0.096
  C  C339  1  0.175030  0.324970  0.750000  1.0  0.0565
  C  C340  1  0.213450  0.286550  0.750000  1.0  0.0516
  C  C341  1  0.936230  0.563770  0.750000  1.0  0.666
  C  C342  1  0.897990  0.602010  0.750000  1.0  -0.0967
  C  C343  1  0.824970  0.675030  0.750000  1.0  0.0566
  C  C344  1  0.786550  0.713450  0.750000  1.0  0.0523
  C  C345  1  0.936230  0.436230  0.250000  1.0  0.6653
  C  C346  1  0.897990  0.397990  0.250000  1.0  -0.097
  C  C347  1  0.824970  0.324970  0.250000  1.0  0.0566
  C  C348  1  0.786550  0.286550  0.250000  1.0  0.0523
  C  C349  1  0.063770  0.563770  0.250000  1.0  0.6662
  C  C350  1  0.102010  0.602010  0.250000  1.0  -0.0957
  C  C351  1  0.175030  0.675030  0.250000  1.0  0.0566
  C  C352  1  0.213450  0.713450  0.250000  1.0  0.0515
  C  C353  1  0.751400  0.064060  0.436460  1.0  0.6778
  C  C354  1  0.751190  0.102260  0.398110  1.0  -0.0994
  C  C355  1  0.750580  0.174980  0.324680  1.0  0.074
  C  C356  1  0.750310  0.213510  0.286300  1.0  0.0508
  C  C357  1  0.751400  0.935940  0.563540  1.0  0.6779
  C  C358  1  0.751190  0.897740  0.601890  1.0  -0.0991
  C  C359  1  0.750580  0.825020  0.675320  1.0  0.0737
  C  C360  1  0.750310  0.786490  0.713700  1.0  0.0515
  C  C361  1  0.248600  0.935940  0.436460  1.0  0.6772
  C  C362  1  0.248810  0.897740  0.398110  1.0  -0.0993
  C  C363  1  0.249420  0.825020  0.324680  1.0  0.0736
  C  C364  1  0.249690  0.786490  0.286300  1.0  0.051
  C  C365  1  0.248600  0.064060  0.563540  1.0  0.6786
  C  C366  1  0.248810  0.102260  0.601890  1.0  -0.0994
  C  C367  1  0.249420  0.174980  0.675320  1.0  0.0741
  C  C368  1  0.249690  0.213510  0.713700  1.0  0.0514
  C  C369  1  0.435940  0.748600  0.063540  1.0  0.6782
  C  C370  1  0.397740  0.748810  0.101890  1.0  -0.1014
  C  C371  1  0.325020  0.749420  0.175320  1.0  0.074
  C  C372  1  0.286490  0.749690  0.213700  1.0  0.0509
  C  C373  1  0.564060  0.748600  0.936460  1.0  0.6774
  C  C374  1  0.602260  0.748810  0.898110  1.0  -0.1008
  C  C375  1  0.674980  0.749420  0.824680  1.0  0.0731
  C  C376  1  0.713510  0.749690  0.786300  1.0  0.0499
  C  C377  1  0.435940  0.251400  0.936460  1.0  0.6771
  C  C378  1  0.397740  0.251190  0.898110  1.0  -0.1014
  C  C379  1  0.325020  0.250580  0.824680  1.0  0.0734
  C  C380  1  0.286490  0.250310  0.786300  1.0  0.0502
  C  C381  1  0.564060  0.251400  0.063540  1.0  0.6786
  C  C382  1  0.602260  0.251190  0.101890  1.0  -0.1005
  C  C383  1  0.674980  0.250580  0.175320  1.0  0.0733
  C  C384  1  0.713510  0.250310  0.213700  1.0  0.0504
  C  C385  1  0.936190  0.563810  0.250000  1.0  0.6781
  C  C386  1  0.897900  0.602100  0.250000  1.0  -0.108
  C  C387  1  0.824800  0.675200  0.250000  1.0  0.0534
  C  C388  1  0.786330  0.713670  0.250000  1.0  0.0461
  C  C389  1  0.063810  0.436190  0.250000  1.0  0.6786
  C  C390  1  0.102100  0.397900  0.250000  1.0  -0.1076
  C  C391  1  0.175200  0.324800  0.250000  1.0  0.0525
  C  C392  1  0.213670  0.286330  0.250000  1.0  0.046
  C  C393  1  0.063810  0.563810  0.750000  1.0  0.6787
  C  C394  1  0.102100  0.602100  0.750000  1.0  -0.1075
  C  C395  1  0.175200  0.675200  0.750000  1.0  0.0531
  C  C396  1  0.213670  0.713670  0.750000  1.0  0.0459
  C  C397  1  0.936190  0.436190  0.750000  1.0  0.6774
  C  C398  1  0.897900  0.397900  0.750000  1.0  -0.1079
  C  C399  1  0.824800  0.324800  0.750000  1.0  0.0529
  C  C400  1  0.786330  0.286330  0.750000  1.0  0.0461
  C  C401  1  0.251410  0.936490  0.564030  1.0  0.6773
  C  C402  1  0.251190  0.898160  0.602210  1.0  -0.0917
  C  C403  1  0.250590  0.824770  0.674900  1.0  0.0554
  C  C404  1  0.250320  0.786420  0.713400  1.0  0.0539
  C  C405  1  0.251410  0.063510  0.435970  1.0  0.6779
  C  C406  1  0.251190  0.101840  0.397790  1.0  -0.0919
  C  C407  1  0.250590  0.175230  0.325100  1.0  0.0552
  C  C408  1  0.250320  0.213580  0.286600  1.0  0.0533
  C  C409  1  0.748590  0.063510  0.564030  1.0  0.678
  C  C410  1  0.748810  0.101840  0.602210  1.0  -0.0918
  C  C411  1  0.749410  0.175230  0.674900  1.0  0.0552
  C  C412  1  0.749680  0.213580  0.713400  1.0  0.054
  C  C413  1  0.748590  0.936490  0.435970  1.0  0.6773
  C  C414  1  0.748810  0.898160  0.397790  1.0  -0.0923
  C  C415  1  0.749410  0.824770  0.325100  1.0  0.0554
  C  C416  1  0.749680  0.786420  0.286600  1.0  0.0533
  C  C417  1  0.563510  0.248590  0.935970  1.0  0.6776
  C  C418  1  0.601840  0.248810  0.897790  1.0  -0.0937
  C  C419  1  0.675230  0.249410  0.825100  1.0  0.0549
  C  C420  1  0.713580  0.249680  0.786600  1.0  0.0524
  C  C421  1  0.436490  0.248590  0.064030  1.0  0.6774
  C  C422  1  0.398160  0.248810  0.102210  1.0  -0.0933
  C  C423  1  0.324770  0.249410  0.174900  1.0  0.0551
  C  C424  1  0.286420  0.249680  0.213400  1.0  0.0536
  C  C425  1  0.563510  0.751410  0.064030  1.0  0.678
  C  C426  1  0.601840  0.751190  0.102210  1.0  -0.0932
  C  C427  1  0.675230  0.750590  0.174900  1.0  0.0551
  C  C428  1  0.713580  0.750320  0.213400  1.0  0.0529
  C  C429  1  0.436490  0.751410  0.935970  1.0  0.677
  C  C430  1  0.398160  0.751190  0.897790  1.0  -0.0937
  C  C431  1  0.324770  0.750590  0.825100  1.0  0.0548
  C  C432  1  0.286420  0.750320  0.786600  1.0  0.0528
  C  C433  1  0.250010  0.286310  0.785900  1.0  -0.1103
  C  C434  1  0.749990  0.713690  0.785900  1.0  -0.109
  C  C435  1  0.749990  0.286310  0.214100  1.0  -0.1106
  C  C436  1  0.250010  0.713690  0.214100  1.0  -0.1096
  C  C437  1  0.786310  0.249990  0.285900  1.0  -0.1097
  C  C438  1  0.786310  0.750010  0.714100  1.0  -0.11
  C  C439  1  0.213690  0.750010  0.285900  1.0  -0.1097
  C  C440  1  0.213690  0.249990  0.714100  1.0  -0.1101
  C  C441  1  0.285940  0.785940  0.250000  1.0  -0.1071
  C  C442  1  0.714060  0.785940  0.750000  1.0  -0.1077
  C  C443  1  0.285940  0.214060  0.750000  1.0  -0.1061
  C  C444  1  0.714060  0.214060  0.250000  1.0  -0.1069
  C  C445  1  0.750000  0.714220  0.213810  1.0  -0.1047
  C  C446  1  0.250000  0.285780  0.213810  1.0  -0.1052
  C  C447  1  0.250000  0.714220  0.786190  1.0  -0.1044
  C  C448  1  0.750000  0.285780  0.786190  1.0  -0.1054
  C  C449  1  0.214220  0.750000  0.713810  1.0  -0.1057
  C  C450  1  0.214220  0.250000  0.286190  1.0  -0.1056
  C  C451  1  0.785780  0.250000  0.713810  1.0  -0.1049
  C  C452  1  0.785780  0.750000  0.286190  1.0  -0.105
  C  C453  1  0.713820  0.213820  0.750000  1.0  -0.1095
  C  C454  1  0.286180  0.213820  0.250000  1.0  -0.1093
  C  C455  1  0.713820  0.786180  0.250000  1.0  -0.1102
  C  C456  1  0.286180  0.786180  0.750000  1.0  -0.1104
  N  N457  1  0.000000  0.500000  0.629080  1.0  -0.2325
  N  N458  1  0.000000  0.500000  0.370920  1.0  -0.2313
  N  N459  1  0.629070  0.000000  0.500000  1.0  -0.213
  N  N460  1  0.370930  0.000000  0.500000  1.0  -0.2131
  N  N461  1  0.500000  0.629070  0.000000  1.0  -0.2128
  N  N462  1  0.500000  0.370930  0.000000  1.0  -0.2143
  N  N463  1  0.000000  0.500000  0.870920  1.0  -0.2313
  N  N464  1  0.000000  0.500000  0.129080  1.0  -0.2325
  N  N465  1  0.500000  0.129070  0.000000  1.0  -0.2143
  N  N466  1  0.500000  0.870930  0.000000  1.0  -0.2158
  N  N467  1  0.129070  0.000000  0.500000  1.0  -0.2114
  N  N468  1  0.870930  0.000000  0.500000  1.0  -0.2115
  O  O469  1  0.048040  0.453060  0.709890  1.0  -0.5965
  O  O470  1  0.951960  0.546940  0.709890  1.0  -0.5967
  O  O471  1  0.951960  0.453060  0.290110  1.0  -0.5953
  O  O472  1  0.048040  0.546940  0.290110  1.0  -0.5956
  O  O473  1  0.711250  0.047830  0.452870  1.0  -0.603
  O  O474  1  0.711250  0.952170  0.547130  1.0  -0.6026
  O  O475  1  0.288750  0.952170  0.452870  1.0  -0.6032
  O  O476  1  0.288750  0.047830  0.547130  1.0  -0.6021
  O  O477  1  0.452310  0.708410  0.047400  1.0  -0.6019
  O  O478  1  0.547690  0.708410  0.952600  1.0  -0.6021
  O  O479  1  0.452310  0.291590  0.952600  1.0  -0.6019
  O  O480  1  0.547690  0.291590  0.047400  1.0  -0.6021
  O  O481  1  0.953060  0.548040  0.790110  1.0  -0.596
  O  O482  1  0.046940  0.451960  0.790110  1.0  -0.596
  O  O483  1  0.953060  0.451960  0.209890  1.0  -0.5966
  O  O484  1  0.046940  0.548040  0.209890  1.0  -0.5966
  O  O485  1  0.547830  0.211250  0.047130  1.0  -0.6031
  O  O486  1  0.452170  0.211250  0.952870  1.0  -0.6039
  O  O487  1  0.452170  0.788750  0.047130  1.0  -0.6048
  O  O488  1  0.547830  0.788750  0.952870  1.0  -0.6049
  O  O489  1  0.208410  0.952310  0.452600  1.0  -0.601
  O  O490  1  0.208410  0.047690  0.547400  1.0  -0.6013
  O  O491  1  0.791590  0.952310  0.547400  1.0  -0.6016
  O  O492  1  0.791590  0.047690  0.452600  1.0  -0.6022
  O  O493  1  0.952800  0.547850  0.290200  1.0  -0.6021
  O  O494  1  0.047200  0.452150  0.290200  1.0  -0.6017
  O  O495  1  0.047200  0.547850  0.709800  1.0  -0.6023
  O  O496  1  0.952800  0.452150  0.709800  1.0  -0.6026
  O  O497  1  0.291590  0.952630  0.547680  1.0  -0.6025
  O  O498  1  0.291590  0.047370  0.452320  1.0  -0.6024
  O  O499  1  0.708410  0.047370  0.547680  1.0  -0.6013
  O  O500  1  0.708410  0.952630  0.452320  1.0  -0.6021
  O  O501  1  0.547110  0.288740  0.952200  1.0  -0.6051
  O  O502  1  0.452890  0.288740  0.047800  1.0  -0.6049
  O  O503  1  0.547110  0.711260  0.047800  1.0  -0.6037
  O  O504  1  0.452890  0.711260  0.952200  1.0  -0.6035
  O  O505  1  0.047850  0.452800  0.209800  1.0  -0.6022
  O  O506  1  0.952150  0.547200  0.209800  1.0  -0.6029
  O  O507  1  0.047850  0.547200  0.790200  1.0  -0.6017
  O  O508  1  0.952150  0.452800  0.790200  1.0  -0.6018
  O  O509  1  0.452630  0.791590  0.952320  1.0  -0.6024
  O  O510  1  0.547370  0.791590  0.047680  1.0  -0.6019
  O  O511  1  0.547370  0.208410  0.952320  1.0  -0.6025
  O  O512  1  0.452630  0.208410  0.047680  1.0  -0.6022
  O  O513  1  0.788740  0.047110  0.547800  1.0  -0.6025
  O  O514  1  0.788740  0.952890  0.452200  1.0  -0.6027
  O  O515  1  0.211260  0.047110  0.452200  1.0  -0.6027
  O  O516  1  0.211260  0.952890  0.547800  1.0  -0.6025
