# generated using pymatgen
data_ZnH14C23NO4
_symmetry_space_group_name_H-M   'P 1'
_cell_length_a   27.68210000
_cell_length_b   27.68210000
_cell_length_c   27.68210000
_cell_angle_alpha   90.00000000
_cell_angle_beta   90.00000000
_cell_angle_gamma   90.00000000
_symmetry_Int_Tables_number   1
_chemical_formula_structural   ZnH14C23NO4
_chemical_formula_sum   'Zn12 H168 C276 N12 O48'
_cell_volume   21212.75614734
_cell_formula_units_Z   12
loop_
 _symmetry_equiv_pos_site_id
 _symmetry_equiv_pos_as_xyz
  1  'x, y, z'
loop_
 _atom_site_type_symbol
 _atom_site_label
 _atom_site_symmetry_multiplicity
 _atom_site_fract_x
 _atom_site_fract_y
 _atom_site_fract_z
 _atom_site_occupancy
 _atom_site_charge
  Zn  Zn1  1  0.000000  0.499970  0.693900  1.0  1.0235
  Zn  Zn2  1  0.000000  0.500030  0.306100  1.0  1.0239
  Zn  Zn3  1  0.693900  0.000000  0.500000  1.0  1.0268
  Zn  Zn4  1  0.306090  0.000000  0.500000  1.0  1.0246
  Zn  Zn5  1  0.500000  0.693910  0.999980  1.0  1.0246
  Zn  Zn6  1  0.500000  0.306090  0.000020  1.0  1.0251
  Zn  Zn7  1  0.000000  0.499980  0.806090  1.0  1.0254
  Zn  Zn8  1  0.000000  0.500020  0.193910  1.0  1.025
  Zn  Zn9  1  0.500000  0.193900  0.000030  1.0  1.023
  Zn  Zn10  1  0.500000  0.806100  0.999970  1.0  1.0236
  Zn  Zn11  1  0.193910  0.000000  0.500000  1.0  1.0264
  Zn  Zn12  1  0.806100  0.000000  0.500000  1.0  1.0251
  H  H13  1  0.105670  0.393670  0.827120  1.0  0.1061
  H  H14  1  0.167850  0.330950  0.827540  1.0  0.1112
  H  H15  1  0.023890  0.572550  0.622780  1.0  0.1092
  H  H16  1  0.025670  0.573850  0.534040  1.0  0.1111
  H  H17  1  0.894320  0.606280  0.827110  1.0  0.106
  H  H18  1  0.832150  0.669010  0.827520  1.0  0.1119
  H  H19  1  0.976120  0.427400  0.622760  1.0  0.106
  H  H20  1  0.974330  0.426140  0.534020  1.0  0.1096
  H  H21  1  0.894320  0.393720  0.172890  1.0  0.1058
  H  H22  1  0.832150  0.330990  0.172480  1.0  0.1106
  H  H23  1  0.976120  0.572600  0.377240  1.0  0.1062
  H  H24  1  0.974330  0.573860  0.465980  1.0  0.1116
  H  H25  1  0.105670  0.606330  0.172880  1.0  0.1058
  H  H26  1  0.167850  0.669050  0.172460  1.0  0.1103
  H  H27  1  0.023890  0.427450  0.377220  1.0  0.1088
  H  H28  1  0.025670  0.426150  0.465960  1.0  0.1104
  H  H29  1  0.828540  0.106340  0.393430  1.0  0.11
  H  H30  1  0.828270  0.168210  0.330440  1.0  0.1101
  H  H31  1  0.828540  0.893660  0.606570  1.0  0.1097
  H  H32  1  0.828270  0.831790  0.669560  1.0  0.1099
  H  H33  1  0.171490  0.893680  0.393410  1.0  0.1095
  H  H34  1  0.171750  0.831820  0.330420  1.0  0.1099
  H  H35  1  0.171490  0.106320  0.606590  1.0  0.1088
  H  H36  1  0.171750  0.168180  0.669580  1.0  0.1101
  H  H37  1  0.393650  0.827120  0.105790  1.0  0.1082
  H  H38  1  0.330930  0.827540  0.167970  1.0  0.1135
  H  H39  1  0.572580  0.622770  0.023860  1.0  0.1047
  H  H40  1  0.573860  0.534030  0.025660  1.0  0.1096
  H  H41  1  0.606350  0.827110  0.894160  1.0  0.1085
  H  H42  1  0.669080  0.827520  0.831990  1.0  0.1135
  H  H43  1  0.427430  0.622770  0.976100  1.0  0.1038
  H  H44  1  0.426150  0.534020  0.974330  1.0  0.1089
  H  H45  1  0.393650  0.172880  0.894210  1.0  0.1069
  H  H46  1  0.330930  0.172460  0.832030  1.0  0.1129
  H  H47  1  0.572580  0.377230  0.976140  1.0  0.1054
  H  H48  1  0.573860  0.465970  0.974340  1.0  0.11
  H  H49  1  0.606350  0.172890  0.105840  1.0  0.108
  H  H50  1  0.669080  0.172480  0.168010  1.0  0.1127
  H  H51  1  0.427430  0.377230  0.023900  1.0  0.1038
  H  H52  1  0.426150  0.465980  0.025670  1.0  0.1094
  H  H53  1  0.893630  0.606430  0.671400  1.0  0.1077
  H  H54  1  0.830670  0.668340  0.671680  1.0  0.1094
  H  H55  1  0.106380  0.393520  0.671420  1.0  0.1083
  H  H56  1  0.169350  0.331620  0.671700  1.0  0.1079
  H  H57  1  0.893630  0.393570  0.328600  1.0  0.1084
  H  H58  1  0.830670  0.331660  0.328320  1.0  0.1106
  H  H59  1  0.106380  0.606480  0.328580  1.0  0.1094
  H  H60  1  0.169350  0.668380  0.328300  1.0  0.1096
  H  H61  1  0.606590  0.328590  0.106440  1.0  0.1113
  H  H62  1  0.668500  0.328320  0.169400  1.0  0.1061
  H  H63  1  0.393410  0.328580  0.893600  1.0  0.1119
  H  H64  1  0.331500  0.328300  0.830630  1.0  0.1118
  H  H65  1  0.393410  0.671420  0.106400  1.0  0.1104
  H  H66  1  0.331500  0.671700  0.169370  1.0  0.1109
  H  H67  1  0.606590  0.671410  0.893560  1.0  0.1109
  H  H68  1  0.668500  0.671680  0.830600  1.0  0.1056
  H  H69  1  0.327190  0.893860  0.394050  1.0  0.1031
  H  H70  1  0.327590  0.831160  0.331830  1.0  0.1116
  H  H71  1  0.327190  0.106140  0.605950  1.0  0.1034
  H  H72  1  0.327590  0.168840  0.668170  1.0  0.1119
  H  H73  1  0.672840  0.893820  0.605910  1.0  0.1062
  H  H74  1  0.672430  0.831120  0.668120  1.0  0.1114
  H  H75  1  0.877250  0.072460  0.524230  1.0  0.1067
  H  H76  1  0.965980  0.073730  0.526040  1.0  0.1127
  H  H77  1  0.672840  0.106180  0.394090  1.0  0.1059
  H  H78  1  0.672430  0.168880  0.331880  1.0  0.1115
  H  H79  1  0.877250  0.927540  0.475770  1.0  0.1062
  H  H80  1  0.965980  0.926270  0.473960  1.0  0.1111
  H  H81  1  0.893400  0.606430  0.171410  1.0  0.1087
  H  H82  1  0.831490  0.669400  0.171680  1.0  0.1089
  H  H83  1  0.106590  0.393600  0.171420  1.0  0.1089
  H  H84  1  0.168500  0.330630  0.171700  1.0  0.1079
  H  H85  1  0.106590  0.606400  0.828580  1.0  0.1099
  H  H86  1  0.168500  0.669370  0.828300  1.0  0.1096
  H  H87  1  0.893400  0.393570  0.828590  1.0  0.1101
  H  H88  1  0.831490  0.330600  0.828320  1.0  0.1098
  H  H89  1  0.172810  0.894040  0.606140  1.0  0.1029
  H  H90  1  0.172410  0.831820  0.668830  1.0  0.111
  H  H91  1  0.377220  0.976540  0.427290  1.0  0.1063
  H  H92  1  0.465960  0.974760  0.426000  1.0  0.1102
  H  H93  1  0.172810  0.105960  0.393860  1.0  0.103
  H  H94  1  0.172410  0.168180  0.331170  1.0  0.1114
  H  H95  1  0.377220  0.023460  0.572710  1.0  0.1075
  H  H96  1  0.465960  0.025240  0.574000  1.0  0.1117
  H  H97  1  0.827160  0.105900  0.606190  1.0  0.1062
  H  H98  1  0.827560  0.168110  0.668890  1.0  0.1123
  H  H99  1  0.622750  0.024220  0.427540  1.0  0.1063
  H  H100  1  0.534020  0.026030  0.426270  1.0  0.1101
  H  H101  1  0.827160  0.894100  0.393810  1.0  0.1056
  H  H102  1  0.827560  0.831890  0.331110  1.0  0.1125
  H  H103  1  0.622750  0.975780  0.572460  1.0  0.1069
  H  H104  1  0.534020  0.973970  0.573730  1.0  0.1115
  H  H105  1  0.606370  0.171410  0.893570  1.0  0.1103
  H  H106  1  0.669330  0.171680  0.831660  1.0  0.1113
  H  H107  1  0.393620  0.171410  0.106480  1.0  0.1102
  H  H108  1  0.330650  0.171700  0.168380  1.0  0.1104
  H  H109  1  0.606370  0.828590  0.106430  1.0  0.1109
  H  H110  1  0.669330  0.828320  0.168340  1.0  0.1122
  H  H111  1  0.393620  0.828590  0.893520  1.0  0.1105
  H  H112  1  0.330650  0.828300  0.831620  1.0  0.1119
  H  H113  1  0.106350  0.394210  0.327120  1.0  0.1061
  H  H114  1  0.169070  0.332040  0.327540  1.0  0.1121
  H  H115  1  0.927420  0.476140  0.122770  1.0  0.1043
  H  H116  1  0.926140  0.474340  0.034030  1.0  0.1081
  H  H117  1  0.893650  0.605850  0.327110  1.0  0.1064
  H  H118  1  0.830930  0.668020  0.327520  1.0  0.1119
  H  H119  1  0.072570  0.523900  0.122760  1.0  0.1052
  H  H120  1  0.073850  0.525680  0.034020  1.0  0.1095
  H  H121  1  0.106350  0.605790  0.672880  1.0  0.1056
  H  H122  1  0.169070  0.667960  0.672460  1.0  0.1114
  H  H123  1  0.927420  0.523860  0.877230  1.0  0.104
  H  H124  1  0.926140  0.525660  0.965970  1.0  0.1087
  H  H125  1  0.893650  0.394150  0.672890  1.0  0.1061
  H  H126  1  0.830930  0.331980  0.672480  1.0  0.1114
  H  H127  1  0.072570  0.476100  0.877240  1.0  0.1047
  H  H128  1  0.073850  0.474320  0.965980  1.0  0.1094
  H  H129  1  0.394330  0.672880  0.893680  1.0  0.1065
  H  H130  1  0.332150  0.672460  0.830960  1.0  0.1118
  H  H131  1  0.476120  0.877220  0.072550  1.0  0.1086
  H  H132  1  0.474340  0.965960  0.073850  1.0  0.1114
  H  H133  1  0.605680  0.672890  0.106290  1.0  0.1064
  H  H134  1  0.667840  0.672480  0.169010  1.0  0.1114
  H  H135  1  0.523890  0.877240  0.927410  1.0  0.1063
  H  H136  1  0.525680  0.965980  0.926140  1.0  0.1101
  H  H137  1  0.605680  0.327110  0.893710  1.0  0.1078
  H  H138  1  0.667840  0.327520  0.830990  1.0  0.1122
  H  H139  1  0.523890  0.122760  0.072590  1.0  0.1075
  H  H140  1  0.525680  0.034020  0.073860  1.0  0.1113
  H  H141  1  0.394330  0.327120  0.106320  1.0  0.1074
  H  H142  1  0.332150  0.327540  0.169040  1.0  0.1126
  H  H143  1  0.476120  0.122780  0.927450  1.0  0.1079
  H  H144  1  0.474340  0.034040  0.926150  1.0  0.1095
  H  H145  1  0.671450  0.106590  0.606320  1.0  0.1094
  H  H146  1  0.671720  0.169570  0.668190  1.0  0.1085
  H  H147  1  0.671450  0.893410  0.393680  1.0  0.1093
  H  H148  1  0.671720  0.830430  0.331810  1.0  0.1087
  H  H149  1  0.328510  0.106580  0.393680  1.0  0.1091
  H  H150  1  0.328250  0.169570  0.331820  1.0  0.1101
  H  H151  1  0.122780  0.927300  0.523480  1.0  0.1062
  H  H152  1  0.034040  0.926010  0.525270  1.0  0.1112
  H  H153  1  0.328510  0.893420  0.606320  1.0  0.1095
  H  H154  1  0.328250  0.830430  0.668180  1.0  0.1092
  H  H155  1  0.122780  0.072700  0.476520  1.0  0.1074
  H  H156  1  0.034040  0.073990  0.474730  1.0  0.112
  H  H157  1  0.249830  0.313710  0.813290  1.0  0.1127
  H  H158  1  0.750180  0.686260  0.813260  1.0  0.1134
  H  H159  1  0.750180  0.313740  0.186740  1.0  0.1127
  H  H160  1  0.249830  0.686290  0.186710  1.0  0.1137
  H  H161  1  0.813620  0.249910  0.313550  1.0  0.1153
  H  H162  1  0.813620  0.750090  0.686450  1.0  0.1149
  H  H163  1  0.186400  0.750130  0.313520  1.0  0.1136
  H  H164  1  0.186400  0.249870  0.686480  1.0  0.1131
  H  H165  1  0.313390  0.813480  0.249870  1.0  0.1119
  H  H166  1  0.686620  0.813450  0.750090  1.0  0.1116
  H  H167  1  0.313390  0.186520  0.750130  1.0  0.1121
  H  H168  1  0.686620  0.186550  0.249910  1.0  0.1119
  H  H169  1  0.749820  0.686740  0.186260  1.0  0.1138
  H  H170  1  0.250170  0.313290  0.186280  1.0  0.1126
  H  H171  1  0.250170  0.686710  0.813720  1.0  0.1132
  H  H172  1  0.749820  0.313260  0.813740  1.0  0.1127
  H  H173  1  0.186610  0.749860  0.686520  1.0  0.1105
  H  H174  1  0.186610  0.250140  0.313480  1.0  0.1105
  H  H175  1  0.813370  0.250090  0.686550  1.0  0.1113
  H  H176  1  0.813370  0.749910  0.313450  1.0  0.1112
  H  H177  1  0.686370  0.186450  0.749900  1.0  0.1144
  H  H178  1  0.313610  0.186480  0.250130  1.0  0.1155
  H  H179  1  0.686370  0.813550  0.250100  1.0  0.1134
  H  H180  1  0.313610  0.813520  0.749870  1.0  0.1147
  C  C181  1  0.119150  0.380480  0.792850  1.0  -0.0815
  C  C182  1  0.155330  0.344480  0.793070  1.0  -0.1364
  C  C183  1  0.013430  0.540690  0.602750  1.0  0.1272
  C  C184  1  0.013950  0.541420  0.552480  1.0  -0.1453
  C  C185  1  0.880850  0.619470  0.792840  1.0  -0.0804
  C  C186  1  0.844670  0.655480  0.793040  1.0  -0.1379
  C  C187  1  0.986580  0.459280  0.602740  1.0  0.13
  C  C188  1  0.986060  0.458570  0.552460  1.0  -0.1452
  C  C189  1  0.880850  0.380530  0.207160  1.0  -0.0803
  C  C190  1  0.844670  0.344520  0.206960  1.0  -0.1386
  C  C191  1  0.986580  0.540720  0.397260  1.0  0.1269
  C  C192  1  0.986060  0.541430  0.447540  1.0  -0.1458
  C  C193  1  0.119150  0.619520  0.207150  1.0  -0.0816
  C  C194  1  0.155330  0.655520  0.206930  1.0  -0.1371
  C  C195  1  0.013430  0.459310  0.397250  1.0  0.1274
  C  C196  1  0.013950  0.458580  0.447520  1.0  -0.1466
  C  C197  1  0.794130  0.119580  0.380370  1.0  -0.084
  C  C198  1  0.793930  0.155580  0.344200  1.0  -0.1391
  C  C199  1  0.794130  0.880420  0.619630  1.0  -0.0843
  C  C200  1  0.793930  0.844420  0.655800  1.0  -0.1388
  C  C201  1  0.205900  0.880450  0.380350  1.0  -0.083
  C  C202  1  0.206090  0.844450  0.344170  1.0  -0.1372
  C  C203  1  0.205900  0.119550  0.619650  1.0  -0.083
  C  C204  1  0.206090  0.155550  0.655830  1.0  -0.1374
  C  C205  1  0.380440  0.792850  0.119240  1.0  -0.0813
  C  C206  1  0.344430  0.793060  0.155430  1.0  -0.1392
  C  C207  1  0.540710  0.602750  0.013410  1.0  0.1255
  C  C208  1  0.541430  0.552470  0.013930  1.0  -0.1444
  C  C209  1  0.619560  0.792830  0.880710  1.0  -0.0857
  C  C210  1  0.655580  0.793040  0.844520  1.0  -0.137
  C  C211  1  0.459300  0.602740  0.986560  1.0  0.1324
  C  C212  1  0.458580  0.552470  0.986050  1.0  -0.1416
  C  C213  1  0.380440  0.207150  0.880760  1.0  -0.0799
  C  C214  1  0.344430  0.206940  0.844570  1.0  -0.1384
  C  C215  1  0.540710  0.397250  0.986590  1.0  0.1254
  C  C216  1  0.541430  0.447530  0.986070  1.0  -0.1453
  C  C217  1  0.619560  0.207170  0.119290  1.0  -0.0824
  C  C218  1  0.655580  0.206960  0.155480  1.0  -0.1371
  C  C219  1  0.459300  0.397260  0.013440  1.0  0.1325
  C  C220  1  0.458580  0.447530  0.013950  1.0  -0.1418
  C  C221  1  0.880590  0.619680  0.705820  1.0  -0.0824
  C  C222  1  0.844430  0.655700  0.706010  1.0  -0.1364
  C  C223  1  0.119420  0.380270  0.705830  1.0  -0.0826
  C  C224  1  0.155580  0.344260  0.706030  1.0  -0.1367
  C  C225  1  0.880590  0.380320  0.294180  1.0  -0.0827
  C  C226  1  0.844430  0.344300  0.293990  1.0  -0.1361
  C  C227  1  0.119420  0.619730  0.294170  1.0  -0.0825
  C  C228  1  0.155580  0.655740  0.293970  1.0  -0.1364
  C  C229  1  0.619820  0.294170  0.119500  1.0  -0.0878
  C  C230  1  0.655850  0.293980  0.155660  1.0  -0.1406
  C  C231  1  0.380180  0.294160  0.880540  1.0  -0.0861
  C  C232  1  0.344150  0.293960  0.844370  1.0  -0.1417
  C  C233  1  0.380180  0.705840  0.119460  1.0  -0.0855
  C  C234  1  0.344150  0.706040  0.155630  1.0  -0.1417
  C  C235  1  0.619820  0.705830  0.880500  1.0  -0.0872
  C  C236  1  0.655850  0.706020  0.844340  1.0  -0.1407
  C  C237  1  0.292920  0.880670  0.380580  1.0  -0.0789
  C  C238  1  0.293120  0.844680  0.344370  1.0  -0.1389
  C  C239  1  0.292920  0.119330  0.619420  1.0  -0.0788
  C  C240  1  0.293120  0.155320  0.655630  1.0  -0.1388
  C  C241  1  0.707110  0.880640  0.619380  1.0  -0.0787
  C  C242  1  0.706900  0.844640  0.655580  1.0  -0.1351
  C  C243  1  0.897260  0.040640  0.513620  1.0  0.1215
  C  C244  1  0.947540  0.041360  0.514150  1.0  -0.1467
  C  C245  1  0.707110  0.119360  0.380620  1.0  -0.0786
  C  C246  1  0.706900  0.155360  0.344420  1.0  -0.135
  C  C247  1  0.897260  0.959360  0.486380  1.0  0.1243
  C  C248  1  0.947540  0.958640  0.485850  1.0  -0.1484
  C  C249  1  0.880180  0.619500  0.205830  1.0  -0.0828
  C  C250  1  0.844140  0.655660  0.206020  1.0  -0.1387
  C  C251  1  0.119820  0.380540  0.205840  1.0  -0.0824
  C  C252  1  0.155850  0.344370  0.206040  1.0  -0.1372
  C  C253  1  0.119820  0.619460  0.794160  1.0  -0.0823
  C  C254  1  0.155850  0.655630  0.793960  1.0  -0.1361
  C  C255  1  0.880180  0.380500  0.794170  1.0  -0.0817
  C  C256  1  0.844140  0.344340  0.793980  1.0  -0.1369
  C  C257  1  0.207080  0.880570  0.619330  1.0  -0.0779
  C  C258  1  0.206880  0.844370  0.655320  1.0  -0.1349
  C  C259  1  0.397240  0.986810  0.459220  1.0  0.1272
  C  C260  1  0.447520  0.986300  0.458490  1.0  -0.1428
  C  C261  1  0.207080  0.119430  0.380670  1.0  -0.0776
  C  C262  1  0.206880  0.155630  0.344680  1.0  -0.1348
  C  C263  1  0.397240  0.013190  0.540780  1.0  0.1278
  C  C264  1  0.447520  0.013700  0.541510  1.0  -0.1417
  C  C265  1  0.792880  0.119380  0.619370  1.0  -0.0829
  C  C266  1  0.793090  0.155580  0.655360  1.0  -0.1386
  C  C267  1  0.602730  0.013620  0.459360  1.0  0.1298
  C  C268  1  0.552460  0.014140  0.458640  1.0  -0.1436
  C  C269  1  0.792880  0.880620  0.380630  1.0  -0.0823
  C  C270  1  0.793090  0.844420  0.344640  1.0  -0.1389
  C  C271  1  0.602730  0.986380  0.540640  1.0  0.13
  C  C272  1  0.552460  0.985860  0.541360  1.0  -0.1431
  C  C273  1  0.619410  0.205820  0.880320  1.0  -0.0874
  C  C274  1  0.655560  0.206020  0.844300  1.0  -0.1419
  C  C275  1  0.380580  0.205830  0.119720  1.0  -0.0824
  C  C276  1  0.344420  0.206030  0.155740  1.0  -0.1421
  C  C277  1  0.619410  0.794180  0.119680  1.0  -0.089
  C  C278  1  0.655560  0.793980  0.155700  1.0  -0.1414
  C  C279  1  0.380580  0.794170  0.880280  1.0  -0.0839
  C  C280  1  0.344420  0.793970  0.844260  1.0  -0.1421
  C  C281  1  0.119560  0.380760  0.292850  1.0  -0.0774
  C  C282  1  0.155570  0.344570  0.293060  1.0  -0.133
  C  C283  1  0.959290  0.486590  0.102750  1.0  0.1321
  C  C284  1  0.958570  0.486070  0.052470  1.0  -0.1382
  C  C285  1  0.880440  0.619290  0.292840  1.0  -0.0772
  C  C286  1  0.844430  0.655480  0.293050  1.0  -0.1358
  C  C287  1  0.040700  0.513440  0.102740  1.0  0.1287
  C  C288  1  0.041420  0.513950  0.052470  1.0  -0.1422
  C  C289  1  0.119560  0.619240  0.707150  1.0  -0.0767
  C  C290  1  0.155570  0.655430  0.706940  1.0  -0.1342
  C  C291  1  0.959290  0.513410  0.897250  1.0  0.1308
  C  C292  1  0.958570  0.513930  0.947530  1.0  -0.1377
  C  C293  1  0.880440  0.380710  0.707160  1.0  -0.0763
  C  C294  1  0.844430  0.344520  0.706950  1.0  -0.1363
  C  C295  1  0.040700  0.486560  0.897260  1.0  0.1267
  C  C296  1  0.041420  0.486050  0.947530  1.0  -0.1426
  C  C297  1  0.380850  0.707150  0.880490  1.0  -0.0821
  C  C298  1  0.344670  0.706930  0.844490  1.0  -0.1413
  C  C299  1  0.486580  0.897250  0.040690  1.0  0.1289
  C  C300  1  0.486060  0.947530  0.041420  1.0  -0.1414
  C  C301  1  0.619150  0.707160  0.119480  1.0  -0.084
  C  C302  1  0.655320  0.706950  0.155480  1.0  -0.14
  C  C303  1  0.513430  0.897260  0.959280  1.0  0.1315
  C  C304  1  0.513950  0.947540  0.958570  1.0  -0.143
  C  C305  1  0.619150  0.292840  0.880520  1.0  -0.0859
  C  C306  1  0.655320  0.293050  0.844520  1.0  -0.1399
  C  C307  1  0.513430  0.102740  0.040720  1.0  0.1293
  C  C308  1  0.513950  0.052460  0.041430  1.0  -0.1412
  C  C309  1  0.380850  0.292850  0.119510  1.0  -0.0848
  C  C310  1  0.344670  0.293070  0.155510  1.0  -0.1426
  C  C311  1  0.486580  0.102750  0.959310  1.0  0.1327
  C  C312  1  0.486060  0.052470  0.958580  1.0  -0.1413
  C  C313  1  0.705870  0.119640  0.619560  1.0  -0.0823
  C  C314  1  0.706060  0.155810  0.655570  1.0  -0.1383
  C  C315  1  0.705870  0.880360  0.380440  1.0  -0.0824
  C  C316  1  0.706060  0.844190  0.344430  1.0  -0.1379
  C  C317  1  0.294100  0.119650  0.380450  1.0  -0.0839
  C  C318  1  0.293910  0.155820  0.344450  1.0  -0.1401
  C  C319  1  0.102750  0.959220  0.513200  1.0  0.1198
  C  C320  1  0.052480  0.958500  0.513720  1.0  -0.1461
  C  C321  1  0.294100  0.880350  0.619550  1.0  -0.0839
  C  C322  1  0.293910  0.844180  0.655550  1.0  -0.1403
  C  C323  1  0.102750  0.040780  0.486800  1.0  0.1225
  C  C324  1  0.052480  0.041500  0.486280  1.0  -0.1473
  C  C325  1  0.000000  0.500000  0.526710  1.0  0.0556
  C  C326  1  0.000000  0.500000  0.473290  1.0  0.0555
  C  C327  1  0.526700  0.000000  0.500000  1.0  0.055
  C  C328  1  0.473280  0.000000  0.500000  1.0  0.0555
  C  C329  1  0.500000  0.526710  0.000000  1.0  0.0568
  C  C330  1  0.500000  0.473290  0.000000  1.0  0.0572
  C  C331  1  0.999990  0.499990  0.973290  1.0  0.0579
  C  C332  1  0.999990  0.500010  0.026710  1.0  0.058
  C  C333  1  0.500010  0.026710  0.000000  1.0  0.0553
  C  C334  1  0.500010  0.973290  0.000000  1.0  0.0554
  C  C335  1  0.026710  0.000000  0.500000  1.0  0.0594
  C  C336  1  0.973300  0.000000  0.500000  1.0  0.0551
  C  C337  1  0.061780  0.437780  0.749020  1.0  0.6759
  C  C338  1  0.100470  0.399100  0.749230  1.0  -0.1071
  C  C339  1  0.174360  0.325530  0.749660  1.0  0.0059
  C  C340  1  0.213280  0.286640  0.749850  1.0  -0.0491
  C  C341  1  0.938220  0.562180  0.749010  1.0  0.6795
  C  C342  1  0.899530  0.600850  0.749220  1.0  -0.1081
  C  C343  1  0.825650  0.674420  0.749630  1.0  0.0045
  C  C344  1  0.786730  0.713330  0.749820  1.0  -0.0485
  C  C345  1  0.938220  0.437820  0.250990  1.0  0.6784
  C  C346  1  0.899530  0.399150  0.250780  1.0  -0.1082
  C  C347  1  0.825650  0.325580  0.250370  1.0  0.0045
  C  C348  1  0.786730  0.286670  0.250180  1.0  -0.0489
  C  C349  1  0.061780  0.562220  0.250980  1.0  0.676
  C  C350  1  0.100470  0.600900  0.250770  1.0  -0.107
  C  C351  1  0.174360  0.674470  0.250340  1.0  0.0058
  C  C352  1  0.213280  0.713360  0.250150  1.0  -0.0487
  C  C353  1  0.750950  0.062130  0.438100  1.0  0.678
  C  C354  1  0.750730  0.100760  0.399340  1.0  -0.1039
  C  C355  1  0.750320  0.174330  0.325410  1.0  0.0044
  C  C356  1  0.750160  0.213330  0.286560  1.0  -0.0475
  C  C357  1  0.750950  0.937870  0.561900  1.0  0.6771
  C  C358  1  0.750730  0.899240  0.600660  1.0  -0.1039
  C  C359  1  0.750320  0.825670  0.674590  1.0  0.0041
  C  C360  1  0.750160  0.786670  0.713440  1.0  -0.0479
  C  C361  1  0.249080  0.937890  0.438080  1.0  0.7017
  C  C362  1  0.249300  0.899270  0.399310  1.0  -0.1052
  C  C363  1  0.249710  0.825710  0.325370  1.0  0.0041
  C  C364  1  0.249850  0.786700  0.286520  1.0  -0.0479
  C  C365  1  0.249080  0.062110  0.561920  1.0  0.7022
  C  C366  1  0.249300  0.100730  0.600690  1.0  -0.1051
  C  C367  1  0.249710  0.174290  0.674630  1.0  0.004
  C  C368  1  0.249850  0.213300  0.713480  1.0  -0.0475
  C  C369  1  0.437750  0.749020  0.061810  1.0  0.6794
  C  C370  1  0.399050  0.749230  0.100520  1.0  -0.1089
  C  C371  1  0.325440  0.749660  0.174450  1.0  0.0035
  C  C372  1  0.286510  0.749850  0.213410  1.0  -0.0347
  C  C373  1  0.562250  0.749020  0.938150  1.0  0.6793
  C  C374  1  0.600950  0.749220  0.899430  1.0  -0.1061
  C  C375  1  0.674570  0.749630  0.825510  1.0  0.0045
  C  C376  1  0.713500  0.749820  0.786560  1.0  -0.0364
  C  C377  1  0.437750  0.250980  0.938190  1.0  0.679
  C  C378  1  0.399050  0.250770  0.899480  1.0  -0.1089
  C  C379  1  0.325440  0.250340  0.825550  1.0  0.0036
  C  C380  1  0.286510  0.250150  0.786590  1.0  -0.0349
  C  C381  1  0.562250  0.250980  0.061850  1.0  0.6793
  C  C382  1  0.600950  0.250780  0.100570  1.0  -0.1056
  C  C383  1  0.674570  0.250370  0.174490  1.0  0.0044
  C  C384  1  0.713500  0.250180  0.213440  1.0  -0.0363
  C  C385  1  0.937750  0.561850  0.249020  1.0  0.6792
  C  C386  1  0.899050  0.600570  0.249230  1.0  -0.1069
  C  C387  1  0.825430  0.674490  0.249640  1.0  0.004
  C  C388  1  0.786500  0.713440  0.249820  1.0  -0.0335
  C  C389  1  0.062250  0.438190  0.249020  1.0  0.6762
  C  C390  1  0.100950  0.399480  0.249230  1.0  -0.1074
  C  C391  1  0.174560  0.325550  0.249650  1.0  0.0048
  C  C392  1  0.213490  0.286590  0.249850  1.0  -0.0353
  C  C393  1  0.062250  0.561810  0.750980  1.0  0.6765
  C  C394  1  0.100950  0.600520  0.750770  1.0  -0.1073
  C  C395  1  0.174560  0.674450  0.750350  1.0  0.005
  C  C396  1  0.213490  0.713410  0.750150  1.0  -0.0349
  C  C397  1  0.937750  0.438150  0.750980  1.0  0.678
  C  C398  1  0.899050  0.399430  0.750770  1.0  -0.1075
  C  C399  1  0.825430  0.325510  0.750360  1.0  0.0039
  C  C400  1  0.786500  0.286560  0.750180  1.0  -0.0338
  C  C401  1  0.250910  0.938080  0.562110  1.0  0.7019
  C  C402  1  0.250700  0.899310  0.600730  1.0  -0.1046
  C  C403  1  0.250300  0.825370  0.674290  1.0  0.0039
  C  C404  1  0.250150  0.786520  0.713290  1.0  -0.0478
  C  C405  1  0.250910  0.061920  0.437890  1.0  0.7028
  C  C406  1  0.250700  0.100690  0.399270  1.0  -0.1047
  C  C407  1  0.250300  0.174630  0.325710  1.0  0.0043
  C  C408  1  0.250150  0.213480  0.286710  1.0  -0.0474
  C  C409  1  0.749050  0.061900  0.562130  1.0  0.6783
  C  C410  1  0.749270  0.100660  0.600760  1.0  -0.1049
  C  C411  1  0.749680  0.174600  0.674320  1.0  0.004
  C  C412  1  0.749830  0.213440  0.713330  1.0  -0.0478
  C  C413  1  0.749050  0.938100  0.437870  1.0  0.6778
  C  C414  1  0.749270  0.899340  0.399240  1.0  -0.1048
  C  C415  1  0.749680  0.825400  0.325680  1.0  0.004
  C  C416  1  0.749830  0.786560  0.286670  1.0  -0.0483
  C  C417  1  0.561780  0.249010  0.937820  1.0  0.6803
  C  C418  1  0.600470  0.249220  0.899140  1.0  -0.1071
  C  C419  1  0.674340  0.249640  0.825570  1.0  0.0056
  C  C420  1  0.713270  0.249820  0.786670  1.0  -0.0494
  C  C421  1  0.438220  0.249020  0.062220  1.0  0.6786
  C  C422  1  0.399530  0.249230  0.100900  1.0  -0.107
  C  C423  1  0.325640  0.249660  0.174460  1.0  0.0027
  C  C424  1  0.286720  0.249850  0.213360  1.0  -0.0486
  C  C425  1  0.561780  0.750990  0.062180  1.0  0.6801
  C  C426  1  0.600470  0.750780  0.100860  1.0  -0.1067
  C  C427  1  0.674340  0.750360  0.174430  1.0  0.0054
  C  C428  1  0.713270  0.750180  0.213330  1.0  -0.0495
  C  C429  1  0.438220  0.750980  0.937780  1.0  0.6785
  C  C430  1  0.399530  0.750770  0.899100  1.0  -0.1069
  C  C431  1  0.325640  0.750340  0.825540  1.0  0.0028
  C  C432  1  0.286720  0.750150  0.786640  1.0  -0.0486
  C  C433  1  0.249870  0.286010  0.785740  1.0  -0.0445
  C  C434  1  0.750140  0.713960  0.785710  1.0  -0.0443
  C  C435  1  0.750140  0.286040  0.214290  1.0  -0.0453
  C  C436  1  0.249870  0.713990  0.214260  1.0  -0.0445
  C  C437  1  0.786000  0.249970  0.285930  1.0  -0.0504
  C  C438  1  0.786000  0.750030  0.714070  1.0  -0.0508
  C  C439  1  0.214020  0.750070  0.285890  1.0  -0.0498
  C  C440  1  0.214020  0.249930  0.714110  1.0  -0.0506
  C  C441  1  0.285760  0.785850  0.249920  1.0  -0.0359
  C  C442  1  0.714250  0.785820  0.750030  1.0  -0.0359
  C  C443  1  0.285760  0.214150  0.750080  1.0  -0.0351
  C  C444  1  0.714250  0.214180  0.249970  1.0  -0.0347
  C  C445  1  0.749860  0.714290  0.213970  1.0  -0.0455
  C  C446  1  0.250130  0.285740  0.213990  1.0  -0.0451
  C  C447  1  0.250130  0.714260  0.786010  1.0  -0.044
  C  C448  1  0.749860  0.285710  0.786030  1.0  -0.0455
  C  C449  1  0.214240  0.749920  0.714150  1.0  -0.0376
  C  C450  1  0.214240  0.250080  0.285850  1.0  -0.0367
  C  C451  1  0.785750  0.250040  0.714170  1.0  -0.037
  C  C452  1  0.785750  0.749960  0.285830  1.0  -0.0363
  C  C453  1  0.714000  0.214080  0.749960  1.0  -0.0486
  C  C454  1  0.285980  0.214110  0.250070  1.0  -0.0481
  C  C455  1  0.714000  0.785920  0.250040  1.0  -0.0492
  C  C456  1  0.285980  0.785890  0.749930  1.0  -0.0487
  N  N457  1  0.000000  0.499980  0.626620  1.0  -0.1972
  N  N458  1  0.000000  0.500020  0.373380  1.0  -0.1963
  N  N459  1  0.626610  0.000000  0.500000  1.0  -0.1932
  N  N460  1  0.373370  0.000000  0.500000  1.0  -0.1969
  N  N461  1  0.500000  0.626620  0.999980  1.0  -0.202
  N  N462  1  0.500000  0.373380  0.000020  1.0  -0.2036
  N  N463  1  0.000000  0.499980  0.873380  1.0  -0.2029
  N  N464  1  0.000000  0.500020  0.126620  1.0  -0.2041
  N  N465  1  0.500000  0.126620  0.000020  1.0  -0.1953
  N  N466  1  0.500000  0.873380  0.999980  1.0  -0.1973
  N  N467  1  0.126630  0.000000  0.500000  1.0  -0.198
  N  N468  1  0.873390  0.000000  0.500000  1.0  -0.1941
  O  O469  1  0.045570  0.454090  0.709130  1.0  -0.6177
  O  O470  1  0.954430  0.545860  0.709130  1.0  -0.6184
  O  O471  1  0.954430  0.454140  0.290870  1.0  -0.6184
  O  O472  1  0.045570  0.545910  0.290870  1.0  -0.6173
  O  O473  1  0.711190  0.045710  0.454570  1.0  -0.6263
  O  O474  1  0.711190  0.954290  0.545430  1.0  -0.6257
  O  O475  1  0.288840  0.954300  0.454560  1.0  -0.626
  O  O476  1  0.288840  0.045700  0.545440  1.0  -0.6263
  O  O477  1  0.454080  0.709130  0.045590  1.0  -0.618
  O  O478  1  0.545930  0.709130  0.954370  1.0  -0.6175
  O  O479  1  0.454080  0.290870  0.954410  1.0  -0.6163
  O  O480  1  0.545930  0.290870  0.045630  1.0  -0.6173
  O  O481  1  0.954660  0.545740  0.788770  1.0  -0.6279
  O  O482  1  0.045340  0.454210  0.788780  1.0  -0.6259
  O  O483  1  0.954660  0.454260  0.211230  1.0  -0.6271
  O  O484  1  0.045340  0.545790  0.211220  1.0  -0.6269
  O  O485  1  0.545800  0.211220  0.045400  1.0  -0.6275
  O  O486  1  0.454200  0.211220  0.954650  1.0  -0.6263
  O  O487  1  0.454200  0.788780  0.045350  1.0  -0.6268
  O  O488  1  0.545800  0.788780  0.954600  1.0  -0.6283
  O  O489  1  0.209200  0.954180  0.454320  1.0  -0.6131
  O  O490  1  0.209200  0.045820  0.545680  1.0  -0.614
  O  O491  1  0.790840  0.954160  0.545660  1.0  -0.619
  O  O492  1  0.790840  0.045840  0.454340  1.0  -0.6186
  O  O493  1  0.954200  0.545400  0.288780  1.0  -0.6271
  O  O494  1  0.045800  0.454650  0.288780  1.0  -0.6239
  O  O495  1  0.045800  0.545350  0.711220  1.0  -0.6246
  O  O496  1  0.954200  0.454600  0.711220  1.0  -0.6267
  O  O497  1  0.290800  0.954320  0.545820  1.0  -0.6143
  O  O498  1  0.290800  0.045680  0.454180  1.0  -0.6145
  O  O499  1  0.709160  0.045660  0.545830  1.0  -0.6186
  O  O500  1  0.709160  0.954340  0.454170  1.0  -0.6178
  O  O501  1  0.545340  0.288770  0.954260  1.0  -0.6288
  O  O502  1  0.454670  0.288780  0.045780  1.0  -0.6293
  O  O503  1  0.545340  0.711230  0.045740  1.0  -0.6282
  O  O504  1  0.454670  0.711220  0.954220  1.0  -0.6285
  O  O505  1  0.045920  0.454410  0.209130  1.0  -0.6175
  O  O506  1  0.954070  0.545630  0.209130  1.0  -0.6178
  O  O507  1  0.045920  0.545590  0.790870  1.0  -0.6174
  O  O508  1  0.954070  0.454370  0.790870  1.0  -0.6178
  O  O509  1  0.454430  0.790870  0.954090  1.0  -0.6161
  O  O510  1  0.545570  0.790870  0.045860  1.0  -0.6183
  O  O511  1  0.545570  0.209130  0.954140  1.0  -0.6185
  O  O512  1  0.454430  0.209130  0.045910  1.0  -0.6174
  O  O513  1  0.788800  0.045430  0.545710  1.0  -0.6294
  O  O514  1  0.788800  0.954570  0.454290  1.0  -0.629
  O  O515  1  0.211160  0.045440  0.454300  1.0  -0.6286
  O  O516  1  0.211160  0.954560  0.545700  1.0  -0.6281
