# generated using pymatgen
data_CoH14C23NO4
_symmetry_space_group_name_H-M   'P 1'
_cell_length_a   27.65230000
_cell_length_b   27.65230000
_cell_length_c   27.65230000
_cell_angle_alpha   90.00000000
_cell_angle_beta   90.00000000
_cell_angle_gamma   90.00000000
_symmetry_Int_Tables_number   1
_chemical_formula_structural   CoH14C23NO4
_chemical_formula_sum   'Co12 H168 C276 N12 O48'
_cell_volume   21144.32276907
_cell_formula_units_Z   12
loop_
 _symmetry_equiv_pos_site_id
 _symmetry_equiv_pos_as_xyz
  1  'x, y, z'
loop_
 _atom_site_type_symbol
 _atom_site_label
 _atom_site_symmetry_multiplicity
 _atom_site_fract_x
 _atom_site_fract_y
 _atom_site_fract_z
 _atom_site_occupancy
 _atom_site_charge
  Co  Co1  1  0.999980  0.499970  0.707280  1.0  0.706
  Co  Co2  1  0.000020  0.500030  0.292710  1.0  0.6849
  Co  Co3  1  0.707290  0.000000  0.499970  1.0  0.7053
  Co  Co4  1  0.292710  0.000000  0.500030  1.0  0.69
  Co  Co5  1  0.500000  0.707290  0.999980  1.0  0.7025
  Co  Co6  1  0.500000  0.292710  0.000020  1.0  0.6925
  Co  Co7  1  0.999970  0.499980  0.792710  1.0  0.7242
  Co  Co8  1  0.000030  0.500020  0.207290  1.0  0.6879
  Co  Co9  1  0.500000  0.207290  0.000030  1.0  0.6828
  Co  Co10  1  0.500000  0.792710  0.999970  1.0  0.699
  Co  Co11  1  0.207290  0.000000  0.500020  1.0  0.685
  Co  Co12  1  0.792710  0.000000  0.499980  1.0  0.6951
  H  H13  1  0.106030  0.391960  0.827960  1.0  0.1174
  H  H14  1  0.168000  0.329010  0.827830  1.0  0.117
  H  H15  1  0.893870  0.608000  0.827920  1.0  0.117
  H  H16  1  0.831880  0.670930  0.827750  1.0  0.1176
  H  H17  1  0.893950  0.392000  0.172060  1.0  0.1161
  H  H18  1  0.831970  0.329050  0.172210  1.0  0.1177
  H  H19  1  0.008230  0.576020  0.372740  1.0  0.1179
  H  H20  1  0.009470  0.577460  0.461140  1.0  0.1181
  H  H21  1  0.106130  0.608020  0.172060  1.0  0.1165
  H  H22  1  0.168110  0.670960  0.172200  1.0  0.1174
  H  H23  1  0.991800  0.424030  0.372710  1.0  0.1169
  H  H24  1  0.990540  0.422560  0.461110  1.0  0.1181
  H  H25  1  0.827950  0.106110  0.392000  1.0  0.1164
  H  H26  1  0.827810  0.168100  0.329060  1.0  0.1193
  H  H27  1  0.827930  0.893880  0.607970  1.0  0.1169
  H  H28  1  0.827770  0.831880  0.670910  1.0  0.119
  H  H29  1  0.172070  0.893970  0.391950  1.0  0.1165
  H  H30  1  0.172230  0.831980  0.329010  1.0  0.1181
  H  H31  1  0.172050  0.106030  0.608080  1.0  0.1164
  H  H32  1  0.172180  0.168000  0.671030  1.0  0.1175
  H  H33  1  0.392010  0.827950  0.106080  1.0  0.1181
  H  H34  1  0.329070  0.827810  0.168070  1.0  0.1202
  H  H35  1  0.607980  0.827930  0.893840  1.0  0.1182
  H  H36  1  0.670910  0.827770  0.831840  1.0  0.1205
  H  H37  1  0.391930  0.172050  0.894010  1.0  0.1173
  H  H38  1  0.328980  0.172180  0.832030  1.0  0.1206
  H  H39  1  0.608060  0.172070  0.106080  1.0  0.1179
  H  H40  1  0.671000  0.172220  0.168060  1.0  0.1197
  H  H41  1  0.890890  0.604570  0.671990  1.0  0.1135
  H  H42  1  0.827980  0.666550  0.671780  1.0  0.1201
  H  H43  1  0.109060  0.395330  0.672030  1.0  0.1141
  H  H44  1  0.171960  0.333333  0.671860  1.0  0.1211
  H  H45  1  0.890940  0.395410  0.327990  1.0  0.1151
  H  H46  1  0.828040  0.333420  0.328180  1.0  0.1212
  H  H47  1  0.075970  0.491360  0.127250  1.0  0.1158
  H  H48  1  0.077400  0.490070  0.038850  1.0  0.1153
  H  H49  1  0.109080  0.604670  0.327990  1.0  0.1165
  H  H50  1  0.171990  0.666667  0.328180  1.0  0.1215
  H  H51  1  0.924070  0.508670  0.127280  1.0  0.1153
  H  H52  1  0.922620  0.509940  0.038880  1.0  0.1154
  H  H53  1  0.604660  0.328000  0.109060  1.0  0.1171
  H  H54  1  0.666667  0.328200  0.171960  1.0  0.1226
  H  H55  1  0.395330  0.327980  0.890980  1.0  0.1169
  H  H56  1  0.333333  0.328160  0.828080  1.0  0.1234
  H  H57  1  0.395410  0.672020  0.109090  1.0  0.1161
  H  H58  1  0.333430  0.671830  0.172000  1.0  0.1222
  H  H59  1  0.491430  0.872740  0.924020  1.0  0.1166
  H  H60  1  0.490160  0.961130  0.922590  1.0  0.1178
  H  H61  1  0.604580  0.672000  0.890880  1.0  0.1162
  H  H62  1  0.666560  0.671790  0.827960  1.0  0.1209
  H  H63  1  0.508570  0.872720  0.075940  1.0  0.1173
  H  H64  1  0.509840  0.961100  0.077400  1.0  0.1186
  H  H65  1  0.328000  0.890950  0.395380  1.0  0.1152
  H  H66  1  0.328200  0.828050  0.333390  1.0  0.1215
  H  H67  1  0.327980  0.109030  0.604710  1.0  0.1164
  H  H68  1  0.328160  0.171930  0.666667  1.0  0.1196
  H  H69  1  0.672000  0.890880  0.604540  1.0  0.1154
  H  H70  1  0.671790  0.827970  0.666520  1.0  0.1204
  H  H71  1  0.872730  0.075960  0.508560  1.0  0.1179
  H  H72  1  0.961120  0.077410  0.509840  1.0  0.1185
  H  H73  1  0.672020  0.109100  0.395370  1.0  0.1152
  H  H74  1  0.671830  0.172010  0.333390  1.0  0.12
  H  H75  1  0.872730  0.924040  0.491410  1.0  0.1171
  H  H76  1  0.961120  0.922590  0.490150  1.0  0.1182
  H  H77  1  0.895430  0.609100  0.171990  1.0  0.1142
  H  H78  1  0.833450  0.672010  0.171780  1.0  0.1211
  H  H79  1  0.104660  0.390940  0.172040  1.0  0.1144
  H  H80  1  0.166660  0.328040  0.171870  1.0  0.1187
  H  H81  1  0.104580  0.609060  0.827980  1.0  0.116
  H  H82  1  0.166580  0.671960  0.828180  1.0  0.1188
  H  H83  1  0.008620  0.424020  0.627250  1.0  0.1173
  H  H84  1  0.009910  0.422600  0.538850  1.0  0.1175
  H  H85  1  0.895330  0.390920  0.827980  1.0  0.1168
  H  H86  1  0.833340  0.328010  0.828180  1.0  0.1205
  H  H87  1  0.991350  0.575930  0.627270  1.0  0.1179
  H  H88  1  0.990080  0.577390  0.538880  1.0  0.1176
  H  H89  1  0.172000  0.895320  0.609040  1.0  0.1154
  H  H90  1  0.171810  0.833330  0.671950  1.0  0.119
  H  H91  1  0.372710  0.991740  0.424030  1.0  0.1163
  H  H92  1  0.461110  0.990490  0.422560  1.0  0.1186
  H  H93  1  0.172030  0.104680  0.390990  1.0  0.1157
  H  H94  1  0.171850  0.166680  0.328090  1.0  0.1207
  H  H95  1  0.372740  0.008260  0.576020  1.0  0.1169
  H  H96  1  0.461130  0.009510  0.577460  1.0  0.1183
  H  H97  1  0.827970  0.104590  0.609100  1.0  0.1156
  H  H98  1  0.828160  0.166570  0.672010  1.0  0.1198
  H  H99  1  0.627260  0.008400  0.424000  1.0  0.1157
  H  H100  1  0.538870  0.009660  0.422560  1.0  0.1183
  H  H101  1  0.828000  0.895420  0.390870  1.0  0.1151
  H  H102  1  0.828200  0.833440  0.327960  1.0  0.1205
  H  H103  1  0.627290  0.991610  0.575960  1.0  0.1167
  H  H104  1  0.538890  0.990350  0.577420  1.0  0.1183
  H  H105  1  0.609030  0.172010  0.895370  1.0  0.1162
  H  H106  1  0.671940  0.171810  0.833380  1.0  0.1229
  H  H107  1  0.424010  0.372720  0.991760  1.0  0.1162
  H  H108  1  0.422550  0.461120  0.990500  1.0  0.1157
  H  H109  1  0.390980  0.172030  0.104720  1.0  0.1159
  H  H110  1  0.328080  0.171850  0.166720  1.0  0.1222
  H  H111  1  0.575990  0.372730  0.008270  1.0  0.1163
  H  H112  1  0.577450  0.461120  0.009510  1.0  0.116
  H  H113  1  0.609120  0.828000  0.104540  1.0  0.1171
  H  H114  1  0.672030  0.828200  0.166520  1.0  0.122
  H  H115  1  0.424020  0.627280  0.008380  1.0  0.1156
  H  H116  1  0.422570  0.538880  0.009650  1.0  0.1156
  H  H117  1  0.390890  0.827980  0.895380  1.0  0.1166
  H  H118  1  0.327980  0.828160  0.833390  1.0  0.1215
  H  H119  1  0.575980  0.627270  0.991590  1.0  0.1162
  H  H120  1  0.577430  0.538880  0.990350  1.0  0.1154
  H  H121  1  0.108050  0.393970  0.327970  1.0  0.1173
  H  H122  1  0.171000  0.332000  0.327840  1.0  0.1194
  H  H123  1  0.891990  0.606120  0.327920  1.0  0.1171
  H  H124  1  0.829060  0.668120  0.327750  1.0  0.1194
  H  H125  1  0.108010  0.606040  0.672050  1.0  0.1166
  H  H126  1  0.170950  0.668020  0.672200  1.0  0.1189
  H  H127  1  0.923980  0.491760  0.872730  1.0  0.115
  H  H128  1  0.922540  0.490520  0.961140  1.0  0.1154
  H  H129  1  0.891970  0.393870  0.672050  1.0  0.1158
  H  H130  1  0.829030  0.331890  0.672200  1.0  0.1183
  H  H131  1  0.075970  0.508210  0.872710  1.0  0.1152
  H  H132  1  0.077440  0.509470  0.961110  1.0  0.1156
  H  H133  1  0.393890  0.672050  0.892000  1.0  0.1179
  H  H134  1  0.331900  0.672180  0.829060  1.0  0.1198
  H  H135  1  0.606120  0.672070  0.107970  1.0  0.1183
  H  H136  1  0.668110  0.672230  0.170910  1.0  0.1196
  H  H137  1  0.606040  0.327930  0.891960  1.0  0.1185
  H  H138  1  0.668020  0.327780  0.829020  1.0  0.1191
  H  H139  1  0.492080  0.127280  0.076050  1.0  0.1171
  H  H140  1  0.490850  0.038880  0.077500  1.0  0.1181
  H  H141  1  0.393960  0.327960  0.108070  1.0  0.1179
  H  H142  1  0.331990  0.327820  0.171020  1.0  0.119
  H  H143  1  0.507930  0.127300  0.924000  1.0  0.1168
  H  H144  1  0.509160  0.038910  0.922520  1.0  0.1178
  H  H145  1  0.672050  0.107990  0.606070  1.0  0.1159
  H  H146  1  0.672190  0.170930  0.668050  1.0  0.1176
  H  H147  1  0.672070  0.892020  0.393840  1.0  0.1166
  H  H148  1  0.672230  0.829080  0.331850  1.0  0.1193
  H  H149  1  0.327960  0.108060  0.394010  1.0  0.1159
  H  H150  1  0.327820  0.171010  0.332040  1.0  0.1187
  H  H151  1  0.127290  0.923970  0.507940  1.0  0.1167
  H  H152  1  0.038890  0.922510  0.509160  1.0  0.1191
  H  H153  1  0.327930  0.891950  0.606080  1.0  0.1172
  H  H154  1  0.327780  0.829010  0.668070  1.0  0.1173
  H  H155  1  0.127290  0.076030  0.492090  1.0  0.1176
  H  H156  1  0.038890  0.077490  0.490850  1.0  0.1192
  H  H157  1  0.250630  0.313840  0.813230  1.0  0.1194
  H  H158  1  0.749260  0.686090  0.813110  1.0  0.1201
  H  H159  1  0.749350  0.313900  0.186820  1.0  0.1193
  H  H160  1  0.250720  0.686140  0.186830  1.0  0.1201
  H  H161  1  0.813190  0.250710  0.313880  1.0  0.1195
  H  H162  1  0.813140  0.749260  0.686060  1.0  0.1196
  H  H163  1  0.186840  0.749350  0.313870  1.0  0.1189
  H  H164  1  0.186790  0.250630  0.686180  1.0  0.1204
  H  H165  1  0.313910  0.813190  0.250690  1.0  0.1203
  H  H166  1  0.686070  0.813120  0.749230  1.0  0.1192
  H  H167  1  0.313840  0.186790  0.749400  1.0  0.121
  H  H168  1  0.686140  0.186860  0.250690  1.0  0.1199
  H  H169  1  0.750740  0.686860  0.186060  1.0  0.1201
  H  H170  1  0.249370  0.313210  0.186180  1.0  0.1209
  H  H171  1  0.249280  0.686800  0.813880  1.0  0.12
  H  H172  1  0.750640  0.313160  0.813870  1.0  0.1194
  H  H173  1  0.186110  0.750640  0.686820  1.0  0.1181
  H  H174  1  0.186160  0.249370  0.313240  1.0  0.1183
  H  H175  1  0.813860  0.249280  0.686840  1.0  0.1195
  H  H176  1  0.813910  0.750740  0.313110  1.0  0.1195
  H  H177  1  0.686790  0.186110  0.750670  1.0  0.1198
  H  H178  1  0.313220  0.186180  0.249420  1.0  0.1205
  H  H179  1  0.686860  0.813910  0.249240  1.0  0.1193
  H  H180  1  0.313150  0.813840  0.750680  1.0  0.1223
  C  C181  1  0.120050  0.379500  0.793580  1.0  -0.0706
  C  C182  1  0.156000  0.343460  0.793500  1.0  -0.1183
  C  C183  1  0.879860  0.620440  0.793530  1.0  -0.0721
  C  C184  1  0.843900  0.656470  0.793420  1.0  -0.1176
  C  C185  1  0.879930  0.379550  0.206440  1.0  -0.0707
  C  C186  1  0.843980  0.343510  0.206540  1.0  -0.1198
  C  C187  1  0.004590  0.542140  0.391950  1.0  0.1103
  C  C188  1  0.004890  0.542860  0.443630  1.0  -0.1116
  C  C189  1  0.120130  0.620480  0.206440  1.0  -0.0711
  C  C190  1  0.156090  0.656520  0.206540  1.0  -0.1195
  C  C191  1  0.995440  0.457900  0.391930  1.0  0.1111
  C  C192  1  0.995130  0.457160  0.443620  1.0  -0.1105
  C  C193  1  0.793570  0.120130  0.379540  1.0  -0.0706
  C  C194  1  0.793480  0.156080  0.343510  1.0  -0.1195
  C  C195  1  0.793550  0.879860  0.620420  1.0  -0.0714
  C  C196  1  0.793440  0.843900  0.656440  1.0  -0.1194
  C  C197  1  0.206450  0.879950  0.379510  1.0  -0.0721
  C  C198  1  0.206560  0.843990  0.343470  1.0  -0.1192
  C  C199  1  0.206430  0.120040  0.620540  1.0  -0.0714
  C  C200  1  0.206520  0.155990  0.656580  1.0  -0.1206
  C  C201  1  0.379560  0.793570  0.120100  1.0  -0.0747
  C  C202  1  0.343530  0.793480  0.156050  1.0  -0.1236
  C  C203  1  0.620430  0.793550  0.879830  1.0  -0.0767
  C  C204  1  0.656460  0.793440  0.843860  1.0  -0.1212
  C  C205  1  0.379480  0.206430  0.879990  1.0  -0.0764
  C  C206  1  0.343440  0.206520  0.844040  1.0  -0.1228
  C  C207  1  0.620510  0.206450  0.120090  1.0  -0.0753
  C  C208  1  0.656540  0.206550  0.156050  1.0  -0.1223
  C  C209  1  0.878320  0.618650  0.706300  1.0  -0.0698
  C  C210  1  0.842320  0.654620  0.706190  1.0  -0.1185
  C  C211  1  0.121610  0.381260  0.706350  1.0  -0.0696
  C  C212  1  0.157610  0.345280  0.706260  1.0  -0.1184
  C  C213  1  0.878380  0.381330  0.293670  1.0  -0.0704
  C  C214  1  0.842380  0.345360  0.293770  1.0  -0.119
  C  C215  1  0.042110  0.495190  0.108050  1.0  0.1139
  C  C216  1  0.042830  0.494870  0.056360  1.0  -0.1122
  C  C217  1  0.121650  0.618730  0.293670  1.0  -0.0718
  C  C218  1  0.157660  0.654710  0.293770  1.0  -0.1171
  C  C219  1  0.957930  0.504830  0.108060  1.0  0.1116
  C  C220  1  0.957190  0.505140  0.056370  1.0  -0.113
  C  C221  1  0.618740  0.293680  0.121620  1.0  -0.0759
  C  C222  1  0.654710  0.293790  0.157630  1.0  -0.121
  C  C223  1  0.381250  0.293660  0.878430  1.0  -0.0745
  C  C224  1  0.345270  0.293750  0.842430  1.0  -0.1218
  C  C225  1  0.381330  0.706340  0.121650  1.0  -0.0747
  C  C226  1  0.345360  0.706240  0.157660  1.0  -0.1214
  C  C227  1  0.495230  0.891950  0.957880  1.0  0.1114
  C  C228  1  0.494910  0.943640  0.957170  1.0  -0.11
  C  C229  1  0.618660  0.706320  0.878300  1.0  -0.0769
  C  C230  1  0.654620  0.706200  0.842300  1.0  -0.1192
  C  C231  1  0.504780  0.891940  0.042080  1.0  0.1115
  C  C232  1  0.505090  0.943620  0.042810  1.0  -0.1114
  C  C233  1  0.293680  0.878390  0.381300  1.0  -0.0694
  C  C234  1  0.293790  0.842390  0.345320  1.0  -0.119
  C  C235  1  0.293660  0.121590  0.618790  1.0  -0.0679
  C  C236  1  0.293750  0.157590  0.654760  1.0  -0.1204
  C  C237  1  0.706320  0.878320  0.618620  1.0  -0.0708
  C  C238  1  0.706200  0.842310  0.654590  1.0  -0.1182
  C  C239  1  0.891940  0.042100  0.504760  1.0  0.1085
  C  C240  1  0.943630  0.042820  0.505080  1.0  -0.1113
  C  C241  1  0.706340  0.121670  0.381300  1.0  -0.0698
  C  C242  1  0.706240  0.157670  0.345330  1.0  -0.1184
  C  C243  1  0.891940  0.957900  0.495210  1.0  0.1103
  C  C244  1  0.943630  0.957180  0.494910  1.0  -0.1111
  C  C245  1  0.881350  0.621670  0.206310  1.0  -0.0684
  C  C246  1  0.845380  0.657680  0.206190  1.0  -0.1181
  C  C247  1  0.118740  0.378380  0.206360  1.0  -0.0683
  C  C248  1  0.154720  0.342390  0.206270  1.0  -0.1182
  C  C249  1  0.118670  0.621620  0.793670  1.0  -0.0689
  C  C250  1  0.154640  0.657620  0.793770  1.0  -0.1184
  C  C251  1  0.004800  0.457880  0.608040  1.0  0.1116
  C  C252  1  0.005120  0.457170  0.556360  1.0  -0.1124
  C  C253  1  0.881260  0.378350  0.793670  1.0  -0.0688
  C  C254  1  0.845290  0.342340  0.793770  1.0  -0.1181
  C  C255  1  0.995180  0.542070  0.608060  1.0  0.1088
  C  C256  1  0.994870  0.542810  0.556370  1.0  -0.113
  C  C257  1  0.206320  0.881250  0.621620  1.0  -0.0691
  C  C258  1  0.206210  0.845280  0.657620  1.0  -0.1168
  C  C259  1  0.391930  0.995400  0.457900  1.0  0.1114
  C  C260  1  0.443620  0.995100  0.457170  1.0  -0.111
  C  C261  1  0.206350  0.118760  0.378430  1.0  -0.0689
  C  C262  1  0.206250  0.154740  0.342440  1.0  -0.1174
  C  C263  1  0.391950  0.004600  0.542140  1.0  0.1124
  C  C264  1  0.443640  0.004910  0.542860  1.0  -0.1108
  C  C265  1  0.793660  0.118660  0.621660  1.0  -0.0673
  C  C266  1  0.793750  0.154640  0.657660  1.0  -0.1185
  C  C267  1  0.608050  0.004680  0.457870  1.0  0.1112
  C  C268  1  0.556370  0.004990  0.457160  1.0  -0.1117
  C  C269  1  0.793680  0.881340  0.378300  1.0  -0.0674
  C  C270  1  0.793790  0.845370  0.342290  1.0  -0.1184
  C  C271  1  0.608070  0.995330  0.542090  1.0  0.1089
  C  C272  1  0.556380  0.995020  0.542820  1.0  -0.1131
  C  C273  1  0.621600  0.206320  0.881290  1.0  -0.0734
  C  C274  1  0.657600  0.206210  0.845310  1.0  -0.1183
  C  C275  1  0.457880  0.391940  0.995420  1.0  0.1131
  C  C276  1  0.457150  0.443630  0.995110  1.0  -0.1117
  C  C277  1  0.378410  0.206350  0.118790  1.0  -0.0729
  C  C278  1  0.342410  0.206250  0.154770  1.0  -0.1204
  C  C279  1  0.542120  0.391940  0.004610  1.0  0.1134
  C  C280  1  0.542840  0.443630  0.004910  1.0  -0.1127
  C  C281  1  0.621680  0.793680  0.118620  1.0  -0.0744
  C  C282  1  0.657690  0.793790  0.154590  1.0  -0.1207
  C  C283  1  0.457890  0.608060  0.004660  1.0  0.1135
  C  C284  1  0.457160  0.556370  0.004980  1.0  -0.1121
  C  C285  1  0.378330  0.793660  0.881300  1.0  -0.0742
  C  C286  1  0.342320  0.793750  0.845330  1.0  -0.1232
  C  C287  1  0.542110  0.608060  0.995310  1.0  0.1132
  C  C288  1  0.542830  0.556370  0.995010  1.0  -0.1122
  C  C289  1  0.120500  0.379950  0.293590  1.0  -0.0713
  C  C290  1  0.156540  0.344000  0.293500  1.0  -0.1172
  C  C291  1  0.879550  0.620140  0.293540  1.0  -0.0711
  C  C292  1  0.843520  0.656100  0.293420  1.0  -0.1188
  C  C293  1  0.120450  0.620060  0.706440  1.0  -0.0706
  C  C294  1  0.156490  0.656010  0.706540  1.0  -0.1197
  C  C295  1  0.957860  0.495410  0.891940  1.0  0.1128
  C  C296  1  0.957140  0.495110  0.943630  1.0  -0.1128
  C  C297  1  0.879510  0.379870  0.706430  1.0  -0.0697
  C  C298  1  0.843480  0.343910  0.706530  1.0  -0.1194
  C  C299  1  0.042100  0.504570  0.891930  1.0  0.1127
  C  C300  1  0.042840  0.504880  0.943620  1.0  -0.112
  C  C301  1  0.379870  0.706430  0.879540  1.0  -0.0765
  C  C302  1  0.343920  0.706520  0.843510  1.0  -0.1228
  C  C303  1  0.620140  0.706450  0.120420  1.0  -0.0763
  C  C304  1  0.656100  0.706560  0.156440  1.0  -0.1215
  C  C305  1  0.620050  0.293550  0.879510  1.0  -0.0765
  C  C306  1  0.656010  0.293450  0.843480  1.0  -0.1206
  C  C307  1  0.495590  0.108060  0.042160  1.0  0.111
  C  C308  1  0.495290  0.056370  0.042880  1.0  -0.1104
  C  C309  1  0.379950  0.293580  0.120540  1.0  -0.0752
  C  C310  1  0.344000  0.293490  0.156580  1.0  -0.1227
  C  C311  1  0.504420  0.108080  0.957880  1.0  0.1099
  C  C312  1  0.504710  0.056390  0.957150  1.0  -0.1112
  C  C313  1  0.706430  0.120440  0.620090  1.0  -0.0701
  C  C314  1  0.706520  0.156480  0.656050  1.0  -0.1202
  C  C315  1  0.706450  0.879570  0.379830  1.0  -0.0705
  C  C316  1  0.706560  0.843540  0.343870  1.0  -0.12
  C  C317  1  0.293580  0.120520  0.379990  1.0  -0.07
  C  C318  1  0.293490  0.156560  0.344040  1.0  -0.1206
  C  C319  1  0.108070  0.957860  0.504430  1.0  0.1086
  C  C320  1  0.056380  0.957130  0.504720  1.0  -0.1133
  C  C321  1  0.293550  0.879490  0.620090  1.0  -0.0701
  C  C322  1  0.293450  0.843460  0.656050  1.0  -0.1198
  C  C323  1  0.108070  0.042140  0.495600  1.0  0.107
  C  C324  1  0.056380  0.042870  0.495300  1.0  -0.1146
  C  C325  1  0.000000  0.499990  0.528370  1.0  -0.0392
  C  C326  1  0.000000  0.500010  0.471620  1.0  -0.0378
  C  C327  1  0.528380  0.000000  0.500000  1.0  -0.0401
  C  C328  1  0.471620  0.000000  0.500010  1.0  -0.0395
  C  C329  1  0.500000  0.528380  0.000000  1.0  -0.0394
  C  C330  1  0.500000  0.471620  0.000010  1.0  -0.0385
  C  C331  1  0.000000  0.500000  0.971620  1.0  -0.0382
  C  C332  1  0.000010  0.500000  0.028370  1.0  -0.0392
  C  C333  1  0.500000  0.028380  0.000010  1.0  -0.0368
  C  C334  1  0.500000  0.971630  0.999990  1.0  -0.0358
  C  C335  1  0.028380  0.000000  0.500010  1.0  -0.0375
  C  C336  1  0.971630  0.000000  0.500000  1.0  -0.0377
  C  C337  1  0.063680  0.437260  0.750060  1.0  0.6769
  C  C338  1  0.102230  0.398970  0.750010  1.0  -0.0892
  C  C339  1  0.175470  0.325650  0.749830  1.0  0.0374
  C  C340  1  0.214030  0.286940  0.749720  1.0  0.02
  C  C341  1  0.936260  0.562680  0.750040  1.0  0.6781
  C  C342  1  0.897700  0.600960  0.749970  1.0  -0.0903
  C  C343  1  0.824450  0.674260  0.749740  1.0  0.0367
  C  C344  1  0.785880  0.712970  0.749610  1.0  0.0209
  C  C345  1  0.936310  0.437320  0.249940  1.0  0.6762
  C  C346  1  0.897760  0.399030  0.250010  1.0  -0.0902
  C  C347  1  0.824520  0.325720  0.250210  1.0  0.0368
  C  C348  1  0.785950  0.287010  0.250340  1.0  0.0205
  C  C349  1  0.063740  0.562730  0.249940  1.0  0.6761
  C  C350  1  0.102290  0.601020  0.250000  1.0  -0.0898
  C  C351  1  0.175530  0.674330  0.250210  1.0  0.0378
  C  C352  1  0.214100  0.713040  0.250340  1.0  0.0204
  C  C353  1  0.750060  0.063730  0.437290  1.0  0.6779
  C  C354  1  0.750000  0.102290  0.399010  1.0  -0.0885
  C  C355  1  0.749810  0.175540  0.325710  1.0  0.0374
  C  C356  1  0.749680  0.214100  0.286990  1.0  0.0209
  C  C357  1  0.750050  0.936260  0.562660  1.0  0.6769
  C  C358  1  0.749980  0.897700  0.600930  1.0  -0.088
  C  C359  1  0.749760  0.824440  0.674230  1.0  0.0368
  C  C360  1  0.749620  0.785880  0.712940  1.0  0.0211
  C  C361  1  0.249950  0.936320  0.437290  1.0  0.6776
  C  C362  1  0.250020  0.897780  0.398990  1.0  -0.0886
  C  C363  1  0.250230  0.824530  0.325690  1.0  0.0375
  C  C364  1  0.250360  0.785960  0.286980  1.0  0.0205
  C  C365  1  0.249940  0.063680  0.562770  1.0  0.6785
  C  C366  1  0.250000  0.102210  0.601070  1.0  -0.0883
  C  C367  1  0.250190  0.175460  0.674380  1.0  0.037
  C  C368  1  0.250300  0.214020  0.713090  1.0  0.0217
  C  C369  1  0.437310  0.750060  0.063710  1.0  0.6797
  C  C370  1  0.399040  0.750000  0.102260  1.0  -0.0908
  C  C371  1  0.325730  0.749800  0.175520  1.0  0.0359
  C  C372  1  0.287020  0.749680  0.214080  1.0  0.0203
  C  C373  1  0.562690  0.750050  0.936240  1.0  0.6774
  C  C374  1  0.600950  0.749990  0.897680  1.0  -0.0898
  C  C375  1  0.674250  0.749760  0.824420  1.0  0.0373
  C  C376  1  0.712960  0.749620  0.785850  1.0  0.0191
  C  C377  1  0.437260  0.249940  0.936350  1.0  0.6775
  C  C378  1  0.398960  0.250000  0.897810  1.0  -0.0906
  C  C379  1  0.325640  0.250190  0.824570  1.0  0.0358
  C  C380  1  0.286940  0.250300  0.786000  1.0  0.0197
  C  C381  1  0.562740  0.249950  0.063710  1.0  0.6776
  C  C382  1  0.601030  0.250020  0.102250  1.0  -0.0899
  C  C383  1  0.674340  0.250230  0.175500  1.0  0.0367
  C  C384  1  0.713040  0.250360  0.214070  1.0  0.0197
  C  C385  1  0.937320  0.563740  0.250050  1.0  0.6778
  C  C386  1  0.899040  0.602290  0.249980  1.0  -0.09
  C  C387  1  0.825740  0.675550  0.249740  1.0  0.0364
  C  C388  1  0.787030  0.714110  0.249610  1.0  0.0199
  C  C389  1  0.062730  0.436310  0.250070  1.0  0.6766
  C  C390  1  0.101020  0.397770  0.250020  1.0  -0.0891
  C  C391  1  0.174350  0.324530  0.249840  1.0  0.0374
  C  C392  1  0.213060  0.285970  0.249730  1.0  0.0197
  C  C393  1  0.062680  0.563690  0.749940  1.0  0.6776
  C  C394  1  0.100970  0.602230  0.750000  1.0  -0.0894
  C  C395  1  0.174280  0.675480  0.750210  1.0  0.0375
  C  C396  1  0.212990  0.714040  0.750330  1.0  0.0202
  C  C397  1  0.937260  0.436260  0.749940  1.0  0.6769
  C  C398  1  0.898980  0.397710  0.750000  1.0  -0.0905
  C  C399  1  0.825670  0.324470  0.750210  1.0  0.0364
  C  C400  1  0.786960  0.285900  0.750330  1.0  0.0202
  C  C401  1  0.250050  0.937260  0.563710  1.0  0.677
  C  C402  1  0.249990  0.898970  0.602250  1.0  -0.0885
  C  C403  1  0.249780  0.825650  0.675500  1.0  0.0368
  C  C404  1  0.249650  0.786950  0.714060  1.0  0.021
  C  C405  1  0.250060  0.062740  0.436350  1.0  0.6766
  C  C406  1  0.250010  0.101040  0.397820  1.0  -0.0885
  C  C407  1  0.249820  0.174360  0.324580  1.0  0.0374
  C  C408  1  0.249710  0.213070  0.286010  1.0  0.021
  C  C409  1  0.749940  0.062690  0.563710  1.0  0.6787
  C  C410  1  0.749990  0.100960  0.602260  1.0  -0.0893
  C  C411  1  0.750190  0.174270  0.675510  1.0  0.0369
  C  C412  1  0.750310  0.212990  0.714070  1.0  0.0216
  C  C413  1  0.749950  0.937310  0.436240  1.0  0.6757
  C  C414  1  0.750010  0.899040  0.397680  1.0  -0.0881
  C  C415  1  0.750240  0.825740  0.324420  1.0  0.0369
  C  C416  1  0.750370  0.787030  0.285860  1.0  0.0205
  C  C417  1  0.563680  0.250050  0.937290  1.0  0.6784
  C  C418  1  0.602220  0.249990  0.898990  1.0  -0.0898
  C  C419  1  0.675470  0.249780  0.825680  1.0  0.0369
  C  C420  1  0.714030  0.249650  0.786980  1.0  0.019
  C  C421  1  0.436320  0.250060  0.062770  1.0  0.6785
  C  C422  1  0.397790  0.250010  0.101070  1.0  -0.0909
  C  C423  1  0.324550  0.249820  0.174390  1.0  0.0357
  C  C424  1  0.285980  0.249710  0.213090  1.0  0.02
  C  C425  1  0.563740  0.749950  0.062660  1.0  0.679
  C  C426  1  0.602300  0.750010  0.100930  1.0  -0.0895
  C  C427  1  0.675560  0.750240  0.174230  1.0  0.0362
  C  C428  1  0.714120  0.750370  0.212940  1.0  0.02
  C  C429  1  0.436270  0.749940  0.937290  1.0  0.6782
  C  C430  1  0.397710  0.749990  0.899010  1.0  -0.0904
  C  C431  1  0.324460  0.750190  0.825700  1.0  0.0358
  C  C432  1  0.285900  0.750310  0.786990  1.0  0.0195
  C  C433  1  0.250540  0.286220  0.785520  1.0  -0.0701
  C  C434  1  0.749360  0.713700  0.785390  1.0  -0.0631
  C  C435  1  0.749440  0.286280  0.214540  1.0  -0.0713
  C  C436  1  0.250620  0.713760  0.214550  1.0  -0.0629
  C  C437  1  0.785480  0.250620  0.286260  1.0  -0.0628
  C  C438  1  0.785420  0.749360  0.713680  1.0  -0.0652
  C  C439  1  0.214560  0.749440  0.286250  1.0  -0.0628
  C  C440  1  0.214510  0.250540  0.713810  1.0  -0.0625
  C  C441  1  0.286290  0.785480  0.250590  1.0  -0.0703
  C  C442  1  0.713690  0.785410  0.749330  1.0  -0.0626
  C  C443  1  0.286220  0.214500  0.749490  1.0  -0.0621
  C  C444  1  0.713760  0.214570  0.250590  1.0  -0.0625
  C  C445  1  0.750640  0.714580  0.213680  1.0  -0.0685
  C  C446  1  0.249460  0.285500  0.213810  1.0  -0.0632
  C  C447  1  0.249380  0.714520  0.786260  1.0  -0.0698
  C  C448  1  0.750550  0.285440  0.786250  1.0  -0.062
  C  C449  1  0.213720  0.750550  0.714540  1.0  -0.0643
  C  C450  1  0.213780  0.249470  0.285530  1.0  -0.0705
  C  C451  1  0.786230  0.249380  0.714550  1.0  -0.0644
  C  C452  1  0.786290  0.750640  0.285390  1.0  -0.0631
  C  C453  1  0.714510  0.213720  0.750580  1.0  -0.0699
  C  C454  1  0.285510  0.213790  0.249500  1.0  -0.0617
  C  C455  1  0.714580  0.786300  0.249340  1.0  -0.063
  C  C456  1  0.285440  0.786220  0.750580  1.0  -0.063
  N  N457  1  0.999980  0.499980  0.633940  1.0  -0.296
  N  N458  1  0.000020  0.500020  0.366050  1.0  -0.2974
  N  N459  1  0.633950  0.000000  0.499980  1.0  -0.2958
  N  N460  1  0.366050  0.000000  0.500030  1.0  -0.2945
  N  N461  1  0.500000  0.633950  0.999990  1.0  -0.2965
  N  N462  1  0.500000  0.366050  0.000020  1.0  -0.2977
  N  N463  1  0.999980  0.499990  0.866050  1.0  -0.2974
  N  N464  1  0.000020  0.500020  0.133940  1.0  -0.2963
  N  N465  1  0.500000  0.133950  0.000020  1.0  -0.2959
  N  N466  1  0.500000  0.866050  0.999980  1.0  -0.2972
  N  N467  1  0.133950  0.000000  0.500020  1.0  -0.2952
  N  N468  1  0.866050  0.000000  0.499990  1.0  -0.2941
  O  O469  1  0.047230  0.453670  0.709670  1.0  -0.601
  O  O470  1  0.952720  0.546270  0.709660  1.0  -0.5916
  O  O471  1  0.952770  0.453720  0.290330  1.0  -0.5989
  O  O472  1  0.047270  0.546340  0.290330  1.0  -0.6036
  O  O473  1  0.709670  0.047270  0.453680  1.0  -0.5926
  O  O474  1  0.709660  0.952730  0.546260  1.0  -0.5953
  O  O475  1  0.290340  0.952770  0.453700  1.0  -0.5954
  O  O476  1  0.290340  0.047230  0.546360  1.0  -0.5945
  O  O477  1  0.453710  0.709670  0.047250  1.0  -0.5944
  O  O478  1  0.546290  0.709660  0.952710  1.0  -0.6002
  O  O479  1  0.453670  0.290330  0.952790  1.0  -0.6028
  O  O480  1  0.546330  0.290340  0.047250  1.0  -0.6027
  O  O481  1  0.952830  0.546410  0.790450  1.0  -0.6106
  O  O482  1  0.047100  0.453540  0.790460  1.0  -0.6042
  O  O483  1  0.952890  0.453590  0.209540  1.0  -0.6103
  O  O484  1  0.047170  0.546450  0.209540  1.0  -0.6129
  O  O485  1  0.546460  0.209550  0.047140  1.0  -0.604
  O  O486  1  0.453540  0.209540  0.952920  1.0  -0.6032
  O  O487  1  0.453580  0.790470  0.047130  1.0  -0.6107
  O  O488  1  0.546410  0.790460  0.952820  1.0  -0.6023
  O  O489  1  0.209550  0.952890  0.453560  1.0  -0.603
  O  O490  1  0.209540  0.047110  0.546490  1.0  -0.6057
  O  O491  1  0.790460  0.952840  0.546390  1.0  -0.609
  O  O492  1  0.790470  0.047150  0.453560  1.0  -0.6017
  O  O493  1  0.953580  0.547160  0.290460  1.0  -0.6001
  O  O494  1  0.046460  0.452890  0.290470  1.0  -0.6028
  O  O495  1  0.046410  0.547110  0.709530  1.0  -0.6099
  O  O496  1  0.953550  0.452830  0.709530  1.0  -0.6106
  O  O497  1  0.290460  0.953540  0.547150  1.0  -0.6099
  O  O498  1  0.290470  0.046450  0.452920  1.0  -0.6101
  O  O499  1  0.709530  0.046420  0.547120  1.0  -0.6016
  O  O500  1  0.709540  0.953580  0.452820  1.0  -0.6024
  O  O501  1  0.547110  0.290460  0.953570  1.0  -0.6127
  O  O502  1  0.452880  0.290470  0.046480  1.0  -0.6132
  O  O503  1  0.547150  0.709540  0.046400  1.0  -0.6039
  O  O504  1  0.452850  0.709530  0.953560  1.0  -0.6032
  O  O505  1  0.046330  0.452760  0.209670  1.0  -0.604
  O  O506  1  0.953730  0.547280  0.209660  1.0  -0.596
  O  O507  1  0.046280  0.547230  0.790330  1.0  -0.5913
  O  O508  1  0.953660  0.452730  0.790330  1.0  -0.5994
  O  O509  1  0.452730  0.790330  0.953690  1.0  -0.6019
  O  O510  1  0.547270  0.790340  0.046260  1.0  -0.5959
  O  O511  1  0.547220  0.209660  0.953700  1.0  -0.5976
  O  O512  1  0.452770  0.209670  0.046360  1.0  -0.5889
  O  O513  1  0.790330  0.046290  0.547250  1.0  -0.5984
  O  O514  1  0.790340  0.953710  0.452710  1.0  -0.5927
  O  O515  1  0.209670  0.046330  0.452800  1.0  -0.5925
  O  O516  1  0.209660  0.953670  0.547250  1.0  -0.5957
