# generated using pymatgen
data_Zn5H31C36N9O13
_symmetry_space_group_name_H-M   'P 1'
_cell_length_a   15.50800000
_cell_length_b   19.22000000
_cell_length_c   25.21100000
_cell_angle_alpha   90.00000000
_cell_angle_beta   90.00000000
_cell_angle_gamma   90.00000000
_symmetry_Int_Tables_number   1
_chemical_formula_structural   Zn5H31C36N9O13
_chemical_formula_sum   'Zn20 H124 C144 N36 O52'
_cell_volume   7514.48545336
_cell_formula_units_Z   4
loop_
 _symmetry_equiv_pos_site_id
 _symmetry_equiv_pos_as_xyz
  1  'x, y, z'
loop_
 _atom_site_type_symbol
 _atom_site_label
 _atom_site_symmetry_multiplicity
 _atom_site_fract_x
 _atom_site_fract_y
 _atom_site_fract_z
 _atom_site_occupancy
 _atom_site_charge
  Zn  Zn1  1  0.053720  0.837820  0.227660  1.0  0.9231
  Zn  Zn2  1  0.025790  0.964320  0.450130  1.0  0.9365
  Zn  Zn3  1  0.446280  0.162180  0.727660  1.0  0.9218
  Zn  Zn4  1  0.474210  0.035680  0.950130  1.0  0.9364
  Zn  Zn5  1  0.946280  0.337820  0.772340  1.0  0.9227
  Zn  Zn6  1  0.974210  0.464320  0.549870  1.0  0.9365
  Zn  Zn7  1  0.553720  0.662180  0.272340  1.0  0.9234
  Zn  Zn8  1  0.525790  0.535680  0.049870  1.0  0.9365
  Zn  Zn9  1  0.946280  0.162180  0.772340  1.0  0.9226
  Zn  Zn10  1  0.974210  0.035680  0.549870  1.0  0.9365
  Zn  Zn11  1  0.553720  0.837820  0.272340  1.0  0.9236
  Zn  Zn12  1  0.525790  0.964320  0.049870  1.0  0.9365
  Zn  Zn13  1  0.053720  0.662180  0.227660  1.0  0.9227
  Zn  Zn14  1  0.025790  0.535680  0.450130  1.0  0.9364
  Zn  Zn15  1  0.446280  0.337820  0.727660  1.0  0.9222
  Zn  Zn16  1  0.474210  0.464320  0.950130  1.0  0.9364
  Zn  Zn17  1  0.182900  0.750000  0.304190  1.0  0.8477
  Zn  Zn18  1  0.317100  0.250000  0.804190  1.0  0.8477
  Zn  Zn19  1  0.817100  0.250000  0.695810  1.0  0.8477
  Zn  Zn20  1  0.682900  0.750000  0.195810  1.0  0.8477
  H  H21  1  0.911300  0.947500  0.320700  1.0  0.142
  H  H22  1  0.970800  0.009000  0.339000  1.0  0.1456
  H  H23  1  0.977000  0.980700  0.280800  1.0  0.1445
  H  H24  1  0.223600  0.808800  0.412700  1.0  0.136
  H  H25  1  0.212300  0.882100  0.439100  1.0  0.1303
  H  H26  1  0.148800  0.821500  0.453400  1.0  0.1351
  H  H27  1  0.964900  0.854600  0.647300  1.0  0.1086
  H  H28  1  0.022300  0.003000  0.095700  1.0  0.136
  H  H29  1  0.064400  0.049300  0.014300  1.0  0.1067
  H  H30  1  0.206900  0.052300  0.990800  1.0  0.104
  H  H31  1  0.266100  0.930300  0.112900  1.0  0.1149
  H  H32  1  0.285500  0.886500  0.270400  1.0  0.1516
  H  H33  1  0.379800  0.908400  0.285300  1.0  0.1421
  H  H34  1  0.313900  0.889000  0.330000  1.0  0.1493
  H  H35  1  0.588700  0.052500  0.820700  1.0  0.1396
  H  H36  1  0.529200  0.991000  0.839000  1.0  0.1456
  H  H37  1  0.523000  0.019300  0.780800  1.0  0.1451
  H  H38  1  0.276400  0.191200  0.912700  1.0  0.1355
  H  H39  1  0.287700  0.117900  0.939100  1.0  0.1323
  H  H40  1  0.351200  0.178500  0.953400  1.0  0.1348
  H  H41  1  0.535100  0.145400  0.147300  1.0  0.109
  H  H42  1  0.477700  0.997000  0.595700  1.0  0.1354
  H  H43  1  0.435600  0.950700  0.514300  1.0  0.1065
  H  H44  1  0.293100  0.947700  0.490800  1.0  0.1039
  H  H45  1  0.233900  0.069700  0.612900  1.0  0.1142
  H  H46  1  0.214500  0.113500  0.770400  1.0  0.1514
  H  H47  1  0.120200  0.091600  0.785300  1.0  0.142
  H  H48  1  0.186100  0.111000  0.830000  1.0  0.1496
  H  H49  1  0.088700  0.447500  0.679300  1.0  0.1401
  H  H50  1  0.029200  0.509000  0.661000  1.0  0.1474
  H  H51  1  0.023000  0.480700  0.719200  1.0  0.1451
  H  H52  1  0.776400  0.308800  0.587300  1.0  0.1351
  H  H53  1  0.787700  0.382100  0.560900  1.0  0.1309
  H  H54  1  0.851200  0.321500  0.546600  1.0  0.1338
  H  H55  1  0.035100  0.354600  0.352700  1.0  0.1087
  H  H56  1  0.977700  0.503000  0.904300  1.0  0.1357
  H  H57  1  0.935600  0.549300  0.985700  1.0  0.1069
  H  H58  1  0.793100  0.552300  0.009200  1.0  0.1038
  H  H59  1  0.733900  0.430300  0.887100  1.0  0.1147
  H  H60  1  0.714500  0.386500  0.729600  1.0  0.1516
  H  H61  1  0.620200  0.408400  0.714700  1.0  0.1412
  H  H62  1  0.686100  0.389000  0.670000  1.0  0.1489
  H  H63  1  0.411300  0.552500  0.179300  1.0  0.1422
  H  H64  1  0.470800  0.491000  0.161000  1.0  0.1458
  H  H65  1  0.477000  0.519300  0.219200  1.0  0.1461
  H  H66  1  0.723600  0.691200  0.087300  1.0  0.1354
  H  H67  1  0.712300  0.617900  0.060900  1.0  0.1311
  H  H68  1  0.648800  0.678500  0.046600  1.0  0.1346
  H  H69  1  0.464900  0.645400  0.852700  1.0  0.1086
  H  H70  1  0.522300  0.497000  0.404300  1.0  0.1367
  H  H71  1  0.564400  0.450700  0.485700  1.0  0.1062
  H  H72  1  0.706900  0.447700  0.509200  1.0  0.104
  H  H73  1  0.766100  0.569700  0.387100  1.0  0.1147
  H  H74  1  0.785500  0.613500  0.229600  1.0  0.1514
  H  H75  1  0.879800  0.591600  0.214700  1.0  0.1431
  H  H76  1  0.813900  0.611000  0.170000  1.0  0.1491
  H  H77  1  0.088700  0.052500  0.679300  1.0  0.1398
  H  H78  1  0.029200  0.991000  0.661000  1.0  0.1462
  H  H79  1  0.023000  0.019300  0.719200  1.0  0.146
  H  H80  1  0.776400  0.191200  0.587300  1.0  0.1348
  H  H81  1  0.787700  0.117900  0.560900  1.0  0.1315
  H  H82  1  0.851200  0.178500  0.546600  1.0  0.1338
  H  H83  1  0.035100  0.145400  0.352700  1.0  0.1087
  H  H84  1  0.977700  0.997000  0.904300  1.0  0.1355
  H  H85  1  0.935600  0.950700  0.985700  1.0  0.1064
  H  H86  1  0.793100  0.947700  0.009200  1.0  0.1038
  H  H87  1  0.733900  0.069700  0.887100  1.0  0.1149
  H  H88  1  0.714500  0.113500  0.729600  1.0  0.152
  H  H89  1  0.620200  0.091600  0.714700  1.0  0.1419
  H  H90  1  0.686100  0.111000  0.670000  1.0  0.1493
  H  H91  1  0.411300  0.947500  0.179300  1.0  0.1422
  H  H92  1  0.470800  0.009000  0.161000  1.0  0.1469
  H  H93  1  0.477000  0.980700  0.219200  1.0  0.1451
  H  H94  1  0.723600  0.808800  0.087300  1.0  0.1362
  H  H95  1  0.712300  0.882100  0.060900  1.0  0.1306
  H  H96  1  0.648800  0.821500  0.046600  1.0  0.1345
  H  H97  1  0.464900  0.854600  0.852700  1.0  0.1086
  H  H98  1  0.522300  0.003000  0.404300  1.0  0.1368
  H  H99  1  0.564400  0.049300  0.485700  1.0  0.1067
  H  H100  1  0.706900  0.052300  0.509200  1.0  0.1039
  H  H101  1  0.766100  0.930300  0.387100  1.0  0.115
  H  H102  1  0.785500  0.886500  0.229600  1.0  0.1514
  H  H103  1  0.879800  0.908400  0.214700  1.0  0.1421
  H  H104  1  0.813900  0.889000  0.170000  1.0  0.1488
  H  H105  1  0.911300  0.552500  0.320700  1.0  0.1419
  H  H106  1  0.970800  0.491000  0.339000  1.0  0.1457
  H  H107  1  0.977000  0.519300  0.280800  1.0  0.1451
  H  H108  1  0.223600  0.691200  0.412700  1.0  0.1351
  H  H109  1  0.212300  0.617900  0.439100  1.0  0.1313
  H  H110  1  0.148800  0.678500  0.453400  1.0  0.1349
  H  H111  1  0.964900  0.645400  0.647300  1.0  0.109
  H  H112  1  0.022300  0.497000  0.095700  1.0  0.1365
  H  H113  1  0.064400  0.450700  0.014300  1.0  0.1062
  H  H114  1  0.206900  0.447700  0.990800  1.0  0.1037
  H  H115  1  0.266100  0.569700  0.112900  1.0  0.1143
  H  H116  1  0.285500  0.613500  0.270400  1.0  0.151
  H  H117  1  0.379800  0.591600  0.285300  1.0  0.143
  H  H118  1  0.313900  0.611000  0.330000  1.0  0.1494
  H  H119  1  0.588700  0.447500  0.820700  1.0  0.1399
  H  H120  1  0.529200  0.509000  0.839000  1.0  0.1457
  H  H121  1  0.523000  0.480700  0.780800  1.0  0.145
  H  H122  1  0.276400  0.308800  0.912700  1.0  0.136
  H  H123  1  0.287700  0.382100  0.939100  1.0  0.1312
  H  H124  1  0.351200  0.321500  0.953400  1.0  0.1352
  H  H125  1  0.535100  0.354600  0.147300  1.0  0.1087
  H  H126  1  0.477700  0.503000  0.595700  1.0  0.1351
  H  H127  1  0.435600  0.549300  0.514300  1.0  0.107
  H  H128  1  0.293100  0.552300  0.490800  1.0  0.104
  H  H129  1  0.233900  0.430300  0.612900  1.0  0.1143
  H  H130  1  0.214500  0.386500  0.770400  1.0  0.1514
  H  H131  1  0.120200  0.408400  0.785300  1.0  0.1415
  H  H132  1  0.186100  0.389000  0.830000  1.0  0.1494
  H  H133  1  0.168500  0.750000  0.210200  1.0  0.3709
  H  H134  1  0.957800  0.750000  0.693700  1.0  0.1107
  H  H135  1  0.005400  0.750000  0.512900  1.0  0.1084
  H  H136  1  0.331500  0.250000  0.710200  1.0  0.3718
  H  H137  1  0.542200  0.250000  0.193700  1.0  0.1105
  H  H138  1  0.494600  0.250000  0.012900  1.0  0.1085
  H  H139  1  0.831500  0.250000  0.789800  1.0  0.3708
  H  H140  1  0.042200  0.250000  0.306300  1.0  0.1101
  H  H141  1  0.994600  0.250000  0.487100  1.0  0.1074
  H  H142  1  0.668500  0.750000  0.289800  1.0  0.3699
  H  H143  1  0.457800  0.750000  0.806300  1.0  0.1099
  H  H144  1  0.505400  0.750000  0.987100  1.0  0.1074
  C  C145  1  0.967400  0.968100  0.317200  1.0  -0.4289
  C  C146  1  0.034100  0.917400  0.334200  1.0  0.4113
  C  C147  1  0.124900  0.863600  0.381700  1.0  0.4212
  C  C148  1  0.182500  0.842100  0.425600  1.0  -0.4155
  C  C149  1  0.993900  0.880200  0.547100  1.0  0.7255
  C  C150  1  0.988200  0.813200  0.575800  1.0  -0.1435
  C  C151  1  0.971900  0.812700  0.629300  1.0  -0.0545
  C  C152  1  0.114500  0.915300  0.160400  1.0  0.7256
  C  C153  1  0.140500  0.956700  0.110600  1.0  -0.1432
  C  C154  1  0.078100  0.997300  0.082900  1.0  -0.1232
  C  C155  1  0.105000  0.027800  0.035900  1.0  -0.1013
  C  C156  1  0.190100  0.027000  0.020500  1.0  -0.0421
  C  C157  1  0.250300  0.989800  0.048000  1.0  -0.1688
  C  C158  1  0.225300  0.955100  0.093500  1.0  0.0097
  C  C159  1  0.342000  0.988200  0.030600  1.0  0.6969
  C  C160  1  0.332300  0.878700  0.294500  1.0  -0.4432
  C  C161  1  0.360000  0.804700  0.291300  1.0  0.4426
  C  C162  1  0.532600  0.031900  0.817200  1.0  -0.4299
  C  C163  1  0.465900  0.082600  0.834200  1.0  0.411
  C  C164  1  0.375100  0.136400  0.881700  1.0  0.422
  C  C165  1  0.317500  0.157900  0.925600  1.0  -0.4158
  C  C166  1  0.506100  0.119800  0.047100  1.0  0.726
  C  C167  1  0.511800  0.186800  0.075800  1.0  -0.1433
  C  C168  1  0.528100  0.187300  0.129300  1.0  -0.0538
  C  C169  1  0.385500  0.084700  0.660400  1.0  0.7252
  C  C170  1  0.359500  0.043300  0.610600  1.0  -0.1442
  C  C171  1  0.421900  0.002700  0.582900  1.0  -0.123
  C  C172  1  0.395000  0.972200  0.535900  1.0  -0.1008
  C  C173  1  0.309900  0.973000  0.520500  1.0  -0.0427
  C  C174  1  0.249700  0.010200  0.548000  1.0  -0.1684
  C  C175  1  0.274700  0.044900  0.593500  1.0  0.0107
  C  C176  1  0.158000  0.011800  0.530600  1.0  0.6971
  C  C177  1  0.167700  0.121300  0.794500  1.0  -0.4439
  C  C178  1  0.140000  0.195300  0.791300  1.0  0.4431
  C  C179  1  0.032600  0.468100  0.682800  1.0  -0.4289
  C  C180  1  0.965900  0.417400  0.665800  1.0  0.4106
  C  C181  1  0.875100  0.363600  0.618300  1.0  0.4213
  C  C182  1  0.817500  0.342100  0.574400  1.0  -0.4151
  C  C183  1  0.006100  0.380200  0.452900  1.0  0.7264
  C  C184  1  0.011800  0.313200  0.424200  1.0  -0.1425
  C  C185  1  0.028100  0.312700  0.370700  1.0  -0.055
  C  C186  1  0.885500  0.415300  0.839600  1.0  0.7233
  C  C187  1  0.859500  0.456700  0.889400  1.0  -0.144
  C  C188  1  0.921900  0.497300  0.917100  1.0  -0.1229
  C  C189  1  0.895000  0.527800  0.964100  1.0  -0.1007
  C  C190  1  0.809900  0.527000  0.979500  1.0  -0.0429
  C  C191  1  0.749700  0.489800  0.952000  1.0  -0.1686
  C  C192  1  0.774700  0.455100  0.906500  1.0  0.0107
  C  C193  1  0.658000  0.488200  0.969400  1.0  0.6973
  C  C194  1  0.667700  0.378700  0.705500  1.0  -0.443
  C  C195  1  0.640000  0.304700  0.708700  1.0  0.4432
  C  C196  1  0.467400  0.531900  0.182800  1.0  -0.4283
  C  C197  1  0.534100  0.582600  0.165800  1.0  0.4106
  C  C198  1  0.624900  0.636400  0.118300  1.0  0.4215
  C  C199  1  0.682500  0.657900  0.074400  1.0  -0.416
  C  C200  1  0.493900  0.619800  0.952900  1.0  0.7257
  C  C201  1  0.488200  0.686800  0.924200  1.0  -0.1429
  C  C202  1  0.471900  0.687300  0.870700  1.0  -0.0534
  C  C203  1  0.614500  0.584700  0.339600  1.0  0.7226
  C  C204  1  0.640500  0.543300  0.389400  1.0  -0.1427
  C  C205  1  0.578100  0.502700  0.417100  1.0  -0.1231
  C  C206  1  0.605000  0.472200  0.464100  1.0  -0.0998
  C  C207  1  0.690100  0.473000  0.479500  1.0  -0.0424
  C  C208  1  0.750300  0.510200  0.452000  1.0  -0.169
  C  C209  1  0.725300  0.544900  0.406500  1.0  0.0099
  C  C210  1  0.842000  0.511800  0.469400  1.0  0.6973
  C  C211  1  0.832300  0.621300  0.205500  1.0  -0.4435
  C  C212  1  0.860000  0.695300  0.208700  1.0  0.4435
  C  C213  1  0.032600  0.031900  0.682800  1.0  -0.4309
  C  C214  1  0.965900  0.082600  0.665800  1.0  0.4105
  C  C215  1  0.875100  0.136400  0.618300  1.0  0.4219
  C  C216  1  0.817500  0.157900  0.574400  1.0  -0.4152
  C  C217  1  0.006100  0.119800  0.452900  1.0  0.7263
  C  C218  1  0.011800  0.186800  0.424200  1.0  -0.1428
  C  C219  1  0.028100  0.187300  0.370700  1.0  -0.0542
  C  C220  1  0.885500  0.084700  0.839600  1.0  0.7228
  C  C221  1  0.859500  0.043300  0.889400  1.0  -0.1437
  C  C222  1  0.921900  0.002700  0.917100  1.0  -0.123
  C  C223  1  0.895000  0.972200  0.964100  1.0  -0.0996
  C  C224  1  0.809900  0.973000  0.979500  1.0  -0.0429
  C  C225  1  0.749700  0.010200  0.952000  1.0  -0.1685
  C  C226  1  0.774700  0.044900  0.906500  1.0  0.011
  C  C227  1  0.658000  0.011800  0.969400  1.0  0.6972
  C  C228  1  0.667700  0.121300  0.705500  1.0  -0.4436
  C  C229  1  0.640000  0.195300  0.708700  1.0  0.4391
  C  C230  1  0.467400  0.968100  0.182800  1.0  -0.4307
  C  C231  1  0.534100  0.917400  0.165800  1.0  0.4109
  C  C232  1  0.624900  0.863600  0.118300  1.0  0.4209
  C  C233  1  0.682500  0.842100  0.074400  1.0  -0.4159
  C  C234  1  0.493900  0.880200  0.952900  1.0  0.7259
  C  C235  1  0.488200  0.813200  0.924200  1.0  -0.1424
  C  C236  1  0.471900  0.812700  0.870700  1.0  -0.0546
  C  C237  1  0.614500  0.915300  0.339600  1.0  0.7232
  C  C238  1  0.640500  0.956700  0.389400  1.0  -0.1432
  C  C239  1  0.578100  0.997300  0.417100  1.0  -0.1228
  C  C240  1  0.605000  0.027800  0.464100  1.0  -0.1008
  C  C241  1  0.690100  0.027000  0.479500  1.0  -0.0427
  C  C242  1  0.750300  0.989800  0.452000  1.0  -0.1689
  C  C243  1  0.725300  0.955100  0.406500  1.0  0.0093
  C  C244  1  0.842000  0.988200  0.469400  1.0  0.6969
  C  C245  1  0.832300  0.878700  0.205500  1.0  -0.4431
  C  C246  1  0.860000  0.804700  0.208700  1.0  0.4386
  C  C247  1  0.967400  0.531900  0.317200  1.0  -0.4307
  C  C248  1  0.034100  0.582600  0.334200  1.0  0.411
  C  C249  1  0.124900  0.636400  0.381700  1.0  0.4216
  C  C250  1  0.182500  0.657900  0.425600  1.0  -0.4155
  C  C251  1  0.993900  0.619800  0.547100  1.0  0.7253
  C  C252  1  0.988200  0.686800  0.575800  1.0  -0.144
  C  C253  1  0.971900  0.687300  0.629300  1.0  -0.0542
  C  C254  1  0.114500  0.584700  0.160400  1.0  0.725
  C  C255  1  0.140500  0.543300  0.110600  1.0  -0.1432
  C  C256  1  0.078100  0.502700  0.082900  1.0  -0.1232
  C  C257  1  0.105000  0.472200  0.035900  1.0  -0.101
  C  C258  1  0.190100  0.473000  0.020500  1.0  -0.0419
  C  C259  1  0.250300  0.510200  0.048000  1.0  -0.1688
  C  C260  1  0.225300  0.544900  0.093500  1.0  0.0095
  C  C261  1  0.342000  0.511800  0.030600  1.0  0.6973
  C  C262  1  0.332300  0.621300  0.294500  1.0  -0.4439
  C  C263  1  0.360000  0.695300  0.291300  1.0  0.4383
  C  C264  1  0.532600  0.468100  0.817200  1.0  -0.431
  C  C265  1  0.465900  0.417400  0.834200  1.0  0.4111
  C  C266  1  0.375100  0.363600  0.881700  1.0  0.4215
  C  C267  1  0.317500  0.342100  0.925600  1.0  -0.4158
  C  C268  1  0.506100  0.380200  0.047100  1.0  0.726
  C  C269  1  0.511800  0.313200  0.075800  1.0  -0.1432
  C  C270  1  0.528100  0.312700  0.129300  1.0  -0.0538
  C  C271  1  0.385500  0.415300  0.660400  1.0  0.7257
  C  C272  1  0.359500  0.456700  0.610600  1.0  -0.1439
  C  C273  1  0.421900  0.497300  0.582900  1.0  -0.1231
  C  C274  1  0.395000  0.527800  0.535900  1.0  -0.1011
  C  C275  1  0.309900  0.527000  0.520500  1.0  -0.0427
  C  C276  1  0.249700  0.489800  0.548000  1.0  -0.1685
  C  C277  1  0.274700  0.455100  0.593500  1.0  0.0111
  C  C278  1  0.158000  0.488200  0.530600  1.0  0.6971
  C  C279  1  0.167700  0.378700  0.794500  1.0  -0.443
  C  C280  1  0.140000  0.304700  0.791300  1.0  0.4379
  C  C281  1  0.965800  0.750000  0.657100  1.0  -0.1203
  C  C282  1  0.995400  0.750000  0.549300  1.0  0.0351
  C  C283  1  0.534200  0.250000  0.157100  1.0  -0.1178
  C  C284  1  0.504600  0.250000  0.049300  1.0  0.0354
  C  C285  1  0.034200  0.250000  0.342900  1.0  -0.1195
  C  C286  1  0.004600  0.250000  0.450700  1.0  0.0358
  C  C287  1  0.465800  0.750000  0.842900  1.0  -0.1185
  C  C288  1  0.495400  0.750000  0.950700  1.0  0.0357
  N  N289  1  0.067500  0.869300  0.303320  1.0  -0.3756
  N  N290  1  0.126800  0.834400  0.334050  1.0  -0.3745
  N  N291  1  0.066400  0.915400  0.383400  1.0  -0.4746
  N  N292  1  0.440500  0.785300  0.281100  1.0  -0.3493
  N  N293  1  0.432500  0.130700  0.803320  1.0  -0.3743
  N  N294  1  0.373200  0.165600  0.834050  1.0  -0.3745
  N  N295  1  0.433600  0.084600  0.883400  1.0  -0.475
  N  N296  1  0.059500  0.214700  0.781100  1.0  -0.3473
  N  N297  1  0.932500  0.369300  0.696680  1.0  -0.3763
  N  N298  1  0.873200  0.334400  0.665950  1.0  -0.3754
  N  N299  1  0.933600  0.415400  0.616600  1.0  -0.474
  N  N300  1  0.559500  0.285300  0.718900  1.0  -0.3478
  N  N301  1  0.567500  0.630700  0.196680  1.0  -0.3768
  N  N302  1  0.626800  0.665600  0.165950  1.0  -0.3755
  N  N303  1  0.566400  0.584600  0.116600  1.0  -0.4751
  N  N304  1  0.940500  0.714700  0.218900  1.0  -0.3497
  N  N305  1  0.932500  0.130700  0.696680  1.0  -0.3764
  N  N306  1  0.873200  0.165600  0.665950  1.0  -0.3755
  N  N307  1  0.933600  0.084600  0.616600  1.0  -0.4748
  N  N308  1  0.559500  0.214700  0.718900  1.0  -0.3479
  N  N309  1  0.567500  0.869300  0.196680  1.0  -0.3765
  N  N310  1  0.626800  0.834400  0.165950  1.0  -0.3751
  N  N311  1  0.566400  0.915400  0.116600  1.0  -0.4742
  N  N312  1  0.940500  0.785300  0.218900  1.0  -0.3499
  N  N313  1  0.067500  0.630700  0.303320  1.0  -0.3748
  N  N314  1  0.126800  0.665600  0.334050  1.0  -0.3741
  N  N315  1  0.066400  0.584600  0.383400  1.0  -0.4754
  N  N316  1  0.440500  0.714700  0.281100  1.0  -0.349
  N  N317  1  0.432500  0.369300  0.803320  1.0  -0.3752
  N  N318  1  0.373200  0.334400  0.834050  1.0  -0.3751
  N  N319  1  0.433600  0.415400  0.883400  1.0  -0.4745
  N  N320  1  0.059500  0.285300  0.781100  1.0  -0.3473
  N  N321  1  0.308200  0.750000  0.298000  1.0  -0.4115
  N  N322  1  0.191800  0.250000  0.798000  1.0  -0.4104
  N  N323  1  0.691800  0.250000  0.702000  1.0  -0.4105
  N  N324  1  0.808200  0.750000  0.202000  1.0  -0.4117
  O  O325  1  0.012400  0.879300  0.499400  1.0  -0.5942
  O  O326  1  0.979500  0.933600  0.573900  1.0  -0.5992
  O  O327  1  0.395300  0.960200  0.061400  1.0  -0.5806
  O  O328  1  0.359100  0.016300  0.987040  1.0  -0.6125
  O  O329  1  0.167100  0.889000  0.186800  1.0  -0.5708
  O  O330  1  0.039200  0.913300  0.171800  1.0  -0.5492
  O  O331  1  0.487600  0.120700  0.999400  1.0  -0.5939
  O  O332  1  0.520500  0.066400  0.073900  1.0  -0.5994
  O  O333  1  0.104700  0.039800  0.561400  1.0  -0.5813
  O  O334  1  0.140900  0.983700  0.487040  1.0  -0.6119
  O  O335  1  0.332900  0.111000  0.686800  1.0  -0.5701
  O  O336  1  0.460800  0.086700  0.671800  1.0  -0.5493
  O  O337  1  0.987600  0.379300  0.500600  1.0  -0.5932
  O  O338  1  0.020500  0.433600  0.426100  1.0  -0.5987
  O  O339  1  0.604700  0.460200  0.938600  1.0  -0.5818
  O  O340  1  0.640900  0.516300  0.012960  1.0  -0.612
  O  O341  1  0.832900  0.389000  0.813200  1.0  -0.5703
  O  O342  1  0.960800  0.413300  0.828200  1.0  -0.5487
  O  O343  1  0.512400  0.620700  0.000600  1.0  -0.5927
  O  O344  1  0.479500  0.566400  0.926100  1.0  -0.5988
  O  O345  1  0.895300  0.539800  0.438600  1.0  -0.5815
  O  O346  1  0.859100  0.483700  0.512960  1.0  -0.6122
  O  O347  1  0.667100  0.611000  0.313200  1.0  -0.5703
  O  O348  1  0.539200  0.586700  0.328200  1.0  -0.5479
  O  O349  1  0.987600  0.120700  0.500600  1.0  -0.5931
  O  O350  1  0.020500  0.066400  0.426100  1.0  -0.5989
  O  O351  1  0.604700  0.039800  0.938600  1.0  -0.5813
  O  O352  1  0.640900  0.983700  0.012960  1.0  -0.6122
  O  O353  1  0.832900  0.111000  0.813200  1.0  -0.5697
  O  O354  1  0.960800  0.086700  0.828200  1.0  -0.5484
  O  O355  1  0.512400  0.879300  0.000600  1.0  -0.5927
  O  O356  1  0.479500  0.933600  0.926100  1.0  -0.5992
  O  O357  1  0.895300  0.960200  0.438600  1.0  -0.5816
  O  O358  1  0.859100  0.016300  0.512960  1.0  -0.6121
  O  O359  1  0.667100  0.889000  0.313200  1.0  -0.5709
  O  O360  1  0.539200  0.913300  0.328200  1.0  -0.5484
  O  O361  1  0.012400  0.620700  0.499400  1.0  -0.5939
  O  O362  1  0.979500  0.566400  0.573900  1.0  -0.599
  O  O363  1  0.395300  0.539800  0.061400  1.0  -0.581
  O  O364  1  0.359100  0.483700  0.987040  1.0  -0.6121
  O  O365  1  0.167100  0.611000  0.186800  1.0  -0.5705
  O  O366  1  0.039200  0.586700  0.171800  1.0  -0.5488
  O  O367  1  0.487600  0.379300  0.999400  1.0  -0.5943
  O  O368  1  0.520500  0.433600  0.073900  1.0  -0.5989
  O  O369  1  0.104700  0.460200  0.561400  1.0  -0.5811
  O  O370  1  0.140900  0.516300  0.487040  1.0  -0.6122
  O  O371  1  0.332900  0.389000  0.686800  1.0  -0.5704
  O  O372  1  0.460800  0.413300  0.671800  1.0  -0.5496
  O  O373  1  0.125100  0.750000  0.233700  1.0  -0.9259
  O  O374  1  0.374900  0.250000  0.733700  1.0  -0.9264
  O  O375  1  0.874900  0.250000  0.766300  1.0  -0.9279
  O  O376  1  0.625100  0.750000  0.266300  1.0  -0.9272
