# generated using pymatgen
data_Zn5H31C36N9O16
_symmetry_space_group_name_H-M   'P 1'
_cell_length_a   15.58500000
_cell_length_b   19.23700000
_cell_length_c   25.30500000
_cell_angle_alpha   90.00000000
_cell_angle_beta   90.00000000
_cell_angle_gamma   90.00000000
_symmetry_Int_Tables_number   1
_chemical_formula_structural   Zn5H31C36N9O16
_chemical_formula_sum   'Zn20 H124 C144 N36 O64'
_cell_volume   7586.65776173
_cell_formula_units_Z   4
loop_
 _symmetry_equiv_pos_site_id
 _symmetry_equiv_pos_as_xyz
  1  'x, y, z'
loop_
 _atom_site_type_symbol
 _atom_site_label
 _atom_site_symmetry_multiplicity
 _atom_site_fract_x
 _atom_site_fract_y
 _atom_site_fract_z
 _atom_site_occupancy
 _atom_site_charge
  Zn  Zn1  1  0.553780  0.337540  0.228870  1.0  0.946
  Zn  Zn2  1  0.528410  0.464380  0.450490  1.0  0.9524
  Zn  Zn3  1  0.946220  0.662460  0.728870  1.0  0.945
  Zn  Zn4  1  0.971590  0.535620  0.950490  1.0  0.9521
  Zn  Zn5  1  0.446220  0.837540  0.771130  1.0  0.9447
  Zn  Zn6  1  0.471590  0.964380  0.549510  1.0  0.9521
  Zn  Zn7  1  0.053780  0.162460  0.271130  1.0  0.9455
  Zn  Zn8  1  0.028410  0.035620  0.049510  1.0  0.9523
  Zn  Zn9  1  0.446220  0.662460  0.771130  1.0  0.9448
  Zn  Zn10  1  0.471590  0.535620  0.549510  1.0  0.9521
  Zn  Zn11  1  0.053780  0.337540  0.271130  1.0  0.9455
  Zn  Zn12  1  0.028410  0.464380  0.049510  1.0  0.9523
  Zn  Zn13  1  0.553780  0.162460  0.228870  1.0  0.9459
  Zn  Zn14  1  0.528410  0.035620  0.450490  1.0  0.9524
  Zn  Zn15  1  0.946220  0.837540  0.728870  1.0  0.9451
  Zn  Zn16  1  0.971590  0.964380  0.950490  1.0  0.9521
  Zn  Zn17  1  0.684210  0.250000  0.303860  1.0  0.9089
  Zn  Zn18  1  0.815790  0.750000  0.803860  1.0  0.9091
  Zn  Zn19  1  0.315790  0.750000  0.696140  1.0  0.909
  Zn  Zn20  1  0.184210  0.250000  0.196140  1.0  0.9088
  H  H21  1  0.517000  0.549100  0.005600  1.0  0.3492
  H  H22  1  0.653000  0.315500  0.450700  1.0  0.1403
  H  H23  1  0.731600  0.316400  0.412000  1.0  0.1364
  H  H24  1  0.706500  0.383800  0.443200  1.0  0.1312
  H  H25  1  0.413600  0.446900  0.320400  1.0  0.1426
  H  H26  1  0.471800  0.508800  0.338700  1.0  0.1424
  H  H27  1  0.479400  0.480000  0.280900  1.0  0.1416
  H  H28  1  0.466300  0.355700  0.647100  1.0  0.1175
  H  H29  1  0.713100  0.558700  0.998700  1.0  0.1023
  H  H30  1  0.531500  0.506400  0.104100  1.0  0.126
  H  H31  1  0.770200  0.432200  0.117000  1.0  0.1085
  H  H32  1  0.803300  0.386700  0.324500  1.0  0.1475
  H  H33  1  0.883100  0.408300  0.290500  1.0  0.1475
  H  H34  1  0.796300  0.389500  0.262700  1.0  0.1584
  H  H35  1  0.983000  0.450900  0.505600  1.0  0.3474
  H  H36  1  0.847000  0.684500  0.950700  1.0  0.1399
  H  H37  1  0.768400  0.683600  0.912000  1.0  0.1367
  H  H38  1  0.793500  0.616200  0.943200  1.0  0.1337
  H  H39  1  0.086400  0.553100  0.820400  1.0  0.1416
  H  H40  1  0.028200  0.491200  0.838700  1.0  0.1422
  H  H41  1  0.020600  0.520000  0.780900  1.0  0.1413
  H  H42  1  0.033700  0.644300  0.147100  1.0  0.1176
  H  H43  1  0.786900  0.441300  0.498700  1.0  0.1024
  H  H44  1  0.968500  0.493600  0.604100  1.0  0.1256
  H  H45  1  0.729800  0.567800  0.617000  1.0  0.1084
  H  H46  1  0.696700  0.613300  0.824500  1.0  0.1491
  H  H47  1  0.616900  0.591700  0.790500  1.0  0.149
  H  H48  1  0.703700  0.610500  0.762700  1.0  0.1583
  H  H49  1  0.483000  0.049100  0.994400  1.0  0.3483
  H  H50  1  0.347000  0.815500  0.549300  1.0  0.1385
  H  H51  1  0.268400  0.816400  0.588000  1.0  0.1363
  H  H52  1  0.293500  0.883800  0.556800  1.0  0.1333
  H  H53  1  0.586400  0.946900  0.679600  1.0  0.1422
  H  H54  1  0.528200  0.008800  0.661300  1.0  0.1431
  H  H55  1  0.520600  0.980000  0.719100  1.0  0.1415
  H  H56  1  0.533700  0.855700  0.352900  1.0  0.1173
  H  H57  1  0.286900  0.058700  0.001300  1.0  0.1019
  H  H58  1  0.468500  0.006400  0.895900  1.0  0.1251
  H  H59  1  0.229800  0.932200  0.883000  1.0  0.1083
  H  H60  1  0.196700  0.886700  0.675500  1.0  0.1474
  H  H61  1  0.116900  0.908300  0.709500  1.0  0.1486
  H  H62  1  0.203700  0.889500  0.737300  1.0  0.1585
  H  H63  1  0.017000  0.950900  0.494400  1.0  0.349
  H  H64  1  0.153000  0.184500  0.049300  1.0  0.1401
  H  H65  1  0.231600  0.183600  0.088000  1.0  0.1366
  H  H66  1  0.206500  0.116200  0.056800  1.0  0.1336
  H  H67  1  0.913600  0.053100  0.179600  1.0  0.143
  H  H68  1  0.971800  0.991200  0.161300  1.0  0.1424
  H  H69  1  0.979400  0.020000  0.219100  1.0  0.1422
  H  H70  1  0.966300  0.144300  0.852900  1.0  0.1171
  H  H71  1  0.213100  0.941300  0.501300  1.0  0.102
  H  H72  1  0.031500  0.993600  0.395900  1.0  0.1257
  H  H73  1  0.270200  0.067800  0.383000  1.0  0.1084
  H  H74  1  0.303300  0.113300  0.175500  1.0  0.1476
  H  H75  1  0.383100  0.091700  0.209500  1.0  0.1481
  H  H76  1  0.296300  0.110500  0.237300  1.0  0.1586
  H  H77  1  0.483000  0.450900  0.994400  1.0  0.3482
  H  H78  1  0.347000  0.684500  0.549300  1.0  0.1389
  H  H79  1  0.268400  0.683600  0.588000  1.0  0.1363
  H  H80  1  0.293500  0.616200  0.556800  1.0  0.1335
  H  H81  1  0.586400  0.553100  0.679600  1.0  0.1419
  H  H82  1  0.528200  0.491200  0.661300  1.0  0.1419
  H  H83  1  0.520600  0.520000  0.719100  1.0  0.1417
  H  H84  1  0.533700  0.644300  0.352900  1.0  0.1172
  H  H85  1  0.286900  0.441300  0.001300  1.0  0.1022
  H  H86  1  0.468500  0.493600  0.895900  1.0  0.1251
  H  H87  1  0.229800  0.567800  0.883000  1.0  0.1087
  H  H88  1  0.196700  0.613300  0.675500  1.0  0.1481
  H  H89  1  0.116900  0.591700  0.709500  1.0  0.1492
  H  H90  1  0.203700  0.610500  0.737300  1.0  0.1587
  H  H91  1  0.017000  0.549100  0.494400  1.0  0.3493
  H  H92  1  0.153000  0.315500  0.049300  1.0  0.1395
  H  H93  1  0.231600  0.316400  0.088000  1.0  0.1364
  H  H94  1  0.206500  0.383800  0.056800  1.0  0.1335
  H  H95  1  0.913600  0.446900  0.179600  1.0  0.1427
  H  H96  1  0.971800  0.508800  0.161300  1.0  0.1433
  H  H97  1  0.979400  0.480000  0.219100  1.0  0.1417
  H  H98  1  0.966300  0.355700  0.852900  1.0  0.1174
  H  H99  1  0.213100  0.558700  0.501300  1.0  0.1018
  H  H100  1  0.031500  0.506400  0.395900  1.0  0.1255
  H  H101  1  0.270200  0.432200  0.383000  1.0  0.1084
  H  H102  1  0.303300  0.386700  0.175500  1.0  0.1471
  H  H103  1  0.383100  0.408300  0.209500  1.0  0.1484
  H  H104  1  0.296300  0.389500  0.237300  1.0  0.1587
  H  H105  1  0.517000  0.950900  0.005600  1.0  0.3491
  H  H106  1  0.653000  0.184500  0.450700  1.0  0.1402
  H  H107  1  0.731600  0.183600  0.412000  1.0  0.1364
  H  H108  1  0.706500  0.116200  0.443200  1.0  0.1319
  H  H109  1  0.413600  0.053100  0.320400  1.0  0.1427
  H  H110  1  0.471800  0.991200  0.338700  1.0  0.1426
  H  H111  1  0.479400  0.020000  0.280900  1.0  0.1412
  H  H112  1  0.466300  0.144300  0.647100  1.0  0.1176
  H  H113  1  0.713100  0.941300  0.998700  1.0  0.1017
  H  H114  1  0.531500  0.993600  0.104100  1.0  0.1263
  H  H115  1  0.770200  0.067800  0.117000  1.0  0.1082
  H  H116  1  0.803300  0.113300  0.324500  1.0  0.1481
  H  H117  1  0.883100  0.091700  0.290500  1.0  0.1483
  H  H118  1  0.796300  0.110500  0.262700  1.0  0.1577
  H  H119  1  0.983000  0.049100  0.505600  1.0  0.3475
  H  H120  1  0.847000  0.815500  0.950700  1.0  0.1402
  H  H121  1  0.768400  0.816400  0.912000  1.0  0.1368
  H  H122  1  0.793500  0.883800  0.943200  1.0  0.133
  H  H123  1  0.086400  0.946900  0.820400  1.0  0.1419
  H  H124  1  0.028200  0.008800  0.838700  1.0  0.1422
  H  H125  1  0.020600  0.980000  0.780900  1.0  0.1418
  H  H126  1  0.033700  0.855700  0.147100  1.0  0.1173
  H  H127  1  0.786900  0.058700  0.498700  1.0  0.1029
  H  H128  1  0.968500  0.006400  0.604100  1.0  0.1256
  H  H129  1  0.729800  0.932200  0.617000  1.0  0.1083
  H  H130  1  0.696700  0.886700  0.824500  1.0  0.1483
  H  H131  1  0.616900  0.908300  0.790500  1.0  0.1495
  H  H132  1  0.703700  0.889500  0.762700  1.0  0.1584
  H  H133  1  0.665900  0.250000  0.209900  1.0  0.3783
  H  H134  1  0.485200  0.250000  0.738500  1.0  0.2452
  H  H135  1  0.508300  0.250000  0.512400  1.0  0.0957
  H  H136  1  0.834100  0.750000  0.709900  1.0  0.3798
  H  H137  1  0.014800  0.750000  0.238500  1.0  0.2455
  H  H138  1  0.991700  0.750000  0.012400  1.0  0.0958
  H  H139  1  0.334100  0.750000  0.790100  1.0  0.3787
  H  H140  1  0.514800  0.750000  0.261500  1.0  0.2421
  H  H141  1  0.491700  0.750000  0.487600  1.0  0.0948
  H  H142  1  0.165900  0.250000  0.290100  1.0  0.3771
  H  H143  1  0.985200  0.250000  0.761500  1.0  0.2417
  H  H144  1  0.008300  0.250000  0.987600  1.0  0.0949
  C  C145  1  0.684600  0.343100  0.425800  1.0  -0.4167
  C  C146  1  0.627300  0.364300  0.381900  1.0  0.4335
  C  C147  1  0.535600  0.417800  0.334900  1.0  0.3618
  C  C148  1  0.469300  0.467800  0.317200  1.0  -0.4357
  C  C149  1  0.492900  0.380200  0.546600  1.0  0.7102
  C  C150  1  0.488800  0.313200  0.574500  1.0  -0.1409
  C  C151  1  0.474500  0.313900  0.629400  1.0  -0.0853
  C  C152  1  0.844700  0.489200  0.033500  1.0  0.7117
  C  C153  1  0.754900  0.495400  0.053800  1.0  -0.1283
  C  C154  1  0.697000  0.533400  0.028500  1.0  -0.1051
  C  C155  1  0.614700  0.536000  0.045400  1.0  0.2617
  C  C156  1  0.587100  0.501700  0.091300  1.0  -0.1433
  C  C157  1  0.647200  0.460900  0.116200  1.0  -0.1146
  C  C158  1  0.729900  0.458600  0.098700  1.0  -0.0119
  C  C159  1  0.620600  0.418500  0.163600  1.0  0.6921
  C  C160  1  0.833400  0.378900  0.291900  1.0  -0.4483
  C  C161  1  0.860400  0.305000  0.288800  1.0  0.4213
  C  C162  1  0.815400  0.656900  0.925800  1.0  -0.4164
  C  C163  1  0.872700  0.635700  0.881900  1.0  0.4338
  C  C164  1  0.964400  0.582200  0.834900  1.0  0.3604
  C  C165  1  0.030700  0.532200  0.817200  1.0  -0.4367
  C  C166  1  0.007100  0.619800  0.046600  1.0  0.7107
  C  C167  1  0.011200  0.686800  0.074500  1.0  -0.1406
  C  C168  1  0.025500  0.686100  0.129400  1.0  -0.0861
  C  C169  1  0.655300  0.510800  0.533500  1.0  0.7117
  C  C170  1  0.745100  0.504600  0.553800  1.0  -0.1299
  C  C171  1  0.803000  0.466600  0.528500  1.0  -0.1041
  C  C172  1  0.885300  0.464000  0.545400  1.0  0.2618
  C  C173  1  0.912900  0.498300  0.591300  1.0  -0.1416
  C  C174  1  0.852800  0.539100  0.616200  1.0  -0.1165
  C  C175  1  0.770100  0.541400  0.598700  1.0  -0.0121
  C  C176  1  0.879400  0.581500  0.663600  1.0  0.692
  C  C177  1  0.666667  0.621100  0.791900  1.0  -0.4504
  C  C178  1  0.639600  0.695000  0.788800  1.0  0.4224
  C  C179  1  0.315400  0.843100  0.574200  1.0  -0.4153
  C  C180  1  0.372700  0.864300  0.618100  1.0  0.4337
  C  C181  1  0.464400  0.917800  0.665100  1.0  0.3607
  C  C182  1  0.530700  0.967800  0.682800  1.0  -0.4353
  C  C183  1  0.507100  0.880200  0.453400  1.0  0.7107
  C  C184  1  0.511200  0.813200  0.425500  1.0  -0.1409
  C  C185  1  0.525500  0.813900  0.370600  1.0  -0.0865
  C  C186  1  0.155300  0.989200  0.966500  1.0  0.7118
  C  C187  1  0.245100  0.995400  0.946200  1.0  -0.1304
  C  C188  1  0.303000  0.033400  0.971500  1.0  -0.1044
  C  C189  1  0.385300  0.036000  0.954600  1.0  0.2615
  C  C190  1  0.412900  0.001700  0.908700  1.0  -0.1403
  C  C191  1  0.352800  0.960900  0.883800  1.0  -0.116
  C  C192  1  0.270100  0.958600  0.901300  1.0  -0.0117
  C  C193  1  0.379400  0.918500  0.836400  1.0  0.6924
  C  C194  1  0.166600  0.878900  0.708100  1.0  -0.4483
  C  C195  1  0.139600  0.805000  0.711200  1.0  0.4213
  C  C196  1  0.184600  0.156900  0.074200  1.0  -0.4164
  C  C197  1  0.127300  0.135700  0.118100  1.0  0.4338
  C  C198  1  0.035600  0.082200  0.165100  1.0  0.3611
  C  C199  1  0.969300  0.032200  0.182800  1.0  -0.435
  C  C200  1  0.992900  0.119800  0.953400  1.0  0.7103
  C  C201  1  0.988800  0.186800  0.925500  1.0  -0.141
  C  C202  1  0.974500  0.186100  0.870600  1.0  -0.0844
  C  C203  1  0.344700  0.010800  0.466500  1.0  0.7121
  C  C204  1  0.254900  0.004600  0.446200  1.0  -0.1278
  C  C205  1  0.197000  0.966600  0.471500  1.0  -0.1054
  C  C206  1  0.114700  0.964000  0.454600  1.0  0.262
  C  C207  1  0.087100  0.998300  0.408700  1.0  -0.1426
  C  C208  1  0.147200  0.039100  0.383800  1.0  -0.1148
  C  C209  1  0.229900  0.041400  0.401300  1.0  -0.0111
  C  C210  1  0.120600  0.081500  0.336400  1.0  0.6927
  C  C211  1  0.333400  0.121100  0.208100  1.0  -0.4488
  C  C212  1  0.360400  0.195000  0.211200  1.0  0.4215
  C  C213  1  0.315400  0.656900  0.574200  1.0  -0.4154
  C  C214  1  0.372700  0.635700  0.618100  1.0  0.434
  C  C215  1  0.464400  0.582200  0.665100  1.0  0.3602
  C  C216  1  0.530700  0.532200  0.682800  1.0  -0.4372
  C  C217  1  0.507100  0.619800  0.453400  1.0  0.7108
  C  C218  1  0.511200  0.686800  0.425500  1.0  -0.1407
  C  C219  1  0.525500  0.686100  0.370600  1.0  -0.0852
  C  C220  1  0.155300  0.510800  0.966500  1.0  0.7115
  C  C221  1  0.245100  0.504600  0.946200  1.0  -0.13
  C  C222  1  0.303000  0.466600  0.971500  1.0  -0.1043
  C  C223  1  0.385300  0.464000  0.954600  1.0  0.2618
  C  C224  1  0.412900  0.498300  0.908700  1.0  -0.1409
  C  C225  1  0.352800  0.539100  0.883800  1.0  -0.1159
  C  C226  1  0.270100  0.541400  0.901300  1.0  -0.0118
  C  C227  1  0.379400  0.581500  0.836400  1.0  0.6926
  C  C228  1  0.166600  0.621100  0.708100  1.0  -0.4489
  C  C229  1  0.139600  0.695000  0.711200  1.0  0.4165
  C  C230  1  0.184600  0.343100  0.074200  1.0  -0.4164
  C  C231  1  0.127300  0.364300  0.118100  1.0  0.4335
  C  C232  1  0.035600  0.417800  0.165100  1.0  0.3615
  C  C233  1  0.969300  0.467800  0.182800  1.0  -0.4368
  C  C234  1  0.992900  0.380200  0.953400  1.0  0.7102
  C  C235  1  0.988800  0.313200  0.925500  1.0  -0.1411
  C  C236  1  0.974500  0.313900  0.870600  1.0  -0.0855
  C  C237  1  0.344700  0.489200  0.466500  1.0  0.7117
  C  C238  1  0.254900  0.495400  0.446200  1.0  -0.1283
  C  C239  1  0.197000  0.533400  0.471500  1.0  -0.1056
  C  C240  1  0.114700  0.536000  0.454600  1.0  0.2617
  C  C241  1  0.087100  0.501700  0.408700  1.0  -0.1423
  C  C242  1  0.147200  0.460900  0.383800  1.0  -0.115
  C  C243  1  0.229900  0.458600  0.401300  1.0  -0.0116
  C  C244  1  0.120600  0.418500  0.336400  1.0  0.6925
  C  C245  1  0.333400  0.378900  0.208100  1.0  -0.4483
  C  C246  1  0.360400  0.305000  0.211200  1.0  0.4165
  C  C247  1  0.684600  0.156900  0.425800  1.0  -0.4167
  C  C248  1  0.627300  0.135700  0.381900  1.0  0.4336
  C  C249  1  0.535600  0.082200  0.334900  1.0  0.3613
  C  C250  1  0.469300  0.032200  0.317200  1.0  -0.4375
  C  C251  1  0.492900  0.119800  0.546600  1.0  0.7102
  C  C252  1  0.488800  0.186800  0.574500  1.0  -0.1409
  C  C253  1  0.474500  0.186100  0.629400  1.0  -0.0856
  C  C254  1  0.844700  0.010800  0.033500  1.0  0.7122
  C  C255  1  0.754900  0.004600  0.053800  1.0  -0.1278
  C  C256  1  0.697000  0.966600  0.028500  1.0  -0.1055
  C  C257  1  0.614700  0.964000  0.045400  1.0  0.262
  C  C258  1  0.587100  0.998300  0.091300  1.0  -0.1431
  C  C259  1  0.647200  0.039100  0.116200  1.0  -0.115
  C  C260  1  0.729900  0.041400  0.098700  1.0  -0.0115
  C  C261  1  0.620600  0.081500  0.163600  1.0  0.6921
  C  C262  1  0.833400  0.121100  0.291900  1.0  -0.4489
  C  C263  1  0.860400  0.195000  0.288800  1.0  0.4163
  C  C264  1  0.815400  0.843100  0.925800  1.0  -0.4163
  C  C265  1  0.872700  0.864300  0.881900  1.0  0.4335
  C  C266  1  0.964400  0.917800  0.834900  1.0  0.361
  C  C267  1  0.030700  0.967800  0.817200  1.0  -0.4376
  C  C268  1  0.007100  0.880200  0.046600  1.0  0.7107
  C  C269  1  0.011200  0.813200  0.074500  1.0  -0.1407
  C  C270  1  0.025500  0.813900  0.129400  1.0  -0.0849
  C  C271  1  0.655300  0.989200  0.533500  1.0  0.7117
  C  C272  1  0.745100  0.995400  0.553800  1.0  -0.1303
  C  C273  1  0.803000  0.033400  0.528500  1.0  -0.1038
  C  C274  1  0.885300  0.036000  0.545400  1.0  0.2617
  C  C275  1  0.912900  0.001700  0.591300  1.0  -0.1417
  C  C276  1  0.852800  0.960900  0.616200  1.0  -0.1159
  C  C277  1  0.770100  0.958600  0.598700  1.0  -0.012
  C  C278  1  0.879400  0.918500  0.663600  1.0  0.6919
  C  C279  1  0.666667  0.878900  0.791900  1.0  -0.4497
  C  C280  1  0.639600  0.805000  0.788800  1.0  0.4172
  C  C281  1  0.497000  0.250000  0.548500  1.0  0.04
  C  C282  1  0.473000  0.250000  0.657400  1.0  0.2547
  C  C283  1  0.003000  0.750000  0.048500  1.0  0.0398
  C  C284  1  0.027000  0.750000  0.157400  1.0  0.2552
  C  C285  1  0.503000  0.750000  0.451500  1.0  0.0394
  C  C286  1  0.527000  0.750000  0.342600  1.0  0.2532
  C  C287  1  0.997000  0.250000  0.951500  1.0  0.0394
  C  C288  1  0.973000  0.250000  0.842600  1.0  0.2545
  N  N289  1  0.628700  0.334600  0.334300  1.0  -0.349
  N  N290  1  0.570100  0.369500  0.304300  1.0  -0.3451
  N  N291  1  0.569100  0.415400  0.383900  1.0  -0.4601
  N  N292  1  0.940900  0.285200  0.278800  1.0  -0.3627
  N  N293  1  0.871300  0.665400  0.834300  1.0  -0.3478
  N  N294  1  0.929900  0.630500  0.804300  1.0  -0.3438
  N  N295  1  0.930900  0.584600  0.883900  1.0  -0.4606
  N  N296  1  0.559100  0.714800  0.778800  1.0  -0.3609
  N  N297  1  0.371300  0.834600  0.665700  1.0  -0.3482
  N  N298  1  0.429900  0.869500  0.695700  1.0  -0.3452
  N  N299  1  0.430900  0.915400  0.616100  1.0  -0.4601
  N  N300  1  0.059100  0.785200  0.721200  1.0  -0.3611
  N  N301  1  0.128700  0.165400  0.165700  1.0  -0.3497
  N  N302  1  0.070100  0.130500  0.195700  1.0  -0.3457
  N  N303  1  0.069100  0.084600  0.116100  1.0  -0.4602
  N  N304  1  0.440900  0.214800  0.221200  1.0  -0.3625
  N  N305  1  0.371300  0.665400  0.665700  1.0  -0.3486
  N  N306  1  0.429900  0.630500  0.695700  1.0  -0.3453
  N  N307  1  0.430900  0.584600  0.616100  1.0  -0.4605
  N  N308  1  0.059100  0.714800  0.721200  1.0  -0.3612
  N  N309  1  0.128700  0.334600  0.165700  1.0  -0.3492
  N  N310  1  0.070100  0.369500  0.195700  1.0  -0.3452
  N  N311  1  0.069100  0.415400  0.116100  1.0  -0.4597
  N  N312  1  0.440900  0.285200  0.221200  1.0  -0.3627
  N  N313  1  0.628700  0.165400  0.334300  1.0  -0.3488
  N  N314  1  0.570100  0.130500  0.304300  1.0  -0.3443
  N  N315  1  0.569100  0.084600  0.383900  1.0  -0.4604
  N  N316  1  0.940900  0.214800  0.278800  1.0  -0.3624
  N  N317  1  0.871300  0.834600  0.834300  1.0  -0.3478
  N  N318  1  0.929900  0.869500  0.804300  1.0  -0.3447
  N  N319  1  0.930900  0.915400  0.883900  1.0  -0.4603
  N  N320  1  0.559100  0.785200  0.778800  1.0  -0.3607
  N  N321  1  0.809000  0.250000  0.296100  1.0  -0.4322
  N  N322  1  0.691000  0.750000  0.796100  1.0  -0.4314
  N  N323  1  0.191000  0.750000  0.703900  1.0  -0.4314
  N  N324  1  0.309000  0.250000  0.203900  1.0  -0.4324
  O  O325  1  0.515500  0.378900  0.498300  1.0  -0.5922
  O  O326  1  0.475800  0.434000  0.571900  1.0  -0.6084
  O  O327  1  0.899400  0.461700  0.062100  1.0  -0.5909
  O  O328  1  0.859500  0.517400  0.989600  1.0  -0.6062
  O  O329  1  0.674900  0.394700  0.192900  1.0  -0.5782
  O  O330  1  0.543500  0.410600  0.172900  1.0  -0.5727
  O  O331  1  0.552900  0.575200  0.018500  1.0  -0.4972
  O  O332  1  0.984500  0.621100  0.998300  1.0  -0.5904
  O  O333  1  0.024200  0.566000  0.071900  1.0  -0.6082
  O  O334  1  0.600600  0.538300  0.562100  1.0  -0.5923
  O  O335  1  0.640500  0.482600  0.489600  1.0  -0.6058
  O  O336  1  0.825100  0.605300  0.692900  1.0  -0.5789
  O  O337  1  0.956500  0.589400  0.672900  1.0  -0.5749
  O  O338  1  0.947100  0.424800  0.518500  1.0  -0.4951
  O  O339  1  0.484500  0.878900  0.501700  1.0  -0.5901
  O  O340  1  0.524200  0.934000  0.428100  1.0  -0.6077
  O  O341  1  0.100600  0.961700  0.937900  1.0  -0.5918
  O  O342  1  0.140500  0.017400  0.010400  1.0  -0.6067
  O  O343  1  0.325100  0.894700  0.807100  1.0  -0.5795
  O  O344  1  0.456500  0.910600  0.827100  1.0  -0.5744
  O  O345  1  0.447100  0.075200  0.981500  1.0  -0.4945
  O  O346  1  0.015500  0.121100  0.001700  1.0  -0.5903
  O  O347  1  0.975800  0.066000  0.928100  1.0  -0.6081
  O  O348  1  0.399400  0.038300  0.437900  1.0  -0.5921
  O  O349  1  0.359500  0.982600  0.510400  1.0  -0.6073
  O  O350  1  0.174900  0.105300  0.307100  1.0  -0.5795
  O  O351  1  0.043500  0.089400  0.327100  1.0  -0.5722
  O  O352  1  0.052900  0.924800  0.481500  1.0  -0.4947
  O  O353  1  0.484500  0.621100  0.501700  1.0  -0.5897
  O  O354  1  0.524200  0.566000  0.428100  1.0  -0.6082
  O  O355  1  0.100600  0.538300  0.937900  1.0  -0.5919
  O  O356  1  0.140500  0.482600  0.010400  1.0  -0.6071
  O  O357  1  0.325100  0.605300  0.807100  1.0  -0.5796
  O  O358  1  0.456500  0.589400  0.827100  1.0  -0.5744
  O  O359  1  0.447100  0.424800  0.981500  1.0  -0.4943
  O  O360  1  0.015500  0.378900  0.001700  1.0  -0.5904
  O  O361  1  0.975800  0.434000  0.928100  1.0  -0.6082
  O  O362  1  0.399400  0.461700  0.437900  1.0  -0.5914
  O  O363  1  0.359500  0.517400  0.510400  1.0  -0.6066
  O  O364  1  0.174900  0.394700  0.307100  1.0  -0.5794
  O  O365  1  0.043500  0.410600  0.327100  1.0  -0.5718
  O  O366  1  0.052900  0.575200  0.481500  1.0  -0.4964
  O  O367  1  0.515500  0.121100  0.498300  1.0  -0.5915
  O  O368  1  0.475800  0.066000  0.571900  1.0  -0.6086
  O  O369  1  0.899400  0.038300  0.062100  1.0  -0.5921
  O  O370  1  0.859500  0.982600  0.989600  1.0  -0.6061
  O  O371  1  0.674900  0.105300  0.192900  1.0  -0.5786
  O  O372  1  0.543500  0.089400  0.172900  1.0  -0.5729
  O  O373  1  0.552900  0.924800  0.018500  1.0  -0.495
  O  O374  1  0.984500  0.878900  0.998300  1.0  -0.5913
  O  O375  1  0.024200  0.934000  0.071900  1.0  -0.6076
  O  O376  1  0.600600  0.961700  0.562100  1.0  -0.5915
  O  O377  1  0.640500  0.017400  0.489600  1.0  -0.6061
  O  O378  1  0.825100  0.894700  0.692900  1.0  -0.5787
  O  O379  1  0.956500  0.910600  0.672900  1.0  -0.575
  O  O380  1  0.947100  0.075200  0.518500  1.0  -0.4955
  O  O381  1  0.624800  0.250000  0.234800  1.0  -0.9339
  O  O382  1  0.454600  0.250000  0.708800  1.0  -0.533
  O  O383  1  0.875200  0.750000  0.734800  1.0  -0.9345
  O  O384  1  0.045400  0.750000  0.208800  1.0  -0.5317
  O  O385  1  0.375200  0.750000  0.765200  1.0  -0.9361
  O  O386  1  0.545400  0.750000  0.291200  1.0  -0.529
  O  O387  1  0.124800  0.250000  0.265200  1.0  -0.9354
  O  O388  1  0.954600  0.250000  0.791200  1.0  -0.5308
