# generated using pymatgen
data_LaP4C10(NO6)2
_symmetry_space_group_name_H-M   'P 1'
_cell_length_a   13.34440000
_cell_length_b   18.78200000
_cell_length_c   5.84900000
_cell_angle_alpha   90.00000000
_cell_angle_beta   97.71100000
_cell_angle_gamma   90.00000000
_symmetry_Int_Tables_number   1
_chemical_formula_structural   LaP4C10(NO6)2
_chemical_formula_sum   'La2 P8 C20 N4 O24'
_cell_volume   1452.70529535
_cell_formula_units_Z   2
loop_
 _symmetry_equiv_pos_site_id
 _symmetry_equiv_pos_as_xyz
  1  'x, y, z'
loop_
 _atom_site_type_symbol
 _atom_site_label
 _atom_site_symmetry_multiplicity
 _atom_site_fract_x
 _atom_site_fract_y
 _atom_site_fract_z
 _atom_site_occupancy
 _atom_site_charge
  La  La1  1  0.628900  0.250000  0.335100  1.0  2.3023
  La  La2  1  0.371100  0.750000  0.664900  1.0  2.3022
  P  P3  1  0.439900  0.085300  0.144000  1.0  1.2005
  P  P4  1  0.733100  0.133600  0.863000  1.0  1.3467
  P  P5  1  0.542400  0.904500  0.780000  1.0  1.1997
  P  P6  1  0.280300  0.865100  0.106300  1.0  1.3298
  P  P7  1  0.560100  0.585300  0.856000  1.0  1.2012
  P  P8  1  0.266900  0.633600  0.137000  1.0  1.3478
  P  P9  1  0.457600  0.404500  0.220000  1.0  1.1993
  P  P10  1  0.719700  0.365100  0.893700  1.0  1.3286
  C  C11  1  0.324800  0.062400  0.261000  1.0  -0.0063
  C  C12  1  0.694000  0.041700  0.845000  1.0  -0.0643
  C  C13  1  0.164300  0.005500  0.318000  1.0  0.025
  C  C14  1  0.155000  0.981300  0.558000  1.0  0.0238
  C  C15  1  0.047000  0.978500  0.604000  1.0  0.0521
  C  C16  1  0.659700  0.920700  0.664000  1.0  -0.0149
  C  C17  1  0.266000  0.957100  0.018000  1.0  -0.0782
  C  C18  1  0.829600  0.981700  0.649000  1.0  0.0632
  C  C19  1  0.862600  0.980800  0.415000  1.0  0.0018
  C  C20  1  0.969700  0.958700  0.404000  1.0  0.0406
  C  C21  1  0.675200  0.562400  0.739000  1.0  -0.005
  C  C22  1  0.306000  0.541700  0.155000  1.0  -0.0629
  C  C23  1  0.835700  0.505500  0.682000  1.0  0.0229
  C  C24  1  0.845000  0.481300  0.442000  1.0  0.0247
  C  C25  1  0.953000  0.478500  0.396000  1.0  0.052
  C  C26  1  0.340300  0.420700  0.336000  1.0  -0.015
  C  C27  1  0.734000  0.457100  0.982000  1.0  -0.0822
  C  C28  1  0.170400  0.481700  0.351000  1.0  0.0629
  C  C29  1  0.137400  0.480800  0.585000  1.0  0.0015
  C  C30  1  0.030300  0.458700  0.596000  1.0  0.0418
  N  N31  1  0.267400  0.992700  0.249000  1.0  0.1258
  N  N32  1  0.718300  0.989700  0.663000  1.0  0.1151
  N  N33  1  0.732600  0.492700  0.751000  1.0  0.1261
  N  N34  1  0.281700  0.489700  0.337000  1.0  0.1132
  O  O35  1  0.423000  0.074300  0.881000  1.0  -0.4785
  O  O36  1  0.463000  0.163600  0.206000  1.0  -0.7181
  O  O37  1  0.524900  0.036600  0.258000  1.0  -0.4762
  O  O38  1  0.842600  0.138000  0.807000  1.0  -0.5308
  O  O39  1  0.661000  0.175800  0.684000  1.0  -0.8198
  O  O40  1  0.729000  0.161300  0.109000  1.0  -0.7961
  O  O41  1  0.563000  0.909100  0.045000  1.0  -0.5027
  O  O42  1  0.503300  0.830400  0.700000  1.0  -0.7723
  O  O43  1  0.466200  0.962400  0.684000  1.0  -0.4152
  O  O44  1  0.173100  0.832600  0.080000  1.0  -0.5433
  O  O45  1  0.330800  0.862800  0.358000  1.0  -0.7392
  O  O46  1  0.347400  0.828400  0.948000  1.0  -0.8701
  O  O47  1  0.577000  0.574300  0.119000  1.0  -0.4817
  O  O48  1  0.537000  0.663600  0.794000  1.0  -0.7167
  O  O49  1  0.475100  0.536600  0.742000  1.0  -0.4778
  O  O50  1  0.157400  0.638000  0.193000  1.0  -0.5301
  O  O51  1  0.339000  0.675800  0.316000  1.0  -0.8207
  O  O52  1  0.271000  0.661300  0.891000  1.0  -0.7943
  O  O53  1  0.437000  0.409100  0.955000  1.0  -0.4989
  O  O54  1  0.496700  0.330400  0.300000  1.0  -0.7719
  O  O55  1  0.533800  0.462400  0.316000  1.0  -0.4141
  O  O56  1  0.826900  0.332600  0.920000  1.0  -0.5444
  O  O57  1  0.669200  0.362800  0.642000  1.0  -0.7385
  O  O58  1  0.652600  0.328400  0.052000  1.0  -0.8705
