# generated using pymatgen
data_LaP4C10(NO6)2
_symmetry_space_group_name_H-M   'P 1'
_cell_length_a   12.50350000
_cell_length_b   18.18740000
_cell_length_c   5.82000000
_cell_angle_alpha   90.00000000
_cell_angle_beta   101.92300000
_cell_angle_gamma   90.00000000
_symmetry_Int_Tables_number   1
_chemical_formula_structural   LaP4C10(NO6)2
_chemical_formula_sum   'La2 P8 C20 N4 O24'
_cell_volume   1294.95072862
_cell_formula_units_Z   2
loop_
 _symmetry_equiv_pos_site_id
 _symmetry_equiv_pos_as_xyz
  1  'x, y, z'
loop_
 _atom_site_type_symbol
 _atom_site_label
 _atom_site_symmetry_multiplicity
 _atom_site_fract_x
 _atom_site_fract_y
 _atom_site_fract_z
 _atom_site_occupancy
 _atom_site_charge
  La  La1  1  0.669500  0.250000  0.376300  1.0  2.3343
  La  La2  1  0.330500  0.750000  0.623700  1.0  2.334
  P  P3  1  0.465200  0.088900  0.180000  1.0  1.2281
  P  P4  1  0.747900  0.112600  0.914000  1.0  1.3776
  P  P5  1  0.553200  0.898600  0.797000  1.0  1.1748
  P  P6  1  0.206800  0.880400  0.073000  1.0  1.2979
  P  P7  1  0.534800  0.588900  0.820000  1.0  1.2299
  P  P8  1  0.252100  0.612600  0.086000  1.0  1.3785
  P  P9  1  0.446800  0.398600  0.203000  1.0  1.1761
  P  P10  1  0.793200  0.380400  0.927000  1.0  1.2999
  C  C11  1  0.348400  0.073200  0.319000  1.0  0.0203
  C  C12  1  0.690900  0.022900  0.833000  1.0  0.0217
  C  C13  1  0.152900  0.087800  0.274000  1.0  0.0279
  C  C14  1  0.123700  0.099200  0.510000  1.0  0.0106
  C  C15  1  0.016600  0.065200  0.524000  1.0  0.1059
  C  C16  1  0.688500  0.894300  0.721000  1.0  -0.0672
  C  C17  1  0.231200  0.978300  0.087000  1.0  -0.0586
  C  C18  1  0.790700  0.986300  0.510000  1.0  0.0456
  C  C19  1  0.903000  0.962700  0.643000  1.0  0.0477
  C  C20  1  0.999000  0.984900  0.541000  1.0  0.0543
  C  C21  1  0.651600  0.573200  0.681000  1.0  0.0218
  C  C22  1  0.309100  0.522900  0.167000  1.0  0.0239
  C  C23  1  0.847100  0.587800  0.726000  1.0  0.0247
  C  C24  1  0.876300  0.599200  0.490000  1.0  0.0121
  C  C25  1  0.983400  0.565200  0.476000  1.0  0.106
  C  C26  1  0.311500  0.394300  0.279000  1.0  -0.0683
  C  C27  1  0.768800  0.478300  0.913000  1.0  -0.0594
  C  C28  1  0.209300  0.486300  0.490000  1.0  0.0398
  C  C29  1  0.097000  0.462700  0.357000  1.0  0.0487
  C  C30  1  0.001000  0.484900  0.459000  1.0  0.0515
  N  N31  1  0.242900  0.032000  0.287000  1.0  0.1036
  N  N32  1  0.699700  0.971500  0.636000  1.0  0.1286
  N  N33  1  0.757100  0.532000  0.713000  1.0  0.1031
  N  N34  1  0.300300  0.471500  0.364000  1.0  0.1277
  O  O35  1  0.429900  0.089200  0.914000  1.0  -0.4663
  O  O36  1  0.499600  0.168200  0.259000  1.0  -0.7416
  O  O37  1  0.549300  0.030100  0.278000  1.0  -0.5013
  O  O38  1  0.873000  0.106600  0.931000  1.0  -0.6065
  O  O39  1  0.695100  0.163000  0.710000  1.0  -0.8228
  O  O40  1  0.718500  0.134100  0.151000  1.0  -0.8361
  O  O41  1  0.567400  0.865900  0.045000  1.0  -0.5271
  O  O42  1  0.483100  0.848600  0.602000  1.0  -0.7135
  O  O43  1  0.507800  0.975900  0.767000  1.0  -0.4666
  O  O44  1  0.082000  0.868000  0.041000  1.0  -0.5462
  O  O45  1  0.268000  0.846800  0.306000  1.0  -0.7854
  O  O46  1  0.248400  0.848700  0.860000  1.0  -0.8417
  O  O47  1  0.570100  0.589200  0.086000  1.0  -0.4717
  O  O48  1  0.500400  0.668200  0.741000  1.0  -0.7411
  O  O49  1  0.450700  0.530100  0.722000  1.0  -0.5004
  O  O50  1  0.127000  0.606600  0.069000  1.0  -0.5979
  O  O51  1  0.304900  0.663000  0.290000  1.0  -0.8198
  O  O52  1  0.281500  0.634100  0.849000  1.0  -0.8379
  O  O53  1  0.432600  0.365900  0.955000  1.0  -0.5231
  O  O54  1  0.516900  0.348600  0.398000  1.0  -0.7106
  O  O55  1  0.492200  0.475900  0.233000  1.0  -0.4669
  O  O56  1  0.918000  0.368000  0.959000  1.0  -0.5488
  O  O57  1  0.732000  0.346800  0.694000  1.0  -0.786
  O  O58  1  0.751600  0.348700  0.140000  1.0  -0.8436
