# generated using pymatgen
data_ZnPH4C7O5
_symmetry_space_group_name_H-M   'P 1'
_cell_length_a   10.76660000
_cell_length_b   16.46200000
_cell_length_c   17.91200000
_cell_angle_alpha   90.00000000
_cell_angle_beta   91.09800000
_cell_angle_gamma   90.00000000
_symmetry_Int_Tables_number   1
_chemical_formula_structural   ZnPH4C7O5
_chemical_formula_sum   'Zn8 P8 H32 C56 O40'
_cell_volume   3174.13580923
_cell_formula_units_Z   8
loop_
 _symmetry_equiv_pos_site_id
 _symmetry_equiv_pos_as_xyz
  1  'x, y, z'
loop_
 _atom_site_type_symbol
 _atom_site_label
 _atom_site_symmetry_multiplicity
 _atom_site_fract_x
 _atom_site_fract_y
 _atom_site_fract_z
 _atom_site_occupancy
 _atom_site_charge
  Zn  Zn1  1  0.078510  0.556720  0.911130  1.0  1.1626
  Zn  Zn2  1  0.615720  0.543340  0.916160  1.0  1.1226
  Zn  Zn3  1  0.421490  0.056720  0.588870  1.0  1.163
  Zn  Zn4  1  0.884280  0.043340  0.583840  1.0  1.1225
  Zn  Zn5  1  0.921490  0.443280  0.088870  1.0  1.1635
  Zn  Zn6  1  0.384280  0.456660  0.083840  1.0  1.1227
  Zn  Zn7  1  0.578510  0.943280  0.411130  1.0  1.1631
  Zn  Zn8  1  0.115720  0.956660  0.416160  1.0  1.1227
  P  P9  1  0.854490  0.431350  0.914500  1.0  1.5423
  P  P10  1  0.155330  0.953750  0.590530  1.0  1.4484
  P  P11  1  0.645510  0.931350  0.585500  1.0  1.5421
  P  P12  1  0.344670  0.453750  0.909470  1.0  1.4495
  P  P13  1  0.145510  0.568650  0.085500  1.0  1.5422
  P  P14  1  0.844670  0.046250  0.409470  1.0  1.4498
  P  P15  1  0.354490  0.068650  0.414500  1.0  1.5425
  P  P16  1  0.655330  0.546250  0.090530  1.0  1.4486
  H  H17  1  0.023200  0.296900  0.901600  1.0  0.1235
  H  H18  1  0.029100  0.180500  0.830400  1.0  0.1248
  H  H19  1  0.747200  0.265500  0.702700  1.0  0.1268
  H  H20  1  0.732500  0.377100  0.781200  1.0  0.1098
  H  H21  1  0.003900  0.947000  0.721500  1.0  0.1172
  H  H22  1  0.964100  0.851800  0.811500  1.0  0.1211
  H  H23  1  0.204600  0.699800  0.718500  1.0  0.1246
  H  H24  1  0.236700  0.792100  0.623700  1.0  0.1235
  H  H25  1  0.476800  0.796900  0.598400  1.0  0.1229
  H  H26  1  0.470900  0.680500  0.669600  1.0  0.1244
  H  H27  1  0.752800  0.765500  0.797300  1.0  0.1284
  H  H28  1  0.767500  0.877100  0.718800  1.0  0.1096
  H  H29  1  0.496100  0.447000  0.778500  1.0  0.1175
  H  H30  1  0.535900  0.351800  0.688500  1.0  0.1219
  H  H31  1  0.295400  0.199800  0.781500  1.0  0.1243
  H  H32  1  0.263300  0.292100  0.876300  1.0  0.1231
  H  H33  1  0.976800  0.703100  0.098400  1.0  0.1229
  H  H34  1  0.970900  0.819500  0.169600  1.0  0.1249
  H  H35  1  0.252800  0.734500  0.297300  1.0  0.1281
  H  H36  1  0.267500  0.622900  0.218800  1.0  0.1102
  H  H37  1  0.996100  0.053000  0.278500  1.0  0.117
  H  H38  1  0.035900  0.148200  0.188500  1.0  0.1204
  H  H39  1  0.795400  0.300200  0.281500  1.0  0.125
  H  H40  1  0.763300  0.207900  0.376300  1.0  0.1231
  H  H41  1  0.523200  0.203100  0.401600  1.0  0.1234
  H  H42  1  0.529100  0.319500  0.330400  1.0  0.1247
  H  H43  1  0.247200  0.234500  0.202700  1.0  0.1268
  H  H44  1  0.232500  0.122900  0.281200  1.0  0.1096
  H  H45  1  0.503900  0.553000  0.221500  1.0  0.117
  H  H46  1  0.464100  0.648200  0.311500  1.0  0.1225
  H  H47  1  0.704600  0.800200  0.218500  1.0  0.1249
  H  H48  1  0.736700  0.707900  0.123700  1.0  0.1233
  C  C49  1  0.873900  0.348300  0.849800  1.0  -0.1644
  C  C50  1  0.965300  0.289400  0.863100  1.0  -0.0414
  C  C51  1  0.970400  0.220400  0.819600  1.0  -0.0557
  C  C52  1  0.887700  0.210600  0.759600  1.0  -0.1073
  C  C53  1  0.800500  0.270400  0.743900  1.0  -0.0632
  C  C54  1  0.793400  0.338100  0.790500  1.0  -0.0309
  C  C55  1  0.888900  0.133000  0.715600  1.0  0.7353
  C  C56  1  0.124400  0.880000  0.662800  1.0  -0.1878
  C  C57  1  0.043100  0.896700  0.719800  1.0  -0.0274
  C  C58  1  0.019500  0.839700  0.773900  1.0  -0.0212
  C  C59  1  0.077400  0.764400  0.773100  1.0  -0.1293
  C  C60  1  0.161500  0.748800  0.718100  1.0  -0.0226
  C  C61  1  0.182900  0.804900  0.662000  1.0  -0.0438
  C  C62  1  0.046100  0.701800  0.831300  1.0  0.7473
  C  C63  1  0.626100  0.848300  0.650200  1.0  -0.1638
  C  C64  1  0.534700  0.789400  0.636900  1.0  -0.0414
  C  C65  1  0.529600  0.720400  0.680400  1.0  -0.0547
  C  C66  1  0.612300  0.710600  0.740400  1.0  -0.1072
  C  C67  1  0.699500  0.770400  0.756100  1.0  -0.0636
  C  C68  1  0.706600  0.838100  0.709500  1.0  -0.0302
  C  C69  1  0.611100  0.633000  0.784400  1.0  0.7362
  C  C70  1  0.375600  0.380000  0.837200  1.0  -0.1878
  C  C71  1  0.456900  0.396700  0.780200  1.0  -0.0278
  C  C72  1  0.480500  0.339700  0.726100  1.0  -0.0222
  C  C73  1  0.422600  0.264400  0.726900  1.0  -0.1302
  C  C74  1  0.338500  0.248800  0.781900  1.0  -0.0217
  C  C75  1  0.317100  0.304900  0.838000  1.0  -0.0448
  C  C76  1  0.453900  0.201800  0.668700  1.0  0.7478
  C  C77  1  0.126100  0.651700  0.150200  1.0  -0.1647
  C  C78  1  0.034700  0.710600  0.136900  1.0  -0.0419
  C  C79  1  0.029600  0.779600  0.180400  1.0  -0.0556
  C  C80  1  0.112300  0.789400  0.240400  1.0  -0.1069
  C  C81  1  0.199500  0.729600  0.256100  1.0  -0.0637
  C  C82  1  0.206600  0.661900  0.209500  1.0  -0.0301
  C  C83  1  0.111100  0.867000  0.284400  1.0  0.7349
  C  C84  1  0.875600  0.120000  0.337200  1.0  -0.1883
  C  C85  1  0.956900  0.103300  0.280200  1.0  -0.0266
  C  C86  1  0.980500  0.160300  0.226100  1.0  -0.0218
  C  C87  1  0.922600  0.235600  0.226900  1.0  -0.1287
  C  C88  1  0.838500  0.251200  0.281900  1.0  -0.0225
  C  C89  1  0.817100  0.195100  0.338000  1.0  -0.0455
  C  C90  1  0.953900  0.298200  0.168700  1.0  0.7482
  C  C91  1  0.373900  0.151700  0.349800  1.0  -0.1644
  C  C92  1  0.465300  0.210600  0.363100  1.0  -0.0415
  C  C93  1  0.470400  0.279600  0.319600  1.0  -0.0561
  C  C94  1  0.387700  0.289400  0.259600  1.0  -0.107
  C  C95  1  0.300500  0.229600  0.243900  1.0  -0.0633
  C  C96  1  0.293400  0.161900  0.290500  1.0  -0.0307
  C  C97  1  0.388900  0.367000  0.215600  1.0  0.7342
  C  C98  1  0.624400  0.620000  0.162800  1.0  -0.1886
  C  C99  1  0.543100  0.603300  0.219800  1.0  -0.0265
  C  C100  1  0.519500  0.660300  0.273900  1.0  -0.0208
  C  C101  1  0.577400  0.735600  0.273100  1.0  -0.1287
  C  C102  1  0.661500  0.751200  0.218100  1.0  -0.0226
  C  C103  1  0.682900  0.695100  0.162000  1.0  -0.0436
  C  C104  1  0.546100  0.798200  0.331300  1.0  0.7464
  O  O105  1  0.714300  0.445640  0.915280  1.0  -0.7609
  O  O106  1  0.922500  0.505800  0.888100  1.0  -0.7673
  O  O107  1  0.903100  0.398300  0.988810  1.0  -0.7608
  O  O108  1  0.859500  0.139100  0.646210  1.0  -0.5836
  O  O109  1  0.914300  0.068600  0.745300  1.0  -0.5054
  O  O110  1  0.953900  0.710200  0.869200  1.0  -0.4871
  O  O111  1  0.118900  0.641000  0.836770  1.0  -0.5822
  O  O112  1  0.063500  0.023640  0.596990  1.0  -0.7947
  O  O113  1  0.288000  0.979700  0.603000  1.0  -0.8697
  O  O114  1  0.135600  0.907490  0.516580  1.0  -0.7223
  O  O115  1  0.785700  0.945640  0.584720  1.0  -0.764
  O  O116  1  0.577500  0.005800  0.611900  1.0  -0.7666
  O  O117  1  0.596900  0.898300  0.511190  1.0  -0.7623
  O  O118  1  0.640500  0.639100  0.853790  1.0  -0.5824
  O  O119  1  0.585700  0.568600  0.754700  1.0  -0.5051
  O  O120  1  0.546100  0.210200  0.630800  1.0  -0.489
  O  O121  1  0.381100  0.141000  0.663230  1.0  -0.5824
  O  O122  1  0.436500  0.523640  0.903010  1.0  -0.7942
  O  O123  1  0.212000  0.479700  0.897000  1.0  -0.8674
  O  O124  1  0.364400  0.407490  0.983420  1.0  -0.7243
  O  O125  1  0.285700  0.554360  0.084720  1.0  -0.7633
  O  O126  1  0.077500  0.494200  0.111900  1.0  -0.768
  O  O127  1  0.096900  0.601700  0.011190  1.0  -0.7629
  O  O128  1  0.140500  0.860900  0.353790  1.0  -0.5827
  O  O129  1  0.085700  0.931400  0.254700  1.0  -0.5047
  O  O130  1  0.046100  0.289800  0.130800  1.0  -0.4891
  O  O131  1  0.881100  0.359000  0.163230  1.0  -0.5831
  O  O132  1  0.936500  0.976360  0.403010  1.0  -0.7929
  O  O133  1  0.712000  0.020300  0.397000  1.0  -0.8671
  O  O134  1  0.864400  0.092510  0.483420  1.0  -0.7238
  O  O135  1  0.214300  0.054360  0.415280  1.0  -0.761
  O  O136  1  0.422500  0.994200  0.388100  1.0  -0.768
  O  O137  1  0.403100  0.101700  0.488810  1.0  -0.7616
  O  O138  1  0.359500  0.360900  0.146210  1.0  -0.5842
  O  O139  1  0.414300  0.431400  0.245300  1.0  -0.5044
  O  O140  1  0.453900  0.789800  0.369200  1.0  -0.4869
  O  O141  1  0.618900  0.859000  0.336770  1.0  -0.5834
  O  O142  1  0.563500  0.476360  0.096990  1.0  -0.7941
  O  O143  1  0.788000  0.520300  0.103000  1.0  -0.8691
  O  O144  1  0.635600  0.592510  0.016580  1.0  -0.723
