# generated using pymatgen
data_CuH16C24(N4O)2
_symmetry_space_group_name_H-M   'P 1'
_cell_length_a   13.90770000
_cell_length_b   16.43550000
_cell_length_c   16.43550000
_cell_angle_alpha   90.00000000
_cell_angle_beta   90.00000000
_cell_angle_gamma   90.00000000
_symmetry_Int_Tables_number   1
_chemical_formula_structural   CuH16C24(N4O)2
_chemical_formula_sum   'Cu4 H64 C96 N32 O8'
_cell_volume   3756.82664506
_cell_formula_units_Z   4
loop_
 _symmetry_equiv_pos_site_id
 _symmetry_equiv_pos_as_xyz
  1  'x, y, z'
loop_
 _atom_site_type_symbol
 _atom_site_label
 _atom_site_symmetry_multiplicity
 _atom_site_fract_x
 _atom_site_fract_y
 _atom_site_fract_z
 _atom_site_occupancy
 _atom_site_charge
  Cu  Cu1  1  0.500000  0.817390  0.817390  1.0  0.3939
  Cu  Cu2  1  0.000000  0.182610  0.182610  1.0  0.3938
  Cu  Cu3  1  0.250000  0.682610  0.317390  1.0  0.3938
  Cu  Cu4  1  0.750000  0.317390  0.682610  1.0  0.3939
  H  H5  1  0.616600  0.967900  0.781300  1.0  0.074
  H  H6  1  0.751100  0.004200  0.709900  1.0  0.1186
  H  H7  1  0.774300  0.774200  0.635000  1.0  0.1207
  H  H8  1  0.642400  0.742600  0.710800  1.0  0.0746
  H  H9  1  0.229200  0.860000  0.370600  1.0  0.0659
  H  H10  1  0.130500  0.938400  0.450200  1.0  0.1213
  H  H11  1  0.975400  0.739300  0.496500  1.0  0.1184
  H  H12  1  0.079100  0.665800  0.418600  1.0  0.0776
  H  H13  1  0.116600  0.032100  0.218700  1.0  0.074
  H  H14  1  0.251100  0.995800  0.290100  1.0  0.1185
  H  H15  1  0.274300  0.225800  0.365000  1.0  0.1201
  H  H16  1  0.142400  0.257400  0.289200  1.0  0.074
  H  H17  1  0.729200  0.140000  0.629400  1.0  0.0664
  H  H18  1  0.630500  0.061600  0.549800  1.0  0.1215
  H  H19  1  0.475400  0.260700  0.503500  1.0  0.1185
  H  H20  1  0.579100  0.334200  0.581400  1.0  0.0762
  H  H21  1  0.366600  0.718700  0.467900  1.0  0.0738
  H  H22  1  0.501100  0.790100  0.504200  1.0  0.1186
  H  H23  1  0.524300  0.865000  0.274200  1.0  0.1221
  H  H24  1  0.392400  0.789200  0.242600  1.0  0.0755
  H  H25  1  0.979200  0.129400  0.360000  1.0  0.0656
  H  H26  1  0.880500  0.049800  0.438400  1.0  0.1219
  H  H27  1  0.725400  0.003500  0.239300  1.0  0.1183
  H  H28  1  0.829100  0.081400  0.165800  1.0  0.0776
  H  H29  1  0.866600  0.281300  0.532100  1.0  0.0732
  H  H30  1  0.001100  0.209900  0.495800  1.0  0.1184
  H  H31  1  0.024300  0.135000  0.725800  1.0  0.1221
  H  H32  1  0.892400  0.210800  0.757400  1.0  0.0753
  H  H33  1  0.479200  0.870600  0.640000  1.0  0.0657
  H  H34  1  0.380500  0.950200  0.561600  1.0  0.1219
  H  H35  1  0.225400  0.996500  0.760700  1.0  0.1181
  H  H36  1  0.329100  0.918600  0.834200  1.0  0.0782
  H  H37  1  0.133400  0.532100  0.281300  1.0  0.0742
  H  H38  1  0.998900  0.495800  0.209900  1.0  0.1186
  H  H39  1  0.975700  0.725800  0.135000  1.0  0.121
  H  H40  1  0.107600  0.757400  0.210800  1.0  0.0733
  H  H41  1  0.520800  0.640000  0.870600  1.0  0.0663
  H  H42  1  0.619500  0.561600  0.950200  1.0  0.1214
  H  H43  1  0.774600  0.760700  0.996500  1.0  0.1186
  H  H44  1  0.670900  0.834200  0.918600  1.0  0.0764
  H  H45  1  0.633400  0.467900  0.718700  1.0  0.074
  H  H46  1  0.498900  0.504200  0.790100  1.0  0.1185
  H  H47  1  0.475700  0.274200  0.865000  1.0  0.1201
  H  H48  1  0.607600  0.242600  0.789200  1.0  0.0746
  H  H49  1  0.020800  0.360000  0.129400  1.0  0.0662
  H  H50  1  0.119500  0.438400  0.049800  1.0  0.1211
  H  H51  1  0.274600  0.239300  0.003500  1.0  0.1181
  H  H52  1  0.170900  0.165800  0.081400  1.0  0.077
  H  H53  1  0.383400  0.781300  0.967900  1.0  0.0739
  H  H54  1  0.248900  0.709900  0.004200  1.0  0.1187
  H  H55  1  0.225700  0.635000  0.774200  1.0  0.1218
  H  H56  1  0.357600  0.710800  0.742600  1.0  0.0755
  H  H57  1  0.770800  0.370600  0.860000  1.0  0.0661
  H  H58  1  0.869500  0.450200  0.938400  1.0  0.1218
  H  H59  1  0.024600  0.496500  0.739300  1.0  0.1182
  H  H60  1  0.920900  0.418600  0.665800  1.0  0.0769
  H  H61  1  0.883400  0.218700  0.032100  1.0  0.0733
  H  H62  1  0.748900  0.290100  0.995800  1.0  0.1186
  H  H63  1  0.725700  0.365000  0.225800  1.0  0.1221
  H  H64  1  0.857600  0.289200  0.257400  1.0  0.0748
  H  H65  1  0.270800  0.629400  0.140000  1.0  0.0659
  H  H66  1  0.369500  0.549800  0.061600  1.0  0.1219
  H  H67  1  0.524600  0.503500  0.260700  1.0  0.118
  H  H68  1  0.420900  0.581400  0.334200  1.0  0.0774
  C  C69  1  0.649840  0.928240  0.752390  1.0  0.1009
  C  C70  1  0.729630  0.950620  0.709070  1.0  -0.1613
  C  C71  1  0.777650  0.892700  0.664210  1.0  0.0145
  C  C72  1  0.743680  0.814480  0.665160  1.0  -0.1725
  C  C73  1  0.664590  0.795980  0.710630  1.0  0.1186
  C  C74  1  0.862370  0.913650  0.615700  1.0  0.339
  C  C75  1  0.978860  0.893650  0.536170  1.0  0.3232
  C  C76  1  0.177750  0.835330  0.396930  1.0  0.1292
  C  C77  1  0.118960  0.882980  0.444580  1.0  -0.1594
  C  C78  1  0.041870  0.846410  0.484180  1.0  -0.0049
  C  C79  1  0.027530  0.765050  0.472200  1.0  -0.1792
  C  C80  1  0.089500  0.721370  0.424700  1.0  0.123
  C  C81  1  0.149840  0.071760  0.247610  1.0  0.1031
  C  C82  1  0.229630  0.049380  0.290930  1.0  -0.1606
  C  C83  1  0.277650  0.107300  0.335790  1.0  0.0145
  C  C84  1  0.243680  0.185520  0.334840  1.0  -0.1723
  C  C85  1  0.164590  0.204020  0.289370  1.0  0.1202
  C  C86  1  0.362370  0.086350  0.384300  1.0  0.3395
  C  C87  1  0.478860  0.106350  0.463830  1.0  0.3238
  C  C88  1  0.677750  0.164670  0.603070  1.0  0.1281
  C  C89  1  0.618960  0.117020  0.555420  1.0  -0.1597
  C  C90  1  0.541870  0.153590  0.515820  1.0  -0.0059
  C  C91  1  0.527530  0.234950  0.527800  1.0  -0.1789
  C  C92  1  0.589500  0.278630  0.575300  1.0  0.128
  C  C93  1  0.399840  0.747610  0.428240  1.0  0.1028
  C  C94  1  0.479630  0.790930  0.450620  1.0  -0.1596
  C  C95  1  0.527650  0.835790  0.392700  1.0  0.0147
  C  C96  1  0.493680  0.834840  0.314480  1.0  -0.172
  C  C97  1  0.414590  0.789370  0.295980  1.0  0.122
  C  C98  1  0.612370  0.884300  0.413650  1.0  0.3382
  C  C99  1  0.728860  0.963830  0.393650  1.0  0.3244
  C  C100  1  0.927750  0.103070  0.335330  1.0  0.1286
  C  C101  1  0.868960  0.055420  0.382980  1.0  -0.1599
  C  C102  1  0.791870  0.015820  0.346410  1.0  -0.0059
  C  C103  1  0.777530  0.027800  0.265050  1.0  -0.1809
  C  C104  1  0.839500  0.075300  0.221370  1.0  0.1232
  C  C105  1  0.899840  0.252390  0.571760  1.0  0.1031
  C  C106  1  0.979630  0.209070  0.549380  1.0  -0.1604
  C  C107  1  0.027650  0.164210  0.607300  1.0  0.0142
  C  C108  1  0.993680  0.165160  0.685520  1.0  -0.1715
  C  C109  1  0.914590  0.210630  0.704020  1.0  0.1214
  C  C110  1  0.112370  0.115700  0.586350  1.0  0.3389
  C  C111  1  0.228860  0.036170  0.606350  1.0  0.3237
  C  C112  1  0.427750  0.896930  0.664670  1.0  0.1285
  C  C113  1  0.368960  0.944580  0.617020  1.0  -0.1591
  C  C114  1  0.291870  0.984180  0.653590  1.0  -0.0067
  C  C115  1  0.277530  0.972200  0.734950  1.0  -0.1832
  C  C116  1  0.339500  0.924700  0.778630  1.0  0.1217
  C  C117  1  0.100160  0.571760  0.252390  1.0  0.1027
  C  C118  1  0.020370  0.549380  0.209070  1.0  -0.1605
  C  C119  1  0.972350  0.607300  0.164210  1.0  0.015
  C  C120  1  0.006320  0.685520  0.165160  1.0  -0.1711
  C  C121  1  0.085410  0.704020  0.210630  1.0  0.1205
  C  C122  1  0.887630  0.586350  0.115700  1.0  0.3416
  C  C123  1  0.771140  0.606350  0.036170  1.0  0.3225
  C  C124  1  0.572250  0.664670  0.896930  1.0  0.1295
  C  C125  1  0.631040  0.617020  0.944580  1.0  -0.1598
  C  C126  1  0.708130  0.653590  0.984180  1.0  -0.0058
  C  C127  1  0.722470  0.734950  0.972200  1.0  -0.1789
  C  C128  1  0.660500  0.778630  0.924700  1.0  0.1247
  C  C129  1  0.600160  0.428240  0.747610  1.0  0.1039
  C  C130  1  0.520370  0.450620  0.790930  1.0  -0.159
  C  C131  1  0.472350  0.392700  0.835790  1.0  0.0148
  C  C132  1  0.506320  0.314480  0.834840  1.0  -0.1715
  C  C133  1  0.585410  0.295980  0.789370  1.0  0.1192
  C  C134  1  0.387630  0.413650  0.884300  1.0  0.3415
  C  C135  1  0.271140  0.393650  0.963830  1.0  0.3228
  C  C136  1  0.072250  0.335330  0.103070  1.0  0.1292
  C  C137  1  0.131040  0.382980  0.055420  1.0  -0.1596
  C  C138  1  0.208130  0.346410  0.015820  1.0  -0.0056
  C  C139  1  0.222470  0.265050  0.027800  1.0  -0.1781
  C  C140  1  0.160500  0.221370  0.075300  1.0  0.123
  C  C141  1  0.350160  0.752390  0.928240  1.0  0.1016
  C  C142  1  0.270370  0.709070  0.950620  1.0  -0.1586
  C  C143  1  0.222350  0.664210  0.892700  1.0  0.015
  C  C144  1  0.256320  0.665160  0.814480  1.0  -0.1709
  C  C145  1  0.335410  0.710630  0.795980  1.0  0.1226
  C  C146  1  0.137630  0.615700  0.913650  1.0  0.3407
  C  C147  1  0.021140  0.536170  0.893650  1.0  0.3229
  C  C148  1  0.822250  0.396930  0.835330  1.0  0.1292
  C  C149  1  0.881040  0.444580  0.882980  1.0  -0.1596
  C  C150  1  0.958130  0.484180  0.846410  1.0  -0.0078
  C  C151  1  0.972470  0.472200  0.765050  1.0  -0.1817
  C  C152  1  0.910500  0.424700  0.721370  1.0  0.1228
  C  C153  1  0.850160  0.247610  0.071760  1.0  0.1031
  C  C154  1  0.770370  0.290930  0.049380  1.0  -0.1597
  C  C155  1  0.722350  0.335790  0.107300  1.0  0.0151
  C  C156  1  0.756320  0.334840  0.185520  1.0  -0.1708
  C  C157  1  0.835410  0.289370  0.204020  1.0  0.1221
  C  C158  1  0.637630  0.384300  0.086350  1.0  0.3407
  C  C159  1  0.521140  0.463830  0.106350  1.0  0.323
  C  C160  1  0.322250  0.603070  0.164670  1.0  0.1298
  C  C161  1  0.381040  0.555420  0.117020  1.0  -0.1592
  C  C162  1  0.458130  0.515820  0.153590  1.0  -0.0061
  C  C163  1  0.472470  0.527800  0.234950  1.0  -0.18
  C  C164  1  0.410500  0.575300  0.278630  1.0  0.1217
  N  N165  1  0.617700  0.851340  0.754810  1.0  -0.3058
  N  N166  1  0.904540  0.982590  0.608820  1.0  -0.3169
  N  N167  1  0.982080  0.969850  0.555220  1.0  -0.2667
  N  N168  1  0.164790  0.755460  0.386540  1.0  -0.3322
  N  N169  1  0.117700  0.148660  0.245190  1.0  -0.3056
  N  N170  1  0.404540  0.017410  0.391180  1.0  -0.3174
  N  N171  1  0.482080  0.030150  0.444780  1.0  -0.2665
  N  N172  1  0.664790  0.244540  0.613460  1.0  -0.332
  N  N173  1  0.367700  0.745190  0.351340  1.0  -0.305
  N  N174  1  0.654540  0.891180  0.482590  1.0  -0.3151
  N  N175  1  0.732080  0.944780  0.469850  1.0  -0.2669
  N  N176  1  0.914790  0.113460  0.255460  1.0  -0.3317
  N  N177  1  0.867700  0.254810  0.648660  1.0  -0.3047
  N  N178  1  0.154540  0.108820  0.517410  1.0  -0.3154
  N  N179  1  0.232080  0.055220  0.530150  1.0  -0.2678
  N  N180  1  0.414790  0.886540  0.744540  1.0  -0.3315
  N  N181  1  0.132300  0.648660  0.254810  1.0  -0.3058
  N  N182  1  0.845460  0.517410  0.108820  1.0  -0.3179
  N  N183  1  0.767920  0.530150  0.055220  1.0  -0.2664
  N  N184  1  0.585210  0.744540  0.886540  1.0  -0.3316
  N  N185  1  0.632300  0.351340  0.745190  1.0  -0.3049
  N  N186  1  0.345460  0.482590  0.891180  1.0  -0.3167
  N  N187  1  0.267920  0.469850  0.944780  1.0  -0.268
  N  N188  1  0.085210  0.255460  0.113460  1.0  -0.3324
  N  N189  1  0.382300  0.754810  0.851340  1.0  -0.3043
  N  N190  1  0.095460  0.608820  0.982590  1.0  -0.317
  N  N191  1  0.017920  0.555220  0.969850  1.0  -0.2673
  N  N192  1  0.835210  0.386540  0.755460  1.0  -0.3319
  N  N193  1  0.882300  0.245190  0.148660  1.0  -0.3043
  N  N194  1  0.595460  0.391180  0.017410  1.0  -0.3158
  N  N195  1  0.517920  0.444780  0.030150  1.0  -0.2687
  N  N196  1  0.335210  0.613460  0.244540  1.0  -0.3316
  O  O197  1  0.903660  0.853820  0.571430  1.0  -0.2249
  O  O198  1  0.403660  0.146180  0.428570  1.0  -0.2236
  O  O199  1  0.653660  0.928570  0.353820  1.0  -0.2236
  O  O200  1  0.153660  0.071430  0.646180  1.0  -0.2236
  O  O201  1  0.846340  0.646180  0.071430  1.0  -0.2243
  O  O202  1  0.346340  0.353820  0.928570  1.0  -0.2255
  O  O203  1  0.096340  0.571430  0.853820  1.0  -0.2247
  O  O204  1  0.596340  0.428570  0.146180  1.0  -0.2243
