# generated using pymatgen
data_CuH18C24N8ClO7
_symmetry_space_group_name_H-M   'P 1'
_cell_length_a   13.73270000
_cell_length_b   16.41890000
_cell_length_c   16.59750000
_cell_angle_alpha   90.00000000
_cell_angle_beta   90.00000000
_cell_angle_gamma   90.00000000
_symmetry_Int_Tables_number   1
_chemical_formula_structural   CuH18C24N8ClO7
_chemical_formula_sum   'Cu4 H72 C96 N32 Cl4 O28'
_cell_volume   3742.33505573
_cell_formula_units_Z   4
loop_
 _symmetry_equiv_pos_site_id
 _symmetry_equiv_pos_as_xyz
  1  'x, y, z'
loop_
 _atom_site_type_symbol
 _atom_site_label
 _atom_site_symmetry_multiplicity
 _atom_site_fract_x
 _atom_site_fract_y
 _atom_site_fract_z
 _atom_site_occupancy
 _atom_site_charge
  Cu  Cu1  1  0.623660  0.561110  0.677960  1.0  0.6776
  Cu  Cu2  1  0.876340  0.438890  0.177960  1.0  0.6782
  Cu  Cu3  1  0.376340  0.061110  0.822040  1.0  0.678
  Cu  Cu4  1  0.123660  0.938890  0.322040  1.0  0.6765
  H  H5  1  0.444400  0.580700  0.581000  1.0  0.1189
  H  H6  1  0.345300  0.499900  0.497400  1.0  0.1082
  H  H7  1  0.508800  0.302500  0.546600  1.0  0.105
  H  H8  1  0.601900  0.380900  0.631600  1.0  0.0667
  H  H9  1  0.018000  0.508500  0.284500  1.0  0.0795
  H  H10  1  0.145900  0.472500  0.366800  1.0  0.1105
  H  H11  1  0.131600  0.245700  0.276400  1.0  0.1061
  H  H12  1  0.990800  0.284000  0.207300  1.0  0.0838
  H  H13  1  0.749100  0.536300  0.531100  1.0  0.0881
  H  H14  1  0.890400  0.462300  0.495300  1.0  0.1048
  H  H15  1  0.905100  0.376100  0.721200  1.0  0.114
  H  H16  1  0.761900  0.453900  0.752200  1.0  0.0786
  H  H17  1  0.362000  0.115000  0.640300  1.0  0.0892
  H  H18  1  0.267200  0.199200  0.566400  1.0  0.0905
  H  H19  1  0.096700  0.241100  0.758500  1.0  0.1185
  H  H20  1  0.193900  0.157700  0.832700  1.0  0.085
  H  H21  1  0.641000  0.704500  0.600400  1.0  0.4141
  H  H22  1  0.607800  0.648400  0.535300  1.0  0.4271
  H  H23  1  0.055600  0.419300  0.081000  1.0  0.1181
  H  H24  1  0.154700  0.500100  0.997400  1.0  0.1082
  H  H25  1  0.991200  0.697500  0.046600  1.0  0.1052
  H  H26  1  0.898100  0.619100  0.131600  1.0  0.0666
  H  H27  1  0.482000  0.491500  0.784500  1.0  0.0792
  H  H28  1  0.354100  0.527500  0.866800  1.0  0.1108
  H  H29  1  0.368400  0.754300  0.776400  1.0  0.1062
  H  H30  1  0.509200  0.716000  0.707300  1.0  0.0841
  H  H31  1  0.750900  0.463700  0.031100  1.0  0.0883
  H  H32  1  0.609600  0.537700  0.995300  1.0  0.1051
  H  H33  1  0.594900  0.623900  0.221200  1.0  0.1144
  H  H34  1  0.738100  0.546100  0.252200  1.0  0.0789
  H  H35  1  0.138000  0.885000  0.140300  1.0  0.0896
  H  H36  1  0.232800  0.800800  0.066400  1.0  0.0908
  H  H37  1  0.403300  0.758900  0.258500  1.0  0.1184
  H  H38  1  0.306100  0.842300  0.332700  1.0  0.0844
  H  H39  1  0.859000  0.295500  0.100400  1.0  0.4138
  H  H40  1  0.892200  0.351600  0.035300  1.0  0.4275
  H  H41  1  0.555600  0.080700  0.919000  1.0  0.1173
  H  H42  1  0.654700  0.999900  0.002600  1.0  0.1078
  H  H43  1  0.491200  0.802500  0.953400  1.0  0.1051
  H  H44  1  0.398100  0.880900  0.868400  1.0  0.0663
  H  H45  1  0.982000  0.008500  0.215500  1.0  0.0797
  H  H46  1  0.854100  0.972500  0.133200  1.0  0.1115
  H  H47  1  0.868400  0.745700  0.223600  1.0  0.1063
  H  H48  1  0.009200  0.784000  0.292700  1.0  0.0843
  H  H49  1  0.250900  0.036300  0.968900  1.0  0.0885
  H  H50  1  0.109600  0.962300  0.004700  1.0  0.1049
  H  H51  1  0.094900  0.876100  0.778800  1.0  0.1135
  H  H52  1  0.238100  0.953900  0.747800  1.0  0.079
  H  H53  1  0.638000  0.615000  0.859700  1.0  0.0907
  H  H54  1  0.732800  0.699200  0.933600  1.0  0.0904
  H  H55  1  0.903300  0.741100  0.741500  1.0  0.1184
  H  H56  1  0.806100  0.657700  0.667300  1.0  0.085
  H  H57  1  0.359000  0.204500  0.899600  1.0  0.4144
  H  H58  1  0.392200  0.148400  0.964700  1.0  0.4279
  H  H59  1  0.944400  0.919300  0.419000  1.0  0.1185
  H  H60  1  0.845300  0.000100  0.502600  1.0  0.1082
  H  H61  1  0.008800  0.197500  0.453400  1.0  0.1051
  H  H62  1  0.101900  0.119100  0.368400  1.0  0.0663
  H  H63  1  0.518000  0.991500  0.715500  1.0  0.0794
  H  H64  1  0.645900  0.027500  0.633200  1.0  0.1111
  H  H65  1  0.631600  0.254300  0.723600  1.0  0.106
  H  H66  1  0.490800  0.216000  0.792700  1.0  0.0837
  H  H67  1  0.249100  0.963700  0.468900  1.0  0.0884
  H  H68  1  0.390400  0.037700  0.504700  1.0  0.1052
  H  H69  1  0.405100  0.123900  0.278800  1.0  0.1138
  H  H70  1  0.261900  0.046100  0.247800  1.0  0.0794
  H  H71  1  0.862000  0.385000  0.359700  1.0  0.0905
  H  H72  1  0.767200  0.300800  0.433600  1.0  0.0902
  H  H73  1  0.596700  0.258900  0.241500  1.0  0.1192
  H  H74  1  0.693900  0.342300  0.167300  1.0  0.0852
  H  H75  1  0.141000  0.795500  0.399600  1.0  0.4135
  H  H76  1  0.107800  0.851600  0.464700  1.0  0.4299
  C  C77  1  0.457900  0.524500  0.573400  1.0  0.1183
  C  C78  1  0.398400  0.475600  0.525100  1.0  -0.0616
  C  C79  1  0.414500  0.392900  0.516600  1.0  -0.03
  C  C80  1  0.493900  0.358500  0.554100  1.0  -0.1659
  C  C81  1  0.550900  0.406200  0.602200  1.0  0.1592
  C  C82  1  0.349700  0.348800  0.464700  1.0  0.3173
  C  C83  1  0.237300  0.329700  0.380500  1.0  0.4149
  C  C84  1  0.040000  0.453600  0.284600  1.0  0.1461
  C  C85  1  0.116700  0.432500  0.333200  1.0  -0.1233
  C  C86  1  0.151200  0.355700  0.333800  1.0  -0.0774
  C  C87  1  0.106600  0.299400  0.281600  1.0  -0.1197
  C  C88  1  0.025500  0.323500  0.237800  1.0  0.1066
  C  C89  1  0.780800  0.503300  0.570100  1.0  0.1272
  C  C90  1  0.864900  0.460000  0.548500  1.0  -0.0804
  C  C91  1  0.907900  0.415300  0.606000  1.0  0.0274
  C  C92  1  0.874000  0.409000  0.681700  1.0  -0.0727
  C  C93  1  0.788100  0.455100  0.699300  1.0  0.1317
  C  C94  1  0.996900  0.366300  0.585600  1.0  0.3093
  C  C95  1  0.113100  0.281400  0.608000  1.0  0.2463
  C  C96  1  0.308600  0.141600  0.665400  1.0  0.124
  C  C97  1  0.251900  0.190700  0.621600  1.0  -0.1059
  C  C98  1  0.171400  0.229600  0.654100  1.0  -0.0096
  C  C99  1  0.151500  0.215900  0.734000  1.0  -0.1491
  C  C100  1  0.209800  0.166600  0.777700  1.0  0.1464
  C  C101  1  0.042100  0.475500  0.073400  1.0  0.1188
  C  C102  1  0.101600  0.524400  0.025100  1.0  -0.0634
  C  C103  1  0.085500  0.607100  0.016600  1.0  -0.0296
  C  C104  1  0.006100  0.641500  0.054100  1.0  -0.1657
  C  C105  1  0.949100  0.593800  0.102200  1.0  0.1597
  C  C106  1  0.150300  0.651200  0.964700  1.0  0.3167
  C  C107  1  0.262700  0.670300  0.880500  1.0  0.4136
  C  C108  1  0.460000  0.546400  0.784600  1.0  0.1452
  C  C109  1  0.383300  0.567500  0.833200  1.0  -0.1229
  C  C110  1  0.348800  0.644300  0.833800  1.0  -0.0777
  C  C111  1  0.393400  0.700600  0.781600  1.0  -0.1194
  C  C112  1  0.474500  0.676500  0.737800  1.0  0.106
  C  C113  1  0.719200  0.496700  0.070100  1.0  0.1264
  C  C114  1  0.635100  0.540000  0.048500  1.0  -0.0814
  C  C115  1  0.592100  0.584700  0.106000  1.0  0.0258
  C  C116  1  0.626000  0.591000  0.181700  1.0  -0.0742
  C  C117  1  0.711900  0.544900  0.199300  1.0  0.1316
  C  C118  1  0.503100  0.633700  0.085600  1.0  0.3095
  C  C119  1  0.386900  0.718600  0.108000  1.0  0.2461
  C  C120  1  0.191400  0.858400  0.165400  1.0  0.1235
  C  C121  1  0.248100  0.809300  0.121600  1.0  -0.1065
  C  C122  1  0.328600  0.770400  0.154100  1.0  -0.0098
  C  C123  1  0.348500  0.784100  0.234000  1.0  -0.1468
  C  C124  1  0.290200  0.833400  0.277700  1.0  0.1466
  C  C125  1  0.542100  0.024500  0.926600  1.0  0.117
  C  C126  1  0.601600  0.975600  0.974900  1.0  -0.0627
  C  C127  1  0.585500  0.892900  0.983400  1.0  -0.0295
  C  C128  1  0.506100  0.858500  0.945900  1.0  -0.1669
  C  C129  1  0.449100  0.906200  0.897800  1.0  0.1599
  C  C130  1  0.650300  0.848800  0.035300  1.0  0.3179
  C  C131  1  0.762700  0.829700  0.119500  1.0  0.4114
  C  C132  1  0.960000  0.953600  0.215400  1.0  0.1454
  C  C133  1  0.883300  0.932500  0.166800  1.0  -0.1234
  C  C134  1  0.848800  0.855700  0.166200  1.0  -0.0789
  C  C135  1  0.893400  0.799400  0.218400  1.0  -0.1198
  C  C136  1  0.974500  0.823500  0.262200  1.0  0.1059
  C  C137  1  0.219200  0.003300  0.929900  1.0  0.1267
  C  C138  1  0.135100  0.960000  0.951500  1.0  -0.0803
  C  C139  1  0.092100  0.915300  0.894000  1.0  0.0261
  C  C140  1  0.126000  0.909000  0.818300  1.0  -0.0742
  C  C141  1  0.211900  0.955100  0.800700  1.0  0.1305
  C  C142  1  0.003100  0.866300  0.914400  1.0  0.3103
  C  C143  1  0.886900  0.781400  0.892000  1.0  0.2475
  C  C144  1  0.691400  0.641600  0.834600  1.0  0.123
  C  C145  1  0.748100  0.690700  0.878400  1.0  -0.1048
  C  C146  1  0.828600  0.729600  0.845900  1.0  -0.01
  C  C147  1  0.848500  0.715900  0.766000  1.0  -0.1464
  C  C148  1  0.790200  0.666667  0.722300  1.0  0.1466
  C  C149  1  0.957900  0.975500  0.426600  1.0  0.118
  C  C150  1  0.898400  0.024400  0.474900  1.0  -0.0622
  C  C151  1  0.914500  0.107100  0.483400  1.0  -0.0292
  C  C152  1  0.993900  0.141500  0.445900  1.0  -0.1651
  C  C153  1  0.050900  0.093800  0.397800  1.0  0.1593
  C  C154  1  0.849700  0.151200  0.535300  1.0  0.3177
  C  C155  1  0.737300  0.170300  0.619500  1.0  0.4135
  C  C156  1  0.540000  0.046400  0.715400  1.0  0.1468
  C  C157  1  0.616700  0.067500  0.666800  1.0  -0.1237
  C  C158  1  0.651200  0.144300  0.666200  1.0  -0.0773
  C  C159  1  0.606600  0.200600  0.718400  1.0  -0.1194
  C  C160  1  0.525500  0.176500  0.762200  1.0  0.1066
  C  C161  1  0.280800  0.996700  0.429900  1.0  0.1277
  C  C162  1  0.364900  0.040000  0.451500  1.0  -0.0788
  C  C163  1  0.407900  0.084700  0.394000  1.0  0.0281
  C  C164  1  0.374000  0.091000  0.318300  1.0  -0.0727
  C  C165  1  0.288100  0.044900  0.300700  1.0  0.1304
  C  C166  1  0.496900  0.133700  0.414400  1.0  0.3072
  C  C167  1  0.613100  0.218600  0.392000  1.0  0.2465
  C  C168  1  0.808600  0.358400  0.334600  1.0  0.1231
  C  C169  1  0.751900  0.309300  0.378400  1.0  -0.1046
  C  C170  1  0.671400  0.270400  0.345900  1.0  -0.0106
  C  C171  1  0.651500  0.284100  0.266000  1.0  -0.147
  C  C172  1  0.709800  0.333400  0.222300  1.0  0.1473
  N  N173  1  0.538700  0.487000  0.610300  1.0  -0.3501
  N  N174  1  0.350400  0.274100  0.442700  1.0  -0.181
  N  N175  1  0.273700  0.259800  0.388500  1.0  -0.3468
  N  N176  1  0.995600  0.399500  0.237500  1.0  -0.2971
  N  N177  1  0.744700  0.499000  0.643800  1.0  -0.2904
  N  N178  1  0.042500  0.359200  0.519700  1.0  -0.2415
  N  N179  1  0.119000  0.307300  0.533000  1.0  -0.2586
  N  N180  1  0.291200  0.128500  0.746900  1.0  -0.3288
  N  N181  1  0.961300  0.513000  0.110300  1.0  -0.3504
  N  N182  1  0.149600  0.725900  0.942700  1.0  -0.185
  N  N183  1  0.226300  0.740200  0.888500  1.0  -0.3465
  N  N184  1  0.504400  0.600500  0.737500  1.0  -0.2976
  N  N185  1  0.755300  0.501000  0.143800  1.0  -0.2896
  N  N186  1  0.457500  0.640800  0.019700  1.0  -0.2424
  N  N187  1  0.381000  0.692700  0.033000  1.0  -0.2579
  N  N188  1  0.208800  0.871500  0.246900  1.0  -0.3279
  N  N189  1  0.461300  0.987000  0.889700  1.0  -0.3507
  N  N190  1  0.649600  0.774100  0.057300  1.0  -0.1826
  N  N191  1  0.726300  0.759800  0.111500  1.0  -0.3481
  N  N192  1  0.004400  0.899500  0.262500  1.0  -0.2976
  N  N193  1  0.255300  0.999000  0.856200  1.0  -0.2909
  N  N194  1  0.957500  0.859200  0.980300  1.0  -0.2433
  N  N195  1  0.881000  0.807300  0.967000  1.0  -0.258
  N  N196  1  0.708800  0.628500  0.753100  1.0  -0.3261
  N  N197  1  0.038700  0.013000  0.389700  1.0  -0.3504
  N  N198  1  0.850400  0.225900  0.557300  1.0  -0.1839
  N  N199  1  0.773700  0.240200  0.611500  1.0  -0.3468
  N  N200  1  0.495600  0.100500  0.762500  1.0  -0.298
  N  N201  1  0.244700  0.001000  0.356200  1.0  -0.2902
  N  N202  1  0.542500  0.140800  0.480300  1.0  -0.2413
  N  N203  1  0.619000  0.192700  0.467000  1.0  -0.2573
  N  N204  1  0.791200  0.371500  0.253100  1.0  -0.3286
  Cl  Cl205  1  0.622100  0.375800  0.871700  1.0  1.6104
  Cl  Cl206  1  0.877900  0.624200  0.371700  1.0  1.6125
  Cl  Cl207  1  0.377900  0.875800  0.628300  1.0  1.6101
  Cl  Cl208  1  0.122100  0.124200  0.128300  1.0  1.6128
  O  O209  1  0.276400  0.389000  0.425700  1.0  -0.2759
  O  O210  1  0.034600  0.319400  0.645100  1.0  -0.2415
  O  O211  1  0.626900  0.653900  0.584500  1.0  -0.83
  O  O212  1  0.223600  0.611000  0.925700  1.0  -0.2774
  O  O213  1  0.465400  0.680600  0.145100  1.0  -0.2437
  O  O214  1  0.873100  0.346100  0.084500  1.0  -0.8257
  O  O215  1  0.723600  0.889000  0.074300  1.0  -0.2753
  O  O216  1  0.965400  0.819400  0.854900  1.0  -0.245
  O  O217  1  0.373100  0.153900  0.915500  1.0  -0.8321
  O  O218  1  0.776400  0.111000  0.574300  1.0  -0.2773
  O  O219  1  0.534600  0.180600  0.354900  1.0  -0.2435
  O  O220  1  0.126900  0.846100  0.415500  1.0  -0.8289
  O  O221  1  0.555000  0.361900  0.807900  1.0  -0.6043
  O  O222  1  0.648800  0.460900  0.870900  1.0  -0.6293
  O  O223  1  0.706700  0.326300  0.860600  1.0  -0.5587
  O  O224  1  0.574400  0.360200  0.947200  1.0  -0.6159
  O  O225  1  0.945000  0.638100  0.307900  1.0  -0.6047
  O  O226  1  0.851200  0.539100  0.370900  1.0  -0.6313
  O  O227  1  0.793300  0.673700  0.360600  1.0  -0.5597
  O  O228  1  0.925600  0.639800  0.447200  1.0  -0.6167
  O  O229  1  0.445000  0.861900  0.692100  1.0  -0.605
  O  O230  1  0.351200  0.960900  0.629100  1.0  -0.6296
  O  O231  1  0.293300  0.826300  0.639400  1.0  -0.5607
  O  O232  1  0.425600  0.860200  0.552800  1.0  -0.6164
  O  O233  1  0.055000  0.138100  0.192100  1.0  -0.6053
  O  O234  1  0.148800  0.039100  0.129100  1.0  -0.629
  O  O235  1  0.206700  0.173700  0.139400  1.0  -0.5602
  O  O236  1  0.074400  0.139800  0.052800  1.0  -0.6154
