# generated using pymatgen
data_CuH18C24N8(ClO5)3
_symmetry_space_group_name_H-M   'P 1'
_cell_length_a   13.90500000
_cell_length_b   16.40300000
_cell_length_c   16.40300000
_cell_angle_alpha   90.00000000
_cell_angle_beta   90.00000000
_cell_angle_gamma   90.00000000
_symmetry_Int_Tables_number   1
_chemical_formula_structural   CuH18C24N8(ClO5)3
_chemical_formula_sum   'Cu4 H72 C96 N32 Cl12 O60'
_cell_volume   3741.25717714
_cell_formula_units_Z   4
loop_
 _symmetry_equiv_pos_site_id
 _symmetry_equiv_pos_as_xyz
  1  'x, y, z'
loop_
 _atom_site_type_symbol
 _atom_site_label
 _atom_site_symmetry_multiplicity
 _atom_site_fract_x
 _atom_site_fract_y
 _atom_site_fract_z
 _atom_site_occupancy
 _atom_site_charge
  Cu  Cu1  1  0.500000  0.682590  0.682590  1.0  0.7878
  Cu  Cu2  1  0.000000  0.317410  0.317410  1.0  0.7865
  Cu  Cu3  1  0.250000  0.817410  0.182590  1.0  0.7868
  Cu  Cu4  1  0.750000  0.182590  0.817410  1.0  0.7872
  H  H5  1  0.475000  0.556000  0.615000  1.0  0.4825
  H  H6  1  0.669700  0.666300  0.580500  1.0  0.1468
  H  H7  1  0.771800  0.737400  0.501600  1.0  0.1636
  H  H8  1  0.617700  0.938500  0.549400  1.0  0.1612
  H  H9  1  0.519300  0.860700  0.626900  1.0  0.1207
  H  H10  1  0.975500  0.772300  0.363900  1.0  0.1782
  H  H11  1  0.354900  0.786800  0.757600  1.0  0.1143
  H  H12  1  0.382700  0.718000  0.532200  1.0  0.1252
  H  H13  1  0.997600  0.003400  0.289300  1.0  0.1502
  H  H14  1  0.975000  0.444000  0.385000  1.0  0.4832
  H  H15  1  0.169700  0.333700  0.419500  1.0  0.1468
  H  H16  1  0.271800  0.262600  0.498400  1.0  0.1638
  H  H17  1  0.117700  0.061500  0.450600  1.0  0.1614
  H  H18  1  0.019300  0.139300  0.373100  1.0  0.1201
  H  H19  1  0.475500  0.227700  0.636100  1.0  0.1784
  H  H20  1  0.854900  0.213200  0.242400  1.0  0.1157
  H  H21  1  0.882700  0.282000  0.467800  1.0  0.1247
  H  H22  1  0.497600  0.996600  0.710700  1.0  0.1507
  H  H23  1  0.225000  0.885000  0.056000  1.0  0.4789
  H  H24  1  0.419700  0.919500  0.166300  1.0  0.1446
  H  H25  1  0.521800  0.998400  0.237400  1.0  0.1633
  H  H26  1  0.367700  0.950600  0.438500  1.0  0.1615
  H  H27  1  0.269300  0.873100  0.360700  1.0  0.1213
  H  H28  1  0.725500  0.136100  0.272300  1.0  0.178
  H  H29  1  0.104900  0.742400  0.286800  1.0  0.1148
  H  H30  1  0.132700  0.967800  0.218000  1.0  0.1242
  H  H31  1  0.747600  0.210700  0.503400  1.0  0.1507
  H  H32  1  0.725000  0.115000  0.944000  1.0  0.482
  H  H33  1  0.919700  0.080500  0.833700  1.0  0.1434
  H  H34  1  0.021800  0.001600  0.762600  1.0  0.1636
  H  H35  1  0.867700  0.049400  0.561500  1.0  0.1619
  H  H36  1  0.769300  0.126900  0.639300  1.0  0.1209
  H  H37  1  0.225500  0.863900  0.727700  1.0  0.1784
  H  H38  1  0.604900  0.257600  0.713200  1.0  0.115
  H  H39  1  0.632700  0.032200  0.782000  1.0  0.1249
  H  H40  1  0.247600  0.789300  0.496600  1.0  0.1507
  H  H41  1  0.275000  0.944000  0.115000  1.0  0.4822
  H  H42  1  0.080300  0.833700  0.080500  1.0  0.1472
  H  H43  1  0.978200  0.762600  0.001600  1.0  0.1638
  H  H44  1  0.132300  0.561500  0.049400  1.0  0.1611
  H  H45  1  0.230700  0.639300  0.126900  1.0  0.1207
  H  H46  1  0.774500  0.727700  0.863900  1.0  0.178
  H  H47  1  0.395100  0.713200  0.257600  1.0  0.1147
  H  H48  1  0.367300  0.782000  0.032200  1.0  0.1252
  H  H49  1  0.752400  0.496600  0.789300  1.0  0.1505
  H  H50  1  0.775000  0.056000  0.885000  1.0  0.4841
  H  H51  1  0.580300  0.166300  0.919500  1.0  0.1473
  H  H52  1  0.478200  0.237400  0.998400  1.0  0.1642
  H  H53  1  0.632300  0.438500  0.950600  1.0  0.1606
  H  H54  1  0.730700  0.360700  0.873100  1.0  0.1201
  H  H55  1  0.274500  0.272300  0.136100  1.0  0.1778
  H  H56  1  0.895100  0.286800  0.742400  1.0  0.1157
  H  H57  1  0.867300  0.218000  0.967800  1.0  0.1246
  H  H58  1  0.252400  0.503400  0.210700  1.0  0.1505
  H  H59  1  0.525000  0.615000  0.556000  1.0  0.4818
  H  H60  1  0.330300  0.580500  0.666300  1.0  0.1441
  H  H61  1  0.228200  0.501600  0.737400  1.0  0.1635
  H  H62  1  0.382300  0.549400  0.938500  1.0  0.1611
  H  H63  1  0.480700  0.626900  0.860700  1.0  0.1211
  H  H64  1  0.024500  0.363900  0.772300  1.0  0.1782
  H  H65  1  0.645100  0.757600  0.786800  1.0  0.1149
  H  H66  1  0.617300  0.532200  0.718000  1.0  0.1243
  H  H67  1  0.002400  0.289300  0.003400  1.0  0.1507
  H  H68  1  0.025000  0.385000  0.444000  1.0  0.4804
  H  H69  1  0.830300  0.419500  0.333700  1.0  0.1449
  H  H70  1  0.728200  0.498400  0.262600  1.0  0.1637
  H  H71  1  0.882300  0.450600  0.061500  1.0  0.1612
  H  H72  1  0.980700  0.373100  0.139300  1.0  0.1208
  H  H73  1  0.524500  0.636100  0.227700  1.0  0.1781
  H  H74  1  0.145100  0.242400  0.213200  1.0  0.1146
  H  H75  1  0.117300  0.467800  0.282000  1.0  0.1244
  H  H76  1  0.502400  0.710700  0.996600  1.0  0.1511
  C  C77  1  0.659900  0.722000  0.573800  1.0  0.1844
  C  C78  1  0.720700  0.764000  0.526700  1.0  -0.0909
  C  C79  1  0.708000  0.847000  0.515100  1.0  0.0005
  C  C80  1  0.629500  0.882900  0.554900  1.0  -0.0865
  C  C81  1  0.571500  0.836300  0.601200  1.0  0.233
  C  C82  1  0.770300  0.894100  0.462800  1.0  0.468
  C  C83  1  0.887500  0.913500  0.382700  1.0  0.463
  C  C84  1  0.972000  0.893700  0.336100  1.0  -0.0013
  C  C85  1  0.006100  0.813100  0.334300  1.0  -0.1385
  C  C86  1  0.334300  0.788600  0.703700  1.0  0.2084
  C  C87  1  0.350400  0.747400  0.572100  1.0  0.2095
  C  C88  1  0.019500  0.949800  0.291000  1.0  -0.0912
  C  C89  1  0.159900  0.278000  0.426200  1.0  0.1839
  C  C90  1  0.220700  0.236000  0.473300  1.0  -0.0928
  C  C91  1  0.208000  0.153000  0.484900  1.0  0.0003
  C  C92  1  0.129500  0.117100  0.445100  1.0  -0.0866
  C  C93  1  0.071500  0.163700  0.398800  1.0  0.2339
  C  C94  1  0.270300  0.105900  0.537200  1.0  0.4676
  C  C95  1  0.387500  0.086500  0.617300  1.0  0.4625
  C  C96  1  0.472000  0.106300  0.663900  1.0  -0.0018
  C  C97  1  0.506100  0.186900  0.665700  1.0  -0.1385
  C  C98  1  0.834300  0.211400  0.296300  1.0  0.2094
  C  C99  1  0.850400  0.252600  0.427900  1.0  0.2095
  C  C100  1  0.519500  0.050200  0.709000  1.0  -0.0896
  C  C101  1  0.409900  0.926200  0.222000  1.0  0.1877
  C  C102  1  0.470700  0.973300  0.264000  1.0  -0.0929
  C  C103  1  0.458000  0.984900  0.347000  1.0  -0.0018
  C  C104  1  0.379500  0.945100  0.382900  1.0  -0.0872
  C  C105  1  0.321500  0.898800  0.336300  1.0  0.2334
  C  C106  1  0.520300  0.037200  0.394100  1.0  0.4673
  C  C107  1  0.637500  0.117300  0.413500  1.0  0.4627
  C  C108  1  0.722000  0.163900  0.393700  1.0  -0.0013
  C  C109  1  0.756100  0.165700  0.313100  1.0  -0.1382
  C  C110  1  0.084300  0.796300  0.288600  1.0  0.2089
  C  C111  1  0.100400  0.927900  0.247400  1.0  0.206
  C  C112  1  0.769500  0.209000  0.449800  1.0  -0.0888
  C  C113  1  0.909900  0.073800  0.778000  1.0  0.1866
  C  C114  1  0.970700  0.026700  0.736000  1.0  -0.0928
  C  C115  1  0.958000  0.015100  0.653000  1.0  -0.0025
  C  C116  1  0.879500  0.054900  0.617100  1.0  -0.0881
  C  C117  1  0.821500  0.101200  0.663700  1.0  0.2332
  C  C118  1  0.020300  0.962800  0.605900  1.0  0.4666
  C  C119  1  0.137500  0.882700  0.586500  1.0  0.463
  C  C120  1  0.222000  0.836100  0.606300  1.0  -0.0012
  C  C121  1  0.256100  0.834300  0.686900  1.0  -0.1399
  C  C122  1  0.584300  0.203700  0.711400  1.0  0.2088
  C  C123  1  0.600400  0.072100  0.752600  1.0  0.2068
  C  C124  1  0.269500  0.791000  0.550200  1.0  -0.0887
  C  C125  1  0.090100  0.778000  0.073800  1.0  0.1841
  C  C126  1  0.029300  0.736000  0.026700  1.0  -0.0924
  C  C127  1  0.042000  0.653000  0.015100  1.0  0.0008
  C  C128  1  0.120500  0.617100  0.054900  1.0  -0.0855
  C  C129  1  0.178500  0.663700  0.101200  1.0  0.2339
  C  C130  1  0.979700  0.605900  0.962800  1.0  0.4681
  C  C131  1  0.862500  0.586500  0.882700  1.0  0.4615
  C  C132  1  0.778000  0.606300  0.836100  1.0  -0.0018
  C  C133  1  0.743900  0.686900  0.834300  1.0  -0.1404
  C  C134  1  0.415700  0.711400  0.203700  1.0  0.2081
  C  C135  1  0.399600  0.752600  0.072100  1.0  0.2089
  C  C136  1  0.730500  0.550200  0.791000  1.0  -0.0895
  C  C137  1  0.590100  0.222000  0.926200  1.0  0.1841
  C  C138  1  0.529300  0.264000  0.973300  1.0  -0.0922
  C  C139  1  0.542000  0.347000  0.984900  1.0  0.0004
  C  C140  1  0.620500  0.382900  0.945100  1.0  -0.0861
  C  C141  1  0.678500  0.336300  0.898800  1.0  0.2332
  C  C142  1  0.479700  0.394100  0.037200  1.0  0.4688
  C  C143  1  0.362500  0.413500  0.117300  1.0  0.4618
  C  C144  1  0.278000  0.393700  0.163900  1.0  -0.0011
  C  C145  1  0.243900  0.313100  0.165700  1.0  -0.1388
  C  C146  1  0.915700  0.288600  0.796300  1.0  0.2089
  C  C147  1  0.899600  0.247400  0.927900  1.0  0.2093
  C  C148  1  0.230500  0.449800  0.209000  1.0  -0.0909
  C  C149  1  0.340100  0.573800  0.722000  1.0  0.1864
  C  C150  1  0.279300  0.526700  0.764000  1.0  -0.0927
  C  C151  1  0.292000  0.515100  0.847000  1.0  -0.0022
  C  C152  1  0.370500  0.554900  0.882900  1.0  -0.0859
  C  C153  1  0.428500  0.601200  0.836300  1.0  0.2332
  C  C154  1  0.229700  0.462800  0.894100  1.0  0.4682
  C  C155  1  0.112500  0.382700  0.913500  1.0  0.4615
  C  C156  1  0.028000  0.336100  0.893700  1.0  -0.0007
  C  C157  1  0.993900  0.334300  0.813100  1.0  -0.14
  C  C158  1  0.665700  0.703700  0.788600  1.0  0.2081
  C  C159  1  0.649600  0.572100  0.747400  1.0  0.2055
  C  C160  1  0.980500  0.291000  0.949800  1.0  -0.0882
  C  C161  1  0.840100  0.426200  0.278000  1.0  0.1858
  C  C162  1  0.779300  0.473300  0.236000  1.0  -0.0949
  C  C163  1  0.792000  0.484900  0.153000  1.0  -0.0012
  C  C164  1  0.870500  0.445100  0.117100  1.0  -0.087
  C  C165  1  0.928500  0.398800  0.163700  1.0  0.2333
  C  C166  1  0.729700  0.537200  0.105900  1.0  0.4672
  C  C167  1  0.612500  0.617300  0.086500  1.0  0.4619
  C  C168  1  0.528000  0.663900  0.106300  1.0  -0.0014
  C  C169  1  0.493900  0.665700  0.186900  1.0  -0.1397
  C  C170  1  0.165700  0.296300  0.211400  1.0  0.209
  C  C171  1  0.149600  0.427900  0.252600  1.0  0.2061
  C  C172  1  0.480500  0.709000  0.050200  1.0  -0.088
  N  N173  1  0.585500  0.757300  0.611600  1.0  -0.2515
  N  N174  1  0.768200  0.969600  0.444700  1.0  -0.2317
  N  N175  1  0.844700  0.982600  0.390300  1.0  -0.2683
  N  N176  1  0.384300  0.745800  0.649000  1.0  -0.2525
  N  N177  1  0.085500  0.242700  0.388400  1.0  -0.251
  N  N178  1  0.268200  0.030400  0.555300  1.0  -0.2313
  N  N179  1  0.344700  0.017400  0.609700  1.0  -0.2704
  N  N180  1  0.884300  0.254200  0.351000  1.0  -0.2524
  N  N181  1  0.335500  0.888400  0.257300  1.0  -0.2508
  N  N182  1  0.518200  0.055300  0.469600  1.0  -0.2318
  N  N183  1  0.594700  0.109700  0.482600  1.0  -0.2659
  N  N184  1  0.134300  0.851000  0.245800  1.0  -0.2526
  N  N185  1  0.835500  0.111600  0.742700  1.0  -0.2504
  N  N186  1  0.018200  0.944700  0.530400  1.0  -0.231
  N  N187  1  0.094700  0.890300  0.517400  1.0  -0.2673
  N  N188  1  0.634300  0.149000  0.754200  1.0  -0.2516
  N  N189  1  0.164500  0.742700  0.111600  1.0  -0.2528
  N  N190  1  0.981800  0.530400  0.944700  1.0  -0.2311
  N  N191  1  0.905300  0.517400  0.890300  1.0  -0.2702
  N  N192  1  0.365700  0.754200  0.149000  1.0  -0.254
  N  N193  1  0.664500  0.257300  0.888400  1.0  -0.2519
  N  N194  1  0.481800  0.469600  0.055300  1.0  -0.232
  N  N195  1  0.405300  0.482600  0.109700  1.0  -0.2697
  N  N196  1  0.865700  0.245800  0.851000  1.0  -0.2551
  N  N197  1  0.414500  0.611600  0.757300  1.0  -0.2516
  N  N198  1  0.231800  0.444700  0.969600  1.0  -0.2315
  N  N199  1  0.155300  0.390300  0.982600  1.0  -0.2656
  N  N200  1  0.615700  0.649000  0.745800  1.0  -0.2539
  N  N201  1  0.914500  0.388400  0.242700  1.0  -0.2519
  N  N202  1  0.731800  0.555300  0.030400  1.0  -0.2308
  N  N203  1  0.655300  0.609700  0.017400  1.0  -0.2665
  N  N204  1  0.115700  0.351000  0.254200  1.0  -0.2544
  Cl  Cl205  1  0.076400  0.691900  0.763100  1.0  0.8227
  Cl  Cl206  1  0.576400  0.308100  0.236900  1.0  0.8251
  Cl  Cl207  1  0.826400  0.736900  0.191900  1.0  0.8226
  Cl  Cl208  1  0.326400  0.263100  0.808100  1.0  0.8237
  Cl  Cl209  1  0.673600  0.808100  0.263100  1.0  0.8226
  Cl  Cl210  1  0.173600  0.191900  0.736900  1.0  0.8201
  Cl  Cl211  1  0.923600  0.763100  0.691900  1.0  0.8186
  Cl  Cl212  1  0.423600  0.236900  0.308100  1.0  0.8217
  Cl  Cl213  1  0.500000  0.871730  0.871730  1.0  0.8231
  Cl  Cl214  1  0.000000  0.128270  0.128270  1.0  0.8238
  Cl  Cl215  1  0.250000  0.628270  0.371730  1.0  0.8239
  Cl  Cl216  1  0.750000  0.371730  0.628270  1.0  0.8217
  O  O217  1  0.845490  0.854350  0.427540  1.0  -0.1815
  O  O218  1  0.345490  0.145650  0.572460  1.0  -0.1791
  O  O219  1  0.595490  0.072460  0.354350  1.0  -0.1842
  O  O220  1  0.095490  0.927540  0.645650  1.0  -0.182
  O  O221  1  0.904510  0.645650  0.927540  1.0  -0.1797
  O  O222  1  0.404510  0.354350  0.072460  1.0  -0.1817
  O  O223  1  0.154510  0.427540  0.854350  1.0  -0.1832
  O  O224  1  0.654510  0.572460  0.145650  1.0  -0.1822
  O  O225  1  0.500000  0.586400  0.586400  1.0  -0.7594
  O  O226  1  0.000000  0.413600  0.413600  1.0  -0.762
  O  O227  1  0.250000  0.913600  0.086400  1.0  -0.7626
  O  O228  1  0.750000  0.086400  0.913600  1.0  -0.7595
  O  O229  1  0.049700  0.622600  0.793600  1.0  -0.4577
  O  O230  1  0.079100  0.646300  0.647300  1.0  -0.5401
  O  O231  1  0.130900  0.679600  0.695900  1.0  -0.4312
  O  O232  1  0.127900  0.733600  0.818000  1.0  -0.4823
  O  O233  1  0.549700  0.377400  0.206400  1.0  -0.4555
  O  O234  1  0.579100  0.353700  0.352700  1.0  -0.5428
  O  O235  1  0.630900  0.320400  0.304100  1.0  -0.4313
  O  O236  1  0.627900  0.266400  0.182000  1.0  -0.4807
  O  O237  1  0.799700  0.706400  0.122600  1.0  -0.459
  O  O238  1  0.829100  0.852700  0.146300  1.0  -0.5408
  O  O239  1  0.880900  0.804100  0.179600  1.0  -0.43
  O  O240  1  0.877900  0.682000  0.233600  1.0  -0.48
  O  O241  1  0.299700  0.293600  0.877400  1.0  -0.4588
  O  O242  1  0.329100  0.147300  0.853700  1.0  -0.541
  O  O243  1  0.380900  0.195900  0.820400  1.0  -0.4291
  O  O244  1  0.377900  0.318000  0.766400  1.0  -0.4803
  O  O245  1  0.700300  0.877400  0.293600  1.0  -0.4558
  O  O246  1  0.670900  0.853700  0.147300  1.0  -0.5414
  O  O247  1  0.619100  0.820400  0.195900  1.0  -0.4305
  O  O248  1  0.622100  0.766400  0.318000  1.0  -0.4801
  O  O249  1  0.200300  0.122600  0.706400  1.0  -0.457
  O  O250  1  0.170900  0.146300  0.852700  1.0  -0.5413
  O  O251  1  0.119100  0.179600  0.804100  1.0  -0.4299
  O  O252  1  0.122100  0.233600  0.682000  1.0  -0.4804
  O  O253  1  0.950300  0.793600  0.622600  1.0  -0.4585
  O  O254  1  0.920900  0.647300  0.646300  1.0  -0.5396
  O  O255  1  0.869100  0.695900  0.679600  1.0  -0.4298
  O  O256  1  0.872100  0.818000  0.733600  1.0  -0.4792
  O  O257  1  0.450300  0.206400  0.377400  1.0  -0.459
  O  O258  1  0.420900  0.352700  0.353700  1.0  -0.5391
  O  O259  1  0.369100  0.304100  0.320400  1.0  -0.4284
  O  O260  1  0.372100  0.182000  0.266400  1.0  -0.4799
  O  O261  1  0.415700  0.919900  0.845500  1.0  -0.6161
  O  O262  1  0.473800  0.787900  0.866900  1.0  -0.5336
  O  O263  1  0.584300  0.845500  0.919900  1.0  -0.6118
  O  O264  1  0.526200  0.866900  0.787900  1.0  -0.5349
  O  O265  1  0.915700  0.080100  0.154500  1.0  -0.618
  O  O266  1  0.973800  0.212100  0.133100  1.0  -0.5327
  O  O267  1  0.084300  0.154500  0.080100  1.0  -0.6152
  O  O268  1  0.026200  0.133100  0.212100  1.0  -0.5339
  O  O269  1  0.165700  0.654500  0.419900  1.0  -0.6157
  O  O270  1  0.223800  0.633100  0.287900  1.0  -0.5381
  O  O271  1  0.334300  0.580100  0.345500  1.0  -0.6147
  O  O272  1  0.276200  0.712100  0.366900  1.0  -0.5298
  O  O273  1  0.665700  0.345500  0.580100  1.0  -0.6163
  O  O274  1  0.723800  0.366900  0.712100  1.0  -0.5353
  O  O275  1  0.834300  0.419900  0.654500  1.0  -0.6154
  O  O276  1  0.776200  0.287900  0.633100  1.0  -0.5305
