# generated using pymatgen
data_UZnH8C10(NF2)2
_symmetry_space_group_name_H-M   'P 1'
_cell_length_a   9.46300000
_cell_length_b   16.75340000
_cell_length_c   22.38360000
_cell_angle_alpha   90.00000000
_cell_angle_beta   90.00000000
_cell_angle_gamma   91.89900000
_symmetry_Int_Tables_number   1
_chemical_formula_structural   UZnH8C10(NF2)2
_chemical_formula_sum   'U8 Zn8 H64 C80 N16 F32'
_cell_volume   3546.68935650
_cell_formula_units_Z   8
loop_
 _symmetry_equiv_pos_site_id
 _symmetry_equiv_pos_as_xyz
  1  'x, y, z'
loop_
 _atom_site_type_symbol
 _atom_site_label
 _atom_site_symmetry_multiplicity
 _atom_site_fract_x
 _atom_site_fract_y
 _atom_site_fract_z
 _atom_site_occupancy
 _atom_site_charge
  U  U1  1  0.542980  0.135580  0.251890  1.0  1.6269
  U  U2  1  0.905730  0.264930  0.253920  1.0  1.3359
  U  U3  1  0.457020  0.364420  0.751890  1.0  1.6269
  U  U4  1  0.094270  0.235070  0.753920  1.0  1.3359
  U  U5  1  0.457020  0.864420  0.748110  1.0  1.6271
  U  U6  1  0.094270  0.735070  0.746080  1.0  1.3355
  U  U7  1  0.542980  0.635580  0.248110  1.0  1.627
  U  U8  1  0.905730  0.764930  0.246080  1.0  1.3356
  Zn  Zn9  1  0.841130  0.005460  0.254050  1.0  0.9652
  Zn  Zn10  1  0.226040  0.949580  0.246310  1.0  0.9723
  Zn  Zn11  1  0.158870  0.494540  0.754050  1.0  0.9653
  Zn  Zn12  1  0.773960  0.550420  0.746310  1.0  0.9717
  Zn  Zn13  1  0.158870  0.994540  0.745950  1.0  0.9656
  Zn  Zn14  1  0.773960  0.050420  0.753690  1.0  0.9717
  Zn  Zn15  1  0.841130  0.505460  0.245950  1.0  0.9654
  Zn  Zn16  1  0.226040  0.449580  0.253690  1.0  0.9722
  H  H17  1  0.974500  0.090300  0.150300  1.0  0.0639
  H  H18  1  0.952900  0.104800  0.049000  1.0  0.1134
  H  H19  1  0.664400  0.930900  0.153400  1.0  0.0762
  H  H20  1  0.630900  0.942800  0.052900  1.0  0.1172
  H  H21  1  0.860200  0.144200  0.964300  1.0  0.1145
  H  H22  1  0.854400  0.150300  0.862600  1.0  0.0446
  H  H23  1  0.690200  0.922900  0.954700  1.0  0.1137
  H  H24  1  0.695100  0.933600  0.853200  1.0  0.0502
  H  H25  1  0.952000  0.110600  0.354300  1.0  0.0526
  H  H26  1  0.927200  0.130200  0.454900  1.0  0.1172
  H  H27  1  0.696600  0.923600  0.358900  1.0  0.077
  H  H28  1  0.666500  0.936600  0.459700  1.0  0.1149
  H  H29  1  0.975100  0.097600  0.548700  1.0  0.1109
  H  H30  1  0.960300  0.104100  0.650700  1.0  0.0433
  H  H31  1  0.584900  0.996800  0.547100  1.0  0.1073
  H  H32  1  0.579700  0.008400  0.648600  1.0  0.0546
  H  H33  1  0.025500  0.409700  0.650300  1.0  0.0642
  H  H34  1  0.047100  0.395200  0.549000  1.0  0.113
  H  H35  1  0.335600  0.569100  0.653400  1.0  0.0764
  H  H36  1  0.369100  0.557200  0.552900  1.0  0.1172
  H  H37  1  0.139800  0.355800  0.464300  1.0  0.1146
  H  H38  1  0.145600  0.349700  0.362600  1.0  0.045
  H  H39  1  0.309800  0.577100  0.454700  1.0  0.1149
  H  H40  1  0.304900  0.566400  0.353200  1.0  0.0494
  H  H41  1  0.048000  0.389400  0.854300  1.0  0.0542
  H  H42  1  0.072800  0.369800  0.954900  1.0  0.1174
  H  H43  1  0.303400  0.576400  0.858900  1.0  0.0775
  H  H44  1  0.333500  0.563400  0.959700  1.0  0.1152
  H  H45  1  0.024900  0.402400  0.048700  1.0  0.1107
  H  H46  1  0.039700  0.395900  0.150700  1.0  0.0438
  H  H47  1  0.415100  0.503200  0.047100  1.0  0.1069
  H  H48  1  0.420300  0.491600  0.148600  1.0  0.0545
  H  H49  1  0.025500  0.909700  0.849700  1.0  0.0641
  H  H50  1  0.047100  0.895200  0.951000  1.0  0.1131
  H  H51  1  0.335600  0.069100  0.846600  1.0  0.0768
  H  H52  1  0.369100  0.057200  0.947100  1.0  0.1171
  H  H53  1  0.139800  0.855800  0.035700  1.0  0.1141
  H  H54  1  0.145600  0.849700  0.137400  1.0  0.0454
  H  H55  1  0.309800  0.077100  0.045300  1.0  0.1153
  H  H56  1  0.304900  0.066400  0.146800  1.0  0.0487
  H  H57  1  0.048000  0.889400  0.645700  1.0  0.054
  H  H58  1  0.072800  0.869800  0.545100  1.0  0.1172
  H  H59  1  0.303400  0.076400  0.641100  1.0  0.0773
  H  H60  1  0.333500  0.063400  0.540300  1.0  0.1152
  H  H61  1  0.024900  0.902400  0.451300  1.0  0.1105
  H  H62  1  0.039700  0.895900  0.349300  1.0  0.0435
  H  H63  1  0.415100  0.003200  0.452900  1.0  0.107
  H  H64  1  0.420300  0.991600  0.351400  1.0  0.055
  H  H65  1  0.974500  0.590300  0.349700  1.0  0.0639
  H  H66  1  0.952900  0.604800  0.451000  1.0  0.1134
  H  H67  1  0.664400  0.430900  0.346600  1.0  0.0762
  H  H68  1  0.630900  0.442800  0.447100  1.0  0.1171
  H  H69  1  0.860200  0.644200  0.535700  1.0  0.1146
  H  H70  1  0.854400  0.650300  0.637400  1.0  0.0455
  H  H71  1  0.690200  0.422900  0.545300  1.0  0.114
  H  H72  1  0.695100  0.433600  0.646800  1.0  0.0494
  H  H73  1  0.952000  0.610600  0.145700  1.0  0.0519
  H  H74  1  0.927200  0.630200  0.045100  1.0  0.1173
  H  H75  1  0.696600  0.423600  0.141100  1.0  0.077
  H  H76  1  0.666500  0.436600  0.040300  1.0  0.1147
  H  H77  1  0.975100  0.597600  0.951300  1.0  0.1106
  H  H78  1  0.960300  0.604100  0.849300  1.0  0.0432
  H  H79  1  0.584900  0.496800  0.952900  1.0  0.1073
  H  H80  1  0.579700  0.508400  0.851400  1.0  0.0547
  C  C81  1  0.905400  0.060050  0.130200  1.0  0.1552
  C  C82  1  0.893000  0.069060  0.069370  1.0  -0.221
  C  C83  1  0.722500  0.966500  0.131980  1.0  0.133
  C  C84  1  0.702500  0.972780  0.071650  1.0  -0.2247
  C  C85  1  0.790100  0.024350  0.038430  1.0  0.0731
  C  C86  1  0.779000  0.032010  0.972390  1.0  0.0808
  C  C87  1  0.826100  0.100280  0.942640  1.0  -0.2123
  C  C88  1  0.822900  0.103540  0.881430  1.0  0.1695
  C  C89  1  0.726600  0.969450  0.936980  1.0  -0.2208
  C  C90  1  0.728600  0.976640  0.875990  1.0  0.16
  C  C91  1  0.893600  0.075320  0.375870  1.0  0.1508
  C  C92  1  0.879700  0.087450  0.436380  1.0  -0.2391
  C  C93  1  0.744000  0.965390  0.378630  1.0  0.1505
  C  C94  1  0.725000  0.972940  0.439210  1.0  -0.2197
  C  C95  1  0.793600  0.035060  0.469680  1.0  0.0789
  C  C96  1  0.782400  0.044560  0.535430  1.0  0.0789
  C  C97  1  0.894200  0.077980  0.568090  1.0  -0.2233
  C  C98  1  0.884200  0.081890  0.629420  1.0  0.1685
  C  C99  1  0.663000  0.018650  0.567190  1.0  -0.229
  C  C100  1  0.660900  0.025410  0.628180  1.0  0.1639
  C  C101  1  0.094600  0.439950  0.630200  1.0  0.1553
  C  C102  1  0.107000  0.430940  0.569370  1.0  -0.2206
  C  C103  1  0.277500  0.533500  0.631980  1.0  0.1316
  C  C104  1  0.297500  0.527220  0.571650  1.0  -0.224
  C  C105  1  0.209900  0.475650  0.538430  1.0  0.0737
  C  C106  1  0.221000  0.467990  0.472390  1.0  0.079
  C  C107  1  0.173900  0.399720  0.442640  1.0  -0.2145
  C  C108  1  0.177100  0.396460  0.381430  1.0  0.1698
  C  C109  1  0.273400  0.530550  0.436980  1.0  -0.2216
  C  C110  1  0.271400  0.523360  0.375990  1.0  0.1592
  C  C111  1  0.106400  0.424680  0.875870  1.0  0.1524
  C  C112  1  0.120300  0.412550  0.936380  1.0  -0.2402
  C  C113  1  0.256000  0.534610  0.878630  1.0  0.1502
  C  C114  1  0.275000  0.527060  0.939210  1.0  -0.2208
  C  C115  1  0.206400  0.464940  0.969680  1.0  0.0794
  C  C116  1  0.217600  0.455440  0.035430  1.0  0.0791
  C  C117  1  0.105800  0.422020  0.068090  1.0  -0.223
  C  C118  1  0.115800  0.418110  0.129420  1.0  0.1693
  C  C119  1  0.337000  0.481350  0.067190  1.0  -0.2292
  C  C120  1  0.339100  0.474590  0.128180  1.0  0.164
  C  C121  1  0.094600  0.939950  0.869800  1.0  0.1548
  C  C122  1  0.107000  0.930940  0.930630  1.0  -0.2219
  C  C123  1  0.277500  0.033500  0.868020  1.0  0.1322
  C  C124  1  0.297500  0.027220  0.928350  1.0  -0.2244
  C  C125  1  0.209900  0.975650  0.961570  1.0  0.0734
  C  C126  1  0.221000  0.967990  0.027610  1.0  0.0787
  C  C127  1  0.173900  0.899720  0.057360  1.0  -0.2134
  C  C128  1  0.177100  0.896460  0.118570  1.0  0.1707
  C  C129  1  0.273400  0.030550  0.063020  1.0  -0.2213
  C  C130  1  0.271400  0.023360  0.124010  1.0  0.1594
  C  C131  1  0.106400  0.924680  0.624130  1.0  0.1522
  C  C132  1  0.120300  0.912550  0.563620  1.0  -0.2398
  C  C133  1  0.256000  0.034610  0.621370  1.0  0.1499
  C  C134  1  0.275000  0.027060  0.560790  1.0  -0.2205
  C  C135  1  0.206400  0.964940  0.530320  1.0  0.0791
  C  C136  1  0.217600  0.955440  0.464570  1.0  0.0792
  C  C137  1  0.105800  0.922020  0.431910  1.0  -0.2231
  C  C138  1  0.115800  0.918110  0.370580  1.0  0.168
  C  C139  1  0.337000  0.981350  0.432810  1.0  -0.2296
  C  C140  1  0.339100  0.974590  0.371820  1.0  0.1641
  C  C141  1  0.905400  0.560050  0.369800  1.0  0.1562
  C  C142  1  0.893000  0.569060  0.430630  1.0  -0.2222
  C  C143  1  0.722500  0.466500  0.368020  1.0  0.132
  C  C144  1  0.702500  0.472780  0.428350  1.0  -0.225
  C  C145  1  0.790100  0.524350  0.461570  1.0  0.0728
  C  C146  1  0.779000  0.532010  0.527610  1.0  0.0795
  C  C147  1  0.826100  0.600280  0.557360  1.0  -0.2115
  C  C148  1  0.822900  0.603540  0.618570  1.0  0.1697
  C  C149  1  0.726600  0.469450  0.563020  1.0  -0.2204
  C  C150  1  0.728600  0.476640  0.624010  1.0  0.1609
  C  C151  1  0.893600  0.575320  0.124130  1.0  0.1508
  C  C152  1  0.879700  0.587450  0.063620  1.0  -0.2391
  C  C153  1  0.744000  0.465390  0.121370  1.0  0.1509
  C  C154  1  0.725000  0.472940  0.060790  1.0  -0.2199
  C  C155  1  0.793600  0.535060  0.030320  1.0  0.0783
  C  C156  1  0.782400  0.544560  0.964570  1.0  0.0788
  C  C157  1  0.894200  0.577980  0.931910  1.0  -0.2232
  C  C158  1  0.884200  0.581890  0.870580  1.0  0.1683
  C  C159  1  0.663000  0.518650  0.932810  1.0  -0.2296
  C  C160  1  0.660900  0.525410  0.871820  1.0  0.1642
  N  N161  1  0.822000  0.009430  0.161720  1.0  -0.3902
  N  N162  1  0.776300  0.042360  0.847630  1.0  -0.3797
  N  N163  1  0.827500  0.015420  0.346540  1.0  -0.3835
  N  N164  1  0.770800  0.055420  0.659880  1.0  -0.3598
  N  N165  1  0.178000  0.490570  0.661720  1.0  -0.3901
  N  N166  1  0.223700  0.457640  0.347630  1.0  -0.3795
  N  N167  1  0.172500  0.484580  0.846540  1.0  -0.3833
  N  N168  1  0.229200  0.444580  0.159880  1.0  -0.359
  N  N169  1  0.178000  0.990570  0.838280  1.0  -0.3909
  N  N170  1  0.223700  0.957640  0.152370  1.0  -0.3774
  N  N171  1  0.172500  0.984580  0.653460  1.0  -0.3821
  N  N172  1  0.229200  0.944580  0.340120  1.0  -0.359
  N  N173  1  0.822000  0.509430  0.338280  1.0  -0.3915
  N  N174  1  0.776300  0.542360  0.652370  1.0  -0.3783
  N  N175  1  0.827500  0.515420  0.153460  1.0  -0.3816
  N  N176  1  0.770800  0.555420  0.840120  1.0  -0.3595
  F  F177  1  0.660160  0.258260  0.249430  1.0  -0.5818
  F  F178  1  0.345230  0.056600  0.251250  1.0  -0.5526
  F  F179  1  0.618070  0.007110  0.256160  1.0  -0.5613
  F  F180  1  0.806020  0.133170  0.254520  1.0  -0.6069
  F  F181  1  0.370490  0.224180  0.247650  1.0  -0.6143
  F  F182  1  0.104870  0.343050  0.255610  1.0  -0.5359
  F  F183  1  0.828020  0.387750  0.241660  1.0  -0.4964
  F  F184  1  0.051360  0.021580  0.252340  1.0  -0.5852
  F  F185  1  0.339840  0.241740  0.749430  1.0  -0.581
  F  F186  1  0.654770  0.443400  0.751250  1.0  -0.5526
  F  F187  1  0.381930  0.492890  0.756160  1.0  -0.5616
  F  F188  1  0.193980  0.366830  0.754520  1.0  -0.6056
  F  F189  1  0.629510  0.275820  0.747650  1.0  -0.6138
  F  F190  1  0.895130  0.156950  0.755610  1.0  -0.5356
  F  F191  1  0.171980  0.112250  0.741660  1.0  -0.4956
  F  F192  1  0.948640  0.478420  0.752340  1.0  -0.5843
  F  F193  1  0.339840  0.741740  0.750570  1.0  -0.5812
  F  F194  1  0.654770  0.943400  0.748750  1.0  -0.5527
  F  F195  1  0.381930  0.992890  0.743840  1.0  -0.5611
  F  F196  1  0.193980  0.866830  0.745480  1.0  -0.6059
  F  F197  1  0.629510  0.775820  0.752350  1.0  -0.6138
  F  F198  1  0.895130  0.656950  0.744390  1.0  -0.5353
  F  F199  1  0.171980  0.612250  0.758340  1.0  -0.4954
  F  F200  1  0.948640  0.978420  0.747660  1.0  -0.5843
  F  F201  1  0.660160  0.758260  0.250570  1.0  -0.5819
  F  F202  1  0.345230  0.556600  0.248750  1.0  -0.5527
  F  F203  1  0.618070  0.507110  0.243840  1.0  -0.561
  F  F204  1  0.806020  0.633170  0.245480  1.0  -0.6069
  F  F205  1  0.370490  0.724180  0.252350  1.0  -0.6144
  F  F206  1  0.104870  0.843050  0.244390  1.0  -0.5355
  F  F207  1  0.828020  0.887750  0.258340  1.0  -0.4966
  F  F208  1  0.051360  0.521580  0.247660  1.0  -0.5852
