# generated using pymatgen
data_Zn2H25C39NO7
_symmetry_space_group_name_H-M   'P 1'
_cell_length_a   11.98870000
_cell_length_b   18.63650000
_cell_length_c   17.98070000
_cell_angle_alpha   90.00000000
_cell_angle_beta   90.00000000
_cell_angle_gamma   90.00000000
_symmetry_Int_Tables_number   1
_chemical_formula_structural   Zn2H25C39NO7
_chemical_formula_sum   'Zn8 H100 C156 N4 O28'
_cell_volume   4017.38118693
_cell_formula_units_Z   4
loop_
 _symmetry_equiv_pos_site_id
 _symmetry_equiv_pos_as_xyz
  1  'x, y, z'
loop_
 _atom_site_type_symbol
 _atom_site_label
 _atom_site_symmetry_multiplicity
 _atom_site_fract_x
 _atom_site_fract_y
 _atom_site_fract_z
 _atom_site_occupancy
 _atom_site_charge
  Zn  Zn1  1  0.610390  0.991030  0.697580  1.0  1.0226
  Zn  Zn2  1  0.889610  0.008970  0.697580  1.0  1.0218
  Zn  Zn3  1  0.389610  0.991030  0.802420  1.0  1.0217
  Zn  Zn4  1  0.110390  0.008970  0.802420  1.0  1.0227
  Zn  Zn5  1  0.389610  0.008970  0.302420  1.0  1.0217
  Zn  Zn6  1  0.110390  0.991030  0.302420  1.0  1.0217
  Zn  Zn7  1  0.610390  0.008970  0.197580  1.0  1.0227
  Zn  Zn8  1  0.889610  0.991030  0.197580  1.0  1.0219
  H  H9  1  0.126000  0.207300  0.243300  1.0  0.1123
  H  H10  1  0.449500  0.077400  0.510300  1.0  0.0979
  H  H11  1  0.116600  0.764600  0.329600  1.0  0.0851
  H  H12  1  0.350900  0.138400  0.420300  1.0  0.1002
  H  H13  1  0.113900  0.641500  0.330700  1.0  0.1045
  H  H14  1  0.145300  0.409900  0.303800  1.0  0.1116
  H  H15  1  0.103500  0.173600  0.565100  1.0  0.1046
  H  H16  1  0.204200  0.115300  0.655200  1.0  0.0881
  H  H17  1  0.209700  0.143100  0.337000  1.0  0.0925
  H  H18  1  0.141900  0.532400  0.305500  1.0  0.0945
  H  H19  1  0.991400  0.339100  0.393600  1.0  0.1153
  H  H20  1  0.074500  0.273800  0.488500  1.0  0.1057
  H  H21  1  0.250000  0.000000  0.908820  1.0  0.39
  H  H22  1  0.374000  0.792700  0.243300  1.0  0.1125
  H  H23  1  0.050500  0.922600  0.510300  1.0  0.0979
  H  H24  1  0.383400  0.235400  0.329600  1.0  0.0846
  H  H25  1  0.149100  0.861600  0.420300  1.0  0.1008
  H  H26  1  0.386100  0.358500  0.330700  1.0  0.1028
  H  H27  1  0.354700  0.590100  0.303800  1.0  0.111
  H  H28  1  0.396500  0.826400  0.565100  1.0  0.1053
  H  H29  1  0.295800  0.884700  0.655200  1.0  0.0884
  H  H30  1  0.290300  0.856900  0.337000  1.0  0.0932
  H  H31  1  0.358100  0.467600  0.305500  1.0  0.095
  H  H32  1  0.508600  0.660900  0.393600  1.0  0.1151
  H  H33  1  0.425500  0.726200  0.488500  1.0  0.1052
  H  H34  1  0.874000  0.207300  0.256700  1.0  0.1116
  H  H35  1  0.550500  0.077400  0.989700  1.0  0.0977
  H  H36  1  0.883400  0.764600  0.170400  1.0  0.0839
  H  H37  1  0.649100  0.138400  0.079700  1.0  0.1008
  H  H38  1  0.886100  0.641500  0.169300  1.0  0.1024
  H  H39  1  0.854700  0.409900  0.196200  1.0  0.1116
  H  H40  1  0.896500  0.173600  0.934900  1.0  0.1055
  H  H41  1  0.795800  0.115300  0.844800  1.0  0.0888
  H  H42  1  0.790300  0.143100  0.163000  1.0  0.0924
  H  H43  1  0.858100  0.532400  0.194500  1.0  0.0954
  H  H44  1  0.008600  0.339100  0.106400  1.0  0.1152
  H  H45  1  0.925500  0.273800  0.011500  1.0  0.1059
  H  H46  1  0.750000  0.000000  0.591180  1.0  0.3908
  H  H47  1  0.626000  0.792700  0.256700  1.0  0.1118
  H  H48  1  0.949500  0.922600  0.989700  1.0  0.0977
  H  H49  1  0.616600  0.235400  0.170400  1.0  0.0841
  H  H50  1  0.850900  0.861600  0.079700  1.0  0.1007
  H  H51  1  0.613900  0.358500  0.169300  1.0  0.1035
  H  H52  1  0.645300  0.590100  0.196200  1.0  0.1116
  H  H53  1  0.603500  0.826400  0.934900  1.0  0.1047
  H  H54  1  0.704200  0.884700  0.844800  1.0  0.0885
  H  H55  1  0.709700  0.856900  0.163000  1.0  0.0934
  H  H56  1  0.641900  0.467600  0.194500  1.0  0.0945
  H  H57  1  0.491400  0.660900  0.106400  1.0  0.1149
  H  H58  1  0.574500  0.726200  0.011500  1.0  0.1051
  H  H59  1  0.874000  0.792700  0.756700  1.0  0.1118
  H  H60  1  0.550500  0.922600  0.489700  1.0  0.0978
  H  H61  1  0.883400  0.235400  0.670400  1.0  0.0839
  H  H62  1  0.649100  0.861600  0.579700  1.0  0.1011
  H  H63  1  0.886100  0.358500  0.669300  1.0  0.1024
  H  H64  1  0.854700  0.590100  0.696200  1.0  0.1111
  H  H65  1  0.896500  0.826400  0.434900  1.0  0.1053
  H  H66  1  0.795800  0.884700  0.344800  1.0  0.0888
  H  H67  1  0.790300  0.856900  0.663000  1.0  0.0931
  H  H68  1  0.858100  0.467600  0.694500  1.0  0.0954
  H  H69  1  0.008600  0.660900  0.606400  1.0  0.1151
  H  H70  1  0.925500  0.726200  0.511500  1.0  0.1053
  H  H71  1  0.750000  0.000000  0.091180  1.0  0.3908
  H  H72  1  0.626000  0.207300  0.756700  1.0  0.1115
  H  H73  1  0.949500  0.077400  0.489700  1.0  0.0979
  H  H74  1  0.616600  0.764600  0.670400  1.0  0.0843
  H  H75  1  0.850900  0.138400  0.579700  1.0  0.1004
  H  H76  1  0.613900  0.641500  0.669300  1.0  0.1029
  H  H77  1  0.645300  0.409900  0.696200  1.0  0.1119
  H  H78  1  0.603500  0.173600  0.434900  1.0  0.105
  H  H79  1  0.704200  0.115300  0.344800  1.0  0.0886
  H  H80  1  0.709700  0.143100  0.663000  1.0  0.0929
  H  H81  1  0.641900  0.532400  0.694500  1.0  0.095
  H  H82  1  0.491400  0.339100  0.606400  1.0  0.1154
  H  H83  1  0.574500  0.273800  0.511500  1.0  0.1058
  H  H84  1  0.126000  0.792700  0.743300  1.0  0.1123
  H  H85  1  0.449500  0.922600  0.010300  1.0  0.0978
  H  H86  1  0.116600  0.235400  0.829600  1.0  0.0847
  H  H87  1  0.350900  0.861600  0.920300  1.0  0.1001
  H  H88  1  0.113900  0.358500  0.830700  1.0  0.1039
  H  H89  1  0.145300  0.590100  0.803800  1.0  0.1116
  H  H90  1  0.103500  0.826400  0.065100  1.0  0.1049
  H  H91  1  0.204200  0.884700  0.155200  1.0  0.0879
  H  H92  1  0.209700  0.856900  0.837000  1.0  0.0933
  H  H93  1  0.141900  0.467600  0.805500  1.0  0.0944
  H  H94  1  0.991400  0.660900  0.893600  1.0  0.1151
  H  H95  1  0.074500  0.726200  0.988500  1.0  0.1051
  H  H96  1  0.250000  0.000000  0.408820  1.0  0.39
  H  H97  1  0.374000  0.207300  0.743300  1.0  0.1125
  H  H98  1  0.050500  0.077400  0.010300  1.0  0.0978
  H  H99  1  0.383400  0.764600  0.829600  1.0  0.0848
  H  H100  1  0.149100  0.138400  0.920300  1.0  0.1008
  H  H101  1  0.386100  0.641500  0.830700  1.0  0.1029
  H  H102  1  0.354700  0.409900  0.803800  1.0  0.1113
  H  H103  1  0.396500  0.173600  0.065100  1.0  0.105
  H  H104  1  0.295800  0.115300  0.155200  1.0  0.0882
  H  H105  1  0.290300  0.143100  0.837000  1.0  0.0923
  H  H106  1  0.358100  0.532400  0.805500  1.0  0.095
  H  H107  1  0.508600  0.339100  0.893600  1.0  0.1151
  H  H108  1  0.425500  0.273800  0.988500  1.0  0.1058
  C  C109  1  0.401500  0.052400  0.650700  1.0  0.6855
  C  C110  1  0.337300  0.090000  0.592300  1.0  -0.1726
  C  C111  1  0.116300  0.221400  0.292500  1.0  -0.1702
  C  C112  1  0.051900  0.280400  0.308500  1.0  0.1415
  C  C113  1  0.380300  0.097100  0.521700  1.0  -0.0178
  C  C114  1  0.069100  0.740100  0.297500  1.0  -0.0257
  C  C115  1  0.320500  0.133600  0.467600  1.0  -0.1215
  C  C116  1  0.216400  0.163300  0.482300  1.0  0.0507
  C  C117  1  0.155000  0.202200  0.423300  1.0  0.0328
  C  C118  1  0.067900  0.665900  0.297700  1.0  -0.1463
  C  C119  1  0.085800  0.434100  0.282100  1.0  -0.1951
  C  C120  1  0.173400  0.155000  0.553700  1.0  -0.1283
  C  C121  1  0.233700  0.119600  0.607500  1.0  0.0024
  C  C122  1  0.166700  0.183000  0.349000  1.0  -0.0776
  C  C123  1  0.083800  0.507900  0.282400  1.0  -0.0881
  C  C124  1  0.036000  0.299800  0.382100  1.0  -0.1727
  C  C125  1  0.086600  0.260700  0.439200  1.0  -0.1063
  C  C126  1  0.098500  0.947600  0.650700  1.0  0.6851
  C  C127  1  0.162700  0.910000  0.592300  1.0  -0.1731
  C  C128  1  0.383700  0.778600  0.292500  1.0  -0.1747
  C  C129  1  0.448100  0.719600  0.308500  1.0  0.142
  C  C130  1  0.119700  0.902900  0.521700  1.0  -0.017
  C  C131  1  0.430900  0.259900  0.297500  1.0  -0.0259
  C  C132  1  0.179500  0.866400  0.467600  1.0  -0.1222
  C  C133  1  0.283600  0.836700  0.482300  1.0  0.0511
  C  C134  1  0.345000  0.797800  0.423300  1.0  0.0331
  C  C135  1  0.432100  0.334100  0.297700  1.0  -0.1486
  C  C136  1  0.414200  0.565900  0.282100  1.0  -0.1934
  C  C137  1  0.326600  0.845000  0.553700  1.0  -0.1283
  C  C138  1  0.266300  0.880400  0.607500  1.0  0.0012
  C  C139  1  0.333333  0.817000  0.349000  1.0  -0.0806
  C  C140  1  0.416200  0.492100  0.282400  1.0  -0.0878
  C  C141  1  0.464000  0.700200  0.382100  1.0  -0.1703
  C  C142  1  0.413400  0.739300  0.439200  1.0  -0.107
  C  C143  1  0.598500  0.052400  0.849300  1.0  0.686
  C  C144  1  0.662700  0.090000  0.907700  1.0  -0.1734
  C  C145  1  0.883700  0.221400  0.207500  1.0  -0.1693
  C  C146  1  0.948100  0.280400  0.191500  1.0  0.1416
  C  C147  1  0.619700  0.097100  0.978300  1.0  -0.0165
  C  C148  1  0.930900  0.740100  0.202500  1.0  -0.0252
  C  C149  1  0.679500  0.133600  0.032400  1.0  -0.1226
  C  C150  1  0.783600  0.163300  0.017700  1.0  0.0503
  C  C151  1  0.845000  0.202200  0.076700  1.0  0.0325
  C  C152  1  0.932100  0.665900  0.202300  1.0  -0.1475
  C  C153  1  0.914200  0.434100  0.217900  1.0  -0.1941
  C  C154  1  0.826600  0.155000  0.946300  1.0  -0.1284
  C  C155  1  0.766300  0.119600  0.892500  1.0  0.0021
  C  C156  1  0.833300  0.183000  0.151000  1.0  -0.0762
  C  C157  1  0.916200  0.507900  0.217600  1.0  -0.0868
  C  C158  1  0.964000  0.299800  0.117900  1.0  -0.173
  C  C159  1  0.913400  0.260700  0.060800  1.0  -0.1064
  C  C160  1  0.901500  0.947600  0.849300  1.0  0.686
  C  C161  1  0.837300  0.910000  0.907700  1.0  -0.1737
  C  C162  1  0.616300  0.778600  0.207500  1.0  -0.174
  C  C163  1  0.551900  0.719600  0.191500  1.0  0.1416
  C  C164  1  0.880300  0.902900  0.978300  1.0  -0.0177
  C  C165  1  0.569100  0.259900  0.202500  1.0  -0.0258
  C  C166  1  0.820500  0.866400  0.032400  1.0  -0.1212
  C  C167  1  0.716400  0.836700  0.017700  1.0  0.0508
  C  C168  1  0.655000  0.797800  0.076700  1.0  0.0325
  C  C169  1  0.567900  0.334100  0.202300  1.0  -0.1476
  C  C170  1  0.585800  0.565900  0.217900  1.0  -0.1921
  C  C171  1  0.673400  0.845000  0.946300  1.0  -0.128
  C  C172  1  0.733700  0.880400  0.892500  1.0  0.0027
  C  C173  1  0.666667  0.817000  0.151000  1.0  -0.0799
  C  C174  1  0.583800  0.492100  0.217600  1.0  -0.0881
  C  C175  1  0.536000  0.700200  0.117900  1.0  -0.1726
  C  C176  1  0.586600  0.739300  0.060800  1.0  -0.1042
  C  C177  1  0.598500  0.947600  0.349300  1.0  0.6857
  C  C178  1  0.662700  0.910000  0.407700  1.0  -0.1739
  C  C179  1  0.883700  0.778600  0.707500  1.0  -0.1692
  C  C180  1  0.948100  0.719600  0.691500  1.0  0.1416
  C  C181  1  0.619700  0.902900  0.478300  1.0  -0.0168
  C  C182  1  0.930900  0.259900  0.702500  1.0  -0.0259
  C  C183  1  0.679500  0.866400  0.532400  1.0  -0.1198
  C  C184  1  0.783600  0.836700  0.517700  1.0  0.0505
  C  C185  1  0.845000  0.797800  0.576700  1.0  0.0322
  C  C186  1  0.932100  0.334100  0.702300  1.0  -0.1493
  C  C187  1  0.914200  0.565900  0.717900  1.0  -0.1927
  C  C188  1  0.826600  0.845000  0.446300  1.0  -0.1286
  C  C189  1  0.766300  0.880400  0.392500  1.0  0.0019
  C  C190  1  0.833300  0.817000  0.651000  1.0  -0.0752
  C  C191  1  0.916200  0.492100  0.717600  1.0  -0.0874
  C  C192  1  0.964000  0.700200  0.617900  1.0  -0.1727
  C  C193  1  0.913400  0.739300  0.560800  1.0  -0.1048
  C  C194  1  0.901500  0.052400  0.349300  1.0  0.6862
  C  C195  1  0.837300  0.090000  0.407700  1.0  -0.1732
  C  C196  1  0.616300  0.221400  0.707500  1.0  -0.1739
  C  C197  1  0.551900  0.280400  0.691500  1.0  0.1418
  C  C198  1  0.880300  0.097100  0.478300  1.0  -0.0177
  C  C199  1  0.569100  0.740100  0.702500  1.0  -0.0257
  C  C200  1  0.820500  0.133600  0.532400  1.0  -0.1214
  C  C201  1  0.716400  0.163300  0.517700  1.0  0.0505
  C  C202  1  0.655000  0.202200  0.576700  1.0  0.0328
  C  C203  1  0.567900  0.665900  0.702300  1.0  -0.1482
  C  C204  1  0.585800  0.434100  0.717900  1.0  -0.1919
  C  C205  1  0.673400  0.155000  0.446300  1.0  -0.1281
  C  C206  1  0.733700  0.119600  0.392500  1.0  0.0028
  C  C207  1  0.666667  0.183000  0.651000  1.0  -0.0813
  C  C208  1  0.583800  0.507900  0.717600  1.0  -0.0876
  C  C209  1  0.536000  0.299800  0.617900  1.0  -0.1731
  C  C210  1  0.586600  0.260700  0.560800  1.0  -0.1062
  C  C211  1  0.401500  0.947600  0.150700  1.0  0.6853
  C  C212  1  0.337300  0.910000  0.092300  1.0  -0.1731
  C  C213  1  0.116300  0.778600  0.792500  1.0  -0.1706
  C  C214  1  0.051900  0.719600  0.808500  1.0  0.1414
  C  C215  1  0.380300  0.902900  0.021700  1.0  -0.0179
  C  C216  1  0.069100  0.259900  0.797500  1.0  -0.0258
  C  C217  1  0.320500  0.866400  0.967600  1.0  -0.1212
  C  C218  1  0.216400  0.836700  0.982300  1.0  0.0512
  C  C219  1  0.155000  0.797800  0.923300  1.0  0.033
  C  C220  1  0.067900  0.334100  0.797700  1.0  -0.1463
  C  C221  1  0.085800  0.565900  0.782100  1.0  -0.1921
  C  C222  1  0.173400  0.845000  0.053700  1.0  -0.1277
  C  C223  1  0.233700  0.880400  0.107500  1.0  0.0023
  C  C224  1  0.166700  0.817000  0.849000  1.0  -0.0764
  C  C225  1  0.083800  0.492100  0.782400  1.0  -0.0884
  C  C226  1  0.036000  0.700200  0.882100  1.0  -0.171
  C  C227  1  0.086600  0.739300  0.939200  1.0  -0.1071
  C  C228  1  0.098500  0.052400  0.150700  1.0  0.6854
  C  C229  1  0.162700  0.090000  0.092300  1.0  -0.1726
  C  C230  1  0.383700  0.221400  0.792500  1.0  -0.1744
  C  C231  1  0.448100  0.280400  0.808500  1.0  0.1418
  C  C232  1  0.119700  0.097100  0.021700  1.0  -0.0168
  C  C233  1  0.430900  0.740100  0.797500  1.0  -0.0252
  C  C234  1  0.179500  0.133600  0.967600  1.0  -0.123
  C  C235  1  0.283600  0.163300  0.982300  1.0  0.0508
  C  C236  1  0.345000  0.202200  0.923300  1.0  0.0328
  C  C237  1  0.432100  0.665900  0.797700  1.0  -0.1467
  C  C238  1  0.414200  0.434100  0.782100  1.0  -0.1959
  C  C239  1  0.326600  0.155000  0.053700  1.0  -0.1285
  C  C240  1  0.266300  0.119600  0.107500  1.0  0.0016
  C  C241  1  0.333333  0.183000  0.849000  1.0  -0.0819
  C  C242  1  0.416200  0.507900  0.782400  1.0  -0.0875
  C  C243  1  0.464000  0.299800  0.882100  1.0  -0.1711
  C  C244  1  0.413400  0.260700  0.939200  1.0  -0.1055
  C  C245  1  0.000000  0.395800  0.250000  1.0  0.1614
  C  C246  1  0.000000  0.626800  0.250000  1.0  0.0527
  C  C247  1  0.000000  0.858700  0.250000  1.0  0.6864
  C  C248  1  0.000000  0.547100  0.250000  1.0  0.0072
  C  C249  1  0.000000  0.778200  0.250000  1.0  -0.162
  C  C250  1  0.500000  0.604200  0.250000  1.0  0.1622
  C  C251  1  0.500000  0.373200  0.250000  1.0  0.0531
  C  C252  1  0.500000  0.141300  0.250000  1.0  0.6864
  C  C253  1  0.500000  0.452900  0.250000  1.0  0.0066
  C  C254  1  0.500000  0.221800  0.250000  1.0  -0.1616
  C  C255  1  0.000000  0.604200  0.750000  1.0  0.1622
  C  C256  1  0.000000  0.373200  0.750000  1.0  0.0531
  C  C257  1  0.000000  0.141300  0.750000  1.0  0.6864
  C  C258  1  0.000000  0.452900  0.750000  1.0  0.0066
  C  C259  1  0.000000  0.221800  0.750000  1.0  -0.1616
  C  C260  1  0.500000  0.395800  0.750000  1.0  0.1614
  C  C261  1  0.500000  0.626800  0.750000  1.0  0.0526
  C  C262  1  0.500000  0.858700  0.750000  1.0  0.6864
  C  C263  1  0.500000  0.547100  0.750000  1.0  0.0072
  C  C264  1  0.500000  0.778200  0.750000  1.0  -0.162
  N  N265  1  0.000000  0.319600  0.250000  1.0  -0.1079
  N  N266  1  0.500000  0.680400  0.250000  1.0  -0.1085
  N  N267  1  0.000000  0.680400  0.750000  1.0  -0.1078
  N  N268  1  0.500000  0.319600  0.750000  1.0  -0.1086
  O  O269  1  0.494800  0.026580  0.632310  1.0  -0.6164
  O  O270  1  0.077700  0.889500  0.283680  1.0  -0.6008
  O  O271  1  0.359800  0.049000  0.714580  1.0  -0.6161
  O  O272  1  0.005200  0.973420  0.632310  1.0  -0.616
  O  O273  1  0.422300  0.110500  0.283680  1.0  -0.5997
  O  O274  1  0.140200  0.951000  0.714580  1.0  -0.6151
  O  O275  1  0.505200  0.026580  0.867690  1.0  -0.6166
  O  O276  1  0.922300  0.889500  0.216320  1.0  -0.6
  O  O277  1  0.640200  0.049000  0.785420  1.0  -0.6158
  O  O278  1  0.994800  0.973420  0.867690  1.0  -0.6165
  O  O279  1  0.577700  0.110500  0.216320  1.0  -0.5999
  O  O280  1  0.859800  0.951000  0.785420  1.0  -0.6154
  O  O281  1  0.505200  0.973420  0.367690  1.0  -0.6163
  O  O282  1  0.922300  0.110500  0.716320  1.0  -0.5995
  O  O283  1  0.640200  0.951000  0.285420  1.0  -0.6158
  O  O284  1  0.994800  0.026580  0.367690  1.0  -0.6166
  O  O285  1  0.577700  0.889500  0.716320  1.0  -0.6007
  O  O286  1  0.859800  0.049000  0.285420  1.0  -0.6155
  O  O287  1  0.494800  0.973420  0.132310  1.0  -0.6162
  O  O288  1  0.077700  0.110500  0.783680  1.0  -0.6001
  O  O289  1  0.359800  0.951000  0.214580  1.0  -0.6161
  O  O290  1  0.005200  0.026580  0.132310  1.0  -0.6164
  O  O291  1  0.422300  0.889500  0.783680  1.0  -0.6001
  O  O292  1  0.140200  0.049000  0.214580  1.0  -0.6154
  O  O293  1  0.750000  0.000000  0.646800  1.0  -0.8105
  O  O294  1  0.250000  0.000000  0.853200  1.0  -0.8097
  O  O295  1  0.250000  0.000000  0.353200  1.0  -0.8098
  O  O296  1  0.750000  0.000000  0.146800  1.0  -0.8105
